data_PCOD8078336
_publ_section_title
;
Structure prediction by ZEFSAII (Michael W. Deem and Ramdas Pophale) SiO2 
 PCOD8078336
Probable space group: C 2/M
;
_chemical_formula_sum "Si O2"
_cell_formula_units_Z 64
_cell_length_a 5.247494
_cell_length_b 27.762353
_cell_length_c 25.920526
_cell_angle_alpha 90.000000
_cell_angle_beta 89.902972
_cell_angle_gamma 90.000000
_cell_volume 3776.168893
_symmetry_space_group_name_H-M "C 2/M"
_symmetry_group_IT_number 12
_symmetry_cell_setting 'monoclinic'
loop_
_space_group_symop_operation_xyz
x,y,z
-x,y,-z
-x,-y,-z
x,-y,z
1/2+x,1/2+y,z
1/2-x,1/2+y,-z
1/2-x,1/2-y,-z
1/2+x,1/2-y,z
loop_
_atom_site_type_symbol
_atom_site_label
_atom_site_fract_x
_atom_site_fract_y
_atom_site_fract_z
Si Si1 0.248901 0.443304 0.530976
Si Si2 0.779891 0.379377 0.370175
Si Si3 0.749775 0.442551 0.029140
Si Si4 0.249687 0.557223 0.854579
Si Si5 0.750228 0.942754 0.204943
Si Si6 0.782989 0.269779 0.396230
Si Si7 0.218729 0.880459 0.696061
Si Si8 0.209318 0.228429 0.718886
O O1 0.500000 0.427405 0.500000
O O2 0.243463 0.500000 0.540618
O O3 0.254029 0.418968 0.586314
O O4 0.000000 0.426044 0.500000
O O5 0.752254 0.326776 0.394721
O O6 0.558560 0.387394 0.328640
O O7 0.058218 0.385924 0.345750
O O8 0.749949 0.500000 0.029430
O O9 0.749202 0.422248 0.087337
O O10 0.500000 0.422948 0.000000
O O11 0.000000 0.422925 0.000000
O O12 0.251870 0.500000 0.856335
O O13 0.499725 0.576171 0.824939
O O14 0.997302 0.575795 0.825794
O O15 0.743969 0.921660 0.262015
O O16 0.750730 0.000000 0.210102
O O17 0.542125 0.245808 0.425773
O O18 0.818083 0.245777 0.340023
O O19 0.237947 0.828647 0.723102
O O20 0.449972 0.253751 0.746820
#
# Coordination Sequence:
#
# PCOD8078336 Si02
#       8
#     8   8   8   8   8   8   8   8
#     4  10  23  43  60  75  98 127 157 192 243 291
#     4  12  21  33  58  79  94 122 158 201 231 276
#     4   9  15  23  40  64  81 104 162 223 244 270
#     4   9  17  31  44  56  88 136 163 193 255 287
#     4  10  21  33  43  61  98 136 164 194 230 287
#     4  10  16  30  49  75  98 123 143 182 232 284
#     4  12  21  31  51  79  96 125 166 196 226 275
#     4  10  16  30  47  70  97 124 150 189 228 278
#
# _framework density 16.948395000000001
#
# number of rings (size 3 to 8) (size 9 to 14) (size 15 to 20)
#    0.000    1.750    5.000    2.250    0.000    4.000 
#    0.000    0.000    0.000    2.250    0.000    0.000 
#    0.000    0.000    0.000    0.000    0.000   43.750 
#
# Total GULP energy -396759.006117 kJ/mol
# GULP energy per Si atom -12398.718941 kJ/mol
# Density = 1.690982 g / cm^3
# Si number density = 16.948395 Si / 1000 Ang^3
#
#
#
# Elastic Constant Matrix: (Units=GPa)
#
#
# Indices 1 2 3 4 5 6 
#
# 1 142.4351 18.3914 29.3133 0.0000 -0.2622 0.0000
# 2 18.3914 36.2187 26.4280 0.0000 -0.6930 0.0000
# 3 29.3133 26.4280 60.1519 0.0000 -1.8378 0.0000
# 4 0.0000 0.0000 0.0000 0.3142 0.0000 -0.2962
# 5 -0.2622 -0.6930 -1.8378 0.0000 12.9640 0.0000
# 6 0.0000 0.0000 0.0000 -0.2962 0.0000 14.1921
#
#
#
# Elastic Compliance Matrix: (Units=1/GPa)
#
#
# Indices 1 2 3 4 5 6 
#
# 1 0.007881 -0.001764 -0.003077 0.000000 -0.000371 0.000000
# 2 -0.001764 0.041034 -0.017178 0.000000 -0.000277 0.000000
# 3 -0.003077 -0.017178 0.025753 0.000000 0.002670 0.000000
# 4 0.000000 0.000000 0.000000 3.246184 0.000000 0.067759
# 5 -0.000371 -0.000277 0.002670 0.000000 0.077493 0.000000
# 6 0.000000 0.000000 0.000000 0.067759 0.000000 0.071876
#
#
# Mechanical properties :
#
#
# Convention : Reuss Voigt Hill
#
# Bulk Modulus (GPa) = 32.64624 43.00792 37.82708
# Shear Modulus (GPa) = 1.41865 16.47227 8.94546
#
# Velocity S-wave (km/s) = 0.91589 3.12093 2.29990
# Velocity P-wave (km/s) = 4.51912 6.19821 5.42403
#
# Compressibility (1/GPa) = 0.03063140
#
# Stress axis : x y z
#
# Youngs Moduli (GPa) = 126.88657 24.36974 38.83077
#
# Poissons Ratio (x) = 0.04298 0.11948
# Poissons Ratio (y) = 0.22380 0.66702
# Poissons Ratio (z) = 0.39043 0.41862
#
# Static dielectric constant tensor:
#      x y z
#    x 4.437170 0.000000 0.030980 
#    y 0.000000 2.884230 0.000000 
#    z 0.030980 0.000000 2.914070 
# 
# 
# High freq. dielectric constant tensor:
#      x y z
#    x 1.690660 0.000000 0.000640 
#    y 0.000000 1.616790 0.000000 
#    z 0.000640 0.000000 1.617580 
# 
# From -- ./inp_files/298297.got.cif
#   From: 2010.06.25/outbox.cif.g09.slc.cpg/sg12_150_cif.got.tgz:298297.got - 2010.06.28 00:19:55.
