data_PCOD8078366
_publ_section_title
;
Structure prediction by ZEFSAII (Michael W. Deem and Ramdas Pophale) SiO2 
 PCOD8078366
Probable space group: C 2/M
;
_chemical_formula_sum "Si O2"
_cell_formula_units_Z 48
_cell_length_a 21.373110
_cell_length_b 19.099171
_cell_length_c 19.549337
_cell_angle_alpha 90.000000
_cell_angle_beta 20.094587
_cell_angle_gamma 90.000000
_cell_volume 2741.768202
_symmetry_space_group_name_H-M "C 2/M"
_symmetry_group_IT_number 12
_symmetry_cell_setting 'monoclinic'
loop_
_space_group_symop_operation_xyz
x,y,z
-x,y,-z
-x,-y,-z
x,-y,z
1/2+x,1/2+y,z
1/2-x,1/2+y,-z
1/2-x,1/2-y,-z
1/2+x,1/2-y,z
loop_
_atom_site_type_symbol
_atom_site_label
_atom_site_fract_x
_atom_site_fract_y
_atom_site_fract_z
Si Si1 0.985781 0.578948 0.169065
Si Si2 0.367315 0.762669 0.780930
Si Si3 0.942962 0.713116 0.982058
Si Si4 0.834908 0.921445 0.404899
Si Si5 0.278196 0.634364 0.968616
Si Si6 0.239922 0.783621 0.585587
O O1 0.005973 0.500000 0.120402
O O2 0.034303 0.630451 0.056503
O O3 0.781082 0.593227 0.406662
O O4 0.120332 0.590167 0.094720
O O5 0.331198 0.702118 0.871852
O O6 0.584814 0.767156 0.547412
O O7 0.264296 0.740620 0.816471
O O8 0.294841 0.837503 0.883321
O O9 0.062396 0.754865 0.804634
O O10 0.000000 0.730492 0.000000
O O11 0.779047 0.867209 0.403035
O O12 0.047941 0.915314 0.202813
O O13 0.793951 0.000000 0.420524
O O14 0.250000 0.750000 0.500000
#
# Coordination Sequence:
#
# PCOD8078366 Si02
#       6
#     8   8   8   8   8   8
#     4  10  20  33  51  81 116 145 179 221 268 322
#     4  10  18  30  55  77 104 141 181 229 270 311
#     4  11  23  36  54  80 110 152 191 219 264 321
#     4  11  20  30  52  84 110 135 170 219 280 328
#     4  10  16  30  51  81 107 135 175 227 278 313
#     4  12  18  36  58  79 108 140 178 237 277 315
#
# _framework density 17.50695
#
# number of rings (size 3 to 8) (size 9 to 14) (size 15 to 20)
#    0.000    1.333    6.667    1.500    0.000    1.000 
#    0.000    0.000    0.000    0.500    0.000   10.500 
#    0.000    0.000    0.000    0.000    0.000    0.000 
#
# Total GULP energy -297543.452293 kJ/mol
# GULP energy per Si atom -12397.643846 kJ/mol
# Density = 1.746710 g / cm^3
# Si number density = 17.506950 Si / 1000 Ang^3
#
#
#
# Elastic Constant Matrix: (Units=GPa)
#
#
# Indices 1 2 3 4 5 6 
#
# 1 78.2113 33.9515 18.7402 -0.0146 -8.2169 -0.0005
# 2 33.9515 79.6904 18.1508 -0.0514 -2.5225 -0.0310
# 3 18.7402 18.1508 56.3144 -0.0732 -21.8409 0.0432
# 4 -0.0146 -0.0514 -0.0732 24.3011 0.0577 -6.5261
# 5 -8.2169 -2.5225 -21.8409 0.0577 28.8503 -0.0056
# 6 -0.0005 -0.0310 0.0432 -6.5261 -0.0056 10.4047
#
#
#
# Elastic Compliance Matrix: (Units=1/GPa)
#
#
# Indices 1 2 3 4 5 6 
#
# 1 0.016374 -0.006322 -0.002572 -0.000022 0.002163 -0.000020
# 2 -0.006322 0.016170 -0.004612 0.000052 -0.003878 0.000097
# 3 -0.002572 -0.004612 0.027831 -0.000008 0.019934 -0.000124
# 4 -0.000022 0.000052 -0.000008 0.049487 -0.000101 0.031040
# 5 0.002163 -0.003878 0.019934 -0.000101 0.050030 -0.000131
# 6 -0.000020 0.000097 -0.000124 0.031040 -0.000131 0.115580
#
#
# Mechanical properties :
#
#
# Convention : Reuss Voigt Hill
#
# Bulk Modulus (GPa) = 29.97385 39.54456 34.75920
# Shear Modulus (GPa) = 15.94371 22.26944 19.10658
#
# Velocity S-wave (km/s) = 3.02107 3.57043 3.30717
# Velocity P-wave (km/s) = 5.41548 6.29557 5.87204
#
# Compressibility (1/GPa) = 0.03336241
#
# Stress axis : x y z
#
# Youngs Moduli (GPa) = 61.07368 61.84442 35.93105
#
# Poissons Ratio (x) = 0.39095 0.09242
# Poissons Ratio (y) = 0.38608 0.16572
# Poissons Ratio (z) = 0.15710 0.28524
#
# Static dielectric constant tensor:
#      x y z
#    x 3.061160 -0.000330 -0.477400 
#    y -0.000330 3.392730 0.000850 
#    z -0.477400 0.000850 3.421200 
# 
# 
# High freq. dielectric constant tensor:
#      x y z
#    x 1.638210 -0.000010 -0.039450 
#    y -0.000010 1.680640 0.000030 
#    z -0.039450 0.000030 1.674880 
# 
# From -- ./inp_files/285325.got.cif
#   From: 2010.06.25/outbox.cif.g09.slc.cpg/sg12_143_cif.got.tgz:285325.got - 2010.06.28 00:19:55.
