data_PCOD8078469
_publ_section_title
;
Structure prediction by ZEFSAII (Michael W. Deem and Ramdas Pophale) SiO2 
 PCOD8078469
Probable space group: C 2/M
;
_chemical_formula_sum "Si O2"
_cell_formula_units_Z 64
_cell_length_a 22.681978
_cell_length_b 9.279779
_cell_length_c 19.009653
_cell_angle_alpha 90.000000
_cell_angle_beta 96.694295
_cell_angle_gamma 90.000000
_cell_volume 3973.943628
_symmetry_space_group_name_H-M "C 2/M"
_symmetry_group_IT_number 12
_symmetry_cell_setting 'monoclinic'
loop_
_space_group_symop_operation_xyz
x,y,z
-x,y,-z
-x,-y,-z
x,-y,z
1/2+x,1/2+y,z
1/2-x,1/2+y,-z
1/2-x,1/2-y,-z
1/2+x,1/2-y,z
loop_
_atom_site_type_symbol
_atom_site_label
_atom_site_fract_x
_atom_site_fract_y
_atom_site_fract_z
Si Si1 0.000947 0.662932 0.303662
Si Si2 0.570380 0.840097 0.996451
Si Si3 0.976705 0.334293 0.149426
Si Si4 0.406499 0.329462 0.871609
Si Si5 0.793900 0.667470 0.597804
Si Si6 0.369728 0.833246 0.738414
Si Si7 0.333422 0.331685 0.471490
Si Si8 0.041599 0.170051 0.568525
O O1 0.996656 0.500000 0.331247
O O2 0.068285 0.700631 0.291759
O O3 0.958601 0.684629 0.228701
O O4 0.979122 0.768150 0.360545
O O5 0.577552 0.805347 0.913222
O O6 0.594360 0.000000 0.016550
O O7 0.500000 0.830099 0.000000
O O8 0.606636 0.729361 0.050982
O O9 0.000319 0.500000 0.141862
O O10 0.028094 0.220547 0.140385
O O11 0.400549 0.500000 0.870798
O O12 0.361526 0.262249 0.807719
O O13 0.804837 0.500000 0.584130
O O14 0.816370 0.709239 0.678517
O O15 0.724433 0.708168 0.582702
O O16 0.832241 0.752765 0.545993
O O17 0.366813 0.000000 0.760063
O O18 0.336832 0.500000 0.488647
O O19 0.391027 0.280085 0.436688
O O20 0.000000 0.228504 0.500000
O O21 0.036297 0.000000 0.573765
#
# Coordination Sequence:
#
# PCOD8078469 Si02
#       8
#     8   8   8   8   8   8   8   8
#     4   9  17  28  42  60  80 104 139 176 201 232
#     4   8  13  23  37  50  72 108 140 165 199 240
#     4   8  15  27  39  52  75 108 141 171 203 238
#     4  10  17  22  33  56  82 106 135 169 202 241
#     4   9  17  30  48  64  78 103 139 175 207 241
#     4   9  17  29  42  57  80 109 140 172 207 243
#     4   9  18  31  45  63  85 106 133 170 208 246
#     4  10  20  31  42  59  86 115 136 159 200 250
#
# _framework density 16.104908999999999
#
# number of rings (size 3 to 8) (size 9 to 14) (size 15 to 20)
#    0.000    3.000    0.000    3.375    0.000    5.500 
#    0.000    0.000    0.000    0.000    0.000    0.000 
#    0.000    1.000    0.000    2.000    0.000    3.750 
#
# Total GULP energy -396544.935847 kJ/mol
# GULP energy per Si atom -12392.029245 kJ/mol
# Density = 1.606825 g / cm^3
# Si number density = 16.104909 Si / 1000 Ang^3
#
#
#
# Elastic Constant Matrix: (Units=GPa)
#
#
# Indices 1 2 3 4 5 6 
#
# 1 46.6130 24.0417 41.9834 0.0000 8.9950 0.0000
# 2 24.0417 66.3270 52.5805 0.0000 12.6487 0.0000
# 3 41.9834 52.5805 142.0991 0.0000 24.4522 0.0000
# 4 0.0000 0.0000 0.0000 28.3054 0.0000 0.3519
# 5 8.9950 12.6487 24.4522 0.0000 19.3314 0.0000
# 6 0.0000 0.0000 0.0000 0.3519 0.0000 11.6899
#
#
#
# Elastic Compliance Matrix: (Units=1/GPa)
#
#
# Indices 1 2 3 4 5 6 
#
# 1 0.030693 -0.005393 -0.006675 0.000000 -0.002309 0.000000
# 2 -0.005393 0.022680 -0.005978 0.000000 -0.004768 0.000000
# 3 -0.006675 -0.005978 0.012800 0.000000 -0.009173 0.000000
# 4 0.000000 0.000000 0.000000 0.035342 0.000000 -0.001064
# 5 -0.002309 -0.004768 -0.009173 0.000000 0.067527 0.000000
# 6 0.000000 0.000000 0.000000 -0.001064 0.000000 0.085576
#
#
# Mechanical properties :
#
#
# Convention : Reuss Voigt Hill
#
# Bulk Modulus (GPa) = 33.24485 54.69450 43.96967
# Shear Modulus (GPa) = 16.62573 20.96090 18.79332
#
# Velocity S-wave (km/s) = 3.21649 3.61158 3.41974
# Velocity P-wave (km/s) = 5.87213 7.17122 6.55394
#
# Compressibility (1/GPa) = 0.03007985
#
# Stress axis : x y z
#
# Youngs Moduli (GPa) = 32.58100 44.09089 78.12357
#
# Poissons Ratio (x) = 0.23779 0.52149
# Poissons Ratio (y) = 0.17571 0.46705
# Poissons Ratio (z) = 0.21749 0.26359
#
# Static dielectric constant tensor:
#      x y z
#    x 2.731680 0.000000 0.304530 
#    y 0.000000 2.950650 0.000000 
#    z 0.304530 0.000000 3.505650 
# 
# 
# High freq. dielectric constant tensor:
#      x y z
#    x 1.557630 0.000000 0.025990 
#    y 0.000000 1.614820 0.000000 
#    z 0.025990 0.000000 1.634500 
# 
# From -- ./inp_files/323386.got.cif
#   From: 2010.06.25/outbox.cif.g09.slc.cpg/sg12_162_cif.got.tgz:323386.got - 2010.06.28 00:19:55.
