data_PCOD8078305
_publ_section_title
;
Structure prediction by ZEFSAII (Michael W. Deem and Ramdas Pophale) SiO2 
 PCOD8078305
Probable space group: C 2/M
;
_chemical_formula_sum "Si O2"
_cell_formula_units_Z 56
_cell_length_a 9.728138
_cell_length_b 28.208244
_cell_length_c 20.561781
_cell_angle_alpha 90.000000
_cell_angle_beta 34.206395
_cell_angle_gamma 90.000000
_cell_volume 3172.039331
_symmetry_space_group_name_H-M "C 2/M"
_symmetry_group_IT_number 12
_symmetry_cell_setting 'monoclinic'
loop_
_space_group_symop_operation_xyz
x,y,z
-x,y,-z
-x,-y,-z
x,-y,z
1/2+x,1/2+y,z
1/2-x,1/2+y,-z
1/2-x,1/2-y,-z
1/2+x,1/2-y,z
loop_
_atom_site_type_symbol
_atom_site_label
_atom_site_fract_x
_atom_site_fract_y
_atom_site_fract_z
Si Si1 0.987393 0.279198 0.386416
Si Si2 0.547303 0.054983 0.177048
Si Si3 0.182661 0.556091 0.983907
Si Si4 0.586513 0.394369 0.393512
Si Si5 0.260885 0.556003 0.228614
Si Si6 0.563331 0.883851 0.547204
Si Si7 0.237853 0.204996 0.361035
O O1 0.750000 0.250000 0.500000
O O2 0.006007 0.328989 0.415990
O O3 0.977471 0.287635 0.312431
O O4 0.222312 0.247320 0.314116
O O5 0.259953 0.063397 0.302168
O O6 0.710339 0.073391 0.174143
O O7 0.597765 0.000000 0.150578
O O8 0.621514 0.078498 0.078854
O O9 0.146763 0.500000 0.000278
O O10 0.463490 0.569066 0.857933
O O11 0.000000 0.577322 0.000000
O O12 0.500000 0.404611 0.500000
O O13 0.352655 0.390806 0.439351
O O14 0.747911 0.346286 0.323481
O O15 0.210051 0.500000 0.255110
O O16 0.075534 0.583305 0.347527
O O17 0.500000 0.900561 0.500000
O O18 0.000000 0.205039 0.500000
#
# Coordination Sequence:
#
# PCOD8078305 Si02
#       7
#     8   8   8   8   8   8   8
#     4  10  16  29  46  68  97 136 169 202 241 291
#     4  10  20  34  56  74  95 135 175 209 247 302
#     4   9  19  36  55  74  95 125 173 223 258 290
#     4  11  19  34  47  73 108 136 165 202 253 307
#     4  10  21  37  53  73 101 135 174 214 253 299
#     4  12  23  32  48  75 109 139 169 205 253 312
#     4   9  16  27  45  65  97 130 164 203 238 289
#
# _framework density 17.654257000000001
#
# number of rings (size 3 to 8) (size 9 to 14) (size 15 to 20)
#    0.000    1.857    5.714    1.714    2.000    2.857 
#    0.000    0.000    0.000    0.000    0.000    1.000 
#    0.000    0.286    0.000    0.000    0.000    0.000 
#
# Total GULP energy -347059.252416 kJ/mol
# GULP energy per Si atom -12394.973301 kJ/mol
# Density = 1.761408 g / cm^3
# Si number density = 17.654257 Si / 1000 Ang^3
#
#
#
# Elastic Constant Matrix: (Units=GPa)
#
#
# Indices 1 2 3 4 5 6 
#
# 1 141.7921 19.3462 33.5999 0.0005 15.0551 0.0002
# 2 19.3462 34.6793 22.8827 0.0005 6.9970 0.0004
# 3 33.5999 22.8827 51.7149 0.0033 5.4670 0.0069
# 4 0.0005 0.0005 0.0033 1.2213 0.0001 0.5023
# 5 15.0551 6.9970 5.4670 0.0001 22.3548 -0.0006
# 6 0.0002 0.0004 0.0069 0.5023 -0.0006 21.4252
#
#
#
# Elastic Compliance Matrix: (Units=1/GPa)
#
#
# Indices 1 2 3 4 5 6 
#
# 1 0.008795 -0.000768 -0.004900 0.000009 -0.004484 0.000001
# 2 -0.000768 0.042455 -0.017386 0.000030 -0.008519 0.000004
# 3 -0.004900 -0.017386 0.030066 -0.000069 0.001389 -0.000008
# 4 0.000009 0.000030 -0.000069 0.826764 -0.000002 -0.019383
# 5 -0.004484 -0.008519 0.001389 -0.000002 0.050080 0.000001
# 6 0.000001 0.000004 -0.000008 -0.019383 0.000001 0.047129
#
#
# Mechanical properties :
#
#
# Convention : Reuss Voigt Hill
#
# Bulk Modulus (GPa) = 28.40267 42.20489 35.30378
# Shear Modulus (GPa) = 4.70308 19.15742 11.93025
#
# Velocity S-wave (km/s) = 1.63395 3.29773 2.60238
# Velocity P-wave (km/s) = 4.43654 6.20147 5.39171
#
# Compressibility (1/GPa) = 0.03520796
#
# Stress axis : x y z
#
# Youngs Moduli (GPa) = 113.70546 23.55450 33.25970
#
# Poissons Ratio (x) = 0.01809 0.16297
# Poissons Ratio (y) = 0.08735 0.57824
# Poissons Ratio (z) = 0.55716 0.40951
#
# Static dielectric constant tensor:
#      x y z
#    x 4.229340 0.000000 0.160010 
#    y 0.000000 3.285490 0.000000 
#    z 0.160010 0.000000 2.923850 
# 
# 
# High freq. dielectric constant tensor:
#      x y z
#    x 1.707710 0.000000 0.006140 
#    y 0.000000 1.662540 0.000000 
#    z 0.006140 0.000000 1.631660 
# 
# From -- ./inp_files/260104.got.cif
#   From: 2010.06.25/outbox.cif.g09.slc.cpg/sg12_131_cif.got.tgz:260104.got - 2010.06.28 00:19:55.
