data_PCOD8078732
_publ_section_title
;
Structure prediction by ZEFSAII (Michael W. Deem and Ramdas Pophale) SiO2 
 PCOD8078732
Probable space group: C 2/M
;
_chemical_formula_sum "Si O2"
_cell_formula_units_Z 40
_cell_length_a 26.138144
_cell_length_b 8.489493
_cell_length_c 9.207285
_cell_angle_alpha 90.000000
_cell_angle_beta 84.100917
_cell_angle_gamma 90.000000
_cell_volume 2032.273496
_symmetry_space_group_name_H-M "C 2/M"
_symmetry_group_IT_number 12
_symmetry_cell_setting 'monoclinic'
loop_
_space_group_symop_operation_xyz
x,y,z
-x,y,-z
-x,-y,-z
x,-y,z
1/2+x,1/2+y,z
1/2-x,1/2+y,-z
1/2-x,1/2-y,-z
1/2+x,1/2-y,z
loop_
_atom_site_type_symbol
_atom_site_label
_atom_site_fract_x
_atom_site_fract_y
_atom_site_fract_z
Si Si1 0.443024 0.182091 0.657821
Si Si2 0.261263 0.312921 0.154907
Si Si3 0.955896 0.817025 0.340642
Si Si4 0.354311 0.813378 0.299738
Si Si5 0.833100 0.313234 0.629625
O O1 0.450239 0.209140 0.484171
O O2 0.486191 0.280052 0.736626
O O3 0.384211 0.238068 0.706540
O O4 0.450202 0.000000 0.694100
O O5 0.262021 0.500000 0.154952
O O6 0.315798 0.246164 0.188468
O O7 0.217150 0.245726 0.275796
O O8 0.250000 0.250000 0.000000
O O9 0.910264 0.762746 0.246041
O O10 0.951059 0.000000 0.380241
O O11 0.335181 0.750141 0.463164
O O12 0.358742 0.000000 0.292587
O O13 0.831270 0.500000 0.623847
#
# Coordination Sequence:
#
# PCOD8078732 Si02
#       5
#     8   8   8   8   8
#     4   9  15  27  46  71 101 134 166 203 246 295
#     4  11  22  37  53  74 102 135 170 210 254 303
#     4  10  17  26  43  73 106 134 161 201 250 299
#     4  10  19  34  54  77 101 133 171 211 252 297
#     4   8  17  32  53  77 103 132 169 209 250 296
#
# _framework density 19.682390999999999
#
# number of rings (size 3 to 8) (size 9 to 14) (size 15 to 20)
#    0.000    2.400    0.000    6.600    0.000    0.000 
#    0.000   11.000    0.000    1.200    0.000    8.400 
#    0.000    0.000    0.000    0.000    0.000    0.000 
#
# Total GULP energy -247850.706530 kJ/mol
# GULP energy per Si atom -12392.535326 kJ/mol
# Density = 1.963759 g / cm^3
# Si number density = 19.682391 Si / 1000 Ang^3
#
#
#
# Elastic Constant Matrix: (Units=GPa)
#
#
# Indices 1 2 3 4 5 6 
#
# 1 150.1935 34.0898 41.9718 0.0000 49.6281 0.0000
# 2 34.0898 69.3645 17.6974 0.0000 11.5817 0.0000
# 3 41.9718 17.6974 63.1733 0.0000 25.2811 0.0000
# 4 0.0000 0.0000 0.0000 19.6861 0.0000 8.6048
# 5 49.6281 11.5817 25.2811 0.0000 24.8737 0.0000
# 6 0.0000 0.0000 0.0000 8.6048 0.0000 31.2607
#
#
#
# Elastic Compliance Matrix: (Units=1/GPa)
#
#
# Indices 1 2 3 4 5 6 
#
# 1 0.021343 -0.004172 0.005483 0.000000 -0.046214 0.000000
# 2 -0.004172 0.016680 -0.003580 0.000000 0.004196 0.000000
# 3 0.005483 -0.003580 0.028487 0.000000 -0.038226 0.000000
# 4 0.000000 0.000000 0.000000 0.057745 0.000000 -0.015895
# 5 -0.046214 0.004196 -0.038226 0.000000 0.169308 0.000000
# 6 0.000000 0.000000 0.000000 -0.015895 0.000000 0.036364
#
#
# Mechanical properties :
#
#
# Convention : Reuss Voigt Hill
#
# Bulk Modulus (GPa) = 16.13645 52.24990 34.19317
# Shear Modulus (GPa) = 14.07963 27.76226 20.92094
#
# Velocity S-wave (km/s) = 2.67749 3.75975 3.26379
# Velocity P-wave (km/s) = 4.21602 6.74180 5.62257
#
# Compressibility (1/GPa) = 0.06197151
#
# Stress axis : x y z
#
# Youngs Moduli (GPa) = 46.85318 59.95313 35.10350
#
# Poissons Ratio (x) = 0.25012 -0.19246
# Poissons Ratio (y) = 0.19547 0.12567
# Poissons Ratio (z) = -0.25688 0.21464
#
# Static dielectric constant tensor:
#      x y z
#    x 4.584080 0.000000 0.159350 
#    y 0.000000 3.364390 0.000000 
#    z 0.159350 0.000000 3.096770 
# 
# 
# High freq. dielectric constant tensor:
#      x y z
#    x 1.797940 0.000000 0.024710 
#    y 0.000000 1.758980 0.000000 
#    z 0.024710 0.000000 1.699970 
# 
# From -- ./inp_files/93028.got.cif
#   From: 2010.06.25/outbox.cif.g09.slc.cpg/sg12_47_cif.got.tgz:93028.got - 2010.06.28 00:19:55.
