data_PCOD8078475
_publ_section_title
;
Structure prediction by ZEFSAII (Michael W. Deem and Ramdas Pophale) SiO2 
 PCOD8078475
Probable space group: C 2/M
;
_chemical_formula_sum "Si O2"
_cell_formula_units_Z 64
_cell_length_a 24.982010
_cell_length_b 9.171484
_cell_length_c 22.514247
_cell_angle_alpha 90.000000
_cell_angle_beta 127.998756
_cell_angle_gamma 90.000000
_cell_volume 4065.031619
_symmetry_space_group_name_H-M "C 2/M"
_symmetry_group_IT_number 12
_symmetry_cell_setting 'monoclinic'
loop_
_space_group_symop_operation_xyz
x,y,z
-x,y,-z
-x,-y,-z
x,-y,z
1/2+x,1/2+y,z
1/2-x,1/2+y,-z
1/2-x,1/2-y,-z
1/2+x,1/2-y,z
loop_
_atom_site_type_symbol
_atom_site_label
_atom_site_fract_x
_atom_site_fract_y
_atom_site_fract_z
Si Si1 0.348021 0.829503 0.422991
Si Si2 0.992398 0.171590 0.858733
Si Si3 0.954167 0.330344 0.596597
Si Si4 0.935249 0.661810 0.999113
Si Si5 0.054259 0.835476 0.589346
Si Si6 0.874482 0.332462 0.842651
Si Si7 0.428918 0.169755 0.713434
Si Si8 0.712926 0.834180 0.322330
O O1 0.391088 0.791747 0.511009
O O2 0.378690 0.749506 0.386161
O O3 0.272113 0.773766 0.382576
O O4 0.347151 0.000000 0.409087
O O5 0.926200 0.217802 0.849847
O O6 0.986482 0.242121 0.789236
O O7 0.058436 0.228868 0.940683
O O8 0.997931 0.000000 0.856132
O O9 0.972247 0.500000 0.604648
O O10 0.933180 0.282184 0.648071
O O11 0.021657 0.242459 0.624265
O O12 0.927991 0.500000 0.020901
O O13 0.870509 0.697781 0.911305
O O14 0.000000 0.672905 0.000000
O O15 0.000000 0.831204 0.500000
O O16 0.074671 0.000000 0.620171
O O17 0.900865 0.500000 0.850133
O O18 0.803036 0.313956 0.759351
O O19 0.353652 0.207429 0.685280
O O20 0.444473 0.000000 0.732536
O O21 0.735453 0.000000 0.351028
#
# Coordination Sequence:
#
# PCOD8078475 Si02
#       8
#     8   8   8   8   8   8   8   8
#     4  10  19  30  45  65  87 111 141 178 218 256
#     4  10  17  23  35  57  82 106 136 176 214 246
#     4   9  18  32  48  64  83 110 144 180 216 254
#     4   8  13  23  38  53  72 104 142 172 203 248
#     4   9  17  30  48  67  84 104 134 175 221 261
#     4   8  15  27  40  53  75 110 145 173 205 249
#     4   9  18  32  45  57  82 120 151 174 208 255
#     4   9  17  29  43  60  85 117 149 177 207 248
#
# _framework density 15.744035999999999
#
# number of rings (size 3 to 8) (size 9 to 14) (size 15 to 20)
#    0.000    3.000    0.000    3.375    0.000    7.250 
#    0.000    0.000    0.000    0.000    0.000    0.000 
#    0.000    1.000    0.000    3.000    0.000    5.500 
#
# Total GULP energy -396560.203523 kJ/mol
# GULP energy per Si atom -12392.506360 kJ/mol
# Density = 1.570820 g / cm^3
# Si number density = 15.744036 Si / 1000 Ang^3
#
#
#
# Elastic Constant Matrix: (Units=GPa)
#
#
# Indices 1 2 3 4 5 6 
#
# 1 56.9948 35.6603 43.5367 0.0000 -14.2476 0.0000
# 2 35.6603 88.2141 52.1376 0.0000 -11.9873 0.0000
# 3 43.5367 52.1376 101.5008 0.0000 -17.7545 0.0000
# 4 0.0000 0.0000 0.0000 19.7420 0.0000 1.9553
# 5 -14.2476 -11.9873 -17.7545 0.0000 5.8500 0.0000
# 6 0.0000 0.0000 0.0000 1.9553 0.0000 20.3585
#
#
#
# Elastic Compliance Matrix: (Units=1/GPa)
#
#
# Indices 1 2 3 4 5 6 
#
# 1 0.046299 -0.005045 0.001382 0.000000 0.106618 0.000000
# 2 -0.005045 0.017662 -0.005813 0.000000 0.006262 0.000000
# 3 0.001382 -0.005813 0.022916 0.000000 0.061004 0.000000
# 4 0.000000 0.000000 0.000000 0.051140 0.000000 -0.004912
# 5 0.106618 0.006262 0.061004 0.000000 0.628590 0.000000
# 6 0.000000 0.000000 0.000000 -0.004912 0.000000 0.049591
#
#
# Mechanical properties :
#
#
# Convention : Reuss Voigt Hill
#
# Bulk Modulus (GPa) = 14.72209 56.59766 35.65988
# Shear Modulus (GPa) = 5.82892 16.88177 11.35535
#
# Velocity S-wave (km/s) = 1.92623 3.27810 2.68852
# Velocity P-wave (km/s) = 3.78396 7.09610 5.68651
#
# Compressibility (1/GPa) = 0.06792515
#
# Stress axis : x y z
#
# Youngs Moduli (GPa) = 21.59893 56.61810 43.63721
#
# Poissons Ratio (x) = 0.28563 -0.06031
# Poissons Ratio (y) = 0.10896 0.25367
# Poissons Ratio (z) = -0.02985 0.32913
#
# Static dielectric constant tensor:
#      x y z
#    x 2.615990 0.000000 -0.091370 
#    y 0.000000 2.968710 0.000000 
#    z -0.091370 0.000000 3.347790 
# 
# 
# High freq. dielectric constant tensor:
#      x y z
#    x 1.546330 0.000000 -0.007150 
#    y 0.000000 1.606840 0.000000 
#    z -0.007150 0.000000 1.606830 
# 
# From -- ./inp_files/323752.got.cif
#   From: 2010.06.25/outbox.cif.g09.slc.cpg/sg12_162_cif.got.tgz:323752.got - 2010.06.28 00:19:55.
