data_PCOD8078919
_publ_section_title
;
Structure prediction by ZEFSAII (Michael W. Deem and Ramdas Pophale) SiO2 
 PCOD8078919
Probable space group: C 2/M
;
_chemical_formula_sum "Si O2"
_cell_formula_units_Z 64
_cell_length_a 23.076747
_cell_length_b 20.119599
_cell_length_c 8.529038
_cell_angle_alpha 90.000000
_cell_angle_beta 111.881415
_cell_angle_gamma 90.000000
_cell_volume 3674.700092
_symmetry_space_group_name_H-M "C 2/M"
_symmetry_group_IT_number 12
_symmetry_cell_setting 'monoclinic'
loop_
_space_group_symop_operation_xyz
x,y,z
-x,y,-z
-x,-y,-z
x,-y,z
1/2+x,1/2+y,z
1/2-x,1/2+y,-z
1/2-x,1/2-y,-z
1/2+x,1/2-y,z
loop_
_atom_site_type_symbol
_atom_site_label
_atom_site_fract_x
_atom_site_fract_y
_atom_site_fract_z
Si Si1 0.824413 0.795994 0.230717
Si Si2 0.130319 0.687179 0.279871
Si Si3 0.432663 0.205100 0.481289
Si Si4 0.270390 0.883040 0.417590
Si Si5 0.784547 0.927171 0.327544
Si Si6 0.621234 0.925589 0.686674
Si Si7 0.301145 0.285306 0.854898
Si Si8 0.149056 0.425080 0.069542
O O1 0.879097 0.748280 0.345045
O O2 0.830866 0.867096 0.326515
O O3 0.757275 0.764404 0.197236
O O4 0.829772 0.806051 0.050313
O O5 0.072758 0.706886 0.334776
O O6 0.189846 0.673614 0.452420
O O7 0.143519 0.749329 0.182290
O O8 0.113622 0.622781 0.156938
O O9 0.500000 0.233310 0.500000
O O10 0.427830 0.127794 0.426567
O O11 0.234495 0.927406 0.508637
O O12 0.316007 0.926339 0.354607
O O13 0.217799 0.851511 0.254698
O O14 0.723102 0.917496 0.160606
O O15 0.814790 0.000000 0.323936
O O16 0.592695 0.000000 0.651403
O O17 0.635439 0.903939 0.878671
O O18 0.126797 0.500000 0.084213
#
# Coordination Sequence:
#
# PCOD8078919 Si02
#       8
#     8   8   8   8   8   8   8   8
#     4  11  20  33  55  76 108 135 171 215 259 315
#     4  10  18  30  50  73 101 132 169 214 257 307
#     4  11  24  38  52  72 100 139 182 221 256 301
#     4  10  17  27  47  76 107 135 162 207 254 319
#     4  10  19  30  49  80 113 137 163 204 261 323
#     4  10  19  32  49  70 102 142 181 217 251 292
#     4  11  18  30  54  83 103 133 168 209 269 310
#     4   9  17  29  47  74 106 137 167 206 260 310
#
# _framework density 17.416388000000001
#
# number of rings (size 3 to 8) (size 9 to 14) (size 15 to 20)
#    0.000    1.750    5.000    3.000    0.000    3.250 
#    0.000    3.125    0.000    1.875    0.000    0.000 
#    0.000    2.000    0.000    0.000    0.000    0.000 
#
# Total GULP energy -396734.826984 kJ/mol
# GULP energy per Si atom -12397.963343 kJ/mol
# Density = 1.737675 g / cm^3
# Si number density = 17.416388 Si / 1000 Ang^3
#
#
#
# Elastic Constant Matrix: (Units=GPa)
#
#
# Indices 1 2 3 4 5 6 
#
# 1 62.6399 30.7107 36.1862 0.0000 -18.7929 0.0000
# 2 30.7107 73.7639 21.0329 0.0000 -4.1533 0.0000
# 3 36.1862 21.0329 94.8393 0.0000 -25.2516 0.0000
# 4 0.0000 0.0000 0.0000 21.3739 0.0000 -5.4451
# 5 -18.7929 -4.1533 -25.2516 0.0000 17.0504 0.0000
# 6 0.0000 0.0000 0.0000 -5.4451 0.0000 9.8036
#
#
#
# Elastic Compliance Matrix: (Units=1/GPa)
#
#
# Indices 1 2 3 4 5 6 
#
# 1 0.030890 -0.010746 -0.001708 0.000000 0.028899 0.000000
# 2 -0.010746 0.018253 -0.003166 0.000000 -0.012087 0.000000
# 3 -0.001708 -0.003166 0.018478 0.000000 0.024711 0.000000
# 4 0.000000 0.000000 0.000000 0.054497 0.000000 0.030269
# 5 0.028899 -0.012087 0.024711 0.000000 0.124155 0.000000
# 6 0.000000 0.000000 0.000000 0.030269 0.000000 0.118815
#
#
# Mechanical properties :
#
#
# Convention : Reuss Voigt Hill
#
# Bulk Modulus (GPa) = 27.48834 45.23366 36.36100
# Shear Modulus (GPa) = 12.24123 19.19978 15.72051
#
# Velocity S-wave (km/s) = 2.65402 3.32384 3.00763
# Velocity P-wave (km/s) = 5.02086 6.38426 5.74316
#
# Compressibility (1/GPa) = 0.03637906
#
# Stress axis : x y z
#
# Youngs Moduli (GPa) = 32.37305 54.78522 54.11935
#
# Poissons Ratio (x) = 0.58874 0.09245
# Poissons Ratio (y) = 0.34789 0.17135
# Poissons Ratio (z) = 0.05530 0.17346
#
# Static dielectric constant tensor:
#      x y z
#    x 2.819290 0.000000 -0.323040 
#    y 0.000000 3.248940 0.000000 
#    z -0.323040 0.000000 3.452090 
# 
# 
# High freq. dielectric constant tensor:
#      x y z
#    x 1.612040 0.000000 -0.031190 
#    y 0.000000 1.668940 0.000000 
#    z -0.031190 0.000000 1.686500 
# 
# From -- ./inp_files/98626.got.cif
#   From: 2010.06.25/outbox.cif.g09.slc.cpg/sg12_50_cif.got.tgz:98626.got - 2010.06.28 00:19:55.
