data_PCOD8078407
_publ_section_title
;
Structure prediction by ZEFSAII (Michael W. Deem and Ramdas Pophale) SiO2 
 PCOD8078407
Probable space group: C 2/M
;
_chemical_formula_sum "Si O2"
_cell_formula_units_Z 64
_cell_length_a 20.357491
_cell_length_b 18.590892
_cell_length_c 18.065660
_cell_angle_alpha 90.000000
_cell_angle_beta 30.000314
_cell_angle_gamma 90.000000
_cell_volume 3418.632670
_symmetry_space_group_name_H-M "C 2/M"
_symmetry_group_IT_number 12
_symmetry_cell_setting 'monoclinic'
loop_
_space_group_symop_operation_xyz
x,y,z
-x,y,-z
-x,-y,-z
x,-y,z
1/2+x,1/2+y,z
1/2-x,1/2+y,-z
1/2-x,1/2-y,-z
1/2+x,1/2-y,z
loop_
_atom_site_type_symbol
_atom_site_label
_atom_site_fract_x
_atom_site_fract_y
_atom_site_fract_z
Si Si1 0.913850 0.291888 0.388738
Si Si2 0.112157 0.865016 0.333022
Si Si3 0.027800 0.919206 0.264441
Si Si4 0.761551 0.847723 0.557553
Si Si5 0.882236 0.784236 0.905833
Si Si6 0.875220 0.199931 0.084606
Si Si7 0.409233 0.194739 0.654837
Si Si8 0.134630 0.647857 0.835094
O O1 0.830694 0.228927 0.511077
O O2 0.815201 0.347230 0.445889
O O3 0.992741 0.257855 0.244543
O O4 0.015219 0.332162 0.345072
O O5 0.104280 0.909978 0.266321
O O6 0.107531 0.780225 0.319094
O O7 0.248592 0.889659 0.234682
O O8 0.000000 0.886460 0.500000
O O9 0.097167 0.867760 0.136175
O O10 0.875129 0.905400 0.432343
O O11 0.043625 0.000000 0.218901
O O12 0.661524 0.867831 0.721784
O O13 0.750000 0.750000 0.000000
O O14 0.894469 0.774395 0.981715
O O15 0.734212 0.158151 0.219542
O O16 0.863251 0.266810 0.152296
O O17 0.000000 0.155767 0.000000
O O18 0.500000 0.170610 0.500000
O O19 0.000000 0.614530 0.000000
#
# Coordination Sequence:
#
# PCOD8078407 Si02
#       8
#     8   8   8   8   8   8   8   8
#     4  10  17  29  51  76 103 143 179 228 286 340
#     4  10  16  32  52  72 106 146 192 227 271 330
#     4  11  23  37  55  81 112 155 200 236 283 347
#     4  10  19  32  49  76 109 144 188 233 280 337
#     4  11  19  35  57  84 114 148 189 243 290 339
#     4  10  19  29  48  81 115 142 178 231 292 339
#     4  10  17  28  48  76 113 142 173 227 284 334
#     4  10  18  30  49  79 112 147 181 241 283 327
#
# _framework density 18.720935000000001
#
# number of rings (size 3 to 8) (size 9 to 14) (size 15 to 20)
#    0.000    1.750    5.000    3.750    0.000    2.250 
#    0.000    0.000    0.000    4.125    0.000    0.000 
#    0.000    2.000    0.000    0.000    0.000    0.000 
#
# Total GULP energy -396469.891569 kJ/mol
# GULP energy per Si atom -12389.684112 kJ/mol
# Density = 1.867833 g / cm^3
# Si number density = 18.720935 Si / 1000 Ang^3
#
#
#
# Elastic Constant Matrix: (Units=GPa)
#
#
# Indices 1 2 3 4 5 6 
#
# 1 139.8634 7.5844 44.8050 -0.0018 -26.0818 0.0007
# 2 7.5844 43.9281 10.1134 -0.0019 -1.2157 0.0011
# 3 44.8050 10.1134 123.8003 -0.0037 -14.4411 0.0036
# 4 -0.0018 -0.0019 -0.0037 10.0121 0.0017 -0.9206
# 5 -26.0818 -1.2157 -14.4411 0.0017 41.1819 -0.0002
# 6 0.0007 0.0011 0.0036 -0.9206 -0.0002 -1.9620
#
#
#
# Elastic Compliance Matrix: (Units=1/GPa)
#
#
# Indices 1 2 3 4 5 6 
#
# 1 0.008906 -0.000807 -0.002609 -0.000001 0.004702 -0.000002
# 2 -0.000807 0.023274 -0.001656 0.000004 -0.000405 0.000008
# 3 -0.002609 -0.001656 0.009341 0.000004 0.001574 0.000013
# 4 -0.000001 0.000004 0.000004 0.095748 -0.000003 -0.044926
# 5 0.004702 -0.000405 0.001574 -0.000003 0.027800 0.000002
# 6 -0.000002 0.000008 0.000013 -0.044926 0.000002 -0.488607
#
#
# Mechanical properties :
#
#
# Convention : Reuss Voigt Hill
#
# Bulk Modulus (GPa) = 31.87127 48.06638 39.96882
# Shear Modulus (GPa) = -16.50526 26.18566 4.84020
#
# Velocity S-wave (km/s) = -2.97248 3.74403 1.60968
# Velocity P-wave (km/s) = 2.29794 6.66493 4.98507
#
# Compressibility (1/GPa) = 0.03137622
#
# Stress axis : x y z
#
# Youngs Moduli (GPa) = 112.28191 42.96648 107.05875
#
# Poissons Ratio (x) = 0.03467 0.27930
# Poissons Ratio (y) = 0.09061 0.17734
# Poissons Ratio (z) = 0.29293 0.07117
#
# Static dielectric constant tensor:
#      x y z
#    x 3.820120 0.000000 -0.347000 
#    y 0.000000 2.697030 0.000000 
#    z -0.347000 0.000000 3.928220 
# 
# 
# High freq. dielectric constant tensor:
#      x y z
#    x 1.748430 0.000000 -0.010690 
#    y 0.000000 1.628200 0.000000 
#    z -0.010690 0.000000 1.745870 
# 
# From -- ./inp_files/285770.got.cif
#   From: 2010.06.25/outbox.cif.g09.slc.cpg/sg12_143_cif.got.tgz:285770.got - 2010.06.28 00:19:55.
