data_PCOD8078021
_publ_section_title
;
Structure prediction by ZEFSAII (Michael W. Deem and Ramdas Pophale) SiO2 
 PCOD8078021
Probable space group: P 21/M
;
_chemical_formula_sum "Si O2"
_cell_formula_units_Z 24
_cell_length_a 24.000000
_cell_length_b 9.000000
_cell_length_c 12.000000
_cell_angle_alpha 90.000000
_cell_angle_beta 150.000000
_cell_angle_gamma 90.000000
_cell_volume 1296.000000
_symmetry_space_group_name_H-M "P 21/M"
_symmetry_group_IT_number 11
_symmetry_cell_setting 'monoclinic'
loop_
_space_group_symop_operation_xyz
x,y,z
-x,1/2+y,-z
-x,-y,-z
x,1/2-y,z
loop_
_atom_site_type_symbol
_atom_site_label
_atom_site_fract_x
_atom_site_fract_y
_atom_site_fract_z
Si Si1 0.067104 0.420829 0.901720
Si Si2 0.769811 0.576829 0.622223
Si Si3 0.831917 0.574629 0.475209
Si Si4 0.663589 0.430339 0.005522
Si Si5 0.578857 0.070402 0.425628
Si Si6 0.287459 0.074347 0.144754
O O1 0.027846 0.250000 0.833988
O O2 0.960039 0.520590 0.685835
O O3 0.120400 0.464066 0.114405
O O4 0.162765 0.447628 0.975216
O O5 0.739937 0.750000 0.591760
O O6 0.793052 0.542467 0.533902
O O7 0.665130 0.476464 0.478108
O O8 0.827402 0.750000 0.439815
O O9 0.749266 0.486440 0.249378
O O10 0.658364 0.250000 0.997598
O O11 0.541276 0.500869 0.813930
O O12 0.708793 0.490429 0.966195
O O13 0.570971 0.250000 0.419765
O O14 0.621341 0.001602 0.616155
O O15 0.316040 0.250000 0.181825
#
# Coordination Sequence:
#
# PCOD8078021 Si02
#       6
#     4   4   4   4   4   4
#     4   9  19  37  61  87 115 148 187 235 286 337
#     4   9  20  39  61  86 116 151 192 236 282 335
#     4  11  23  38  58  85 118 154 192 236 285 338
#     4  12  25  40  58  82 116 155 193 235 286 343
#     4  11  22  38  62  89 115 147 190 237 286 339
#     4  10  21  40  63  87 116 149 190 237 283 336
#
# _framework density 18.518519000000001
#
# number of rings (size 3 to 8) (size 9 to 14) (size 15 to 20)
#    0.000    1.667    0.000    6.000    0.000    6.000 
#    0.000    0.000    0.000    0.000    0.000    0.000 
#    0.000    0.000    0.000    0.000    0.000    0.000 
#
# Total GULP energy -297597.219637 kJ/mol
# GULP energy per Si atom -12399.884152 kJ/mol
# Density = 1.847637 g / cm^3
# Si number density = 18.518519 Si / 1000 Ang^3
#
#
#
# Elastic Constant Matrix: (Units=GPa)
#
#
# Indices 1 2 3 4 5 6 
#
# 1 107.3480 52.7203 66.6568 0.0000 -2.5573 0.0000
# 2 52.7203 172.5752 75.3758 0.0000 3.2114 0.0000
# 3 66.6568 75.3758 175.0976 0.0000 2.5717 0.0000
# 4 0.0000 0.0000 0.0000 45.2318 0.0000 2.9320
# 5 -2.5573 3.2114 2.5717 0.0000 33.7915 0.0000
# 6 0.0000 0.0000 0.0000 2.9320 0.0000 37.4159
#
#
#
# Elastic Compliance Matrix: (Units=1/GPa)
#
#
# Indices 1 2 3 4 5 6 
#
# 1 0.012919 -0.002238 -0.003977 0.000000 0.001493 0.000000
# 2 -0.002238 0.007531 -0.002380 0.000000 -0.000704 0.000000
# 3 -0.003977 -0.002380 0.008260 0.000000 -0.000703 0.000000
# 4 0.000000 0.000000 0.000000 0.022221 0.000000 -0.001741
# 5 0.001493 -0.000704 -0.000703 0.000000 0.029827 0.000000
# 6 0.000000 0.000000 0.000000 -0.001741 0.000000 0.026863
#
#
# Mechanical properties :
#
#
# Convention : Reuss Voigt Hill
#
# Bulk Modulus (GPa) = 86.79383 93.83632 90.31507
# Shear Modulus (GPa) = 38.86532 40.63901 39.75216
#
# Velocity S-wave (km/s) = 4.58616 4.68964 4.63819
# Velocity P-wave (km/s) = 8.66107 8.95015 8.80680
#
# Compressibility (1/GPa) = 0.01152156
#
# Stress axis : x y z
#
# Youngs Moduli (GPa) = 77.40300 132.79197 121.06898
#
# Poissons Ratio (x) = 0.29713 0.48148
# Poissons Ratio (y) = 0.17319 0.28810
# Poissons Ratio (z) = 0.30783 0.31599
#
# Static dielectric constant tensor:
#      x y z
#    x 3.565860 0.000000 -0.006750 
#    y 0.000000 3.764680 0.000000 
#    z -0.006750 0.000000 3.663630 
# 
# 
# High freq. dielectric constant tensor:
#      x y z
#    x 1.736120 0.000000 0.003500 
#    y 0.000000 1.747400 0.000000 
#    z 0.003500 0.000000 1.742900 
# 
# From -- ./inp_files/43873.got.cif
#   From: 2010.06.25/outbox.ucp.g09.slc.cvg/sg11_22_cif.got.tgz:43873.got - 2010.06.28 13:43:20.
