data_PCOD8078077
_publ_section_title
;
Structure prediction by ZEFSAII (Michael W. Deem and Ramdas Pophale) SiO2 
 PCOD8078077
Probable space group: C 2/M
;
_chemical_formula_sum "Si O2"
_cell_formula_units_Z 56
_cell_length_a 22.424916
_cell_length_b 22.349502
_cell_length_c 11.464724
_cell_angle_alpha 90.000000
_cell_angle_beta 144.439373
_cell_angle_gamma 90.000000
_cell_volume 3341.641483
_symmetry_space_group_name_H-M "C 2/M"
_symmetry_group_IT_number 12
_symmetry_cell_setting 'monoclinic'
loop_
_space_group_symop_operation_xyz
x,y,z
-x,y,-z
-x,-y,-z
x,-y,z
1/2+x,1/2+y,z
1/2-x,1/2+y,-z
1/2-x,1/2-y,-z
1/2+x,1/2-y,z
loop_
_atom_site_type_symbol
_atom_site_label
_atom_site_fract_x
_atom_site_fract_y
_atom_site_fract_z
Si Si1 0.852272 0.621928 0.955611
Si Si2 0.070567 0.500000 0.955529
Si Si3 0.338958 0.000000 0.663344
Si Si4 0.833176 0.068399 0.233121
Si Si5 0.287032 0.871963 0.582606
Si Si6 0.525597 0.204135 0.176623
Si Si7 0.055937 0.162882 0.211275
Si Si8 0.006133 0.932290 0.700537
O O1 0.754106 0.619175 0.885534
O O2 0.815597 0.625970 0.763882
O O3 0.914318 0.561751 0.088786
O O4 0.931557 0.676401 0.103043
O O5 0.957190 0.500000 0.821770
O O6 0.161332 0.500000 0.196874
O O7 0.283983 0.940167 0.528327
O O8 0.886361 0.080793 0.193597
O O9 0.914239 0.076293 0.464843
O O10 0.789468 0.000000 0.167330
O O11 0.369821 0.833779 0.640351
O O12 0.176874 0.843756 0.385424
O O13 0.539258 0.271884 0.242333
O O14 0.500000 0.202555 0.000000
O O15 0.006371 0.112870 0.213580
O O16 0.000000 0.157713 0.000000
O O17 0.005755 0.000000 0.749075
#
# Coordination Sequence:
#
# PCOD8078077 Si02
#       8
#     8   4   4   8   8   8   8   8
#     4  10  15  26  49  76  97 120 147 190 255 297
#     4   9  14  22  42  72 106 113 137 191 251 299
#     4   9  16  24  41  71  97 124 144 192 243 289
#     4   9  16  29  52  77  97 116 146 196 254 292
#     4  10  18  29  46  68 101 128 152 192 238 285
#     4   9  19  31  45  69  98 127 159 195 238 285
#     4  11  22  34  46  64  96 137 172 188 219 277
#     4   9  19  33  48  71  97 122 159 199 233 280
#
# _framework density 16.758230000000001
#
# number of rings (size 3 to 8) (size 9 to 14) (size 15 to 20)
#    0.000    2.429    3.571    1.286    1.000    0.286 
#    0.000    0.714    0.000    0.000    0.000    0.000 
#    0.000    3.429    0.000    0.000    0.000    0.000 
#
# Total GULP energy -346936.697653 kJ/mol
# GULP energy per Si atom -12390.596345 kJ/mol
# Density = 1.672009 g / cm^3
# Si number density = 16.758230 Si / 1000 Ang^3
#
#
#
# Elastic Constant Matrix: (Units=GPa)
#
#
# Indices 1 2 3 4 5 6 
#
# 1 85.6388 58.5013 31.2935 0.0000 27.2351 0.0000
# 2 58.5013 145.0174 47.2497 0.0000 20.1890 0.0000
# 3 31.2935 47.2497 57.3864 0.0000 21.8771 0.0000
# 4 0.0000 0.0000 0.0000 301.8367 0.0000 181.5072
# 5 27.2351 20.1890 21.8771 0.0000 27.0882 0.0000
# 6 0.0000 0.0000 0.0000 181.5072 0.0000 123.2444
#
#
#
# Elastic Compliance Matrix: (Units=1/GPa)
#
#
# Indices 1 2 3 4 5 6 
#
# 1 0.021265 -0.006219 -0.000133 0.000000 -0.016638 0.000000
# 2 -0.006219 0.011265 -0.007321 0.000000 0.003769 0.000000
# 3 -0.000133 -0.007321 0.030912 0.000000 -0.019376 0.000000
# 4 0.000000 0.000000 0.000000 0.028966 0.000000 -0.042659
# 5 -0.016638 0.003769 -0.019376 0.000000 0.066484 0.000000
# 6 0.000000 0.000000 0.000000 -0.042659 0.000000 0.070940
#
#
# Mechanical properties :
#
#
# Convention : Reuss Voigt Hill
#
# Bulk Modulus (GPa) = 27.70295 62.45906 45.08101
# Shear Modulus (GPa) = 18.57286 100.50040 59.53663
#
# Velocity S-wave (km/s) = 3.33270 7.75248 5.96690
# Velocity P-wave (km/s) = 5.60143 10.83911 8.62735
#
# Compressibility (1/GPa) = 0.03609723
#
# Stress axis : x y z
#
# Youngs Moduli (GPa) = 47.02560 88.77031 32.34949
#
# Poissons Ratio (x) = 0.55205 0.00430
# Poissons Ratio (y) = 0.29245 0.23683
# Poissons Ratio (z) = 0.00625 0.64988
#
# Static dielectric constant tensor:
#      x y z
#    x 3.100730 0.000000 0.401160 
#    y 0.000000 3.404860 0.000000 
#    z 0.401160 0.000000 2.868060 
# 
# 
# High freq. dielectric constant tensor:
#      x y z
#    x 1.623050 0.000000 0.044860 
#    y 0.000000 1.652630 0.000000 
#    z 0.044860 0.000000 1.609930 
# 
# From -- ./inp_files/178332.got.cif
#   From: 2010.06.25/outbox.cif.g09.slc.cpg/sg12_90_cif.got.tgz:178332.got - 2010.06.28 00:19:55.
