data_PCOD8078333
_publ_section_title
;
Structure prediction by ZEFSAII (Michael W. Deem and Ramdas Pophale) SiO2 
 PCOD8078333
Probable space group: C 2/M
;
_chemical_formula_sum "Si O2"
_cell_formula_units_Z 48
_cell_length_a 5.256080
_cell_length_b 27.497616
_cell_length_c 23.489101
_cell_angle_alpha 90.000000
_cell_angle_beta 109.601363
_cell_angle_gamma 90.000000
_cell_volume 3198.137381
_symmetry_space_group_name_H-M "C 2/M"
_symmetry_group_IT_number 12
_symmetry_cell_setting 'monoclinic'
loop_
_space_group_symop_operation_xyz
x,y,z
-x,y,-z
-x,-y,-z
x,-y,z
1/2+x,1/2+y,z
1/2-x,1/2+y,-z
1/2-x,1/2-y,-z
1/2+x,1/2-y,z
loop_
_atom_site_type_symbol
_atom_site_label
_atom_site_fract_x
_atom_site_fract_y
_atom_site_fract_z
Si Si1 0.809183 0.118203 0.039539
Si Si2 0.908740 0.442179 0.772600
Si Si3 0.851205 0.229025 0.067678
Si Si4 0.204275 0.941998 0.636243
Si Si5 0.987653 0.057807 0.158293
Si Si6 0.397536 0.942038 0.431666
O O1 0.853206 0.171172 0.069448
O O2 0.886869 0.077939 0.090978
O O3 0.500000 0.110378 0.000000
O O4 0.000000 0.110667 0.000000
O O5 0.906483 0.500000 0.771107
O O6 0.806548 0.421701 0.704470
O O7 0.708895 0.422937 0.806655
O O8 0.210720 0.422939 0.806629
O O9 0.651990 0.250075 0.101443
O O10 0.750000 0.250000 0.000000
O O11 0.403284 0.922121 0.602252
O O12 0.903349 0.922121 0.602246
O O13 0.204354 0.000000 0.636294
O O14 0.981126 0.000000 0.153939
O O15 0.500000 0.922140 0.500000
O O16 0.397252 0.000000 0.431479
#
# Coordination Sequence:
#
# PCOD8078333 Si02
#       6
#     8   8   8   8   8   8
#     4  12  21  31  48  65  81 104 127 154 208 263
#     4   9  17  31  44  53  70 100 139 172 197 228
#     4  10  16  30  47  65  83  99 120 150 186 244
#     4   9  15  23  37  50  63  94 129 155 194 240
#     4  10  21  33  43  58  80 103 132 173 205 234
#     4   9  15  21  30  50  75  91 112 155 206 245
#
# _framework density 15.008736000000001
#
# number of rings (size 3 to 8) (size 9 to 14) (size 15 to 20)
#    0.000    2.167    3.333    2.500    0.000    6.667 
#    0.000    0.000    0.000    0.000    0.000    0.000 
#    0.000    0.000    0.000    0.000    0.000    0.000 
#
# Total GULP energy -297546.359913 kJ/mol
# GULP energy per Si atom -12397.764996 kJ/mol
# Density = 1.497458 g / cm^3
# Si number density = 15.008736 Si / 1000 Ang^3
#
#
#
# Elastic Constant Matrix: (Units=GPa)
#
#
# Indices 1 2 3 4 5 6 
#
# 1 197.8153 20.0924 69.3550 0.0000 -129.4682 0.0000
# 2 20.0924 19.9709 20.6275 0.0000 -10.2733 0.0000
# 3 69.3550 20.6275 109.6096 0.0000 42.7602 0.0000
# 4 0.0000 0.0000 0.0000 0.3424 0.0000 0.4470
# 5 -129.4682 -10.2733 42.7602 0.0000 1186.3983 0.0000
# 6 0.0000 0.0000 0.0000 0.4470 0.0000 13.0514
#
#
#
# Elastic Compliance Matrix: (Units=1/GPa)
#
#
# Indices 1 2 3 4 5 6 
#
# 1 0.007596 -0.002206 -0.004774 0.000000 0.000982 0.000000
# 2 -0.002206 0.063923 -0.010909 0.000000 0.000706 0.000000
# 3 -0.004774 -0.010909 0.014643 0.000000 -0.001143 0.000000
# 4 0.000000 0.000000 0.000000 3.057136 0.000000 -0.104702
# 5 0.000982 0.000706 -0.001143 0.000000 0.000997 0.000000
# 6 0.000000 0.000000 0.000000 -0.104702 0.000000 0.080206
#
#
# Mechanical properties :
#
#
# Convention : Reuss Voigt Hill
#
# Bulk Modulus (GPa) = 19.84778 60.83839 40.34308
# Shear Modulus (GPa) = 1.52575 254.44649 127.98612
#
# Velocity S-wave (km/s) = 1.00935 13.03458 9.24443
# Velocity P-wave (km/s) = 3.82246 16.34494 11.86946
#
# Compressibility (1/GPa) = 0.05038347
#
# Stress axis : x y z
#
# Youngs Moduli (GPa) = 131.65346 15.64373 68.29159
#
# Poissons Ratio (x) = 0.03451 0.32603
# Poissons Ratio (y) = 0.29040 0.74502
# Poissons Ratio (z) = 0.62852 0.17066
#
# Static dielectric constant tensor:
#      x y z
#    x -1.277800 0.000000 -0.195850 
#    y 0.000000 2.364100 0.000000 
#    z -0.195850 0.000000 2.735050 
# 
# 
# High freq. dielectric constant tensor:
#      x y z
#    x 1.608890 0.000000 0.001690 
#    y 0.000000 1.499870 0.000000 
#    z 0.001690 0.000000 1.560680 
# 
# From -- ./inp_files/253361.got.cif
#   From: 2010.06.25/outbox.cif.g09.slc.cpg/sg12_127_cif.got.tgz:253361.got - 2010.06.28 00:19:55.
