data_PCOD8078532
_publ_section_title
;
Structure prediction by ZEFSAII (Michael W. Deem and Ramdas Pophale) SiO2 
 PCOD8078532
Probable space group: C 2/M
;
_chemical_formula_sum "Si O2"
_cell_formula_units_Z 64
_cell_length_a 22.583744
_cell_length_b 18.935493
_cell_length_c 15.849491
_cell_angle_alpha 90.000000
_cell_angle_beta 141.560981
_cell_angle_gamma 90.000000
_cell_volume 4213.623332
_symmetry_space_group_name_H-M "C 2/M"
_symmetry_group_IT_number 12
_symmetry_cell_setting 'monoclinic'
loop_
_space_group_symop_operation_xyz
x,y,z
-x,y,-z
-x,-y,-z
x,-y,z
1/2+x,1/2+y,z
1/2-x,1/2+y,-z
1/2-x,1/2-y,-z
1/2+x,1/2-y,z
loop_
_atom_site_type_symbol
_atom_site_label
_atom_site_fract_x
_atom_site_fract_y
_atom_site_fract_z
Si Si1 0.912381 0.418326 0.962357
Si Si2 0.840871 0.686092 0.300387
Si Si3 0.456788 0.661182 0.543770
Si Si4 0.050415 0.580133 0.804072
Si Si5 0.259596 0.079304 0.091067
Si Si6 0.028558 0.312525 0.404450
Si Si7 0.869077 0.918099 0.201664
Si Si8 0.722515 0.657202 0.747787
O O1 0.880697 0.500000 0.920432
O O2 0.941735 0.398964 0.089886
O O3 0.826474 0.368252 0.835905
O O4 0.000000 0.401086 0.000000
O O5 0.765997 0.629362 0.180017
O O6 0.891528 0.657426 0.442018
O O7 0.783372 0.758065 0.252657
O O8 0.922801 0.694832 0.323075
O O9 0.500000 0.684251 0.500000
O O10 0.445092 0.731273 0.588686
O O11 0.520851 0.604268 0.663821
O O12 0.352694 0.629092 0.406921
O O13 0.012040 0.500000 0.750680
O O14 0.152533 0.587792 0.874633
O O15 0.974244 0.634335 0.677808
O O16 0.254951 0.000000 0.121281
O O17 0.164262 0.097421 0.931270
O O18 0.800745 0.875094 0.187172
O O19 0.858221 0.000000 0.211944
#
# Coordination Sequence:
#
# PCOD8078532 Si02
#       8
#     8   8   8   8   8   8   8   8
#     4  10  20  33  46  61  83 110 143 182 218 244
#     4   9  16  26  41  61  87 118 138 165 205 248
#     4   9  16  27  39  59  84 114 141 164 198 250
#     4   9  17  27  42  62  82 113 147 175 205 245
#     4   9  17  26  38  61  93 117 140 166 198 250
#     4   9  14  27  41  59  89 111 140 169 200 250
#     4  10  17  25  37  57  85 113 141 172 199 240
#     4  10  17  28  43  60  83 110 144 176 203 249
#
# _framework density 15.188829
#
# number of rings (size 3 to 8) (size 9 to 14) (size 15 to 20)
#    0.000    2.625    5.000    0.375    0.000    4.750 
#    0.000    2.500    0.000    3.000    0.000    0.000 
#    0.000    0.500    0.000    0.000    0.000    1.375 
#
# Total GULP energy -396587.675947 kJ/mol
# GULP energy per Si atom -12393.364873 kJ/mol
# Density = 1.515426 g / cm^3
# Si number density = 15.188829 Si / 1000 Ang^3
#
#
#
# Elastic Constant Matrix: (Units=GPa)
#
#
# Indices 1 2 3 4 5 6 
#
# 1 33.5744 21.0795 33.7957 0.0000 3.7185 0.0000
# 2 21.0795 74.2495 64.0809 0.0000 -1.8814 0.0000
# 3 33.7957 64.0809 119.0780 0.0000 -4.4757 0.0000
# 4 0.0000 0.0000 0.0000 32.4376 0.0000 -5.3045
# 5 3.7185 -1.8814 -4.4757 0.0000 10.9131 0.0000
# 6 0.0000 0.0000 0.0000 -5.3045 0.0000 8.6153
#
#
#
# Elastic Compliance Matrix: (Units=1/GPa)
#
#
# Indices 1 2 3 4 5 6 
#
# 1 0.046533 -0.003100 -0.012344 0.000000 -0.021453 0.000000
# 2 -0.003100 0.025371 -0.012766 0.000000 0.000195 0.000000
# 3 -0.012344 -0.012766 0.019142 0.000000 0.009856 0.000000
# 4 0.000000 0.000000 0.000000 0.034280 0.000000 0.021107
# 5 -0.021453 0.000195 0.009856 0.000000 0.103018 0.000000
# 6 0.000000 0.000000 0.000000 0.021107 0.000000 0.129068
#
#
# Mechanical properties :
#
#
# Convention : Reuss Voigt Hill
#
# Bulk Modulus (GPa) = 28.88177 51.64602 40.26389
# Shear Modulus (GPa) = 11.75436 17.58959 14.67198
#
# Velocity S-wave (km/s) = 2.78489 3.40672 3.11138
# Velocity P-wave (km/s) = 5.42192 7.03923 6.28283
#
# Compressibility (1/GPa) = 0.03462391
#
# Stress axis : x y z
#
# Youngs Moduli (GPa) = 21.49015 39.41540 52.24216
#
# Poissons Ratio (x) = 0.12221 0.64490
# Poissons Ratio (y) = 0.06663 0.66691
# Poissons Ratio (z) = 0.26528 0.50317
#
# Static dielectric constant tensor:
#      x y z
#    x 2.406510 0.000000 -0.147310 
#    y 0.000000 3.010570 0.000000 
#    z -0.147310 0.000000 3.212010 
# 
# 
# High freq. dielectric constant tensor:
#      x y z
#    x 1.508390 0.000000 -0.016940 
#    y 0.000000 1.585350 0.000000 
#    z -0.016940 0.000000 1.594340 
# 
# From -- ./inp_files/290688.got.cif
#   From: 2010.06.25/outbox.cif.g09.slc.cpg/sg12_146_cif.got.tgz:290688.got - 2010.06.28 00:19:55.
