data_PCOD8078893
_publ_section_title
;
Structure prediction by ZEFSAII (Michael W. Deem and Ramdas Pophale) SiO2 
 PCOD8078893
Probable space group: C 2/M
;
_chemical_formula_sum "Si O2"
_cell_formula_units_Z 56
_cell_length_a 8.837801
_cell_length_b 28.771237
_cell_length_c 15.697907
_cell_angle_alpha 90.000000
_cell_angle_beta 55.736987
_cell_angle_gamma 90.000000
_cell_volume 3298.886275
_symmetry_space_group_name_H-M "C 2/M"
_symmetry_group_IT_number 12
_symmetry_cell_setting 'monoclinic'
loop_
_space_group_symop_operation_xyz
x,y,z
-x,y,-z
-x,-y,-z
x,-y,z
1/2+x,1/2+y,z
1/2-x,1/2+y,-z
1/2-x,1/2-y,-z
1/2+x,1/2-y,z
loop_
_atom_site_type_symbol
_atom_site_label
_atom_site_fract_x
_atom_site_fract_y
_atom_site_fract_z
Si Si1 0.940491 0.298078 0.881437
Si Si2 0.375068 0.889062 0.804987
Si Si3 0.514959 0.610938 0.804987
Si Si4 0.796634 0.201922 0.881437
Si Si5 0.706080 0.448041 0.614246
Si Si6 0.679640 0.447837 0.000000
Si Si7 0.934572 0.551959 0.385754
O O1 0.943191 0.338613 0.811175
O O2 0.907140 0.250000 0.842860
O O3 0.133329 0.295337 0.866671
O O4 0.776263 0.307518 0.000000
O O5 0.338671 0.920919 0.899144
O O6 0.541353 0.912396 0.699702
O O7 0.193055 0.883704 0.806945
O O8 0.434460 0.661387 0.811175
O O9 0.559243 0.587604 0.699703
O O10 0.363041 0.579082 0.899144
O O11 0.621407 0.500000 0.637134
O O12 0.767583 0.431882 0.500000
O O13 0.879959 0.449359 0.620041
O O14 0.747104 0.500000 0.000001
O O15 0.500000 0.450279 0.000000
O O16 0.895675 0.500000 0.362866
#
# Coordination Sequence:
#
# PCOD8078893 Si02
#       7
#     8   8   8   8   8   8   8
#     4  10  20  33  49  68  93 122 154 191 234 284
#     4  10  17  27  46  70  96 124 155 192 232 273
#     4  10  17  27  46  70  96 124 155 192 232 273
#     4  10  20  33  49  68  93 122 154 191 234 284
#     4   8  14  25  43  69  98 127 161 197 228 262
#     4   9  16  24  38  65  96 123 152 185 222 267
#     4   8  14  25  43  69  98 127 161 197 228 262
#
# _framework density 16.975425000000001
#
# number of rings (size 3 to 8) (size 9 to 14) (size 15 to 20)
#    0.000    2.714    1.429    2.571    0.000    4.571 
#    0.000    0.000    0.000    6.000    0.000    2.000 
#    0.000    0.000    0.000    0.000    0.000    0.000 
#
# Total GULP energy -347151.203418 kJ/mol
# GULP energy per Si atom -12398.257265 kJ/mol
# Density = 1.693679 g / cm^3
# Si number density = 16.975425 Si / 1000 Ang^3
#
#
#
# Elastic Constant Matrix: (Units=GPa)
#
#
# Indices 1 2 3 4 5 6 
#
# 1 30.7899 33.2237 25.9753 0.0000 1.2355 0.0000
# 2 33.2237 162.7938 89.5686 0.0000 5.4126 0.0000
# 3 25.9753 89.5686 134.8603 0.0000 8.7616 0.0000
# 4 0.0000 0.0000 0.0000 27.6330 0.0000 0.3869
# 5 1.2355 5.4126 8.7616 0.0000 9.5611 0.0000
# 6 0.0000 0.0000 0.0000 0.3869 0.0000 23.6058
#
#
#
# Elastic Compliance Matrix: (Units=1/GPa)
#
#
# Indices 1 2 3 4 5 6 
#
# 1 0.042917 -0.006628 -0.003985 0.000000 0.001858 0.000000
# 2 -0.006628 0.010705 -0.005843 0.000000 0.000151 0.000000
# 3 -0.003985 -0.005843 0.012563 0.000000 -0.007690 0.000000
# 4 0.000000 0.000000 0.000000 0.036197 0.000000 -0.000593
# 5 0.001858 0.000151 -0.007690 0.000000 0.111312 0.000000
# 6 0.000000 0.000000 0.000000 -0.000593 0.000000 0.042372
#
#
# Mechanical properties :
#
#
# Convention : Reuss Voigt Hill
#
# Bulk Modulus (GPa) = 30.05411 69.55324 49.80367
# Shear Modulus (GPa) = 16.66277 24.13842 20.40059
#
# Velocity S-wave (km/s) = 3.13642 3.77498 3.47042
# Velocity P-wave (km/s) = 5.55510 7.75000 6.74246
#
# Compressibility (1/GPa) = 0.03327332
#
# Stress axis : x y z
#
# Youngs Moduli (GPa) = 23.30062 93.41156 79.59889
#
# Poissons Ratio (x) = 0.61914 0.31719
# Poissons Ratio (y) = 0.15444 0.46511
# Poissons Ratio (z) = 0.09285 0.54582
#
# Static dielectric constant tensor:
#      x y z
#    x 2.729090 0.000000 0.056310 
#    y 0.000000 3.267680 0.000000 
#    z 0.056310 0.000000 3.315300 
# 
# 
# High freq. dielectric constant tensor:
#      x y z
#    x 1.613460 0.000000 0.002730 
#    y 0.000000 1.659490 0.000000 
#    z 0.002730 0.000000 1.641860 
# 
# From -- ./inp_files/259537.got.cif
#   From: 2010.06.25/outbox.cif.g09.slc.cpg/sg12_130_cif.got.tgz:259537.got - 2010.06.28 00:19:55.
