data_PCOD8078241
_publ_section_title
;
Structure prediction by ZEFSAII (Michael W. Deem and Ramdas Pophale) SiO2 
 PCOD8078241
Probable space group: C 2/M
;
_chemical_formula_sum "Si O2"
_cell_formula_units_Z 48
_cell_length_a 25.269387
_cell_length_b 27.857946
_cell_length_c 9.721253
_cell_angle_alpha 90.000000
_cell_angle_beta 22.656852
_cell_angle_gamma 90.000000
_cell_volume 2636.118583
_symmetry_space_group_name_H-M "C 2/M"
_symmetry_group_IT_number 12
_symmetry_cell_setting 'monoclinic'
loop_
_space_group_symop_operation_xyz
x,y,z
-x,y,-z
-x,-y,-z
x,-y,z
1/2+x,1/2+y,z
1/2-x,1/2+y,-z
1/2-x,1/2-y,-z
1/2+x,1/2-y,z
loop_
_atom_site_type_symbol
_atom_site_label
_atom_site_fract_x
_atom_site_fract_y
_atom_site_fract_z
Si Si1 0.127986 0.446156 0.099721
Si Si2 0.209558 0.855903 0.242332
Si Si3 0.944086 0.297604 0.788338
Si Si4 0.548369 0.053830 0.734682
Si Si5 0.446390 0.311403 0.783779
Si Si6 0.315413 0.145416 0.684903
O O1 0.168001 0.500000 0.052228
O O2 0.000000 0.426799 0.500000
O O3 0.083745 0.445613 0.047395
O O4 0.260301 0.411962 0.798056
O O5 0.048343 0.842206 0.638286
O O6 0.293794 0.822257 0.146547
O O7 0.254971 0.845554 0.979188
O O8 0.937707 0.243240 0.857166
O O9 0.000000 0.300176 0.500000
O O10 0.039047 0.326762 0.668675
O O11 0.664767 0.089341 0.397665
O O12 0.611312 0.000000 0.589788
O O13 0.500000 0.071289 0.000000
O O14 0.500000 0.313068 0.500000
O O15 0.293770 0.333489 0.162136
#
# Coordination Sequence:
#
# PCOD8078241 Si02
#       6
#     8   8   8   8   8   8
#     4  10  17  29  50  73  94 120 157 201 241 279
#     4  10  16  27  45  73 100 126 157 194 239 281
#     4   9  15  26  44  69  98 130 163 194 228 274
#     4  10  20  33  51  73  94 122 162 202 239 283
#     4   9  18  26  41  71 107 130 152 193 241 284
#     4  10  17  29  46  70  98 128 160 195 237 279
#
# _framework density 18.208589
#
# number of rings (size 3 to 8) (size 9 to 14) (size 15 to 20)
#    0.000    2.333    3.333    1.500    0.000    4.000 
#    0.000    0.833    0.000    5.000    0.000    3.500 
#    0.000    0.000    0.000    0.000    0.000    0.000 
#
# Total GULP energy -297481.871821 kJ/mol
# GULP energy per Si atom -12395.077993 kJ/mol
# Density = 1.816715 g / cm^3
# Si number density = 18.208589 Si / 1000 Ang^3
#
#
#
# Elastic Constant Matrix: (Units=GPa)
#
#
# Indices 1 2 3 4 5 6 
#
# 1 54.0521 22.5546 35.2330 -0.0030 -20.2165 0.0001
# 2 22.5546 139.6010 56.2768 0.0000 -31.1615 0.0004
# 3 35.2330 56.2768 82.9271 -0.0106 -43.2895 0.0075
# 4 -0.0030 0.0000 -0.0106 12.7974 0.0096 -10.0537
# 5 -20.2165 -31.1615 -43.2895 0.0096 29.4533 -0.0032
# 6 0.0001 0.0004 0.0075 -10.0537 -0.0032 18.0079
#
#
#
# Elastic Compliance Matrix: (Units=1/GPa)
#
#
# Indices 1 2 3 4 5 6 
#
# 1 0.025931 0.000470 -0.007670 -0.000004 0.007023 0.000002
# 2 0.000470 0.009915 -0.005516 -0.000008 0.002705 -0.000002
# 3 -0.007670 -0.005516 0.056996 -0.000031 0.072670 -0.000028
# 4 -0.000004 -0.000008 -0.000031 0.139191 -0.000093 0.077710
# 5 0.007023 0.002705 0.072670 -0.000093 0.148443 -0.000056
# 6 0.000002 -0.000002 -0.000028 0.077710 -0.000056 0.098916
#
#
# Mechanical properties :
#
#
# Convention : Reuss Voigt Hill
#
# Bulk Modulus (GPa) = 14.83472 56.07876 35.45674
# Shear Modulus (GPa) = 9.48238 22.88610 16.18424
#
# Velocity S-wave (km/s) = 2.28450 3.54910 2.98455
# Velocity P-wave (km/s) = 3.88888 6.90360 5.60281
#
# Compressibility (1/GPa) = 0.06740941
#
# Stress axis : x y z
#
# Youngs Moduli (GPa) = 38.56417 100.85888 17.54506
#
# Poissons Ratio (x) = -0.04742 0.13458
# Poissons Ratio (y) = -0.01813 0.09678
# Poissons Ratio (z) = 0.29580 0.55634
#
# Static dielectric constant tensor:
#      x y z
#    x 3.184230 -0.000010 -0.458710 
#    y -0.000010 3.519900 0.000020 
#    z -0.458710 0.000020 3.184910 
# 
# 
# High freq. dielectric constant tensor:
#      x y z
#    x 1.675340 0.000000 -0.036980 
#    y 0.000000 1.720100 0.000000 
#    z -0.036980 0.000000 1.658470 
# 
# From -- ./inp_files/91450.got.cif
#   From: 2010.06.25/outbox.cif.g09.slc.cpg/sg12_46_cif.got.tgz:91450.got - 2010.06.28 00:19:55.
