data_PCOD8078166
_publ_section_title
;
Structure prediction by ZEFSAII (Michael W. Deem and Ramdas Pophale) SiO2 
 PCOD8078166
Probable space group: C 2/M
;
_chemical_formula_sum "Si O2"
_cell_formula_units_Z 64
_cell_length_a 25.569130
_cell_length_b 12.259061
_cell_length_c 23.865328
_cell_angle_alpha 90.000000
_cell_angle_beta 36.167957
_cell_angle_gamma 90.000000
_cell_volume 4414.750095
_symmetry_space_group_name_H-M "C 2/M"
_symmetry_group_IT_number 12
_symmetry_cell_setting 'monoclinic'
loop_
_space_group_symop_operation_xyz
x,y,z
-x,y,-z
-x,-y,-z
x,-y,z
1/2+x,1/2+y,z
1/2-x,1/2+y,-z
1/2-x,1/2-y,-z
1/2+x,1/2-y,z
loop_
_atom_site_type_symbol
_atom_site_label
_atom_site_fract_x
_atom_site_fract_y
_atom_site_fract_z
Si Si1 0.892712 0.879310 0.133238
Si Si2 0.068059 0.210377 0.013617
Si Si3 0.073590 0.620156 0.482453
Si Si4 0.207532 0.292973 0.289191
Si Si5 0.215043 0.627392 0.859660
Si Si6 0.324848 0.736518 0.859458
Si Si7 0.838512 0.128651 0.961423
Si Si8 0.422733 0.125806 0.691208
O O1 0.793254 0.855748 0.238222
O O2 0.960946 0.788519 0.099454
O O3 0.920305 0.000000 0.129927
O O4 0.894588 0.876800 0.063691
O O5 0.088821 0.173848 0.058472
O O6 0.116296 0.324787 0.956503
O O7 0.118079 0.500000 0.454367
O O8 0.144094 0.711069 0.399327
O O9 0.000000 0.601490 0.500000
O O10 0.019888 0.661188 0.583737
O O11 0.238571 0.177093 0.236538
O O12 0.156857 0.360046 0.284706
O O13 0.205573 0.500000 0.858008
O O14 0.276003 0.651849 0.860592
O O15 0.364780 0.670664 0.877082
O O16 0.406036 0.797032 0.758816
O O17 0.258309 0.830113 0.937693
O O18 0.837794 0.000000 0.962457
O O19 0.424305 0.000000 0.708249
#
# Coordination Sequence:
#
# PCOD8078166 Si02
#       8
#     8   8   8   8   8   8   8   8
#     4  10  16  25  40  60  85 103 123 158 196 234
#     4   9  18  27  38  57  76 103 133 158 194 230
#     4   8  13  22  38  60  83 103 122 152 194 237
#     4   9  16  24  39  61  81 105 131 155 193 236
#     4   9  17  29  40  52  77 107 136 166 192 225
#     4   9  18  26  39  59  75 102 134 161 193 231
#     4  10  17  27  40  55  78 102 129 162 195 231
#     4   9  15  25  41  61  85 106 125 153 194 240
#
# _framework density 14.496857
#
# number of rings (size 3 to 8) (size 9 to 14) (size 15 to 20)
#    0.000    2.875    0.000    4.875    0.000    0.000 
#    0.000    5.625    0.000   10.125    0.000    0.875 
#    0.000    0.000    0.000    0.000    0.000    0.000 
#
# Total GULP energy -396464.880755 kJ/mol
# GULP energy per Si atom -12389.527524 kJ/mol
# Density = 1.446386 g / cm^3
# Si number density = 14.496857 Si / 1000 Ang^3
#
#
#
# Elastic Constant Matrix: (Units=GPa)
#
#
# Indices 1 2 3 4 5 6 
#
# 1 52.5711 27.1931 34.4827 0.0000 -0.3243 0.0000
# 2 27.1931 99.2008 46.1294 0.0000 3.0109 0.0000
# 3 34.4827 46.1294 99.0380 0.0000 2.2619 0.0000
# 4 0.0000 0.0000 0.0000 12.0785 0.0000 -1.0581
# 5 -0.3243 3.0109 2.2619 0.0000 17.2453 0.0000
# 6 0.0000 0.0000 0.0000 -1.0581 0.0000 11.7476
#
#
#
# Elastic Compliance Matrix: (Units=1/GPa)
#
#
# Indices 1 2 3 4 5 6 
#
# 1 0.025735 -0.003739 -0.007267 0.000000 0.002090 0.000000
# 2 -0.003739 0.013448 -0.004921 0.000000 -0.001773 0.000000
# 3 -0.007267 -0.004921 0.014948 0.000000 -0.001238 0.000000
# 4 0.000000 0.000000 0.000000 0.083450 0.000000 0.007516
# 5 0.002090 -0.001773 -0.001238 0.000000 0.058498 0.000000
# 6 0.000000 0.000000 0.000000 0.007516 0.000000 0.085801
#
#
# Mechanical properties :
#
#
# Convention : Reuss Voigt Hill
#
# Bulk Modulus (GPa) = 44.88969 51.82449 48.35709
# Shear Modulus (GPa) = 15.56862 17.74792 16.65827
#
# Velocity S-wave (km/s) = 3.28064 3.50274 3.39351
# Velocity P-wave (km/s) = 6.73665 7.22394 6.98455
#
# Compressibility (1/GPa) = 0.02227683
#
# Stress axis : x y z
#
# Youngs Moduli (GPa) = 38.85747 74.36176 66.89996
#
# Poissons Ratio (x) = 0.27803 0.48613
# Poissons Ratio (y) = 0.14529 0.32924
# Poissons Ratio (z) = 0.28236 0.36596
#
# Static dielectric constant tensor:
#      x y z
#    x 2.705220 0.000000 0.085010 
#    y 0.000000 2.648920 0.000000 
#    z 0.085010 0.000000 3.111900 
# 
# 
# High freq. dielectric constant tensor:
#      x y z
#    x 1.523620 0.000000 0.002180 
#    y 0.000000 1.536580 0.000000 
#    z 0.002180 0.000000 1.547290 
# 
# From -- ./inp_files/369195.got.cif
#   From: 2010.06.25/outbox.cif.g09.slc.cpg/sg12_185_cif.got.tgz:369195.got - 2010.06.28 00:19:55.
