data_PCOD8078867
_publ_section_title
;
Structure prediction by ZEFSAII (Michael W. Deem and Ramdas Pophale) SiO2 
 PCOD8078867
Probable space group: C 2/M
;
_chemical_formula_sum "Si O2"
_cell_formula_units_Z 56
_cell_length_a 28.918766
_cell_length_b 8.761181
_cell_length_c 17.325335
_cell_angle_alpha 90.000000
_cell_angle_beta 50.317499
_cell_angle_gamma 90.000000
_cell_volume 3378.205519
_symmetry_space_group_name_H-M "C 2/M"
_symmetry_group_IT_number 12
_symmetry_cell_setting 'monoclinic'
loop_
_space_group_symop_operation_xyz
x,y,z
-x,y,-z
-x,-y,-z
x,-y,z
1/2+x,1/2+y,z
1/2-x,1/2+y,-z
1/2-x,1/2-y,-z
1/2+x,1/2-y,z
loop_
_atom_site_type_symbol
_atom_site_label
_atom_site_fract_x
_atom_site_fract_y
_atom_site_fract_z
Si Si1 0.160532 0.677677 0.074102
Si Si2 0.393870 0.674350 0.089062
Si Si3 0.920578 0.822104 0.229259
Si Si4 0.787280 0.818665 0.391028
Si Si5 0.238890 0.322465 0.133836
Si Si6 0.728635 0.177571 0.752617
Si Si7 0.047044 0.822631 0.135373
O O1 0.168573 0.500000 0.046663
O O2 0.184042 0.715895 0.134866
O O3 0.090736 0.726428 0.144364
O O4 0.197998 0.772828 0.971626
O O5 0.369411 0.500000 0.117819
O O6 0.430965 0.710009 0.127344
O O7 0.337708 0.787841 0.144859
O O8 0.436100 0.702727 0.971678
O O9 0.856015 0.754977 0.324736
O O10 0.978342 0.758250 0.215361
O O11 0.919515 0.000000 0.246558
O O12 0.750000 0.750000 0.500000
O O13 0.758357 0.765016 0.341125
O O14 0.785365 0.000000 0.396285
O O15 0.243767 0.500000 0.146812
O O16 0.226413 0.234618 0.227558
O O17 0.738189 0.000000 0.727649
O O18 0.051696 0.000000 0.153609
#
# Coordination Sequence:
#
# PCOD8078867 Si02
#       7
#     8   8   8   8   8   8   8
#     4  10  20  30  43  65  95 128 164 204 238 272
#     4   9  16  27  43  64  93 128 163 194 225 270
#     4   8  16  29  46  68  92 124 161 193 227 282
#     4  10  20  36  55  74  98 123 156 197 241 287
#     4  10  19  32  46  63  91 130 168 199 236 279
#     4  11  20  30  48  72  98 125 159 199 242 284
#     4  10  17  27  45  66  93 130 165 192 229 277
#
# _framework density 16.576847000000001
#
# number of rings (size 3 to 8) (size 9 to 14) (size 15 to 20)
#    0.000    2.286    1.429    3.857    0.000    3.429 
#    0.000    3.571    0.000    4.286    0.000    1.000 
#    0.000    8.000    0.000    0.000    0.000    0.000 
#
# Total GULP energy -347065.383371 kJ/mol
# GULP energy per Si atom -12395.192263 kJ/mol
# Density = 1.653912 g / cm^3
# Si number density = 16.576847 Si / 1000 Ang^3
#
#
#
# Elastic Constant Matrix: (Units=GPa)
#
#
# Indices 1 2 3 4 5 6 
#
# 1 123.4262 31.1953 52.1025 0.0002 6.6064 -0.0001
# 2 31.1953 65.5718 32.0947 0.0010 5.3130 -0.0008
# 3 52.1025 32.0947 72.3940 -0.0001 5.4452 0.0000
# 4 0.0002 0.0010 -0.0001 21.5673 -0.0001 3.9094
# 5 6.6064 5.3130 5.4452 -0.0001 16.8205 -0.0001
# 6 -0.0001 -0.0008 0.0000 3.9094 -0.0001 23.5634
#
#
#
# Elastic Compliance Matrix: (Units=1/GPa)
#
#
# Indices 1 2 3 4 5 6 
#
# 1 0.011856 -0.001778 -0.007622 0.000000 -0.001628 0.000000
# 2 -0.001778 0.019940 -0.007317 -0.000001 -0.003231 0.000001
# 3 -0.007622 -0.007317 0.022697 0.000001 -0.002042 0.000000
# 4 0.000000 -0.000001 0.000001 0.047804 0.000000 -0.007931
# 5 -0.001628 -0.003231 -0.002042 0.000000 0.061772 0.000000
# 6 0.000000 0.000001 0.000000 -0.007931 0.000000 0.043755
#
#
# Mechanical properties :
#
#
# Convention : Reuss Voigt Hill
#
# Bulk Modulus (GPa) = 47.48903 54.68634 51.08768
# Shear Modulus (GPa) = 20.13873 22.12353 21.13113
#
# Velocity S-wave (km/s) = 3.48928 3.65719 3.57422
# Velocity P-wave (km/s) = 6.70399 7.13404 6.92236
#
# Compressibility (1/GPa) = 0.02105750
#
# Stress axis : x y z
#
# Youngs Moduli (GPa) = 84.34471 50.15149 44.05898
#
# Poissons Ratio (x) = 0.08916 0.33583
# Poissons Ratio (y) = 0.14994 0.32240
# Poissons Ratio (z) = 0.64291 0.36698
#
# Static dielectric constant tensor:
#      x y z
#    x 3.431000 0.000000 0.048620 
#    y 0.000000 3.022720 0.000000 
#    z 0.048620 0.000000 2.878950 
# 
# 
# High freq. dielectric constant tensor:
#      x y z
#    x 1.643430 0.000000 0.013040 
#    y 0.000000 1.631600 0.000000 
#    z 0.013040 0.000000 1.592580 
# 
# From -- ./inp_files/243610.got.cif
#   From: 2010.06.25/outbox.cif.g09.slc.cpg/sg12_122_cif.got.tgz:243610.got - 2010.06.28 00:19:55.
