data_PCOD8078660
_publ_section_title
;
Structure prediction by ZEFSAII (Michael W. Deem and Ramdas Pophale) SiO2 
 PCOD8078660
Probable space group: C 2/M
;
_chemical_formula_sum "Si O2"
_cell_formula_units_Z 64
_cell_length_a 32.072312
_cell_length_b 8.955753
_cell_length_c 14.384813
_cell_angle_alpha 90.000000
_cell_angle_beta 96.443939
_cell_angle_gamma 90.000000
_cell_volume 4105.670399
_symmetry_space_group_name_H-M "C 2/M"
_symmetry_group_IT_number 12
_symmetry_cell_setting 'monoclinic'
loop_
_space_group_symop_operation_xyz
x,y,z
-x,y,-z
-x,-y,-z
x,-y,z
1/2+x,1/2+y,z
1/2-x,1/2+y,-z
1/2-x,1/2-y,-z
1/2+x,1/2-y,z
loop_
_atom_site_type_symbol
_atom_site_label
_atom_site_fract_x
_atom_site_fract_y
_atom_site_fract_z
Si Si1 0.405976 0.830279 0.755426
Si Si2 0.725135 0.322714 0.077456
Si Si3 0.239451 0.676268 0.271125
Si Si4 0.863094 0.670423 0.943945
Si Si5 0.937005 0.831889 0.040186
Si Si6 0.163969 0.825146 0.364105
Si Si7 0.786040 0.170656 0.455092
Si Si8 0.020187 0.832310 0.148620
O O1 0.382105 0.811877 0.846592
O O2 0.382318 0.732482 0.671897
O O3 0.454040 0.773931 0.775279
O O4 0.406978 0.000000 0.722016
O O5 0.728858 0.500000 0.074296
O O6 0.746090 0.262819 0.177143
O O7 0.676799 0.276326 0.059072
O O8 0.750000 0.250000 0.000000
O O9 0.233694 0.500000 0.249957
O O10 0.197753 0.734119 0.312210
O O11 0.281521 0.711762 0.344255
O O12 0.850421 0.500000 0.961665
O O13 0.896891 0.722755 0.029926
O O14 0.971873 0.776813 0.124156
O O15 0.922372 0.000000 0.060913
O O16 0.957892 0.830664 0.945114
O O17 0.170688 0.796391 0.477839
O O18 0.168020 0.000000 0.340517
O O19 0.750000 0.250000 0.500000
O O20 0.774305 0.000000 0.461594
O O21 0.020566 0.000000 0.189102
#
# Coordination Sequence:
#
# PCOD8078660 Si02
#       8
#     8   8   8   8   8   8   8   8
#     4  10  18  25  37  57  84 113 141 175 210 243
#     4  12  24  36  49  63  81 107 141 181 221 259
#     4  10  18  31  46  61  82 105 135 176 216 253
#     4  10  19  30  43  59  80 106 138 175 214 252
#     4   8  14  25  40  56  75 102 137 172 206 244
#     4  10  17  26  41  61  83 112 144 171 205 248
#     4   8  16  27  41  60  81 105 135 170 206 247
#     4   8  14  24  37  54  77 105 138 172 203 242
#
# _framework density 15.588196999999999
#
# number of rings (size 3 to 8) (size 9 to 14) (size 15 to 20)
#    0.000    2.500    1.250    3.375    0.000    2.500 
#    0.000    2.500    0.000    0.000    0.000    0.000 
#    0.000    0.000    0.000    1.125    0.000   22.500 
#
# Total GULP energy -396463.582154 kJ/mol
# GULP energy per Si atom -12389.486942 kJ/mol
# Density = 1.555272 g / cm^3
# Si number density = 15.588197 Si / 1000 Ang^3
#
#
#
# Elastic Constant Matrix: (Units=GPa)
#
#
# Indices 1 2 3 4 5 6 
#
# 1 47.0376 36.5304 48.4084 0.0000 26.0168 0.0000
# 2 36.5304 99.5228 50.5373 0.0000 17.2978 0.0000
# 3 48.4084 50.5373 94.5915 0.0000 29.0717 0.0000
# 4 0.0000 0.0000 0.0000 19.9109 0.0000 6.6881
# 5 26.0168 17.2978 29.0717 0.0000 27.5881 0.0000
# 6 0.0000 0.0000 0.0000 6.6881 0.0000 22.6051
#
#
#
# Elastic Compliance Matrix: (Units=1/GPa)
#
#
# Indices 1 2 3 4 5 6 
#
# 1 0.069759 -0.009268 -0.018215 0.000000 -0.040780 0.000000
# 2 -0.009268 0.015052 -0.004562 0.000000 0.004110 0.000000
# 3 -0.018215 -0.004562 0.023919 0.000000 -0.005167 0.000000
# 4 0.000000 0.000000 0.000000 0.055766 0.000000 -0.016499
# 5 -0.040780 0.004110 -0.005167 0.000000 0.077573 0.000000
# 6 0.000000 0.000000 0.000000 -0.016499 0.000000 0.049119
#
#
# Mechanical properties :
#
#
# Convention : Reuss Voigt Hill
#
# Bulk Modulus (GPa) = 22.40140 56.90047 39.65093
# Shear Modulus (GPa) = 13.50769 21.06586 17.28677
#
# Velocity S-wave (km/s) = 2.94689 3.68013 3.33373
# Velocity P-wave (km/s) = 5.09714 7.39184 6.34902
#
# Compressibility (1/GPa) = 0.04464006
#
# Stress axis : x y z
#
# Youngs Moduli (GPa) = 14.33498 66.43619 41.80781
#
# Poissons Ratio (x) = 0.61574 0.76154
# Poissons Ratio (y) = 0.13286 0.19072
# Poissons Ratio (z) = 0.26112 0.30307
#
# Static dielectric constant tensor:
#      x y z
#    x 2.935540 0.000000 0.606140 
#    y 0.000000 3.107980 0.000000 
#    z 0.606140 0.000000 3.225650 
# 
# 
# High freq. dielectric constant tensor:
#      x y z
#    x 1.560050 0.000000 0.054130 
#    y 0.000000 1.612330 0.000000 
#    z 0.054130 0.000000 1.571650 
# 
# From -- ./inp_files/248484.got.cif
#   From: 2010.06.25/outbox.cif.g09.slc.cpg/sg12_125_cif.got.tgz:248484.got - 2010.06.28 00:19:55.
