data_PCOD8078210
_publ_section_title
;
Structure prediction by ZEFSAII (Michael W. Deem and Ramdas Pophale) SiO2 
 PCOD8078210
Probable space group: C 2/M
;
_chemical_formula_sum "Si O2"
_cell_formula_units_Z 28
_cell_length_a 5.249208
_cell_length_b 16.739788
_cell_length_c 19.179975
_cell_angle_alpha 90.000000
_cell_angle_beta 66.265442
_cell_angle_gamma 90.000000
_cell_volume 1542.809005
_symmetry_space_group_name_H-M "C 2/M"
_symmetry_group_IT_number 12
_symmetry_cell_setting 'monoclinic'
loop_
_space_group_symop_operation_xyz
x,y,z
-x,y,-z
-x,-y,-z
x,-y,z
1/2+x,1/2+y,z
1/2-x,1/2+y,-z
1/2-x,1/2-y,-z
1/2+x,1/2-y,z
loop_
_atom_site_type_symbol
_atom_site_label
_atom_site_fract_x
_atom_site_fract_y
_atom_site_fract_z
Si Si1 0.175494 0.000000 0.550663
Si Si2 0.536097 0.588533 0.303245
Si Si3 0.888236 0.199230 0.086316
Si Si4 0.146573 0.404714 0.228216
O O1 0.500000 0.000000 0.500000
O O2 0.096470 0.079442 0.604381
O O3 0.000000 0.000000 0.500000
O O4 0.589501 0.500000 0.266000
O O5 0.323698 0.631746 0.273537
O O6 0.835717 0.632032 0.271836
O O7 0.638829 0.261523 0.102104
O O8 0.777341 0.123265 0.141023
O O9 0.000000 0.166985 0.000000
O O10 0.139196 0.500000 0.232090
#
# Coordination Sequence:
#
# PCOD8078210 Si02
#       4
#     4   8   8   8
#     4  10  16  26  44  70 107 134 149 188 254 298
#     4   8  17  27  43  70  98 130 151 199 238 290
#     4  10  21  35  50  71  99 130 169 213 248 286
#     4  10  17  32  50  69  99 133 160 206 246 288
#
# _framework density 18.148713999999998
#
# number of rings (size 3 to 8) (size 9 to 14) (size 15 to 20)
#    0.857    1.714    0.000    3.429    0.000    0.571 
#    0.000    0.000    0.000   10.286    0.000    0.000 
#    0.000   80.000    0.000    0.000    0.000    0.000 
#
# Total GULP energy -173458.008763 kJ/mol
# GULP energy per Si atom -12389.857769 kJ/mol
# Density = 1.810741 g / cm^3
# Si number density = 18.148714 Si / 1000 Ang^3
#
#
#
# Elastic Constant Matrix: (Units=GPa)
#
#
# Indices 1 2 3 4 5 6 
#
# 1 178.5886 14.0875 75.7051 0.0000 -10.9285 0.0000
# 2 14.0875 10.0621 22.8549 0.0000 -2.0389 0.0000
# 3 75.7051 22.8549 147.3652 0.0000 -6.4163 0.0000
# 4 0.0000 0.0000 0.0000 15.7978 0.0000 -1.8942
# 5 -10.9285 -2.0389 -6.4163 0.0000 35.6208 0.0000
# 6 0.0000 0.0000 0.0000 -1.8942 0.0000 9.9237
#
#
#
# Elastic Compliance Matrix: (Units=1/GPa)
#
#
# Indices 1 2 3 4 5 6 
#
# 1 0.007280 -0.002381 -0.003306 0.000000 0.001502 0.000000
# 2 -0.002381 0.154940 -0.022630 0.000000 0.004062 0.000000
# 3 -0.003306 -0.022630 0.011987 0.000000 -0.000150 0.000000
# 4 0.000000 0.000000 0.000000 0.064783 0.000000 0.012366
# 5 0.001502 0.004062 -0.000150 0.000000 0.028740 0.000000
# 6 0.000000 0.000000 0.000000 0.012366 0.000000 0.103129
#
#
# Mechanical properties :
#
#
# Convention : Reuss Voigt Hill
#
# Bulk Modulus (GPa) = 8.50517 62.36788 35.43652
# Shear Modulus (GPa) = 10.71393 27.15970 18.93682
#
# Velocity S-wave (km/s) = 2.43233 3.87267 3.23371
# Velocity P-wave (km/s) = 3.54751 7.37809 5.78883
#
# Compressibility (1/GPa) = 0.11757558
#
# Stress axis : x y z
#
# Youngs Moduli (GPa) = 137.35528 6.45412 83.42298
#
# Poissons Ratio (x) = 0.01536 0.27576
# Poissons Ratio (y) = 0.32698 1.88785
# Poissons Ratio (z) = 0.45403 0.14606
#
# Static dielectric constant tensor:
#      x y z
#    x 3.790400 0.000000 -0.008240 
#    y 0.000000 2.665050 0.000000 
#    z -0.008240 0.000000 3.335490 
# 
# 
# High freq. dielectric constant tensor:
#      x y z
#    x 1.737470 0.000000 -0.001790 
#    y 0.000000 1.632290 0.000000 
#    z -0.001790 0.000000 1.703530 
# 
# From -- ./inp_files/252349.got.cif
#   From: 2010.06.25/outbox.cif.g09.slc.cpg/sg12_127_cif.got.tgz:252349.got - 2010.06.28 00:19:55.
