data_PCOD8078227
_publ_section_title
;
Structure prediction by ZEFSAII (Michael W. Deem and Ramdas Pophale) SiO2 
 PCOD8078227
Probable space group: C 2/M
;
_chemical_formula_sum "Si O2"
_cell_formula_units_Z 56
_cell_length_a 21.437619
_cell_length_b 17.746900
_cell_length_c 7.285378
_cell_angle_alpha 90.000000
_cell_angle_beta 108.969147
_cell_angle_gamma 90.000000
_cell_volume 2621.209059
_symmetry_space_group_name_H-M "C 2/M"
_symmetry_group_IT_number 12
_symmetry_cell_setting 'monoclinic'
loop_
_space_group_symop_operation_xyz
x,y,z
-x,y,-z
-x,-y,-z
x,-y,z
1/2+x,1/2+y,z
1/2-x,1/2+y,-z
1/2-x,1/2-y,-z
1/2+x,1/2-y,z
loop_
_atom_site_type_symbol
_atom_site_label
_atom_site_fract_x
_atom_site_fract_y
_atom_site_fract_z
Si Si1 0.926370 0.700762 0.933372
Si Si2 0.183010 0.413227 0.109313
Si Si3 0.353734 0.710642 0.149120
Si Si4 0.783252 0.086726 0.513932
Si Si5 0.420422 0.357417 0.757113
Si Si6 0.268679 0.168028 0.198443
Si Si7 0.442271 0.413312 0.187171
O O1 0.874817 0.633565 0.844980
O O2 0.923217 0.767017 0.778158
O O3 0.910840 0.736507 0.117913
O O4 0.000000 0.666381 0.000000
O O5 0.161116 0.500000 0.086004
O O6 0.251676 0.401605 0.283401
O O7 0.196147 0.385418 0.916362
O O8 0.312650 0.755576 0.265126
O O9 0.390232 0.635590 0.260169
O O10 0.304746 0.691169 0.932749
O O11 0.855726 0.121401 0.582308
O O12 0.734573 0.126841 0.611637
O O13 0.787033 0.000000 0.574429
O O14 0.483032 0.387424 0.700474
O O15 0.422957 0.398770 0.956652
O O16 0.432349 0.500000 0.230535
#
# Coordination Sequence:
#
# PCOD8078227 Si02
#       7
#     8   8   8   8   8   8   8
#     4  10  17  35  58  79 113 148 189 239 277 327
#     4  10  24  38  55  88 115 143 192 237 280 337
#     4   9  18  31  50  82 110 142 191 225 263 341
#     4  11  21  36  59  86 116 148 185 230 285 337
#     4  10  17  29  51  85 110 147 191 226 273 341
#     4  10  19  36  57  79 116 151 183 231 282 326
#     4  10  16  26  49  83 115 144 187 230 272 332
#
# _framework density 21.364187999999999
#
# number of rings (size 3 to 8) (size 9 to 14) (size 15 to 20)
#    0.000    2.000    5.714    2.143    0.000    1.429 
#    0.000    0.000    0.000    6.000    0.000   12.000 
#    0.000    0.000    0.000    0.000    0.000    0.000 
#
# Total GULP energy -347164.896777 kJ/mol
# GULP energy per Si atom -12398.746313 kJ/mol
# Density = 2.131556 g / cm^3
# Si number density = 21.364188 Si / 1000 Ang^3
#
#
#
# Elastic Constant Matrix: (Units=GPa)
#
#
# Indices 1 2 3 4 5 6 
#
# 1 124.0547 64.9274 24.9821 0.0000 31.7376 0.0000
# 2 64.9274 150.6840 31.6400 0.0000 19.7048 0.0000
# 3 24.9821 31.6400 33.7518 0.0000 10.5699 0.0000
# 4 0.0000 0.0000 0.0000 18.4090 0.0000 12.9254
# 5 31.7376 19.7048 10.5699 0.0000 30.1344 0.0000
# 6 0.0000 0.0000 0.0000 12.9254 0.0000 24.3772
#
#
#
# Elastic Compliance Matrix: (Units=1/GPa)
#
#
# Indices 1 2 3 4 5 6 
#
# 1 0.013316 -0.003716 -0.003080 0.000000 -0.010514 0.000000
# 2 -0.003716 0.009552 -0.006149 0.000000 -0.000175 0.000000
# 3 -0.003080 -0.006149 0.039765 0.000000 -0.006684 0.000000
# 4 0.000000 0.000000 0.000000 0.086538 0.000000 -0.045885
# 5 -0.010514 -0.000175 -0.006684 0.000000 0.046717 0.000000
# 6 0.000000 0.000000 0.000000 -0.045885 0.000000 0.065351
#
#
# Mechanical properties :
#
#
# Convention : Reuss Voigt Hill
#
# Bulk Modulus (GPa) = 27.21585 61.28772 44.25179
# Shear Modulus (GPa) = 16.70146 27.04685 21.87416
#
# Velocity S-wave (km/s) = 2.79901 3.56194 3.20327
# Velocity P-wave (km/s) = 4.81795 6.75766 5.86850
#
# Compressibility (1/GPa) = 0.03674329
#
# Stress axis : x y z
#
# Youngs Moduli (GPa) = 75.09769 104.69501 25.14800
#
# Poissons Ratio (x) = 0.38905 0.07745
# Poissons Ratio (y) = 0.27906 0.15462
# Poissons Ratio (z) = 0.23129 0.64372
#
# Static dielectric constant tensor:
#      x y z
#    x 4.031050 0.000000 0.173750 
#    y 0.000000 4.021620 0.000000 
#    z 0.173750 0.000000 3.335370 
# 
# 
# High freq. dielectric constant tensor:
#      x y z
#    x 1.850120 0.000000 0.007810 
#    y 0.000000 1.840350 0.000000 
#    z 0.007810 0.000000 1.796310 
# 
# From -- ./inp_files/97833.got.cif
#   From: 2010.06.25/outbox.cif.g09.slc.cpg/sg12_49_cif.got.tgz:97833.got - 2010.06.28 00:19:55.
