data_PCOD8078832
_publ_section_title
;
Structure prediction by ZEFSAII (Michael W. Deem and Ramdas Pophale) SiO2 
 PCOD8078832
Probable space group: C 2/M
;
_chemical_formula_sum "Si O2"
_cell_formula_units_Z 48
_cell_length_a 24.280455
_cell_length_b 8.975098
_cell_length_c 14.237081
_cell_angle_alpha 90.000000
_cell_angle_beta 69.469785
_cell_angle_gamma 90.000000
_cell_volume 2905.486781
_symmetry_space_group_name_H-M "C 2/M"
_symmetry_group_IT_number 12
_symmetry_cell_setting 'monoclinic'
loop_
_space_group_symop_operation_xyz
x,y,z
-x,y,-z
-x,-y,-z
x,-y,z
1/2+x,1/2+y,z
1/2-x,1/2+y,-z
1/2-x,1/2-y,-z
1/2+x,1/2-y,z
loop_
_atom_site_type_symbol
_atom_site_label
_atom_site_fract_x
_atom_site_fract_y
_atom_site_fract_z
Si Si1 0.087750 0.827037 0.507371
Si Si2 0.226819 0.673422 0.231741
Si Si3 0.303277 0.674546 0.021872
Si Si4 0.292096 0.176696 0.549869
Si Si5 0.122625 0.324072 0.161047
Si Si6 0.464070 0.327653 0.661694
O O1 0.141151 0.725407 0.510327
O O2 0.069252 0.780092 0.413519
O O3 0.033398 0.796637 0.609880
O O4 0.105918 0.000000 0.499710
O O5 0.214273 0.500000 0.248939
O O6 0.289371 0.702622 0.141236
O O7 0.227585 0.740697 0.336003
O O8 0.172271 0.737414 0.203674
O O9 0.304953 0.500000 0.998411
O O10 0.250000 0.750000 0.000000
O O11 0.363674 0.751130 0.949769
O O12 0.250000 0.250000 0.500000
O O13 0.286705 0.000000 0.545846
O O14 0.122795 0.500000 0.148738
O O15 0.059699 0.269577 0.237012
O O16 0.452406 0.500000 0.690079
#
# Coordination Sequence:
#
# PCOD8078832 Si02
#       6
#     8   8   8   8   8   8
#     4   9  18  32  47  68  94 123 158 195 235 278
#     4   8  16  29  43  61  90 122 154 191 229 272
#     4   9  16  27  42  63  90 121 153 188 232 280
#     4  11  21  34  49  68  93 126 163 199 233 273
#     4  10  17  27  43  68  96 124 155 186 228 282
#     4   9  17  29  47  69  96 125 154 190 234 282
#
# _framework density 16.520468999999999
#
# number of rings (size 3 to 8) (size 9 to 14) (size 15 to 20)
#    0.000    2.667    1.667    3.500    0.000    0.667 
#    0.000    4.167    0.000    0.000    0.000    1.167 
#    0.000    9.333    0.000    0.000    0.000    0.000 
#
# Total GULP energy -297440.400394 kJ/mol
# GULP energy per Si atom -12393.350016 kJ/mol
# Density = 1.648287 g / cm^3
# Si number density = 16.520469 Si / 1000 Ang^3
#
#
#
# Elastic Constant Matrix: (Units=GPa)
#
#
# Indices 1 2 3 4 5 6 
#
# 1 69.2504 34.4469 42.4167 0.0000 -8.3224 0.0000
# 2 34.4469 76.7240 46.4909 0.0000 -13.0174 0.0000
# 3 42.4167 46.4909 115.0373 0.0000 -26.7542 0.0000
# 4 0.0000 0.0000 0.0000 26.4969 0.0000 -7.1251
# 5 -8.3224 -13.0174 -26.7542 0.0000 24.8158 0.0000
# 6 0.0000 0.0000 0.0000 -7.1251 0.0000 23.8026
#
#
#
# Elastic Compliance Matrix: (Units=1/GPa)
#
#
# Indices 1 2 3 4 5 6 
#
# 1 0.020756 -0.006293 -0.005684 0.000000 -0.002468 0.000000
# 2 -0.006293 0.019247 -0.004806 0.000000 0.002805 0.000000
# 3 -0.005684 -0.004806 0.015617 0.000000 0.012410 0.000000
# 4 0.000000 0.000000 0.000000 0.041044 0.000000 0.012286
# 5 -0.002468 0.002805 0.012410 0.000000 0.054319 0.000000
# 6 0.000000 0.000000 0.000000 0.012286 0.000000 0.045690
#
#
# Mechanical properties :
#
#
# Convention : Reuss Voigt Hill
#
# Bulk Modulus (GPa) = 45.34332 56.41341 50.87836
# Shear Modulus (GPa) = 21.04469 24.20021 22.62245
#
# Velocity S-wave (km/s) = 3.57298 3.83150 3.70450
# Velocity P-wave (km/s) = 6.67293 7.33455 7.01155
#
# Compressibility (1/GPa) = 0.02205396
#
# Stress axis : x y z
#
# Youngs Moduli (GPa) = 48.17995 51.95572 64.03365
#
# Poissons Ratio (x) = 0.32698 0.36394
# Poissons Ratio (y) = 0.30322 0.30773
# Poissons Ratio (z) = 0.27384 0.24968
#
# Static dielectric constant tensor:
#      x y z
#    x 2.637270 0.000000 -0.128210 
#    y 0.000000 3.030180 0.000000 
#    z -0.128210 0.000000 3.388870 
# 
# 
# High freq. dielectric constant tensor:
#      x y z
#    x 1.582840 0.000000 -0.032600 
#    y 0.000000 1.633870 0.000000 
#    z -0.032600 0.000000 1.643250 
# 
# From -- ./inp_files/229963.got.cif
#   From: 2010.06.25/outbox.cif.g09.slc.cpg/sg12_115_cif.got.tgz:229963.got - 2010.06.28 00:19:55.
