data_PCOD8078979
_publ_section_title
;
Structure prediction by ZEFSAII (Michael W. Deem and Ramdas Pophale) SiO2 
 PCOD8078979
Probable space group: C 2/M
;
_chemical_formula_sum "Si O2"
_cell_formula_units_Z 48
_cell_length_a 23.457175
_cell_length_b 14.141102
_cell_length_c 15.848851
_cell_angle_alpha 90.000000
_cell_angle_beta 37.051814
_cell_angle_gamma 90.000000
_cell_volume 3167.673914
_symmetry_space_group_name_H-M "C 2/M"
_symmetry_group_IT_number 12
_symmetry_cell_setting 'monoclinic'
loop_
_space_group_symop_operation_xyz
x,y,z
-x,y,-z
-x,-y,-z
x,-y,z
1/2+x,1/2+y,z
1/2-x,1/2+y,-z
1/2-x,1/2-y,-z
1/2+x,1/2-y,z
loop_
_atom_site_type_symbol
_atom_site_label
_atom_site_fract_x
_atom_site_fract_y
_atom_site_fract_z
Si Si1 0.268523 0.830679 0.784596
Si Si2 0.343385 0.745951 0.942367
Si Si3 0.999547 0.895014 0.288461
Si Si4 0.845634 0.000000 0.151464
Si Si5 0.437608 0.256912 0.496974
Si Si6 0.039164 0.000000 0.820294
Si Si7 0.922381 0.608963 0.737071
O O1 0.330590 0.763046 0.651766
O O2 0.333536 0.880103 0.778918
O O3 0.218275 0.908458 0.786923
O O4 0.185562 0.766882 0.925609
O O5 0.400236 0.656025 0.840043
O O6 0.401106 0.842322 0.853467
O O7 0.250000 0.750000 0.000000
O O8 0.932002 0.834158 0.429166
O O9 0.017439 0.000000 0.306172
O O10 0.952599 0.907155 0.250349
O O11 0.877219 0.000000 0.211494
O O12 0.935781 0.000000 0.984331
O O13 0.500000 0.299658 0.500000
O O14 0.485441 0.158411 0.411555
O O15 0.946093 0.500000 0.724504
#
# Coordination Sequence:
#
# PCOD8078979 Si02
#       7
#     8   8   8   4   8   4   8
#     4  10  17  28  44  69  96 116 153 196 228 264
#     4   9  17  27  43  67  92 119 154 182 220 280
#     4   9  17  34  48  61  96 131 151 187 234 273
#     4  11  18  30  51  74  86 115 160 207 241 259
#     4   9  19  29  44  71  98 124 154 181 224 292
#     4   9  20  32  51  68  88 117 164 197 237 271
#     4   9  17  28  43  64  97 128 147 177 228 279
#
# _framework density 15.153076
#
# number of rings (size 3 to 8) (size 9 to 14) (size 15 to 20)
#    0.500    2.167    2.500    1.000    1.167    2.000 
#    0.000    1.667    0.000    0.000    0.000    0.000 
#    0.000    3.000    0.000    0.000    0.000    0.000 
#
# Total GULP energy -297382.676051 kJ/mol
# GULP energy per Si atom -12390.944835 kJ/mol
# Density = 1.511859 g / cm^3
# Si number density = 15.153076 Si / 1000 Ang^3
#
#
#
# Elastic Constant Matrix: (Units=GPa)
#
#
# Indices 1 2 3 4 5 6 
#
# 1 68.5637 39.2311 30.7605 0.0000 10.8304 0.0000
# 2 39.2311 105.4483 51.3679 0.0000 13.4421 0.0000
# 3 30.7605 51.3679 109.4260 0.0000 14.8426 0.0000
# 4 0.0000 0.0000 0.0000 19.7683 0.0000 4.9857
# 5 10.8304 13.4421 14.8426 0.0000 17.8077 0.0000
# 6 0.0000 0.0000 0.0000 4.9857 0.0000 17.7466
#
#
#
# Elastic Compliance Matrix: (Units=1/GPa)
#
#
# Indices 1 2 3 4 5 6 
#
# 1 0.019637 -0.005506 -0.002119 0.000000 -0.006021 0.000000
# 2 -0.005506 0.014254 -0.004666 0.000000 -0.003522 0.000000
# 3 -0.002119 -0.004666 0.012709 0.000000 -0.005782 0.000000
# 4 0.000000 0.000000 0.000000 0.054443 0.000000 -0.015295
# 5 -0.006021 -0.003522 -0.005782 0.000000 0.067295 0.000000
# 6 0.000000 0.000000 0.000000 -0.015295 0.000000 0.060646
#
#
# Mechanical properties :
#
#
# Convention : Reuss Voigt Hill
#
# Bulk Modulus (GPa) = 45.41654 58.46190 51.93922
# Shear Modulus (GPa) = 19.16413 21.86975 20.51694
#
# Velocity S-wave (km/s) = 3.56012 3.80314 3.68364
# Velocity P-wave (km/s) = 6.85100 7.61248 7.24175
#
# Compressibility (1/GPa) = 0.02201841
#
# Stress axis : x y z
#
# Youngs Moduli (GPa) = 50.92388 70.15796 78.68664
#
# Poissons Ratio (x) = 0.38631 0.16671
# Poissons Ratio (y) = 0.28040 0.36711
# Poissons Ratio (z) = 0.10789 0.32732
#
# Static dielectric constant tensor:
#      x y z
#    x 2.643610 0.000000 0.215660 
#    y 0.000000 2.909020 0.000000 
#    z 0.215660 0.000000 3.365890 
# 
# 
# High freq. dielectric constant tensor:
#      x y z
#    x 1.536190 0.000000 0.010250 
#    y 0.000000 1.570950 0.000000 
#    z 0.010250 0.000000 1.593120 
# 
# From -- ./inp_files/166358.got.cif
#   From: 2010.06.25/outbox.cif.g09.slc.cpg/sg12_84_cif.got.tgz:166358.got - 2010.06.28 00:19:55.
