data_PCOD8078151
_publ_section_title
;
Structure prediction by ZEFSAII (Michael W. Deem and Ramdas Pophale) SiO2 
 PCOD8078151
Probable space group: C 2/M
;
_chemical_formula_sum "Si O2"
_cell_formula_units_Z 64
_cell_length_a 29.526346
_cell_length_b 21.798762
_cell_length_c 12.754543
_cell_angle_alpha 90.000000
_cell_angle_beta 27.123893
_cell_angle_gamma 90.000000
_cell_volume 3742.754683
_symmetry_space_group_name_H-M "C 2/M"
_symmetry_group_IT_number 12
_symmetry_cell_setting 'monoclinic'
loop_
_space_group_symop_operation_xyz
x,y,z
-x,y,-z
-x,-y,-z
x,-y,z
1/2+x,1/2+y,z
1/2-x,1/2+y,-z
1/2-x,1/2-y,-z
1/2+x,1/2-y,z
loop_
_atom_site_type_symbol
_atom_site_label
_atom_site_fract_x
_atom_site_fract_y
_atom_site_fract_z
Si Si1 0.477563 0.838491 0.666425
Si Si2 0.774669 0.317881 0.184799
Si Si3 0.897084 0.268224 0.239384
Si Si4 0.568829 0.726930 0.598361
Si Si5 0.132096 0.198401 0.902009
Si Si6 0.529251 0.930068 0.734134
Si Si7 0.688864 0.931919 0.749364
Si Si8 0.210488 0.381085 0.492764
O O1 0.500000 0.849934 0.500000
O O2 0.542024 0.781375 0.574791
O O3 0.511315 0.898579 0.659349
O O4 0.359095 0.828514 0.923275
O O5 0.665820 0.309179 0.354105
O O6 0.807147 0.257550 0.182518
O O7 0.762733 0.378514 0.281051
O O8 0.893750 0.249493 0.366651
O O9 0.891254 0.210708 0.172454
O O10 0.810481 0.317610 0.400295
O O11 0.000000 0.302817 0.000000
O O12 0.468506 0.686883 0.823357
O O13 0.194191 0.134456 0.777356
O O14 0.619675 0.897935 0.605996
O O15 0.558052 0.000000 0.653021
O O16 0.430440 0.923588 0.008008
O O17 0.728982 0.930450 0.546283
O O18 0.715746 0.000000 0.738468
#
# Coordination Sequence:
#
# PCOD8078151 Si02
#       8
#     8   8   8   8   8   8   8   8
#     4  10  21  34  50  73  96 119 154 202 249 291
#     4  10  18  33  51  67  97 128 154 194 240 285
#     4  10  16  24  42  67  96 126 154 183 218 271
#     4  10  19  32  47  71  96 124 158 192 235 287
#     4  10  19  27  46  74  98 127 160 190 226 281
#     4  10  20  33  48  69  97 129 162 195 235 284
#     4  10  20  30  46  72 100 131 163 190 226 275
#     4  12  17  27  46  69 103 130 156 191 227 270
#
# _framework density 17.099705
#
# number of rings (size 3 to 8) (size 9 to 14) (size 15 to 20)
#    0.000    1.750    3.750    2.625    0.000    1.750 
#    0.000    0.000    0.000    2.250    0.000    0.000 
#    0.000    1.500    0.000    0.000    0.000    0.000 
#
# Total GULP energy -396510.344054 kJ/mol
# GULP energy per Si atom -12390.948252 kJ/mol
# Density = 1.706079 g / cm^3
# Si number density = 17.099705 Si / 1000 Ang^3
#
#
#
# Elastic Constant Matrix: (Units=GPa)
#
#
# Indices 1 2 3 4 5 6 
#
# 1 39.3726 23.3885 34.2074 0.0000 5.3153 0.0000
# 2 23.3885 74.3530 44.4209 0.0000 -5.7008 0.0000
# 3 34.2074 44.4209 104.1688 0.0000 -11.2091 0.0000
# 4 0.0000 0.0000 0.0000 19.1653 0.0000 -2.3809
# 5 5.3153 -5.7008 -11.2091 0.0000 30.4106 0.0000
# 6 0.0000 0.0000 0.0000 -2.3809 0.0000 10.1563
#
#
#
# Elastic Compliance Matrix: (Units=1/GPa)
#
#
# Indices 1 2 3 4 5 6 
#
# 1 0.041880 -0.006870 -0.012235 0.000000 -0.013117 0.000000
# 2 -0.006870 0.019184 -0.005632 0.000000 0.002721 0.000000
# 3 -0.012235 -0.005632 0.016802 0.000000 0.007276 0.000000
# 4 0.000000 0.000000 0.000000 0.053743 0.000000 0.012599
# 5 -0.013117 0.002721 0.007276 0.000000 0.038368 0.000000
# 6 0.000000 0.000000 0.000000 0.012599 0.000000 0.101414
#
#
# Mechanical properties :
#
#
# Convention : Reuss Voigt Hill
#
# Bulk Modulus (GPa) = 35.22041 46.88089 41.05065
# Shear Modulus (GPa) = 15.13653 19.67163 17.40408
#
# Velocity S-wave (km/s) = 2.97845 3.39545 3.19376
# Velocity P-wave (km/s) = 5.69824 6.54582 6.13668
#
# Compressibility (1/GPa) = 0.02839262
#
# Stress axis : x y z
#
# Youngs Moduli (GPa) = 23.87783 52.12788 59.51736
#
# Poissons Ratio (x) = 0.35813 0.72817
# Poissons Ratio (y) = 0.16405 0.33518
# Poissons Ratio (z) = 0.29213 0.29356
#
# Static dielectric constant tensor:
#      x y z
#    x 2.887980 0.000000 -0.259350 
#    y 0.000000 3.130910 0.000000 
#    z -0.259350 0.000000 3.606920 
# 
# 
# High freq. dielectric constant tensor:
#      x y z
#    x 1.628090 0.000000 -0.013270 
#    y 0.000000 1.636460 0.000000 
#    z -0.013270 0.000000 1.660900 
# 
# From -- ./inp_files/184954.got.cif
#   From: 2010.06.25/outbox.cif.g09.slc.cpg/sg12_93_cif.got.tgz:184954.got - 2010.06.28 00:19:55.
