data_PCOD8078527
_publ_section_title
;
Structure prediction by ZEFSAII (Michael W. Deem and Ramdas Pophale) SiO2 
 PCOD8078527
Probable space group: C 2/M
;
_chemical_formula_sum "Si O2"
_cell_formula_units_Z 48
_cell_length_a 5.228902
_cell_length_b 35.140570
_cell_length_c 18.233904
_cell_angle_alpha 90.000000
_cell_angle_beta 79.389939
_cell_angle_gamma 90.000000
_cell_volume 3293.135821
_symmetry_space_group_name_H-M "C 2/M"
_symmetry_group_IT_number 12
_symmetry_cell_setting 'monoclinic'
loop_
_space_group_symop_operation_xyz
x,y,z
-x,y,-z
-x,-y,-z
x,-y,z
1/2+x,1/2+y,z
1/2-x,1/2+y,-z
1/2-x,1/2-y,-z
1/2+x,1/2-y,z
loop_
_atom_site_type_symbol
_atom_site_label
_atom_site_fract_x
_atom_site_fract_y
_atom_site_fract_z
Si Si1 0.969320 0.352021 0.584303
Si Si2 0.455081 0.455146 0.701098
Si Si3 0.634636 0.234789 0.583476
Si Si4 0.894397 0.455102 0.790195
Si Si5 0.277515 0.045416 0.957434
Si Si6 0.535584 0.391770 0.411014
O O1 0.672958 0.363830 0.618728
O O2 0.000000 0.365961 0.500000
O O3 0.025619 0.307505 0.587171
O O4 0.179905 0.374483 0.622342
O O5 0.470084 0.500000 0.684080
O O6 0.683208 0.440678 0.742689
O O7 0.486895 0.433824 0.621922
O O8 0.183146 0.442999 0.751886
O O9 0.750000 0.250000 0.500000
O O10 0.386653 0.260578 0.623129
O O11 0.872193 0.500000 0.796561
O O12 0.830948 0.437858 0.873529
O O13 0.279919 0.000000 0.956170
O O14 0.500000 0.060901 0.000000
O O15 0.000000 0.060723 0.000000
O O16 0.500000 0.394617 0.500000
#
# Coordination Sequence:
#
# PCOD8078527 Si02
#       6
#     8   8   8   8   8   8
#     4  10  18  29  41  58  81  97 120 154 207 263
#     4  10  19  32  45  56  72 100 142 181 216 252
#     4  10  17  24  41  61  80 100 116 139 184 256
#     4   9  17  28  43  59  76  99 127 163 204 249
#     4   9  15  23  37  59  83 100 115 142 192 251
#     4  10  21  31  43  57  75 101 132 179 227 253
#
# _framework density 14.575773
#
# number of rings (size 3 to 8) (size 9 to 14) (size 15 to 20)
#    0.000    2.333    1.667    3.000    4.667    4.333 
#    0.000    0.000    0.000    6.000    0.000    0.000 
#    0.000    0.000    0.000    0.000    0.000    0.000 
#
# Total GULP energy -297351.849408 kJ/mol
# GULP energy per Si atom -12389.660392 kJ/mol
# Density = 1.454260 g / cm^3
# Si number density = 14.575773 Si / 1000 Ang^3
#
#
#
# Elastic Constant Matrix: (Units=GPa)
#
#
# Indices 1 2 3 4 5 6 
#
# 1 151.5413 34.5649 29.6220 0.0000 1.5579 0.0000
# 2 34.5649 57.4689 26.3569 0.0000 3.0567 0.0000
# 3 29.6220 26.3569 43.0429 0.0000 5.3043 0.0000
# 4 0.0000 0.0000 0.0000 1.7982 0.0000 0.0667
# 5 1.5579 3.0567 5.3043 0.0000 15.9463 0.0000
# 6 0.0000 0.0000 0.0000 0.0667 0.0000 16.8397
#
#
#
# Elastic Compliance Matrix: (Units=1/GPa)
#
#
# Indices 1 2 3 4 5 6 
#
# 1 0.008041 -0.003191 -0.003711 0.000000 0.001060 0.000000
# 2 -0.003191 0.025463 -0.013382 0.000000 -0.000118 0.000000
# 3 -0.003711 -0.013382 0.035057 0.000000 -0.008733 0.000000
# 4 0.000000 0.000000 0.000000 0.556197 0.000000 -0.002202
# 5 0.001060 -0.000118 -0.008733 0.000000 0.065535 0.000000
# 6 0.000000 0.000000 0.000000 -0.002202 0.000000 0.059392
#
#
# Mechanical properties :
#
#
# Convention : Reuss Voigt Hill
#
# Bulk Modulus (GPa) = 35.72109 48.12675 41.92392
# Shear Modulus (GPa) = 6.25326 17.68411 11.96869
#
# Velocity S-wave (km/s) = 2.07352 3.48696 2.86866
# Velocity P-wave (km/s) = 5.50391 7.02153 6.30852
#
# Compressibility (1/GPa) = 0.02799466
#
# Stress axis : x y z
#
# Youngs Moduli (GPa) = 124.36111 39.27199 28.52531
#
# Poissons Ratio (x) = 0.12532 0.10585
# Poissons Ratio (y) = 0.39683 0.38172
# Poissons Ratio (z) = 0.46145 0.52553
#
# Static dielectric constant tensor:
#      x y z
#    x 5.400310 0.000000 -0.097120 
#    y 0.000000 2.501480 0.000000 
#    z -0.097120 0.000000 2.593890 
# 
# 
# High freq. dielectric constant tensor:
#      x y z
#    x 1.595710 0.000000 -0.002620 
#    y 0.000000 1.513290 0.000000 
#    z -0.002620 0.000000 1.508480 
# 
# From -- ./inp_files/253787.got.cif
#   From: 2010.06.25/outbox.cif.g09.slc.cpg/sg12_127_cif.got.tgz:253787.got - 2010.06.28 00:19:55.
