data_PCOD8078543
_publ_section_title
;
Structure prediction by ZEFSAII (Michael W. Deem and Ramdas Pophale) SiO2 
 PCOD8078543
Probable space group: C 2/M
;
_chemical_formula_sum "Si O2"
_cell_formula_units_Z 64
_cell_length_a 32.838755
_cell_length_b 9.040841
_cell_length_c 14.050169
_cell_angle_alpha 90.000000
_cell_angle_beta 81.720657
_cell_angle_gamma 90.000000
_cell_volume 4127.879336
_symmetry_space_group_name_H-M "C 2/M"
_symmetry_group_IT_number 12
_symmetry_cell_setting 'monoclinic'
loop_
_space_group_symop_operation_xyz
x,y,z
-x,y,-z
-x,-y,-z
x,-y,z
1/2+x,1/2+y,z
1/2-x,1/2+y,-z
1/2-x,1/2-y,-z
1/2+x,1/2-y,z
loop_
_atom_site_type_symbol
_atom_site_label
_atom_site_fract_x
_atom_site_fract_y
_atom_site_fract_z
Si Si1 0.527450 0.829102 0.081976
Si Si2 0.345936 0.826426 0.758820
Si Si3 0.121009 0.329206 0.045240
Si Si4 0.304912 0.333567 0.053395
Si Si5 0.990980 0.173039 0.720076
Si Si6 0.912823 0.826179 0.618358
Si Si7 0.230483 0.167255 0.146172
Si Si8 0.960187 0.332921 0.447714
O O1 0.574085 0.785861 0.039927
O O2 0.510586 0.727979 0.171732
O O3 0.525298 0.000000 0.115073
O O4 0.500000 0.796576 0.000000
O O5 0.369322 0.789853 0.848890
O O6 0.370586 0.748432 0.665823
O O7 0.300017 0.759937 0.776124
O O8 0.343306 0.000000 0.739971
O O9 0.130318 0.500000 0.021999
O O10 0.149607 0.236590 0.963861
O O11 0.308093 0.500000 0.091077
O O12 0.275558 0.241502 0.134136
O O13 0.286263 0.329751 0.954781
O O14 0.028848 0.254703 0.655456
O O15 0.948080 0.211512 0.683201
O O16 0.000058 0.000000 0.714269
O O17 0.924180 0.757910 0.512074
O O18 0.906356 0.000000 0.608962
O O19 0.233754 0.000000 0.183204
O O20 0.945235 0.500000 0.433180
O O21 0.000000 0.331244 0.500000
#
# Coordination Sequence:
#
# PCOD8078543 Si02
#       8
#     8   8   8   8   8   8   8   8
#     4  10  20  33  47  62  81 108 144 183 220 256
#     4  10  17  25  39  57  80 109 140 171 204 244
#     4   9  17  28  41  56  75 103 137 174 213 249
#     4   9  16  25  38  54  73  99 133 168 202 244
#     4  10  19  30  44  60  81 106 136 175 216 255
#     4  10  18  27  40  60  84 109 138 171 208 249
#     4   9  16  25  36  53  77 103 132 166 202 240
#     4   9  17  28  43  60  79 104 136 170 206 249
#
# _framework density 15.504329
#
# number of rings (size 3 to 8) (size 9 to 14) (size 15 to 20)
#    0.000    2.500    1.250    2.250    0.000    6.750 
#    0.000    0.000    0.000    0.000    0.000    0.000 
#    0.000    0.000    0.000    1.125    0.000   14.250 
#
# Total GULP energy -396828.958138 kJ/mol
# GULP energy per Si atom -12400.904942 kJ/mol
# Density = 1.546904 g / cm^3
# Si number density = 15.504329 Si / 1000 Ang^3
#
#
#
# Elastic Constant Matrix: (Units=GPa)
#
#
# Indices 1 2 3 4 5 6 
#
# 1 77.8974 45.2933 46.6164 0.0000 -29.9619 0.0000
# 2 45.2933 107.6796 48.5203 0.0000 -26.0905 0.0000
# 3 46.6164 48.5203 64.2015 0.0000 -27.2114 0.0000
# 4 0.0000 0.0000 0.0000 25.8335 0.0000 -12.1713
# 5 -29.9619 -26.0905 -27.2114 0.0000 28.5794 0.0000
# 6 0.0000 0.0000 0.0000 -12.1713 0.0000 22.7395
#
#
#
# Elastic Compliance Matrix: (Units=1/GPa)
#
#
# Indices 1 2 3 4 5 6 
#
# 1 0.026823 -0.002618 -0.011052 0.000000 0.015208 0.000000
# 2 -0.002618 0.014702 -0.007855 0.000000 0.003199 0.000000
# 3 -0.011052 -0.007855 0.036192 0.000000 0.015703 0.000000
# 4 0.000000 0.000000 0.000000 0.051763 0.000000 0.027706
# 5 0.015208 0.003199 0.015703 0.000000 0.068805 0.000000
# 6 0.000000 0.000000 0.000000 0.027706 0.000000 0.058806
#
#
# Mechanical properties :
#
#
# Convention : Reuss Voigt Hill
#
# Bulk Modulus (GPa) = 28.84433 58.95980 43.90207
# Shear Modulus (GPa) = 16.04128 22.72037 19.38082
#
# Velocity S-wave (km/s) = 3.22006 3.83223 3.53941
# Velocity P-wave (km/s) = 5.69820 7.59552 6.71421
#
# Compressibility (1/GPa) = 0.03466886
#
# Stress axis : x y z
#
# Youngs Moduli (GPa) = 37.28202 68.01650 27.63013
#
# Poissons Ratio (x) = 0.17805 0.30536
# Poissons Ratio (y) = 0.09759 0.21703
# Poissons Ratio (z) = 0.41203 0.53426
#
# Static dielectric constant tensor:
#      x y z
#    x 2.791860 0.000000 -0.375330 
#    y 0.000000 3.098180 0.000000 
#    z -0.375330 0.000000 2.691620 
# 
# 
# High freq. dielectric constant tensor:
#      x y z
#    x 1.562760 0.000000 -0.048260 
#    y 0.000000 1.612100 0.000000 
#    z -0.048260 0.000000 1.556780 
# 
# From -- ./inp_files/248237.got.cif
#   From: 2010.06.25/outbox.cif.g09.slc.cpg/sg12_125_cif.got.tgz:248237.got - 2010.06.28 00:19:55.
