data_PCOD8078998
_publ_section_title
;
Structure prediction by ZEFSAII (Michael W. Deem and Ramdas Pophale) SiO2 
 PCOD8078998
Probable space group: C 2/M
;
_chemical_formula_sum "Si O2"
_cell_formula_units_Z 48
_cell_length_a 9.531115
_cell_length_b 25.238165
_cell_length_c 13.583208
_cell_angle_alpha 90.000000
_cell_angle_beta 72.831474
_cell_angle_gamma 90.000000
_cell_volume 3121.817813
_symmetry_space_group_name_H-M "C 2/M"
_symmetry_group_IT_number 12
_symmetry_cell_setting 'monoclinic'
loop_
_space_group_symop_operation_xyz
x,y,z
-x,y,-z
-x,-y,-z
x,-y,z
1/2+x,1/2+y,z
1/2-x,1/2+y,-z
1/2-x,1/2-y,-z
1/2+x,1/2-y,z
loop_
_atom_site_type_symbol
_atom_site_label
_atom_site_fract_x
_atom_site_fract_y
_atom_site_fract_z
Si Si1 0.435130 0.062836 0.114160
Si Si2 0.839911 0.803321 0.489465
Si Si3 0.267867 0.909183 0.428658
Si Si4 0.865745 0.940039 0.741677
Si Si5 0.575279 0.937944 0.288161
Si Si6 0.834808 0.891003 0.345988
O O1 0.270002 0.084377 0.167467
O O2 0.539035 0.078453 0.183629
O O3 0.425189 0.000000 0.109148
O O4 0.500000 0.087440 0.000000
O O5 0.750000 0.750000 0.500000
O O6 0.755651 0.845343 0.578193
O O7 0.846959 0.829576 0.378277
O O8 0.000000 0.791219 0.500000
O O9 0.175029 0.939262 0.365251
O O10 0.438201 0.924708 0.387080
O O11 0.205158 0.926679 0.548868
O O12 0.010618 0.906686 0.734037
O O13 0.896918 0.000000 0.767206
O O14 0.710492 0.900708 0.290409
O O15 0.615427 0.000000 0.288580
#
# Coordination Sequence:
#
# PCOD8078998 Si02
#       6
#     8   8   8   8   8   8
#     4   8  16  31  47  62  86 125 166 194 223 270
#     4  10  21  34  47  62  91 130 158 193 228 264
#     4   9  18  31  42  65  94 127 157 188 210 277
#     4  10  17  28  46  65  93 127 153 187 227 270
#     4  10  19  28  44  69  97 128 159 187 223 271
#     4  10  19  30  41  69  98 122 153 195 217 277
#
# _framework density 15.375658
#
# number of rings (size 3 to 8) (size 9 to 14) (size 15 to 20)
#    1.000    1.500    1.667    3.000    2.333    4.000 
#    0.000    0.833    0.000    4.000    0.000    0.000 
#    0.000   21.333    0.000    0.000    0.000    0.000 
#
# Total GULP energy -297400.029140 kJ/mol
# GULP energy per Si atom -12391.667881 kJ/mol
# Density = 1.534066 g / cm^3
# Si number density = 15.375658 Si / 1000 Ang^3
#
#
#
# Elastic Constant Matrix: (Units=GPa)
#
#
# Indices 1 2 3 4 5 6 
#
# 1 134.8028 40.6565 40.0638 0.0000 -8.7757 0.0000
# 2 40.6565 70.6606 14.3001 0.0000 -2.7496 0.0000
# 3 40.0638 14.3001 87.6128 0.0000 -7.8689 0.0000
# 4 0.0000 0.0000 0.0000 4.9134 0.0000 -1.3368
# 5 -8.7757 -2.7496 -7.8689 0.0000 13.2257 0.0000
# 6 0.0000 0.0000 0.0000 -1.3368 0.0000 23.1780
#
#
#
# Elastic Compliance Matrix: (Units=1/GPa)
#
#
# Indices 1 2 3 4 5 6 
#
# 1 0.010218 -0.005024 -0.003526 0.000000 0.003638 0.000000
# 2 -0.005024 0.017143 -0.000507 0.000000 -0.000071 0.000000
# 3 -0.003526 -0.000507 0.013617 0.000000 0.005657 0.000000
# 4 0.000000 0.000000 0.000000 0.206768 0.000000 0.011925
# 5 0.003638 -0.000071 0.005657 0.000000 0.081375 0.000000
# 6 0.000000 0.000000 0.000000 0.011925 0.000000 0.043832
#
#
# Mechanical properties :
#
#
# Convention : Reuss Voigt Hill
#
# Bulk Modulus (GPa) = 43.73700 53.67968 48.70834
# Shear Modulus (GPa) = 12.54114 21.46714 17.00414
#
# Velocity S-wave (km/s) = 2.85906 3.74060 3.32913
# Velocity P-wave (km/s) = 6.27744 7.32421 6.82094
#
# Compressibility (1/GPa) = 0.02286394
#
# Stress axis : x y z
#
# Youngs Moduli (GPa) = 97.86383 58.33351 73.43778
#
# Poissons Ratio (x) = 0.29308 0.25893
# Poissons Ratio (y) = 0.49169 0.03723
# Poissons Ratio (z) = 0.34505 0.02957
#
# Static dielectric constant tensor:
#      x y z
#    x 3.040340 0.000000 -0.146480 
#    y 0.000000 2.624400 0.000000 
#    z -0.146480 0.000000 2.954790 
# 
# 
# High freq. dielectric constant tensor:
#      x y z
#    x 1.601650 0.000000 -0.007650 
#    y 0.000000 1.551550 0.000000 
#    z -0.007650 0.000000 1.561070 
# 
# From -- ./inp_files/199114.got.cif
#   From: 2010.06.25/outbox.cif.g09.slc.cpg/sg12_100_cif.got.tgz:199114.got - 2010.06.28 00:19:55.
