data_PCOD8078320
_publ_section_title
;
Structure prediction by ZEFSAII (Michael W. Deem and Ramdas Pophale) SiO2 
 PCOD8078320
Probable space group: C 2/M
;
_chemical_formula_sum "Si O2"
_cell_formula_units_Z 64
_cell_length_a 11.261647
_cell_length_b 19.457278
_cell_length_c 25.126472
_cell_angle_alpha 90.000000
_cell_angle_beta 145.026749
_cell_angle_gamma 90.000000
_cell_volume 3155.855450
_symmetry_space_group_name_H-M "C 2/M"
_symmetry_group_IT_number 12
_symmetry_cell_setting 'monoclinic'
loop_
_space_group_symop_operation_xyz
x,y,z
-x,y,-z
-x,-y,-z
x,-y,z
1/2+x,1/2+y,z
1/2-x,1/2+y,-z
1/2-x,1/2-y,-z
1/2+x,1/2-y,z
loop_
_atom_site_type_symbol
_atom_site_label
_atom_site_fract_x
_atom_site_fract_y
_atom_site_fract_z
Si Si1 0.804144 0.422800 0.890005
Si Si2 0.702106 0.830688 0.597684
Si Si3 0.277527 0.324648 0.946947
Si Si4 0.147028 0.685635 0.699318
Si Si5 0.587400 0.919482 0.190836
Si Si6 0.961994 0.162022 0.351977
Si Si7 0.910434 0.823490 0.112820
Si Si8 0.192500 0.179049 0.543567
O O1 0.713780 0.500000 0.855014
O O2 0.864425 0.398981 0.852652
O O3 0.637023 0.372874 0.854971
O O4 0.000000 0.418918 0.000000
O O5 0.500000 0.868817 0.500000
O O6 0.705099 0.836239 0.661416
O O7 0.700415 0.752319 0.575549
O O8 0.906698 0.867944 0.649714
O O9 0.162926 0.252207 0.896264
O O10 0.125088 0.383325 0.867834
O O11 0.500000 0.325089 0.000000
O O12 0.300470 0.343015 0.017610
O O13 0.141866 0.767171 0.702493
O O14 0.342862 0.667036 0.808012
O O15 0.927763 0.649279 0.635797
O O16 0.779409 0.892201 0.297917
O O17 0.560103 0.000000 0.189621
O O18 0.130932 0.180537 0.459249
O O19 0.000000 0.136392 0.500000
#
# Coordination Sequence:
#
# PCOD8078320 Si02
#       8
#     8   8   8   8   8   8   8   8
#     4  10  20  39  66  86 112 156 205 246 291 362
#     4  10  16  29  51  83 116 146 182 235 297 354
#     4  11  25  39  58  89 128 157 197 253 307 361
#     4  11  19  31  53  86 119 151 186 242 302 349
#     4  11  24  42  62  86 116 165 211 248 303 363
#     4  11  19  33  54  81 116 150 194 244 290 347
#     4  11  23  37  60  93 125 155 194 252 315 352
#     4  10  19  30  51  81 118 152 190 231 287 356
#
# _framework density 20.279764
#
# number of rings (size 3 to 8) (size 9 to 14) (size 15 to 20)
#    0.000    1.375    6.250    1.875    1.750    3.250 
#    0.000    0.000    0.000    1.500    0.000    0.000 
#    0.000    0.000    0.000    0.000    0.000    0.000 
#
# Total GULP energy -396440.238640 kJ/mol
# GULP energy per Si atom -12388.757458 kJ/mol
# Density = 2.023361 g / cm^3
# Si number density = 20.279764 Si / 1000 Ang^3
#
#
#
# Elastic Constant Matrix: (Units=GPa)
#
#
# Indices 1 2 3 4 5 6 
#
# 1 81.9043 13.6203 23.3896 0.0000 32.5029 0.0000
# 2 13.6203 52.4344 27.2280 -0.0001 16.1999 0.0000
# 3 23.3896 27.2280 107.7862 0.0008 38.1245 0.0002
# 4 0.0000 -0.0001 0.0008 15.1465 0.0001 0.7796
# 5 32.5029 16.1999 38.1245 0.0001 44.1407 0.0000
# 6 0.0000 0.0000 0.0002 0.7796 0.0000 21.7034
#
#
#
# Elastic Compliance Matrix: (Units=1/GPa)
#
#
# Indices 1 2 3 4 5 6 
#
# 1 0.017381 -0.000992 0.001263 0.000000 -0.013525 0.000000
# 2 -0.000992 0.022707 -0.004077 0.000000 -0.004082 0.000000
# 3 0.001263 -0.004077 0.014159 -0.000001 -0.011662 0.000000
# 4 0.000000 0.000000 -0.000001 0.066144 0.000000 -0.002376
# 5 -0.013525 -0.004082 -0.011662 0.000000 0.044185 0.000000
# 6 0.000000 0.000000 0.000000 -0.002376 0.000000 0.046161
#
#
# Mechanical properties :
#
#
# Convention : Reuss Voigt Hill
#
# Bulk Modulus (GPa) = 21.44341 41.17789 31.31065
# Shear Modulus (GPa) = 21.37719 28.05725 24.71722
#
# Velocity S-wave (km/s) = 3.25023 3.72359 3.49494
# Velocity P-wave (km/s) = 4.96811 6.23184 5.63551
#
# Compressibility (1/GPa) = 0.04663437
#
# Stress axis : x y z
#
# Youngs Moduli (GPa) = 57.53400 44.03855 70.62876
#
# Poissons Ratio (x) = 0.04368 -0.08919
# Poissons Ratio (y) = 0.05707 0.28796
# Poissons Ratio (z) = -0.07265 0.17955
#
# Static dielectric constant tensor:
#      x y z
#    x 4.047950 0.000000 0.373620 
#    y 0.000000 3.204080 0.000000 
#    z 0.373620 0.000000 3.994640 
# 
# 
# High freq. dielectric constant tensor:
#      x y z
#    x 1.798220 0.000000 0.015140 
#    y 0.000000 1.726240 0.000000 
#    z 0.015140 0.000000 1.812860 
# 
# From -- ./inp_files/359012.got.cif
#   From: 2010.06.25/outbox.cif.g09.slc.cpg/sg12_180_cif.got.tgz:359012.got - 2010.06.28 00:19:55.
