data_PCOD8078281
_publ_section_title
;
Structure prediction by ZEFSAII (Michael W. Deem and Ramdas Pophale) SiO2 
 PCOD8078281
Probable space group: C 2/M
;
_chemical_formula_sum "Si O2"
_cell_formula_units_Z 36
_cell_length_a 29.418829
_cell_length_b 10.360110
_cell_length_c 11.263495
_cell_angle_alpha 90.000000
_cell_angle_beta 39.074358
_cell_angle_gamma 90.000000
_cell_volume 2163.863284
_symmetry_space_group_name_H-M "C 2/M"
_symmetry_group_IT_number 12
_symmetry_cell_setting 'monoclinic'
loop_
_space_group_symop_operation_xyz
x,y,z
-x,y,-z
-x,-y,-z
x,-y,z
1/2+x,1/2+y,z
1/2-x,1/2+y,-z
1/2-x,1/2-y,-z
1/2+x,1/2-y,z
loop_
_atom_site_type_symbol
_atom_site_label
_atom_site_fract_x
_atom_site_fract_y
_atom_site_fract_z
Si Si1 0.091393 0.641376 0.033507
Si Si2 0.509836 0.349832 0.343569
Si Si3 0.744428 0.148027 0.615302
Si Si4 0.000000 0.294515 0.000000
Si Si5 0.100873 0.146065 0.624854
O O1 0.088222 0.500000 0.102524
O O2 0.173129 0.675251 0.834504
O O3 0.069624 0.756013 0.166259
O O4 0.039981 0.626216 0.022213
O O5 0.500000 0.313758 0.500000
O O6 0.533271 0.500000 0.280450
O O7 0.434612 0.318691 0.429825
O O8 0.750000 0.250000 0.500000
O O9 0.813908 0.173659 0.558095
O O10 0.744532 0.000000 0.566333
O O11 0.064550 0.215691 0.809636
O O12 0.084946 0.000000 0.688048
#
# Coordination Sequence:
#
# PCOD8078281 Si02
#       5
#     8   8   8   4   8
#     4  10  20  31  48  73 102 131 158 197 246 292
#     4   9  19  36  55  72  92 125 170 211 241 277
#     4  10  19  32  47  71 104 133 159 191 239 294
#     4  10  16  28  48  70 101 128 163 194 239 290
#     4   9  17  29  49  73  97 127 163 202 240 283
#
# _framework density 16.636911000000001
#
# number of rings (size 3 to 8) (size 9 to 14) (size 15 to 20)
#    0.000    2.444    2.222    0.667    0.000    2.222 
#    0.000    1.111    0.000    0.000    0.000    0.000 
#    0.000    0.000    0.000    0.000    0.000    0.000 
#
# Total GULP energy -223037.344572 kJ/mol
# GULP energy per Si atom -12390.963587 kJ/mol
# Density = 1.659904 g / cm^3
# Si number density = 16.636911 Si / 1000 Ang^3
#
#
#
# Elastic Constant Matrix: (Units=GPa)
#
#
# Indices 1 2 3 4 5 6 
#
# 1 77.7633 48.8784 63.1970 0.0000 -0.9483 0.0000
# 2 48.8784 101.8876 70.6101 0.0000 3.9668 0.0000
# 3 63.1970 70.6101 117.6333 0.0000 -11.3555 0.0000
# 4 0.0000 0.0000 0.0000 33.3503 0.0000 2.7971
# 5 -0.9483 3.9668 -11.3555 0.0000 32.1494 0.0000
# 6 0.0000 0.0000 0.0000 2.7971 0.0000 21.3747
#
#
#
# Elastic Compliance Matrix: (Units=1/GPa)
#
#
# Indices 1 2 3 4 5 6 
#
# 1 0.024123 -0.003961 -0.010836 0.000000 -0.002627 0.000000
# 2 -0.003961 0.018585 -0.009587 0.000000 -0.005796 0.000000
# 3 -0.010836 -0.009587 0.020872 0.000000 0.008236 0.000000
# 4 0.000000 0.000000 0.000000 0.030317 0.000000 -0.003967
# 5 -0.002627 -0.005796 0.008236 0.000000 0.034651 0.000000
# 6 0.000000 0.000000 0.000000 -0.003967 0.000000 0.047304
#
#
# Mechanical properties :
#
#
# Convention : Reuss Voigt Hill
#
# Bulk Modulus (GPa) = 67.51189 73.62834 70.57011
# Shear Modulus (GPa) = 21.78099 25.01480 23.39790
#
# Velocity S-wave (km/s) = 3.62221 3.88180 3.75425
# Velocity P-wave (km/s) = 7.62637 8.02765 7.82958
#
# Compressibility (1/GPa) = 0.01481221
#
# Stress axis : x y z
#
# Youngs Moduli (GPa) = 41.45359 53.80811 47.91042
#
# Poissons Ratio (x) = 0.21312 0.51916
# Poissons Ratio (y) = 0.16419 0.45932
# Poissons Ratio (z) = 0.44920 0.51587
#
# Static dielectric constant tensor:
#      x y z
#    x 3.505210 0.000000 -0.451010 
#    y 0.000000 3.191680 0.000000 
#    z -0.451010 0.000000 3.183390 
# 
# 
# High freq. dielectric constant tensor:
#      x y z
#    x 1.634920 0.000000 -0.020000 
#    y 0.000000 1.647640 0.000000 
#    z -0.020000 0.000000 1.627540 
# 
# From -- ./inp_files/139533.got.cif
#   From: 2010.06.25/outbox.cif.g09.slc.cpg/sg12_70_cif.got.tgz:139533.got - 2010.06.28 00:19:55.
