data_PCOD8078729
_publ_section_title
;
Structure prediction by ZEFSAII (Michael W. Deem and Ramdas Pophale) SiO2 
 PCOD8078729
Probable space group: C 2/M
;
_chemical_formula_sum "Si O2"
_cell_formula_units_Z 56
_cell_length_a 20.780784
_cell_length_b 9.038974
_cell_length_c 23.841903
_cell_angle_alpha 90.000000
_cell_angle_beta 129.755675
_cell_angle_gamma 90.000000
_cell_volume 3442.890479
_symmetry_space_group_name_H-M "C 2/M"
_symmetry_group_IT_number 12
_symmetry_cell_setting 'monoclinic'
loop_
_space_group_symop_operation_xyz
x,y,z
-x,y,-z
-x,-y,-z
x,-y,z
1/2+x,1/2+y,z
1/2-x,1/2+y,-z
1/2-x,1/2-y,-z
1/2+x,1/2-y,z
loop_
_atom_site_type_symbol
_atom_site_label
_atom_site_fract_x
_atom_site_fract_y
_atom_site_fract_z
Si Si1 0.806396 0.824301 0.409259
Si Si2 0.309227 0.173950 0.077579
Si Si3 0.579170 0.675814 0.425439
Si Si4 0.465189 0.662848 0.187925
Si Si5 0.171532 0.836630 0.805074
Si Si6 0.866497 0.824378 0.666098
Si Si7 0.894612 0.823726 0.345963
O O1 0.855509 0.768003 0.491383
O O2 0.715449 0.753428 0.356705
O O3 0.856676 0.766103 0.382972
O O4 0.797321 0.000000 0.403233
O O5 0.405807 0.225189 0.119246
O O6 0.280908 0.227663 0.124530
O O7 0.301005 0.000000 0.067718
O O8 0.250000 0.250000 0.000000
O O9 0.575134 0.500000 0.423474
O O10 0.611387 0.735715 0.383601
O O11 0.487891 0.741746 0.389931
O O12 0.465086 0.500000 0.158842
O O13 0.425018 0.647235 0.227904
O O14 0.559488 0.720930 0.249161
O O15 0.166424 0.771463 0.739192
O O16 0.214472 0.000000 0.830047
O O17 0.854377 0.000000 0.658315
O O18 0.899104 0.000000 0.347544
#
# Coordination Sequence:
#
# PCOD8078729 Si02
#       7
#     8   8   8   8   8   8   8
#     4  10  20  28  42  69  93 114 152 203 241 271
#     4  10  17  26  43  71 101 120 140 179 224 265
#     4   9  15  27  46  65  85 117 160 199 235 274
#     4   8  15  28  45  63  84 118 156 184 216 262
#     4   8  14  27  45  63  85 117 154 184 218 264
#     4  10  18  31  47  61  88 126 157 188 231 282
#     4   9  15  28  47  65  87 118 157 198 234 270
#
# _framework density 16.265402999999999
#
# number of rings (size 3 to 8) (size 9 to 14) (size 15 to 20)
#    0.857    2.000    1.429    1.714    0.000    2.286 
#    0.000    0.714    0.000    3.429    0.000    1.000 
#    0.000    8.000    0.000    0.000    0.000    0.000 
#
# Total GULP energy -346880.682800 kJ/mol
# GULP energy per Si atom -12388.595814 kJ/mol
# Density = 1.622838 g / cm^3
# Si number density = 16.265403 Si / 1000 Ang^3
#
#
#
# Elastic Constant Matrix: (Units=GPa)
#
#
# Indices 1 2 3 4 5 6 
#
# 1 71.1496 16.4526 32.1546 0.0000 13.7382 0.0000
# 2 16.4526 58.8850 44.8229 0.0000 5.3622 0.0000
# 3 32.1546 44.8229 119.9010 0.0000 11.4794 0.0000
# 4 0.0000 0.0000 0.0000 22.7305 0.0000 4.7304
# 5 13.7382 5.3622 11.4794 0.0000 12.9583 0.0000
# 6 0.0000 0.0000 0.0000 4.7304 0.0000 18.4335
#
#
#
# Elastic Compliance Matrix: (Units=1/GPa)
#
#
# Indices 1 2 3 4 5 6 
#
# 1 0.018990 -0.001568 -0.002886 0.000000 -0.016928 0.000000
# 2 -0.001568 0.023921 -0.008450 0.000000 -0.000751 0.000000
# 3 -0.002886 -0.008450 0.012725 0.000000 -0.004716 0.000000
# 4 0.000000 0.000000 0.000000 0.046476 0.000000 -0.011927
# 5 -0.016928 -0.000751 -0.004716 0.000000 0.099606 0.000000
# 6 0.000000 0.000000 0.000000 -0.011927 0.000000 0.057310
#
#
# Mechanical properties :
#
#
# Convention : Reuss Voigt Hill
#
# Bulk Modulus (GPa) = 33.52533 48.53288 41.02911
# Shear Modulus (GPa) = 16.96197 21.25816 19.11007
#
# Velocity S-wave (km/s) = 3.23278 3.61911 3.43139
# Velocity P-wave (km/s) = 5.88139 6.88235 6.40146
#
# Compressibility (1/GPa) = 0.02982819
#
# Stress axis : x y z
#
# Youngs Moduli (GPa) = 52.65857 41.80462 78.58780
#
# Poissons Ratio (x) = 0.06553 0.22681
# Poissons Ratio (y) = 0.08255 0.66408
# Poissons Ratio (z) = 0.15197 0.35325
#
# Static dielectric constant tensor:
#      x y z
#    x 2.892060 0.000000 -0.039720 
#    y 0.000000 2.730630 0.000000 
#    z -0.039720 0.000000 3.055270 
# 
# 
# High freq. dielectric constant tensor:
#      x y z
#    x 1.593430 0.000000 0.000350 
#    y 0.000000 1.593780 0.000000 
#    z 0.000350 0.000000 1.627420 
# 
# From -- ./inp_files/365050.got.cif
#   From: 2010.06.25/outbox.cif.g09.slc.cpg/sg12_183_cif.got.tgz:365050.got - 2010.06.28 00:19:55.
