data_PCOD8078835
_publ_section_title
;
Structure prediction by ZEFSAII (Michael W. Deem and Ramdas Pophale) SiO2 
 PCOD8078835
Probable space group: C 2/M
;
_chemical_formula_sum "Si O2"
_cell_formula_units_Z 56
_cell_length_a 27.418475
_cell_length_b 9.023945
_cell_length_c 17.227065
_cell_angle_alpha 90.000000
_cell_angle_beta 125.618582
_cell_angle_gamma 90.000000
_cell_volume 3464.930460
_symmetry_space_group_name_H-M "C 2/M"
_symmetry_group_IT_number 12
_symmetry_cell_setting 'monoclinic'
loop_
_space_group_symop_operation_xyz
x,y,z
-x,y,-z
-x,-y,-z
x,-y,z
1/2+x,1/2+y,z
1/2-x,1/2+y,-z
1/2-x,1/2-y,-z
1/2+x,1/2-y,z
loop_
_atom_site_type_symbol
_atom_site_label
_atom_site_fract_x
_atom_site_fract_y
_atom_site_fract_z
Si Si1 0.713132 0.823308 0.034002
Si Si2 0.267526 0.171358 0.404770
Si Si3 0.395013 0.831547 0.878311
Si Si4 0.953271 0.672123 0.769892
Si Si5 0.843771 0.173835 0.595307
Si Si6 0.222998 0.828801 0.199798
Si Si7 0.420625 0.171416 0.072342
O O1 0.644342 0.763048 0.963350
O O2 0.717297 0.000000 0.033427
O O3 0.750000 0.750000 0.000000
O O4 0.740654 0.770400 0.141891
O O5 0.203507 0.222916 0.381873
O O6 0.321351 0.265287 0.491656
O O7 0.269333 0.197652 0.313732
O O8 0.277589 0.000000 0.435081
O O9 0.437108 0.803369 0.844613
O O10 0.341156 0.715324 0.825157
O O11 0.369149 0.000000 0.854962
O O12 0.432330 0.803278 0.991639
O O13 0.949209 0.500000 0.743319
O O14 0.909329 0.760775 0.673017
O O15 0.021948 0.735161 0.826627
O O16 0.850710 0.000000 0.595924
O O17 0.222216 0.000000 0.173802
O O18 0.418353 0.000000 0.089910
#
# Coordination Sequence:
#
# PCOD8078835 Si02
#       7
#     8   8   8   8   8   8   8
#     4  10  20  35  53  73  95 119 153 193 237 282
#     4   9  18  31  44  62  90 126 163 195 229 271
#     4   9  16  26  42  64  91 124 160 191 221 264
#     4  10  17  27  44  64  91 127 161 190 225 268
#     4  10  19  29  42  63  93 126 162 200 231 264
#     4  10  18  30  48  69  95 123 155 194 235 276
#     4   8  16  29  45  66  90 120 157 191 223 274
#
# _framework density 16.161940999999999
#
# number of rings (size 3 to 8) (size 9 to 14) (size 15 to 20)
#    0.000    2.571    1.429    2.571    0.000    3.429 
#    0.000    3.571    0.000    4.286    0.000    1.000 
#    0.000    8.000    0.000    0.000    0.000    0.000 
#
# Total GULP energy -347016.603548 kJ/mol
# GULP energy per Si atom -12393.450127 kJ/mol
# Density = 1.612516 g / cm^3
# Si number density = 16.161941 Si / 1000 Ang^3
#
#
#
# Elastic Constant Matrix: (Units=GPa)
#
#
# Indices 1 2 3 4 5 6 
#
# 1 68.1288 34.5708 57.8783 0.0000 6.6361 0.0000
# 2 34.5708 63.1474 48.6946 0.0000 1.4347 0.0000
# 3 57.8783 48.6946 115.1906 0.0000 12.9366 0.0000
# 4 0.0000 0.0000 0.0000 26.4931 0.0000 -0.8892
# 5 6.6361 1.4347 12.9366 0.0000 17.8558 0.0000
# 6 0.0000 0.0000 0.0000 -0.8892 0.0000 18.6026
#
#
#
# Elastic Compliance Matrix: (Units=1/GPa)
#
#
# Indices 1 2 3 4 5 6 
#
# 1 0.027342 -0.006667 -0.010710 0.000000 -0.001867 0.000000
# 2 -0.006667 0.025681 -0.008222 0.000000 0.006371 0.000000
# 3 -0.010710 -0.008222 0.018524 0.000000 -0.008780 0.000000
# 4 0.000000 0.000000 0.000000 0.037806 0.000000 0.001807
# 5 -0.001867 0.006371 -0.008780 0.000000 0.062547 0.000000
# 6 0.000000 0.000000 0.000000 0.001807 0.000000 0.053842
#
#
# Mechanical properties :
#
#
# Convention : Reuss Voigt Hill
#
# Bulk Modulus (GPa) = 49.14225 58.75046 53.94636
# Shear Modulus (GPa) = 17.62279 19.61186 18.61733
#
# Velocity S-wave (km/s) = 3.30568 3.48725 3.39768
# Velocity P-wave (km/s) = 6.71135 7.25566 6.98881
#
# Compressibility (1/GPa) = 0.02034909
#
# Stress axis : x y z
#
# Youngs Moduli (GPa) = 36.57422 38.93871 53.98371
#
# Poissons Ratio (x) = 0.25962 0.57816
# Poissons Ratio (y) = 0.24386 0.44384
# Poissons Ratio (z) = 0.39170 0.32014
#
# Static dielectric constant tensor:
#      x y z
#    x 2.881040 0.000000 0.154370 
#    y 0.000000 2.981010 0.000000 
#    z 0.154370 0.000000 3.129450 
# 
# 
# High freq. dielectric constant tensor:
#      x y z
#    x 1.579560 0.000000 0.011560 
#    y 0.000000 1.615190 0.000000 
#    z 0.011560 0.000000 1.620960 
# 
# From -- ./inp_files/244306.got.cif
#   From: 2010.06.25/outbox.cif.g09.slc.cpg/sg12_123_cif.got.tgz:244306.got - 2010.06.28 00:19:55.
