data_PCOD8078470
_publ_section_title
;
Structure prediction by ZEFSAII (Michael W. Deem and Ramdas Pophale) SiO2 
 PCOD8078470
Probable space group: C 2/M
;
_chemical_formula_sum "Si O2"
_cell_formula_units_Z 64
_cell_length_a 24.240638
_cell_length_b 9.220761
_cell_length_c 23.938626
_cell_angle_alpha 90.000000
_cell_angle_beta 129.987128
_cell_angle_gamma 90.000000
_cell_volume 4099.641193
_symmetry_space_group_name_H-M "C 2/M"
_symmetry_group_IT_number 12
_symmetry_cell_setting 'monoclinic'
loop_
_space_group_symop_operation_xyz
x,y,z
-x,y,-z
-x,-y,-z
x,-y,z
1/2+x,1/2+y,z
1/2-x,1/2+y,-z
1/2-x,1/2-y,-z
1/2+x,1/2-y,z
loop_
_atom_site_type_symbol
_atom_site_label
_atom_site_fract_x
_atom_site_fract_y
_atom_site_fract_z
Si Si1 0.805657 0.168537 0.200016
Si Si2 0.537846 0.661161 0.464323
Si Si3 0.586612 0.669776 0.995243
Si Si4 0.295986 0.165050 0.763660
Si Si5 0.158400 0.832199 0.616753
Si Si6 0.919466 0.328599 0.336081
Si Si7 0.719279 0.171152 0.033573
Si Si8 0.075577 0.167833 0.115701
O O1 0.748202 0.212712 0.210045
O O2 0.879407 0.260046 0.256124
O O3 0.772721 0.208660 0.118971
O O4 0.825379 0.000000 0.217540
O O5 0.500000 0.671119 0.500000
O O6 0.530276 0.500000 0.434218
O O7 0.622849 0.697283 0.532409
O O8 0.501986 0.771194 0.396539
O O9 0.605883 0.500000 0.001765
O O10 0.506363 0.700899 0.919833
O O11 0.640236 0.766807 0.994184
O O12 0.590004 0.719901 0.061812
O O13 0.245003 0.191190 0.675723
O O14 0.369494 0.254746 0.806194
O O15 0.320144 0.000000 0.784413
O O16 0.123573 0.721417 0.637524
O O17 0.141583 0.000000 0.624076
O O18 0.920794 0.500000 0.331149
O O19 0.713430 0.000000 0.019515
O O20 0.750000 0.250000 0.000000
O O21 0.091795 0.000000 0.130461
#
# Coordination Sequence:
#
# PCOD8078470 Si02
#       8
#     8   8   8   8   8   8   8   8
#     4   9  18  31  42  55  78 107 139 170 207 258
#     4   8  13  23  35  45  66 103 137 164 199 244
#     4   9  18  32  46  63  87 112 140 174 214 261
#     4   9  15  25  40  59  81 106 141 179 207 244
#     4   8  15  25  34  47  73 107 138 165 201 247
#     4  10  17  22  34  54  73  96 131 175 210 237
#     4  11  22  35  50  66  84 110 143 181 221 261
#     4   9  17  28  44  64  87 113 139 174 217 254
#
# _framework density 15.611122
#
# number of rings (size 3 to 8) (size 9 to 14) (size 15 to 20)
#    0.000    2.875    1.250    3.750    0.000    5.750 
#    0.000    1.250    0.000    0.000    0.000    0.000 
#    0.000    0.000    0.000    1.125    0.000   13.625 
#
# Total GULP energy -396504.999193 kJ/mol
# GULP energy per Si atom -12390.781225 kJ/mol
# Density = 1.557559 g / cm^3
# Si number density = 15.611122 Si / 1000 Ang^3
#
#
#
# Elastic Constant Matrix: (Units=GPa)
#
#
# Indices 1 2 3 4 5 6 
#
# 1 51.9969 35.0021 39.1202 0.0000 11.4501 0.0000
# 2 35.0021 82.9624 59.7204 0.0000 15.8460 0.0000
# 3 39.1202 59.7204 123.0764 0.0000 34.7753 0.0000
# 4 0.0000 0.0000 0.0000 24.0067 0.0000 6.9387
# 5 11.4501 15.8460 34.7753 0.0000 20.2957 0.0000
# 6 0.0000 0.0000 0.0000 6.9387 0.0000 18.7682
#
#
#
# Elastic Compliance Matrix: (Units=1/GPa)
#
#
# Indices 1 2 3 4 5 6 
#
# 1 0.028768 -0.008574 -0.004438 0.000000 -0.001932 0.000000
# 2 -0.008574 0.021114 -0.008197 0.000000 0.002398 0.000000
# 3 -0.004438 -0.008197 0.021318 0.000000 -0.027624 0.000000
# 4 0.000000 0.000000 0.000000 0.046639 0.000000 -0.017243
# 5 -0.001932 0.002398 -0.027624 0.000000 0.095820 0.000000
# 6 0.000000 0.000000 0.000000 -0.017243 0.000000 0.059656
#
#
# Mechanical properties :
#
#
# Convention : Reuss Voigt Hill
#
# Bulk Modulus (GPa) = 34.74408 58.41345 46.57877
# Shear Modulus (GPa) = 15.36916 20.89365 18.13141
#
# Velocity S-wave (km/s) = 3.14108 3.66236 3.41169
# Velocity P-wave (km/s) = 5.95479 7.44197 6.73952
#
# Compressibility (1/GPa) = 0.02878188
#
# Stress axis : x y z
#
# Youngs Moduli (GPa) = 34.76144 47.36239 46.90788
#
# Poissons Ratio (x) = 0.40606 0.20817
# Poissons Ratio (y) = 0.29803 0.38452
# Poissons Ratio (z) = 0.15427 0.38825
#
# Static dielectric constant tensor:
#      x y z
#    x 2.492860 0.000000 0.361690 
#    y 0.000000 2.911000 0.000000 
#    z 0.361690 0.000000 3.445630 
# 
# 
# High freq. dielectric constant tensor:
#      x y z
#    x 1.524550 0.000000 0.038480 
#    y 0.000000 1.599680 0.000000 
#    z 0.038480 0.000000 1.611140 
# 
# From -- ./inp_files/348600.got.cif
#   From: 2010.06.25/outbox.cif.g09.slc.cpg/sg12_175_cif.got.tgz:348600.got - 2010.06.28 00:19:55.
