data_PCOD8078776
_publ_section_title
;
Structure prediction by ZEFSAII (Michael W. Deem and Ramdas Pophale) SiO2 
 PCOD8078776
Probable space group: C 2/M
;
_chemical_formula_sum "Si O2"
_cell_formula_units_Z 64
_cell_length_a 14.322968
_cell_length_b 27.890249
_cell_length_c 9.530797
_cell_angle_alpha 90.000000
_cell_angle_beta 73.383086
_cell_angle_gamma 90.000000
_cell_volume 3648.279567
_symmetry_space_group_name_H-M "C 2/M"
_symmetry_group_IT_number 12
_symmetry_cell_setting 'monoclinic'
loop_
_space_group_symop_operation_xyz
x,y,z
-x,y,-z
-x,-y,-z
x,-y,z
1/2+x,1/2+y,z
1/2-x,1/2+y,-z
1/2-x,1/2-y,-z
1/2+x,1/2-y,z
loop_
_atom_site_type_symbol
_atom_site_label
_atom_site_fract_x
_atom_site_fract_y
_atom_site_fract_z
Si Si1 0.095881 0.446753 0.643159
Si Si2 0.620795 0.053416 0.300851
Si Si3 0.551891 0.679340 0.834542
Si Si4 0.117761 0.274742 0.325128
Si Si5 0.919804 0.171470 0.655027
Si Si6 0.404637 0.775599 0.348097
Si Si7 0.751643 0.359827 0.730024
Si Si8 0.273365 0.861427 0.386599
O O1 0.122879 0.500000 0.686095
O O2 0.107730 0.444117 0.472162
O O3 0.168344 0.409022 0.686006
O O4 0.983031 0.435038 0.727914
O O5 0.700447 0.092930 0.220781
O O6 0.656348 0.000000 0.241572
O O7 0.478225 0.650238 0.763051
O O8 0.595152 0.727472 0.744364
O O9 0.639952 0.642603 0.826162
O O10 0.500000 0.693968 0.000000
O O11 0.124970 0.220962 0.261516
O O12 0.138364 0.264700 0.480489
O O13 0.195791 0.312148 0.231870
O O14 0.012768 0.296864 0.328093
O O15 0.833321 0.137155 0.639684
O O16 0.000000 0.182808 0.500000
O O17 0.335967 0.815733 0.306119
O O18 0.761037 0.360650 0.558508
#
# Coordination Sequence:
#
# PCOD8078776 Si02
#       8
#     8   8   8   8   8   8   8   8
#     4   8  14  25  42  73 106 122 139 187 251 289
#     4   8  14  25  43  70 104 126 144 186 243 291
#     4  11  22  34  45  64  98 131 160 199 238 272
#     4   9  15  27  47  68  92 117 158 204 224 274
#     4  11  18  32  45  66  94 125 166 198 226 270
#     4   9  16  29  44  69  93 120 157 193 236 275
#     4  10  17  27  47  71  91 125 166 194 230 280
#     4  10  17  26  50  70  91 126 163 193 228 285
#
# _framework density 17.542515999999999
#
# number of rings (size 3 to 8) (size 9 to 14) (size 15 to 20)
#    0.000    2.500    3.750    2.250    0.000    5.000 
#    0.000    5.625    0.000    1.500    0.000    0.000 
#    0.000    2.500    0.000    0.000    0.000    0.000 
#
# Total GULP energy -396495.194464 kJ/mol
# GULP energy per Si atom -12390.474827 kJ/mol
# Density = 1.750259 g / cm^3
# Si number density = 17.542516 Si / 1000 Ang^3
#
#
#
# Elastic Constant Matrix: (Units=GPa)
#
#
# Indices 1 2 3 4 5 6 
#
# 1 124.3341 70.8028 12.8509 0.0000 -1.5323 0.0000
# 2 70.8028 99.9464 12.8081 0.0000 -8.5484 0.0000
# 3 12.8509 12.8081 28.4364 0.0000 -4.1549 0.0000
# 4 0.0000 0.0000 0.0000 5.4858 0.0000 -0.4118
# 5 -1.5323 -8.5484 -4.1549 0.0000 10.8600 0.0000
# 6 0.0000 0.0000 0.0000 -0.4118 0.0000 28.2131
#
#
#
# Elastic Compliance Matrix: (Units=1/GPa)
#
#
# Indices 1 2 3 4 5 6 
#
# 1 0.014058 -0.010210 -0.002795 0.000000 -0.007122 0.000000
# 2 -0.010210 0.018547 -0.001925 0.000000 0.012422 0.000000
# 3 -0.002795 -0.001925 0.039209 0.000000 0.013092 0.000000
# 4 0.000000 0.000000 0.000000 0.182490 0.000000 0.002664
# 5 -0.007122 0.012422 0.013092 0.000000 0.105863 0.000000
# 6 0.000000 0.000000 0.000000 0.002664 0.000000 0.035483
#
#
# Mechanical properties :
#
#
# Convention : Reuss Voigt Hill
#
# Bulk Modulus (GPa) = 23.83510 49.51562 36.67536
# Shear Modulus (GPa) = 11.37668 19.32876 15.35272
#
# Velocity S-wave (km/s) = 2.54937 3.32297 2.96154
# Velocity P-wave (km/s) = 4.72041 6.55822 5.71369
#
# Compressibility (1/GPa) = 0.04195494
#
# Stress axis : x y z
#
# Youngs Moduli (GPa) = 71.13391 53.91647 25.50419
#
# Poissons Ratio (x) = 0.55048 0.07129
# Poissons Ratio (y) = 0.72626 0.04909
# Poissons Ratio (z) = 0.19883 0.10378
#
# Static dielectric constant tensor:
#      x y z
#    x 3.551060 0.000000 0.060620 
#    y 0.000000 3.328300 0.000000 
#    z 0.060620 0.000000 2.642320 
# 
# 
# High freq. dielectric constant tensor:
#      x y z
#    x 1.691140 0.000000 0.004270 
#    y 0.000000 1.656990 0.000000 
#    z 0.004270 0.000000 1.607140 
# 
# From -- ./inp_files/67835.got.cif
#   From: 2010.06.25/outbox.cif.g09.slc.cpg/sg12_34_cif.got.tgz:67835.got - 2010.06.28 00:19:55.
