data_PCOD8078808
_publ_section_title
;
Structure prediction by ZEFSAII (Michael W. Deem and Ramdas Pophale) SiO2 
 PCOD8078808
Probable space group: C 2/M
;
_chemical_formula_sum "Si O2"
_cell_formula_units_Z 56
_cell_length_a 28.348121
_cell_length_b 8.795520
_cell_length_c 14.291144
_cell_angle_alpha 90.000000
_cell_angle_beta 77.185530
_cell_angle_gamma 90.000000
_cell_volume 3474.553456
_symmetry_space_group_name_H-M "C 2/M"
_symmetry_group_IT_number 12
_symmetry_cell_setting 'monoclinic'
loop_
_space_group_symop_operation_xyz
x,y,z
-x,y,-z
-x,-y,-z
x,-y,z
1/2+x,1/2+y,z
1/2-x,1/2+y,-z
1/2-x,1/2-y,-z
1/2+x,1/2-y,z
loop_
_atom_site_type_symbol
_atom_site_label
_atom_site_fract_x
_atom_site_fract_y
_atom_site_fract_z
Si Si1 0.766821 0.322188 0.275357
Si Si2 0.432435 0.321431 0.204337
Si Si3 0.784051 0.680315 0.062552
Si Si4 0.476725 0.828752 0.908677
Si Si5 0.886891 0.821745 0.025302
Si Si6 0.855221 0.319780 0.362083
Si Si7 0.794993 0.178554 0.532847
O O1 0.776086 0.500000 0.264272
O O2 0.765714 0.254732 0.171241
O O3 0.812743 0.256712 0.312626
O O4 0.715921 0.288959 0.351874
O O5 0.437488 0.500000 0.214739
O O6 0.486069 0.250623 0.178872
O O7 0.405570 0.249939 0.305310
O O8 0.402960 0.279522 0.123426
O O9 0.780956 0.500000 0.058738
O O10 0.750000 0.750000 0.000000
O O11 0.838652 0.731874 0.021101
O O12 0.427347 0.732379 0.933497
O O13 0.465833 0.000000 0.879515
O O14 0.500000 0.829133 0.000000
O O15 0.878277 0.000000 0.016916
O O16 0.859034 0.500000 0.362508
O O17 0.843659 0.258999 0.472675
O O18 0.750000 0.250000 0.500000
O O19 0.797806 0.000000 0.511576
#
# Coordination Sequence:
#
# PCOD8078808 Si02
#       7
#     8   8   8   8   8   8   8
#     4   8  16  29  44  58  82 115 147 182 225 266
#     4  10  18  27  42  65  91 118 149 185 218 262
#     4  11  21  34  48  65  87 117 155 194 229 267
#     4   9  17  28  43  62  85 117 149 179 219 269
#     4  10  19  31  45  63  86 115 150 189 228 264
#     4  10  17  27  42  63  88 119 149 179 218 267
#     4   9  16  27  41  61  83 112 146 180 219 266
#
# _framework density 16.117180000000001
#
# number of rings (size 3 to 8) (size 9 to 14) (size 15 to 20)
#    0.000    2.429    1.429    3.429    0.000    2.857 
#    0.000    2.143    0.000    0.000    0.000    0.000 
#    0.000    1.143    0.000   12.286    0.000    5.429 
#
# Total GULP energy -347064.896077 kJ/mol
# GULP energy per Si atom -12395.174860 kJ/mol
# Density = 1.608050 g / cm^3
# Si number density = 16.117180 Si / 1000 Ang^3
#
#
#
# Elastic Constant Matrix: (Units=GPa)
#
#
# Indices 1 2 3 4 5 6 
#
# 1 61.7991 28.5689 51.8769 0.0000 -21.0079 0.0000
# 2 28.5689 75.1627 35.0087 0.0000 -14.2315 0.0000
# 3 51.8769 35.0087 105.1479 0.0000 -34.5704 0.0000
# 4 0.0000 0.0000 0.0000 24.4484 0.0000 -9.1950
# 5 -21.0079 -14.2315 -34.5704 0.0000 31.2983 0.0000
# 6 0.0000 0.0000 0.0000 -9.1950 0.0000 25.1077
#
#
#
# Elastic Compliance Matrix: (Units=1/GPa)
#
#
# Indices 1 2 3 4 5 6 
#
# 1 0.029772 -0.005073 -0.011287 0.000000 0.005210 0.000000
# 2 -0.005073 0.016703 -0.002639 0.000000 0.001275 0.000000
# 3 -0.011287 -0.002639 0.020527 0.000000 0.013897 0.000000
# 4 0.000000 0.000000 0.000000 0.047436 0.000000 0.017372
# 5 0.005210 0.001275 0.013897 0.000000 0.051377 0.000000
# 6 0.000000 0.000000 0.000000 0.017372 0.000000 0.046191
#
#
# Mechanical properties :
#
#
# Convention : Reuss Voigt Hill
#
# Bulk Modulus (GPa) = 34.47756 52.55765 43.51760
# Shear Modulus (GPa) = 19.25503 24.61455 21.93479
#
# Velocity S-wave (km/s) = 3.46018 3.91221 3.69312
# Velocity P-wave (km/s) = 6.11572 7.28613 6.72643
#
# Compressibility (1/GPa) = 0.02900437
#
# Stress axis : x y z
#
# Youngs Moduli (GPa) = 33.58821 59.86824 48.71693
#
# Poissons Ratio (x) = 0.30369 0.54986
# Poissons Ratio (y) = 0.17038 0.12859
# Poissons Ratio (z) = 0.37910 0.15802
#
# Static dielectric constant tensor:
#      x y z
#    x 2.773740 0.000000 -0.382320 
#    y 0.000000 3.108150 0.000000 
#    z -0.382320 0.000000 3.356710 
# 
# 
# High freq. dielectric constant tensor:
#      x y z
#    x 1.572210 0.000000 -0.045960 
#    y 0.000000 1.629140 0.000000 
#    z -0.045960 0.000000 1.609630 
# 
# From -- ./inp_files/243248.got.cif
#   From: 2010.06.25/outbox.cif.g09.slc.cpg/sg12_122_cif.got.tgz:243248.got - 2010.06.28 00:19:55.
