data_PCOD8078102
_publ_section_title
;
Structure prediction by ZEFSAII (Michael W. Deem and Ramdas Pophale) SiO2 
 PCOD8078102
Probable space group: C 2/M
;
_chemical_formula_sum "Si O2"
_cell_formula_units_Z 44
_cell_length_a 12.541770
_cell_length_b 17.854930
_cell_length_c 12.327113
_cell_angle_alpha 90.000000
_cell_angle_beta 122.814583
_cell_angle_gamma 90.000000
_cell_volume 2319.953263
_symmetry_space_group_name_H-M "C 2/M"
_symmetry_group_IT_number 12
_symmetry_cell_setting 'monoclinic'
loop_
_space_group_symop_operation_xyz
x,y,z
-x,y,-z
-x,-y,-z
x,-y,z
1/2+x,1/2+y,z
1/2-x,1/2+y,-z
1/2-x,1/2-y,-z
1/2+x,1/2-y,z
loop_
_atom_site_type_symbol
_atom_site_label
_atom_site_fract_x
_atom_site_fract_y
_atom_site_fract_z
Si Si1 0.465691 0.082873 0.805215
Si Si2 0.500000 0.798505 0.000000
Si Si3 0.298373 0.644217 0.358431
Si Si4 0.178138 0.208009 0.236710
Si Si5 0.552593 0.845338 0.642207
Si Si6 0.027311 0.177316 0.354466
O O1 0.530970 0.146826 0.915910
O O2 0.312029 0.084256 0.722587
O O3 0.510437 0.095490 0.708102
O O4 0.508033 0.000000 0.867106
O O5 0.616489 0.743506 0.093739
O O6 0.234787 0.725262 0.339731
O O7 0.389747 0.640337 0.302420
O O8 0.374917 0.633791 0.512541
O O9 0.293641 0.154054 0.268521
O O10 0.072664 0.166720 0.254719
O O11 0.500000 0.876727 0.500000
O O12 0.487779 0.764830 0.625695
#
# Coordination Sequence:
#
# PCOD8078102 Si02
#       6
#     8   4   8   8   8   8
#     4  11  23  38  50  72 110 150 182 204 245 316
#     4  10  21  36  54  76 107 142 180 212 252 304
#     4   9  17  29  53  80 101 136 170 215 269 312
#     4  10  18  30  51  84 108 129 166 221 272 313
#     4  11  19  32  57  84 110 130 166 222 279 316
#     4  10  15  30  53  81 106 127 164 223 281 304
#
# _framework density 18.965900000000001
#
# number of rings (size 3 to 8) (size 9 to 14) (size 15 to 20)
#    0.000    1.818    7.273    1.909    0.000    1.091 
#    3.273    1.818    0.000    1.091    0.000    0.636 
#    0.000    0.000    0.000    0.000    0.000    0.000 
#
# Total GULP energy -272630.754109 kJ/mol
# GULP energy per Si atom -12392.307005 kJ/mol
# Density = 1.892273 g / cm^3
# Si number density = 18.965900 Si / 1000 Ang^3
#
#
#
# Elastic Constant Matrix: (Units=GPa)
#
#
# Indices 1 2 3 4 5 6 
#
# 1 141.1241 31.7021 58.5820 0.0000 0.4291 0.0000
# 2 31.7021 39.2005 29.2719 0.0000 2.9436 0.0000
# 3 58.5820 29.2719 106.9925 0.0000 -0.5675 0.0000
# 4 0.0000 0.0000 0.0000 11.4559 0.0000 4.5282
# 5 0.4291 2.9436 -0.5675 0.0000 20.6290 0.0000
# 6 0.0000 0.0000 0.0000 4.5282 0.0000 -1.4447
#
#
#
# Elastic Compliance Matrix: (Units=1/GPa)
#
#
# Indices 1 2 3 4 5 6 
#
# 1 0.009887 -0.005008 -0.004041 0.000000 0.000398 0.000000
# 2 -0.005008 0.035082 -0.006883 0.000000 -0.005091 0.000000
# 3 -0.004041 -0.006883 0.013450 0.000000 0.001436 0.000000
# 4 0.000000 0.000000 0.000000 0.038989 0.000000 0.122201
# 5 0.000398 -0.005091 0.001436 0.000000 0.049233 0.000000
# 6 0.000000 0.000000 0.000000 0.122201 0.000000 -0.309155
#
#
# Mechanical properties :
#
#
# Convention : Reuss Voigt Hill
#
# Bulk Modulus (GPa) = 37.65853 58.49212 48.07532
# Shear Modulus (GPa) = -41.05169 17.31210 -11.86980
#
# Velocity S-wave (km/s) = -4.65747 3.02454 -2.50441
# Velocity P-wave (km/s) = 3.00394 6.56542 4.12802
#
# Compressibility (1/GPa) = 0.02655441
#
# Stress axis : x y z
#
# Youngs Moduli (GPa) = 101.13874 28.50469 74.34973
#
# Poissons Ratio (x) = 0.14276 0.30048
# Poissons Ratio (y) = 0.50652 0.51174
# Poissons Ratio (z) = 0.40874 0.19619
#
# Static dielectric constant tensor:
#      x y z
#    x 3.894110 0.000000 0.118280 
#    y 0.000000 2.923300 0.000000 
#    z 0.118280 0.000000 3.430600 
# 
# 
# High freq. dielectric constant tensor:
#      x y z
#    x 1.745780 0.000000 0.003030 
#    y 0.000000 1.677200 0.000000 
#    z 0.003030 0.000000 1.726730 
# 
# From -- ./inp_files/131843.got.cif
#   From: 2010.06.25/outbox.cif.g09.slc.cpg/sg12_66_cif.got.tgz:131843.got - 2010.06.28 00:19:55.
