data_PCOD8078860
_publ_section_title
;
Structure prediction by ZEFSAII (Michael W. Deem and Ramdas Pophale) SiO2 
 PCOD8078860
Probable space group: C 2/M
;
_chemical_formula_sum "Si O2"
_cell_formula_units_Z 56
_cell_length_a 19.282505
_cell_length_b 20.430944
_cell_length_c 10.486834
_cell_angle_alpha 90.000000
_cell_angle_beta 56.435758
_cell_angle_gamma 90.000000
_cell_volume 3442.549346
_symmetry_space_group_name_H-M "C 2/M"
_symmetry_group_IT_number 12
_symmetry_cell_setting 'monoclinic'
loop_
_space_group_symop_operation_xyz
x,y,z
-x,y,-z
-x,-y,-z
x,-y,z
1/2+x,1/2+y,z
1/2-x,1/2+y,-z
1/2-x,1/2-y,-z
1/2+x,1/2-y,z
loop_
_atom_site_type_symbol
_atom_site_label
_atom_site_fract_x
_atom_site_fract_y
_atom_site_fract_z
Si Si1 0.047454 0.750327 0.159534
Si Si2 0.865695 0.747250 0.304094
Si Si3 0.682434 0.925529 0.031848
Si Si4 0.074789 0.645913 0.336911
Si Si5 0.907293 0.356710 0.082802
Si Si6 0.198436 0.810020 0.109512
Si Si7 0.200823 0.733522 0.351280
O O1 0.033849 0.704791 0.297931
O O2 0.106352 0.810512 0.140820
O O3 0.959094 0.777230 0.196365
O O4 0.094704 0.707646 0.005218
O O5 0.871720 0.670007 0.254233
O O6 0.841426 0.754440 0.474780
O O7 0.797824 0.784373 0.283920
O O8 0.609771 0.910472 0.208336
O O9 0.711564 0.000000 0.016330
O O10 0.648342 0.913448 0.922877
O O11 0.761785 0.878864 0.970230
O O12 0.153623 0.671608 0.338672
O O13 0.000000 0.617123 0.500000
O O14 0.000000 0.385343 0.000000
O O15 0.195627 0.797333 0.264548
O O16 0.250000 0.750000 0.000000
#
# Coordination Sequence:
#
# PCOD8078860 Si02
#       7
#     8   8   8   8   8   8   8
#     4   9  17  27  49  73 100 128 162 206 253 291
#     4  10  17  27  44  80 104 126 157 207 259 307
#     4  11  22  34  51  71  99 139 176 206 246 302
#     4  10  18  32  49  70 101 132 164 207 245 296
#     4   9  17  30  47  69 102 130 162 199 245 301
#     4  11  17  32  51  73  96 132 166 219 250 287
#     4  10  18  26  49  76 104 124 160 209 255 294
#
# _framework density 16.267014
#
# number of rings (size 3 to 8) (size 9 to 14) (size 15 to 20)
#    0.000    2.000    7.143    0.000    0.000    0.571 
#    0.000    0.000    0.000    0.000    0.000    4.000 
#    0.000    0.000    0.000    0.000    0.000    0.000 
#
# Total GULP energy -346957.054767 kJ/mol
# GULP energy per Si atom -12391.323385 kJ/mol
# Density = 1.622999 g / cm^3
# Si number density = 16.267014 Si / 1000 Ang^3
#
#
#
# Elastic Constant Matrix: (Units=GPa)
#
#
# Indices 1 2 3 4 5 6 
#
# 1 109.9100 35.3066 15.0748 0.0000 -14.9291 0.0000
# 2 35.3066 79.8066 31.6834 0.0000 -11.4186 0.0000
# 3 15.0748 31.6834 76.6620 0.0000 0.0203 0.0000
# 4 0.0000 0.0000 0.0000 11.6076 0.0000 -1.1549
# 5 -14.9291 -11.4186 0.0203 0.0000 23.5010 0.0000
# 6 0.0000 0.0000 0.0000 -1.1549 0.0000 15.6744
#
#
#
# Elastic Compliance Matrix: (Units=1/GPa)
#
#
# Indices 1 2 3 4 5 6 
#
# 1 0.011151 -0.003978 -0.000550 0.000000 0.005152 0.000000
# 2 -0.003978 0.017771 -0.006564 0.000000 0.006113 0.000000
# 3 -0.000550 -0.006564 0.015866 0.000000 -0.003552 0.000000
# 4 0.000000 0.000000 0.000000 0.086787 0.000000 0.006395
# 5 0.005152 0.006113 -0.003552 0.000000 0.048797 0.000000
# 6 0.000000 0.000000 0.000000 0.006395 0.000000 0.064269
#
#
# Mechanical properties :
#
#
# Convention : Reuss Voigt Hill
#
# Bulk Modulus (GPa) = 44.23902 47.83423 46.03663
# Shear Modulus (GPa) = 18.22425 22.44420 20.33422
#
# Velocity S-wave (km/s) = 3.35075 3.71851 3.53941
# Velocity P-wave (km/s) = 6.49805 6.92141 6.71307
#
# Compressibility (1/GPa) = 0.02260448
#
# Stress axis : x y z
#
# Youngs Moduli (GPa) = 89.67496 56.27280 63.02743
#
# Poissons Ratio (x) = 0.22385 0.03468
# Poissons Ratio (y) = 0.35672 0.41370
# Poissons Ratio (z) = 0.04934 0.36936
#
# Static dielectric constant tensor:
#      x y z
#    x 3.546560 0.000000 0.060640 
#    y 0.000000 2.509290 0.000000 
#    z 0.060640 0.000000 3.303260 
# 
# 
# High freq. dielectric constant tensor:
#      x y z
#    x 1.649410 0.000000 0.005630 
#    y 0.000000 1.541950 0.000000 
#    z 0.005630 0.000000 1.634830 
# 
# From -- ./inp_files/169929.got.cif
#   From: 2010.06.25/outbox.cif.g09.slc.cpg/sg12_85_cif.got.tgz:169929.got - 2010.06.28 00:19:55.
