data_PCOD8078736
_publ_section_title
;
Structure prediction by ZEFSAII (Michael W. Deem and Ramdas Pophale) SiO2 
 PCOD8078736
Probable space group: C 2/M
;
_chemical_formula_sum "Si O2"
_cell_formula_units_Z 64
_cell_length_a 20.745817
_cell_length_b 9.318692
_cell_length_c 19.740960
_cell_angle_alpha 90.000000
_cell_angle_beta 102.425662
_cell_angle_gamma 90.000000
_cell_volume 3727.003644
_symmetry_space_group_name_H-M "C 2/M"
_symmetry_group_IT_number 12
_symmetry_cell_setting 'monoclinic'
loop_
_space_group_symop_operation_xyz
x,y,z
-x,y,-z
-x,-y,-z
x,-y,z
1/2+x,1/2+y,z
1/2-x,1/2+y,-z
1/2-x,1/2-y,-z
1/2+x,1/2-y,z
loop_
_atom_site_type_symbol
_atom_site_label
_atom_site_fract_x
_atom_site_fract_y
_atom_site_fract_z
Si Si1 0.394812 0.333060 0.142208
Si Si2 0.314801 0.333761 0.993405
Si Si3 0.104870 0.666648 0.636055
Si Si4 0.474726 0.667697 0.642148
Si Si5 0.573029 0.158865 0.486131
Si Si6 0.839874 0.170005 0.848764
Si Si7 0.961039 0.831868 0.792214
Si Si8 0.697267 0.166866 0.776048
O O1 0.392652 0.500000 0.162088
O O2 0.468205 0.268201 0.168805
O O3 0.344732 0.251703 0.178973
O O4 0.373753 0.308668 0.059796
O O5 0.294798 0.500000 0.984229
O O6 0.340293 0.276940 0.926583
O O7 0.250000 0.250000 0.000000
O O8 0.082775 0.500000 0.635652
O O9 0.119548 0.705766 0.560222
O O10 0.170724 0.696179 0.694168
O O11 0.046447 0.761605 0.653455
O O12 0.482430 0.500000 0.629510
O O13 0.422810 0.732170 0.575914
O O14 0.446432 0.699891 0.710160
O O15 0.500000 0.159931 0.500000
O O16 0.592126 0.000000 0.464346
O O17 0.902311 0.238924 0.823340
O O18 0.772659 0.220793 0.796661
O O19 0.845465 0.000000 0.846503
O O20 0.963240 0.000000 0.806724
O O21 0.692115 0.000000 0.794172
#
# Coordination Sequence:
#
# PCOD8078736 Si02
#       8
#     8   8   8   8   8   8   8   8
#     4  10  19  31  49  73  98 125 155 196 244 281
#     4  10  19  31  51  74  96 124 158 197 240 281
#     4   9  17  28  44  68  94 121 155 195 235 276
#     4  10  17  26  44  68  93 124 156 191 236 279
#     4   8  15  27  41  62  94 124 152 191 234 276
#     4   9  18  32  49  71  96 126 162 197 233 280
#     4   9  18  31  46  69 101 128 157 196 237 281
#     4  10  18  30  51  73  93 123 163 199 232 278
#
# _framework density 17.171970999999999
#
# number of rings (size 3 to 8) (size 9 to 14) (size 15 to 20)
#    0.000    2.625    2.500    1.125    0.000    2.750 
#    0.000    2.500    0.000    5.250    0.000    1.750 
#    0.000    0.000    0.000    0.000    0.000    1.250 
#
# Total GULP energy -396656.217884 kJ/mol
# GULP energy per Si atom -12395.506809 kJ/mol
# Density = 1.713289 g / cm^3
# Si number density = 17.171971 Si / 1000 Ang^3
#
#
#
# Elastic Constant Matrix: (Units=GPa)
#
#
# Indices 1 2 3 4 5 6 
#
# 1 102.0615 27.6938 53.4080 0.0000 -2.4899 0.0000
# 2 27.6938 46.2394 38.2871 0.0000 -1.4219 0.0000
# 3 53.4080 38.2871 130.1936 0.0000 10.0740 0.0000
# 4 0.0000 0.0000 0.0000 22.0144 0.0000 0.1753
# 5 -2.4899 -1.4219 10.0740 0.0000 24.4534 0.0000
# 6 0.0000 0.0000 0.0000 0.1753 0.0000 14.7647
#
#
#
# Elastic Compliance Matrix: (Units=1/GPa)
#
#
# Indices 1 2 3 4 5 6 
#
# 1 0.013349 -0.004204 -0.004468 0.000000 0.002956 0.000000
# 2 -0.004204 0.030591 -0.007619 0.000000 0.004489 0.000000
# 3 -0.004468 -0.007619 0.012213 0.000000 -0.005929 0.000000
# 4 0.000000 0.000000 0.000000 0.045429 0.000000 -0.000539
# 5 0.002956 0.004489 -0.005929 0.000000 0.043899 0.000000
# 6 0.000000 0.000000 0.000000 -0.000539 0.000000 0.067736
#
#
# Mechanical properties :
#
#
# Convention : Reuss Voigt Hill
#
# Bulk Modulus (GPa) = 42.42594 57.47469 49.95031
# Shear Modulus (GPa) = 19.71162 22.85354 21.28258
#
# Velocity S-wave (km/s) = 3.39174 3.65206 3.52430
# Velocity P-wave (km/s) = 6.33235 7.16422 6.76109
#
# Compressibility (1/GPa) = 0.02357048
#
# Stress axis : x y z
#
# Youngs Moduli (GPa) = 74.91073 32.68903 81.87827
#
# Poissons Ratio (x) = 0.13744 0.36587
# Poissons Ratio (y) = 0.31495 0.62382
# Poissons Ratio (z) = 0.33473 0.24905
#
# Static dielectric constant tensor:
#      x y z
#    x 3.171950 0.000000 0.187040 
#    y 0.000000 3.026590 0.000000 
#    z 0.187040 0.000000 3.753450 
# 
# 
# High freq. dielectric constant tensor:
#      x y z
#    x 1.630140 0.000000 0.013980 
#    y 0.000000 1.636690 0.000000 
#    z 0.013980 0.000000 1.683790 
# 
# From -- ./inp_files/319223.got.cif
#   From: 2010.06.25/outbox.cif.g09.slc.cpg/sg12_160_cif.got.tgz:319223.got - 2010.06.28 00:19:55.
