data_PCOD8078488
_publ_section_title
;
Structure prediction by ZEFSAII (Michael W. Deem and Ramdas Pophale) SiO2 
 PCOD8078488
Probable space group: C 2/M
;
_chemical_formula_sum "Si O2"
_cell_formula_units_Z 56
_cell_length_a 23.457711
_cell_length_b 12.415257
_cell_length_c 13.702902
_cell_angle_alpha 90.000000
_cell_angle_beta 104.839050
_cell_angle_gamma 90.000000
_cell_volume 3857.649203
_symmetry_space_group_name_H-M "C 2/M"
_symmetry_group_IT_number 12
_symmetry_cell_setting 'monoclinic'
loop_
_space_group_symop_operation_xyz
x,y,z
-x,y,-z
-x,-y,-z
x,-y,z
1/2+x,1/2+y,z
1/2-x,1/2+y,-z
1/2-x,1/2-y,-z
1/2+x,1/2-y,z
loop_
_atom_site_type_symbol
_atom_site_label
_atom_site_fract_x
_atom_site_fract_y
_atom_site_fract_z
Si Si1 0.472980 0.872368 0.389466
Si Si2 0.254447 0.248911 0.840310
Si Si3 0.363482 0.877648 0.848376
Si Si4 0.850645 0.622059 0.257121
Si Si5 0.519308 0.127456 0.204370
Si Si6 0.601077 0.812628 0.924372
Si Si7 0.185884 0.125106 0.967660
O O1 0.500000 0.820716 0.500000
O O2 0.405706 0.832407 0.344421
O O3 0.513337 0.838521 0.315102
O O4 0.471754 0.000000 0.397231
O O5 0.306909 0.196673 0.799714
O O6 0.205713 0.301625 0.747323
O O7 0.226346 0.153661 0.892660
O O8 0.278641 0.344602 0.919197
O O9 0.417318 0.833908 0.806134
O O10 0.348744 0.000000 0.813107
O O11 0.380347 0.873096 0.969281
O O12 0.835297 0.500000 0.280399
O O13 0.868020 0.623662 0.150582
O O14 0.469416 0.187157 0.118443
O O15 0.510426 0.000000 0.186017
O O16 0.624190 0.689774 0.936280
O O17 0.170493 0.000000 0.960656
#
# Coordination Sequence:
#
# PCOD8078488 Si02
#       7
#     8   8   8   8   8   8   8
#     4   8  14  25  41  60  77  91 113 150 194 232
#     4   9  17  24  35  53  75 103 131 157 181 213
#     4  10  17  24  36  54  79 106 127 151 182 218
#     4   9  15  24  39  57  77  99 125 156 187 220
#     4   9  16  25  39  58  78  99 122 151 190 230
#     4   9  16  24  37  56  77 102 129 157 184 216
#     4   9  16  25  36  51  74 104 135 161 182 207
#
# _framework density 14.516613
#
# number of rings (size 3 to 8) (size 9 to 14) (size 15 to 20)
#    0.000    3.000    0.000    4.286    0.000    1.143 
#    0.000    0.000    0.000    8.571    0.000    0.000 
#    0.000   57.143    0.000    0.000    0.000    0.000 
#
# Total GULP energy -347106.142203 kJ/mol
# GULP energy per Si atom -12396.647936 kJ/mol
# Density = 1.448357 g / cm^3
# Si number density = 14.516613 Si / 1000 Ang^3
#
#
#
# Elastic Constant Matrix: (Units=GPa)
#
#
# Indices 1 2 3 4 5 6 
#
# 1 125.7129 39.2114 40.4306 0.0000 16.6315 0.0000
# 2 39.2114 64.7422 13.8291 0.0000 8.9406 0.0000
# 3 40.4306 13.8291 68.4788 0.0000 16.6096 0.0000
# 4 0.0000 0.0000 0.0000 9.3801 0.0000 5.5632
# 5 16.6315 8.9406 16.6096 0.0000 14.9277 0.0000
# 6 0.0000 0.0000 0.0000 5.5632 0.0000 23.4173
#
#
#
# Elastic Compliance Matrix: (Units=1/GPa)
#
#
# Indices 1 2 3 4 5 6 
#
# 1 0.011803 -0.005503 -0.004749 0.000000 -0.004571 0.000000
# 2 -0.005503 0.019490 0.000900 0.000000 -0.006544 0.000000
# 3 -0.004749 0.000900 0.022013 0.000000 -0.019742 0.000000
# 4 0.000000 0.000000 0.000000 0.124093 0.000000 -0.029480
# 5 -0.004571 -0.006544 -0.019742 0.000000 0.097967 0.000000
# 6 0.000000 0.000000 0.000000 -0.029480 0.000000 0.049707
#
#
# Mechanical properties :
#
#
# Convention : Reuss Voigt Hill
#
# Bulk Modulus (GPa) = 28.89876 49.54179 39.22027
# Shear Modulus (GPa) = 14.07217 20.57588 17.32403
#
# Velocity S-wave (km/s) = 3.11687 3.76892 3.45830
# Velocity P-wave (km/s) = 5.73618 7.28982 6.55916
#
# Compressibility (1/GPa) = 0.03460356
#
# Stress axis : x y z
#
# Youngs Moduli (GPa) = 84.72420 51.30790 45.42687
#
# Poissons Ratio (x) = 0.28235 0.21572
# Poissons Ratio (y) = 0.46624 -0.04090
# Poissons Ratio (z) = 0.40233 -0.04619
#
# Static dielectric constant tensor:
#      x y z
#    x 2.983760 0.000000 0.143240 
#    y 0.000000 2.553630 0.000000 
#    z 0.143240 0.000000 2.784030 
# 
# 
# High freq. dielectric constant tensor:
#      x y z
#    x 1.558030 0.000000 0.013500 
#    y 0.000000 1.523190 0.000000 
#    z 0.013500 0.000000 1.521930 
# 
# From -- ./inp_files/173907.got.cif
#   From: 2010.06.25/outbox.cif.g09.slc.cpg/sg12_87_cif.got.tgz:173907.got - 2010.06.28 00:19:55.
