data_PCOD8078797
_publ_section_title
;
Structure prediction by ZEFSAII (Michael W. Deem and Ramdas Pophale) SiO2 
 PCOD8078797
Probable space group: C 2/M
;
_chemical_formula_sum "Si O2"
_cell_formula_units_Z 64
_cell_length_a 27.066927
_cell_length_b 9.298355
_cell_length_c 16.786024
_cell_angle_alpha 90.000000
_cell_angle_beta 102.219315
_cell_angle_gamma 90.000000
_cell_volume 4128.959582
_symmetry_space_group_name_H-M "C 2/M"
_symmetry_group_IT_number 12
_symmetry_cell_setting 'monoclinic'
loop_
_space_group_symop_operation_xyz
x,y,z
-x,y,-z
-x,-y,-z
x,-y,z
1/2+x,1/2+y,z
1/2-x,1/2+y,-z
1/2-x,1/2-y,-z
1/2+x,1/2-y,z
loop_
_atom_site_type_symbol
_atom_site_label
_atom_site_fract_x
_atom_site_fract_y
_atom_site_fract_z
Si Si1 0.558940 0.337462 0.001828
Si Si2 0.464930 0.339653 0.593573
Si Si3 0.537580 0.833780 0.845637
Si Si4 0.613554 0.664516 0.568536
Si Si5 0.802245 0.830630 0.524986
Si Si6 0.940522 0.668102 0.325907
Si Si7 0.921736 0.668136 0.839813
Si Si8 0.623965 0.663600 0.312606
O O1 0.580110 0.500000 0.006452
O O2 0.587700 0.247472 0.079515
O O3 0.500000 0.336361 0.000000
O O4 0.567846 0.262017 0.919747
O O5 0.488801 0.500000 0.606841
O O6 0.437961 0.319470 0.499530
O O7 0.507632 0.221144 0.617344
O O8 0.424714 0.319265 0.649264
O O9 0.560368 0.793307 0.767732
O O10 0.477855 0.799666 0.826065
O O11 0.546461 0.000000 0.870268
O O12 0.622855 0.500000 0.595700
O O13 0.660919 0.722432 0.533458
O O14 0.607210 0.756965 0.647009
O O15 0.750000 0.750000 0.500000
O O16 0.826868 0.793611 0.619014
O O17 0.793676 0.000000 0.514741
O O18 0.936697 0.500000 0.338965
O O19 0.912044 0.500000 0.848611
O O20 0.880857 0.729876 0.763744
O O21 0.628343 0.500000 0.282928
#
# Coordination Sequence:
#
# PCOD8078797 Si02
#       8
#     8   8   8   8   8   8   8   8
#     4   9  17  27  40  58  79 111 154 188 215 255
#     4   9  17  29  43  57  82 118 150 180 216 255
#     4   9  18  29  38  55  86 119 149 183 222 255
#     4   9  19  33  45  61  84 114 148 180 219 265
#     4   9  19  35  52  68  88 113 144 185 230 271
#     4  11  20  28  40  62  89 116 149 186 217 252
#     4  10  17  27  42  60  86 117 147 184 224 258
#     4   9  17  29  45  65  87 114 149 185 219 262
#
# _framework density 15.500273
#
# number of rings (size 3 to 8) (size 9 to 14) (size 15 to 20)
#    0.000    2.625    1.250    3.000    0.000    6.000 
#    0.000    2.500    0.000    0.000    0.000    0.000 
#    0.000    1.000    0.000    3.250    0.000    4.750 
#
# Total GULP energy -396757.801542 kJ/mol
# GULP energy per Si atom -12398.681298 kJ/mol
# Density = 1.546499 g / cm^3
# Si number density = 15.500273 Si / 1000 Ang^3
#
#
#
# Elastic Constant Matrix: (Units=GPa)
#
#
# Indices 1 2 3 4 5 6 
#
# 1 47.0592 37.2314 44.4553 0.0000 0.2905 0.0000
# 2 37.2314 92.4444 69.9794 0.0000 -4.4187 0.0000
# 3 44.4553 69.9794 113.2103 0.0000 -7.1464 0.0000
# 4 0.0000 0.0000 0.0000 31.9527 0.0000 -0.4612
# 5 0.2905 -4.4187 -7.1464 0.0000 15.0454 0.0000
# 6 0.0000 0.0000 0.0000 -0.4612 0.0000 21.8846
#
#
#
# Elastic Compliance Matrix: (Units=1/GPa)
#
#
# Indices 1 2 3 4 5 6 
#
# 1 0.037021 -0.007340 -0.010496 0.000000 -0.007856 0.000000
# 2 -0.007340 0.021786 -0.010486 0.000000 0.001559 0.000000
# 3 -0.010496 -0.010486 0.019850 0.000000 0.006552 0.000000
# 4 0.000000 0.000000 0.000000 0.031306 0.000000 0.000660
# 5 -0.007856 0.001559 0.006552 0.000000 0.070187 0.000000
# 6 0.000000 0.000000 0.000000 0.000660 0.000000 0.045708
#
#
# Mechanical properties :
#
#
# Convention : Reuss Voigt Hill
#
# Bulk Modulus (GPa) = 45.42855 61.78290 53.60573
# Shear Modulus (GPa) = 17.25102 20.51307 18.88204
#
# Velocity S-wave (km/s) = 3.33971 3.64180 3.49402
# Velocity P-wave (km/s) = 6.65157 7.59140 7.13697
#
# Compressibility (1/GPa) = 0.02201259
#
# Stress axis : x y z
#
# Youngs Moduli (GPa) = 27.01197 45.90196 50.37805
#
# Poissons Ratio (x) = 0.33692 0.52877
# Poissons Ratio (y) = 0.19826 0.52825
# Poissons Ratio (z) = 0.28352 0.48132
#
# Static dielectric constant tensor:
#      x y z
#    x 2.591700 0.000000 -0.125980 
#    y 0.000000 2.994650 0.000000 
#    z -0.125980 0.000000 3.043180 
# 
# 
# High freq. dielectric constant tensor:
#      x y z
#    x 1.539570 0.000000 -0.015000 
#    y 0.000000 1.601830 0.000000 
#    z -0.015000 0.000000 1.595150 
# 
# From -- ./inp_files/244252.got.cif
#   From: 2010.06.25/outbox.cif.g09.slc.cpg/sg12_123_cif.got.tgz:244252.got - 2010.06.28 00:19:55.
