data_PCOD8078748
_publ_section_title
;
Structure prediction by ZEFSAII (Michael W. Deem and Ramdas Pophale) SiO2 
 PCOD8078748
Probable space group: C 2/M
;
_chemical_formula_sum "Si O2"
_cell_formula_units_Z 48
_cell_length_a 18.933127
_cell_length_b 14.244169
_cell_length_c 9.882589
_cell_angle_alpha 90.000000
_cell_angle_beta 75.641324
_cell_angle_gamma 90.000000
_cell_volume 2581.947564
_symmetry_space_group_name_H-M "C 2/M"
_symmetry_group_IT_number 12
_symmetry_cell_setting 'monoclinic'
loop_
_space_group_symop_operation_xyz
x,y,z
-x,y,-z
-x,-y,-z
x,-y,z
1/2+x,1/2+y,z
1/2-x,1/2+y,-z
1/2-x,1/2-y,-z
1/2+x,1/2-y,z
loop_
_atom_site_type_symbol
_atom_site_label
_atom_site_fract_x
_atom_site_fract_y
_atom_site_fract_z
Si Si1 0.788785 0.392240 0.251593
Si Si2 0.997039 0.251404 0.662994
Si Si3 0.883576 0.892046 0.405875
Si Si4 0.547789 0.890694 0.853561
Si Si5 0.157415 0.220304 0.313522
Si Si6 0.776298 0.393168 0.572421
O O1 0.766069 0.500000 0.240871
O O2 0.867684 0.370857 0.151138
O O3 0.728311 0.325778 0.207015
O O4 0.790939 0.366697 0.409533
O O5 0.048661 0.165796 0.687729
O O6 0.024923 0.344083 0.723677
O O7 0.000000 0.268198 0.500000
O O8 0.913365 0.230947 0.748939
O O9 0.866018 0.853971 0.562149
O O10 0.809830 0.881115 0.351869
O O11 0.907482 0.000000 0.405187
O O12 0.533468 0.000000 0.838529
O O13 0.500000 0.850587 0.000000
O O14 0.176171 0.323656 0.360090
O O15 0.801354 0.500000 0.589989
#
# Coordination Sequence:
#
# PCOD8078748 Si02
#       6
#     8   8   8   8   8   8
#     4   9  16  28  47  67  90 125 166 199 230 283
#     4  10  20  31  49  78 104 126 155 201 250 285
#     4   9  17  29  46  70 102 135 163 192 234 292
#     4  10  21  37  54  70  94 132 170 200 238 293
#     4  10  17  26  44  72 102 125 154 199 248 286
#     4   9  16  26  43  68  98 130 159 193 238 287
#
# _framework density 18.590617999999999
#
# number of rings (size 3 to 8) (size 9 to 14) (size 15 to 20)
#    0.000    2.500    0.000    6.500    0.000    4.667 
#    0.000    0.833    0.000    0.500    0.000    0.000 
#    0.000    0.000    0.000    0.000    0.000    0.000 
#
# Total GULP energy -297468.352656 kJ/mol
# GULP energy per Si atom -12394.514694 kJ/mol
# Density = 1.854831 g / cm^3
# Si number density = 18.590618 Si / 1000 Ang^3
#
#
#
# Elastic Constant Matrix: (Units=GPa)
#
#
# Indices 1 2 3 4 5 6 
#
# 1 132.1550 56.6478 23.8321 0.0000 -18.9046 0.0000
# 2 56.6478 89.6425 27.1542 0.0000 -7.4305 0.0000
# 3 23.8321 27.1542 27.5483 0.0000 -7.7751 0.0000
# 4 0.0000 0.0000 0.0000 8.8372 0.0000 -6.2041
# 5 -18.9046 -7.4305 -7.7751 0.0000 15.3978 0.0000
# 6 0.0000 0.0000 0.0000 -6.2041 0.0000 22.9172
#
#
#
# Elastic Compliance Matrix: (Units=1/GPa)
#
#
# Indices 1 2 3 4 5 6 
#
# 1 0.012108 -0.006427 -0.000956 0.000000 0.011281 0.000000
# 2 -0.006427 0.019316 -0.015250 0.000000 -0.006269 0.000000
# 3 -0.000956 -0.015250 0.058018 0.000000 0.020764 0.000000
# 4 0.000000 0.000000 0.000000 0.139711 0.000000 0.037822
# 5 0.011281 -0.006269 0.020764 0.000000 0.086254 0.000000
# 6 0.000000 0.000000 0.000000 0.037822 0.000000 0.053875
#
#
# Mechanical properties :
#
#
# Convention : Reuss Voigt Hill
#
# Bulk Modulus (GPa) = 22.63551 51.62378 37.12965
# Shear Modulus (GPa) = 11.64762 18.87790 15.26276
#
# Velocity S-wave (km/s) = 2.50578 3.19007 2.86841
# Velocity P-wave (km/s) = 4.53587 6.43411 5.56650
#
# Compressibility (1/GPa) = 0.04417838
#
# Stress axis : x y z
#
# Youngs Moduli (GPa) = 82.59165 51.76970 17.23592
#
# Poissons Ratio (x) = 0.33270 0.01647
# Poissons Ratio (y) = 0.53078 0.26284
# Poissons Ratio (z) = 0.07894 0.78947
#
# Static dielectric constant tensor:
#      x y z
#    x 4.203770 0.000000 -0.225500 
#    y 0.000000 3.515270 0.000000 
#    z -0.225500 0.000000 2.780580 
# 
# 
# High freq. dielectric constant tensor:
#      x y z
#    x 1.746650 0.000000 -0.012950 
#    y 0.000000 1.732140 0.000000 
#    z -0.012950 0.000000 1.634960 
# 
# From -- ./inp_files/73585.got.cif
#   From: 2010.06.25/outbox.cif.g09.slc.cpg/sg12_37_cif.got.tgz:73585.got - 2010.06.28 00:19:55.
