data_PCOD8078193
_publ_section_title
;
Structure prediction by ZEFSAII (Michael W. Deem and Ramdas Pophale) SiO2 
 PCOD8078193
Probable space group: C 2/M
;
_chemical_formula_sum "Si O2"
_cell_formula_units_Z 48
_cell_length_a 23.681060
_cell_length_b 14.835923
_cell_length_c 11.830067
_cell_angle_alpha 90.000000
_cell_angle_beta 50.042142
_cell_angle_gamma 90.000000
_cell_volume 3185.845524
_symmetry_space_group_name_H-M "C 2/M"
_symmetry_group_IT_number 12
_symmetry_cell_setting 'monoclinic'
loop_
_space_group_symop_operation_xyz
x,y,z
-x,y,-z
-x,-y,-z
x,-y,z
1/2+x,1/2+y,z
1/2-x,1/2+y,-z
1/2-x,1/2-y,-z
1/2+x,1/2-y,z
loop_
_atom_site_type_symbol
_atom_site_label
_atom_site_fract_x
_atom_site_fract_y
_atom_site_fract_z
Si Si1 0.424116 0.301801 0.146750
Si Si2 0.272429 0.238271 0.342562
Si Si3 0.534060 0.395770 0.680897
Si Si4 0.669111 0.396163 0.349152
Si Si5 0.871938 0.105933 0.840139
Si Si6 0.313305 0.602778 0.153936
O O1 0.361516 0.223159 0.225075
O O2 0.432196 0.337422 0.262350
O O3 0.394923 0.384133 0.104441
O O4 0.500000 0.262560 0.000000
O O5 0.250000 0.250000 0.500000
O O6 0.231267 0.155051 0.339887
O O7 0.255736 0.330591 0.292047
O O8 0.528441 0.500000 0.725611
O O9 0.588097 0.384007 0.505314
O O10 0.454287 0.354910 0.751082
O O11 0.693642 0.500000 0.319331
O O12 0.665285 0.356274 0.226571
O O13 0.881655 0.000000 0.812334
O O14 0.819343 0.128967 0.013683
O O15 0.286926 0.500000 0.203426
#
# Coordination Sequence:
#
# PCOD8078193 Si02
#       6
#     8   8   8   8   8   8
#     4  10  18  28  45  67  92 123 148 189 227 272
#     4  10  20  31  45  67  92 123 157 190 225 273
#     4  10  16  25  44  68  94 122 147 180 229 282
#     4  10  19  31  45  64  95 128 155 186 224 268
#     4   9  17  28  44  69  96 121 149 180 228 291
#     4   9  18  29  44  68  93 118 148 183 229 279
#
# _framework density 15.066642999999999
#
# number of rings (size 3 to 8) (size 9 to 14) (size 15 to 20)
#    1.000    1.333    3.333    1.000    0.000    4.000 
#    0.000    0.000    0.000    0.500    0.000    0.000 
#    0.000    4.000    0.000    0.333    0.000    0.000 
#
# Total GULP energy -297363.335747 kJ/mol
# GULP energy per Si atom -12390.138989 kJ/mol
# Density = 1.503235 g / cm^3
# Si number density = 15.066643 Si / 1000 Ang^3
#
#
#
# Elastic Constant Matrix: (Units=GPa)
#
#
# Indices 1 2 3 4 5 6 
#
# 1 85.2517 33.8954 38.1415 0.0000 19.4607 0.0000
# 2 33.8954 49.6418 35.9630 0.0000 1.7287 0.0000
# 3 38.1415 35.9630 93.3507 0.0000 14.9198 0.0000
# 4 0.0000 0.0000 0.0000 19.8369 0.0000 1.6022
# 5 19.4607 1.7287 14.9198 0.0000 31.1445 0.0000
# 6 0.0000 0.0000 0.0000 1.6022 0.0000 21.4811
#
#
#
# Elastic Compliance Matrix: (Units=1/GPa)
#
#
# Indices 1 2 3 4 5 6 
#
# 1 0.019664 -0.011761 -0.001780 0.000000 -0.010781 0.000000
# 2 -0.011761 0.035423 -0.010506 0.000000 0.010416 0.000000
# 3 -0.001780 -0.010506 0.016478 0.000000 -0.006198 0.000000
# 4 0.000000 0.000000 0.000000 0.050717 0.000000 -0.003783
# 5 -0.010781 0.010416 -0.006198 0.000000 0.041236 0.000000
# 6 0.000000 0.000000 0.000000 -0.003783 0.000000 0.046835
#
#
# Mechanical properties :
#
#
# Convention : Reuss Voigt Hill
#
# Bulk Modulus (GPa) = 42.60783 49.36044 45.98414
# Shear Modulus (GPa) = 18.77798 22.50881 20.64339
#
# Velocity S-wave (km/s) = 3.53417 3.86936 3.70555
# Velocity P-wave (km/s) = 6.70781 7.26602 6.99249
#
# Compressibility (1/GPa) = 0.02346986
#
# Stress axis : x y z
#
# Youngs Moduli (GPa) = 50.85530 28.23018 60.68857
#
# Poissons Ratio (x) = 0.33202 0.10803
# Poissons Ratio (y) = 0.59812 0.63758
# Poissons Ratio (z) = 0.09053 0.29658
#
# Static dielectric constant tensor:
#      x y z
#    x 2.938390 0.000000 0.177600 
#    y 0.000000 2.506500 0.000000 
#    z 0.177600 0.000000 2.959320 
# 
# 
# High freq. dielectric constant tensor:
#      x y z
#    x 1.574810 0.000000 0.020160 
#    y 0.000000 1.526620 0.000000 
#    z 0.020160 0.000000 1.586080 
# 
# From -- ./inp_files/166150.got.cif
#   From: 2010.06.25/outbox.cif.g09.slc.cpg/sg12_84_cif.got.tgz:166150.got - 2010.06.28 00:19:55.
