data_PCOD8078755
_publ_section_title
;
Structure prediction by ZEFSAII (Michael W. Deem and Ramdas Pophale) SiO2 
 PCOD8078755
Probable space group: C 2/M
;
_chemical_formula_sum "Si O2"
_cell_formula_units_Z 40
_cell_length_a 33.591404
_cell_length_b 8.745984
_cell_length_c 7.564545
_cell_angle_alpha 90.000000
_cell_angle_beta 63.638730
_cell_angle_gamma 90.000000
_cell_volume 1991.285479
_symmetry_space_group_name_H-M "C 2/M"
_symmetry_group_IT_number 12
_symmetry_cell_setting 'monoclinic'
loop_
_space_group_symop_operation_xyz
x,y,z
-x,y,-z
-x,-y,-z
x,-y,z
1/2+x,1/2+y,z
1/2-x,1/2+y,-z
1/2-x,1/2-y,-z
1/2+x,1/2-y,z
loop_
_atom_site_type_symbol
_atom_site_label
_atom_site_fract_x
_atom_site_fract_y
_atom_site_fract_z
Si Si1 0.298335 0.180592 0.905377
Si Si2 0.545519 0.320033 0.109400
Si Si3 0.864414 0.319497 0.077135
Si Si4 0.959115 0.678716 0.266399
Si Si5 0.361733 0.178533 0.479696
O O1 0.326449 0.251357 0.685638
O O2 0.294757 0.000000 0.894690
O O3 0.250000 0.250000 0.000000
O O4 0.322377 0.225784 0.040748
O O5 0.543493 0.500000 0.137317
O O6 0.501629 0.245227 0.290831
O O7 0.591686 0.256156 0.097148
O O8 0.543853 0.270512 0.909734
O O9 0.872936 0.500000 0.063677
O O10 0.855600 0.254947 0.292995
O O11 0.965913 0.500000 0.214054
O O12 0.911815 0.708118 0.456109
O O13 0.352324 0.000000 0.488436
#
# Coordination Sequence:
#
# PCOD8078755 Si02
#       5
#     8   8   8   8   8
#     4  10  21  37  55  75  99 127 164 211 257 300
#     4  10  17  26  45  75 107 134 165 207 248 287
#     4   9  18  34  54  73  98 135 171 201 242 298
#     4   9  15  27  48  72 102 139 172 200 238 293
#     4   8  16  32  53  75  99 130 169 206 239 289
#
# _framework density 20.087527999999999
#
# number of rings (size 3 to 8) (size 9 to 14) (size 15 to 20)
#    0.000    2.800    0.000    4.800    0.000    1.600 
#    0.000    6.000    0.000    6.000    0.000    0.000 
#    0.000    0.000    0.000    0.000    0.000    0.000 
#
# Total GULP energy -247797.771080 kJ/mol
# GULP energy per Si atom -12389.888554 kJ/mol
# Density = 2.004181 g / cm^3
# Si number density = 20.087528 Si / 1000 Ang^3
#
#
#
# Elastic Constant Matrix: (Units=GPa)
#
#
# Indices 1 2 3 4 5 6 
#
# 1 139.7373 44.3532 88.3229 0.0000 -41.8969 0.0000
# 2 44.3532 41.7595 30.1128 0.0000 -7.0457 0.0000
# 3 88.3229 30.1128 120.4991 0.0000 -25.4913 0.0000
# 4 0.0000 0.0000 0.0000 15.0205 0.0000 -11.4225
# 5 -41.8969 -7.0457 -25.4913 0.0000 33.0559 0.0000
# 6 0.0000 0.0000 0.0000 -11.4225 0.0000 31.0705
#
#
#
# Elastic Compliance Matrix: (Units=1/GPa)
#
#
# Indices 1 2 3 4 5 6 
#
# 1 0.023957 -0.015203 -0.009587 0.000000 0.019731 0.000000
# 2 -0.015203 0.038872 -0.001069 0.000000 -0.011808 0.000000
# 3 -0.009587 -0.001069 0.015503 0.000000 -0.000423 0.000000
# 4 0.000000 0.000000 0.000000 0.092410 0.000000 0.033973
# 5 0.019731 -0.011808 -0.000423 0.000000 0.052417 0.000000
# 6 0.000000 0.000000 0.000000 0.033973 0.000000 0.044674
#
#
# Mechanical properties :
#
#
# Convention : Reuss Voigt Hill
#
# Bulk Modulus (GPa) = 37.57149 69.73042 53.65096
# Shear Modulus (GPa) = 15.22424 25.10984 20.16704
#
# Velocity S-wave (km/s) = 2.75598 3.53940 3.17197
# Velocity P-wave (km/s) = 5.37324 7.17578 6.33891
#
# Compressibility (1/GPa) = 0.02661592
#
# Stress axis : x y z
#
# Youngs Moduli (GPa) = 41.74126 25.72517 64.50309
#
# Poissons Ratio (x) = 0.39110 0.61836
# Poissons Ratio (y) = 0.63460 0.06893
# Poissons Ratio (z) = 0.40016 0.02749
#
# Static dielectric constant tensor:
#      x y z
#    x 4.049830 0.000000 -0.545150 
#    y 0.000000 3.316790 0.000000 
#    z -0.545150 0.000000 4.253340 
# 
# 
# High freq. dielectric constant tensor:
#      x y z
#    x 1.785410 0.000000 -0.021100 
#    y 0.000000 1.753780 0.000000 
#    z -0.021100 0.000000 1.769240 
# 
# From -- ./inp_files/107511.got.cif
#   From: 2010.06.25/outbox.cif.g09.slc.cpg/sg12_54_cif.got.tgz:107511.got - 2010.06.28 00:19:55.
