data_PCOD8078006
_publ_section_title
;
Structure prediction by ZEFSAII (Michael W. Deem and Ramdas Pophale) SiO2 
 PCOD8078006
Probable space group: P 21/M
;
_chemical_formula_sum "Si O2"
_cell_formula_units_Z 32
_cell_length_a 30.000000
_cell_length_b 9.000000
_cell_length_c 12.000000
_cell_angle_alpha 90.000000
_cell_angle_beta 30.000000
_cell_angle_gamma 90.000000
_cell_volume 1620.000000
_symmetry_space_group_name_H-M "P 21/M"
_symmetry_group_IT_number 11
_symmetry_cell_setting 'monoclinic'
loop_
_space_group_symop_operation_xyz
x,y,z
-x,1/2+y,-z
-x,-y,-z
x,1/2-y,z
loop_
_atom_site_type_symbol
_atom_site_label
_atom_site_fract_x
_atom_site_fract_y
_atom_site_fract_z
Si Si1 0.405172 0.423457 0.721889
Si Si2 0.133042 0.919936 0.424121
Si Si3 0.197017 0.425827 0.824775
Si Si4 0.218094 0.425602 0.030862
Si Si5 0.605695 0.585368 0.651272
Si Si6 0.978324 0.927635 0.926199
Si Si7 0.322936 0.918862 0.100920
Si Si8 0.438046 0.086406 0.999862
O O1 0.500000 0.500000 0.500000
O O2 0.421161 0.250000 0.675163
O O3 0.373493 0.466041 0.912687
O O4 0.322581 0.474864 0.819713
O O5 0.116136 0.750000 0.426436
O O6 0.049827 0.979924 0.677117
O O7 0.151984 0.005748 0.267379
O O8 0.217120 0.936843 0.324210
O O9 0.193717 0.250000 0.827628
O O10 0.293922 0.481848 0.571467
O O11 0.185118 0.478118 0.979607
O O12 0.117631 0.483724 0.915055
O O13 0.210934 0.250000 0.060801
O O14 0.605740 0.750000 0.593961
O O15 0.533539 0.477813 0.748403
O O16 0.567943 0.602883 0.855962
O O17 0.981567 0.750000 0.934503
O O18 0.000000 0.000000 0.000000
O O19 0.351480 0.750000 0.013142
O O20 0.357587 0.972570 0.145682
O O21 0.426602 0.250000 0.970501
#
# Coordination Sequence:
#
# PCOD8078006 Si02
#       8
#     4   4   4   4   4   4   4   4
#     4  10  20  33  51  80 113 146 189 236 281 334
#     4   9  20  38  57  82 115 149 187 236 289 334
#     4   9  19  37  60  85 113 150 189 232 286 343
#     4   9  19  36  58  83 111 149 195 233 276 343
#     4   9  19  35  54  76 109 150 187 226 282 343
#     4  10  22  40  62  88 117 149 188 234 287 345
#     4  10  20  34  53  75 106 152 190 227 283 337
#     4  10  20  33  51  80 110 143 191 238 279 332
#
# _framework density 19.753086
#
# number of rings (size 3 to 8) (size 9 to 14) (size 15 to 20)
#    0.000    2.500    0.000    1.125    3.500    2.500 
#    0.000    1.875    0.000    0.000    0.000    0.000 
#    0.000    0.000    0.000    0.000    0.000    0.000 
#
# Total GULP energy -396508.794122 kJ/mol
# GULP energy per Si atom -12390.899816 kJ/mol
# Density = 1.970813 g / cm^3
# Si number density = 19.753086 Si / 1000 Ang^3
#
#
#
# Elastic Constant Matrix: (Units=GPa)
#
#
# Indices 1 2 3 4 5 6 
#
# 1 113.8965 37.6636 44.1233 0.0000 -10.6552 0.0000
# 2 37.6636 58.0760 37.1296 0.0000 -6.0960 0.0000
# 3 44.1233 37.1296 139.1597 0.0000 -12.1590 0.0000
# 4 0.0000 0.0000 0.0000 26.2902 0.0000 1.9479
# 5 -10.6552 -6.0960 -12.1590 0.0000 26.8657 0.0000
# 6 0.0000 0.0000 0.0000 1.9479 0.0000 28.7884
#
#
#
# Elastic Compliance Matrix: (Units=1/GPa)
#
#
# Indices 1 2 3 4 5 6 
#
# 1 0.011777 -0.006187 -0.001872 0.000000 0.002420 0.000000
# 2 -0.006187 0.024147 -0.004390 0.000000 0.001038 0.000000
# 3 -0.001872 -0.004390 0.009161 0.000000 0.002408 0.000000
# 4 0.000000 0.000000 0.000000 0.038229 0.000000 -0.002587
# 5 0.002420 0.001038 0.002408 0.000000 0.039507 0.000000
# 6 0.000000 0.000000 0.000000 -0.002587 0.000000 0.034911
#
#
# Mechanical properties :
#
#
# Convention : Reuss Voigt Hill
#
# Bulk Modulus (GPa) = 49.53683 60.99614 55.26648
# Shear Modulus (GPa) = 26.40460 29.20323 27.80391
#
# Velocity S-wave (km/s) = 3.66010 3.84919 3.75583
# Velocity P-wave (km/s) = 6.55700 7.12048 6.84454
#
# Compressibility (1/GPa) = 0.02018700
#
# Stress axis : x y z
#
# Youngs Moduli (GPa) = 84.90779 41.41282 109.15466
#
# Poissons Ratio (x) = 0.25623 0.20434
# Poissons Ratio (y) = 0.52533 0.47922
# Poissons Ratio (z) = 0.15895 0.18181
#
# Static dielectric constant tensor:
#      x y z
#    x 3.812870 0.000000 -0.215820 
#    y 0.000000 3.631110 0.000000 
#    z -0.215820 0.000000 3.750080 
# 
# 
# High freq. dielectric constant tensor:
#      x y z
#    x 1.776820 0.000000 -0.008500 
#    y 0.000000 1.754330 0.000000 
#    z -0.008500 0.000000 1.775820 
# 
# From -- ./inp_files/45208.got.cif
#   From: 2010.06.25/outbox.ucp.g09.slc.cvg/sg11_23_cif.got.tgz:45208.got - 2010.06.28 13:43:20.
