data_PCOD8078146
_publ_section_title
;
Structure prediction by ZEFSAII (Michael W. Deem and Ramdas Pophale) SiO2 
 PCOD8078146
Probable space group: C 2/M
;
_chemical_formula_sum "Si O2"
_cell_formula_units_Z 64
_cell_length_a 24.096137
_cell_length_b 12.441245
_cell_length_c 14.850274
_cell_angle_alpha 90.000000
_cell_angle_beta 77.244279
_cell_angle_gamma 90.000000
_cell_volume 4342.031675
_symmetry_space_group_name_H-M "C 2/M"
_symmetry_group_IT_number 12
_symmetry_cell_setting 'monoclinic'
loop_
_space_group_symop_operation_xyz
x,y,z
-x,y,-z
-x,-y,-z
x,-y,z
1/2+x,1/2+y,z
1/2-x,1/2+y,-z
1/2-x,1/2-y,-z
1/2+x,1/2-y,z
loop_
_atom_site_type_symbol
_atom_site_label
_atom_site_fract_x
_atom_site_fract_y
_atom_site_fract_z
Si Si1 0.032527 0.126723 0.116462
Si Si2 0.823513 0.123211 0.247416
Si Si3 0.018215 0.873501 0.319987
Si Si4 0.606844 0.690102 0.606136
Si Si5 0.771859 0.252178 0.635530
Si Si6 0.811832 0.625110 0.453516
Si Si7 0.415336 0.627710 0.079370
Si Si8 0.622586 0.621709 0.400977
O O1 0.046575 0.159433 0.213912
O O2 0.970868 0.173476 0.111027
O O3 0.028911 0.000000 0.108187
O O4 0.080746 0.165943 0.027145
O O5 0.860861 0.129705 0.324977
O O6 0.766267 0.193946 0.273193
O O7 0.859220 0.171582 0.150073
O O8 0.806368 0.000000 0.237381
O O9 0.062221 0.840100 0.381957
O O10 0.960561 0.806800 0.354073
O O11 0.003049 0.000000 0.328836
O O12 0.629744 0.811878 0.589674
O O13 0.621273 0.627205 0.509262
O O14 0.789314 0.346741 0.560832
O O15 0.737182 0.157600 0.598800
O O16 0.827973 0.197380 0.657585
O O17 0.825166 0.500000 0.441182
O O18 0.413756 0.500000 0.088599
O O19 0.634342 0.500000 0.365779
#
# Coordination Sequence:
#
# PCOD8078146 Si02
#       8
#     8   8   8   8   8   8   8   8
#     4   8  13  22  36  57  83 106 124 149 195 246
#     4  10  16  24  41  62  84 105 127 163 204 238
#     4  10  17  26  41  60  84 109 131 158 195 241
#     4  10  18  26  40  62  83 104 132 164 194 238
#     4   9  18  27  40  58  77 105 139 169 192 230
#     4   9  17  29  42  56  78 106 135 170 204 227
#     4   8  13  21  36  58  84 105 120 151 199 245
#     4  10  19  28  39  55  81 113 137 162 193 228
#
# _framework density 14.739642999999999
#
# number of rings (size 3 to 8) (size 9 to 14) (size 15 to 20)
#    0.000    2.750    1.250    3.750    0.000    1.000 
#    0.000    0.000    0.000    7.500    0.000    0.000 
#    0.000    9.000    0.000    0.000    0.000    0.000 
#
# Total GULP energy -396598.247484 kJ/mol
# GULP energy per Si atom -12393.695234 kJ/mol
# Density = 1.470610 g / cm^3
# Si number density = 14.739643 Si / 1000 Ang^3
#
#
#
# Elastic Constant Matrix: (Units=GPa)
#
#
# Indices 1 2 3 4 5 6 
#
# 1 77.5708 26.9765 31.1362 0.0000 -16.6317 0.0000
# 2 26.9765 58.6490 17.7663 0.0000 -9.6082 0.0000
# 3 31.1362 17.7663 80.2473 0.0000 -24.3842 0.0000
# 4 0.0000 0.0000 0.0000 11.1507 0.0000 -6.6737
# 5 -16.6317 -9.6082 -24.3842 0.0000 24.1910 0.0000
# 6 0.0000 0.0000 0.0000 -6.6737 0.0000 17.7516
#
#
#
# Elastic Compliance Matrix: (Units=1/GPa)
#
#
# Indices 1 2 3 4 5 6 
#
# 1 0.017795 -0.006064 -0.003714 0.000000 0.006083 0.000000
# 2 -0.006064 0.020702 -0.001440 0.000000 0.002602 0.000000
# 3 -0.003714 -0.001440 0.019131 0.000000 0.016159 0.000000
# 4 0.000000 0.000000 0.000000 0.115718 0.000000 0.043504
# 5 0.006083 0.002602 0.016159 0.000000 0.062841 0.000000
# 6 0.000000 0.000000 0.000000 0.043504 0.000000 0.072688
#
#
# Mechanical properties :
#
#
# Convention : Reuss Voigt Hill
#
# Bulk Modulus (GPa) = 28.41406 40.91391 34.66399
# Shear Modulus (GPa) = 14.57548 19.99118 17.28333
#
# Velocity S-wave (km/s) = 3.14803 3.68677 3.42800
# Velocity P-wave (km/s) = 5.70374 6.77798 6.26393
#
# Compressibility (1/GPa) = 0.03519384
#
# Stress axis : x y z
#
# Youngs Moduli (GPa) = 56.19561 48.30423 52.27025
#
# Poissons Ratio (x) = 0.29290 0.19412
# Poissons Ratio (y) = 0.34075 0.07526
# Poissons Ratio (z) = 0.20870 0.06955
#
# Static dielectric constant tensor:
#      x y z
#    x 2.815180 0.000000 -0.169330 
#    y 0.000000 2.477040 0.000000 
#    z -0.169330 0.000000 3.076820 
# 
# 
# High freq. dielectric constant tensor:
#      x y z
#    x 1.551280 0.000000 -0.016010 
#    y 0.000000 1.517670 0.000000 
#    z -0.016010 0.000000 1.560990 
# 
# From -- ./inp_files/245115.got.cif
#   From: 2010.06.25/outbox.cif.g09.slc.cpg/sg12_123_cif.got.tgz:245115.got - 2010.06.28 00:19:55.
