data_PCOD8078948
_publ_section_title
;
Structure prediction by ZEFSAII (Michael W. Deem and Ramdas Pophale) SiO2 
 PCOD8078948
Probable space group: C 2/M
;
_chemical_formula_sum "Si O2"
_cell_formula_units_Z 56
_cell_length_a 30.835102
_cell_length_b 17.792401
_cell_length_c 8.879827
_cell_angle_alpha 90.000000
_cell_angle_beta 141.558376
_cell_angle_gamma 90.000000
_cell_volume 3028.845777
_symmetry_space_group_name_H-M "C 2/M"
_symmetry_group_IT_number 12
_symmetry_cell_setting 'monoclinic'
loop_
_space_group_symop_operation_xyz
x,y,z
-x,y,-z
-x,-y,-z
x,-y,z
1/2+x,1/2+y,z
1/2-x,1/2+y,-z
1/2-x,1/2-y,-z
1/2+x,1/2-y,z
loop_
_atom_site_type_symbol
_atom_site_label
_atom_site_fract_x
_atom_site_fract_y
_atom_site_fract_z
Si Si1 0.841833 0.187732 0.792983
Si Si2 0.791055 0.292071 0.902241
Si Si3 0.836906 0.087198 0.043635
Si Si4 0.821676 0.417104 0.478520
Si Si5 0.078914 0.278822 0.236702
Si Si6 0.235368 0.582949 0.354955
Si Si7 0.646714 0.294643 0.677286
O O1 0.790665 0.243430 0.746279
O O2 0.897476 0.237721 0.853126
O O3 0.801736 0.136468 0.563171
O O4 0.875274 0.130173 0.008672
O O5 0.805474 0.379186 0.896885
O O6 0.715754 0.282262 0.768688
O O7 0.851634 0.264755 0.179477
O O8 0.859558 0.122166 0.266360
O O9 0.857461 0.000000 0.094730
O O10 0.753543 0.100646 0.800130
O O11 0.847342 0.500000 0.492292
O O12 0.876579 0.351935 0.591671
O O13 0.814800 0.420732 0.639245
O O14 0.082815 0.221690 0.390313
O O15 0.000000 0.305129 0.000000
O O16 0.261126 0.500000 0.378914
#
# Coordination Sequence:
#
# PCOD8078948 Si02
#       7
#     8   8   8   8   8   8   8
#     4  10  18  33  54  76 109 140 185 219 259 322
#     4  10  17  31  55  78 105 138 161 225 287 316
#     4   9  19  35  60  87 112 136 164 223 295 335
#     4   9  18  33  55  85 109 133 176 219 268 329
#     4  12  23  36  54  76 107 153 193 222 252 303
#     4  10  17  27  53  85 107 130 165 218 281 326
#     4  10  20  32  52  82 113 133 176 219 272 324
#
# _framework density 18.488892
#
# number of rings (size 3 to 8) (size 9 to 14) (size 15 to 20)
#    0.000    2.000    2.857    5.143    0.000    0.857 
#    0.000    3.571    0.000    4.714    0.000    2.000 
#    0.000    0.000    0.000    0.000    0.000    0.000 
#
# Total GULP energy -346940.456841 kJ/mol
# GULP energy per Si atom -12390.730601 kJ/mol
# Density = 1.844681 g / cm^3
# Si number density = 18.488892 Si / 1000 Ang^3
#
#
#
# Elastic Constant Matrix: (Units=GPa)
#
#
# Indices 1 2 3 4 5 6 
#
# 1 48.5673 37.2743 20.0818 0.0000 -14.0131 0.0000
# 2 37.2743 123.8318 26.9633 0.0000 -8.3981 0.0000
# 3 20.0818 26.9633 55.6801 0.0000 -13.7992 0.0000
# 4 0.0000 0.0000 0.0000 20.0180 0.0000 -7.4249
# 5 -14.0131 -8.3981 -13.7992 0.0000 19.5901 0.0000
# 6 0.0000 0.0000 0.0000 -7.4249 0.0000 21.8958
#
#
#
# Elastic Compliance Matrix: (Units=1/GPa)
#
#
# Indices 1 2 3 4 5 6 
#
# 1 0.033466 -0.008046 -0.003750 0.000000 0.017847 0.000000
# 2 -0.008046 0.010977 -0.003239 0.000000 -0.003332 0.000000
# 3 -0.003750 -0.003239 0.024075 0.000000 0.012887 0.000000
# 4 0.000000 0.000000 0.000000 0.057142 0.000000 0.019377
# 5 0.017847 -0.003332 0.012887 0.000000 0.071462 0.000000
# 6 0.000000 0.000000 0.000000 0.019377 0.000000 0.052242
#
#
# Mechanical properties :
#
#
# Convention : Reuss Voigt Hill
#
# Bulk Modulus (GPa) = 26.01086 44.07978 35.04532
# Shear Modulus (GPa) = 17.10866 21.88478 19.49672
#
# Velocity S-wave (km/s) = 3.04525 3.44419 3.25084
# Velocity P-wave (km/s) = 5.14429 6.30155 5.75210
#
# Compressibility (1/GPa) = 0.03844548
#
# Stress axis : x y z
#
# Youngs Moduli (GPa) = 29.88143 91.10060 41.53738
#
# Poissons Ratio (x) = 0.73304 0.15577
# Poissons Ratio (y) = 0.24044 0.13455
# Poissons Ratio (z) = 0.11206 0.29510
#
# Static dielectric constant tensor:
#      x y z
#    x 3.284190 0.000000 -0.510470 
#    y 0.000000 3.802570 0.000000 
#    z -0.510470 0.000000 3.210240 
# 
# 
# High freq. dielectric constant tensor:
#      x y z
#    x 1.690550 0.000000 -0.045340 
#    y 0.000000 1.733690 0.000000 
#    z -0.045340 0.000000 1.674410 
# 
# From -- ./inp_files/112661.got.cif
#   From: 2010.06.25/outbox.cif.g09.slc.cpg/sg12_57_cif.got.tgz:112661.got - 2010.06.28 00:19:55.
