data_PCOD8078034
_publ_section_title
;
Structure prediction by ZEFSAII (Michael W. Deem and Ramdas Pophale) SiO2 
 PCOD8078034
Probable space group: C 2/M
;
_chemical_formula_sum "Si O2"
_cell_formula_units_Z 64
_cell_length_a 5.211489
_cell_length_b 26.421084
_cell_length_c 28.656975
_cell_angle_alpha 90.000000
_cell_angle_beta 94.694780
_cell_angle_gamma 90.000000
_cell_volume 3932.631269
_symmetry_space_group_name_H-M "C 2/M"
_symmetry_group_IT_number 12
_symmetry_cell_setting 'monoclinic'
loop_
_space_group_symop_operation_xyz
x,y,z
-x,y,-z
-x,-y,-z
x,-y,z
1/2+x,1/2+y,z
1/2-x,1/2+y,-z
1/2-x,1/2-y,-z
1/2+x,1/2-y,z
loop_
_atom_site_type_symbol
_atom_site_label
_atom_site_fract_x
_atom_site_fract_y
_atom_site_fract_z
Si Si1 0.614525 0.116042 0.719021
Si Si2 0.436455 0.115524 0.392259
Si Si3 0.759050 0.692383 0.020136
Si Si4 0.563773 0.443195 0.607875
Si Si5 0.885129 0.056978 0.280757
Si Si6 0.509666 0.218239 0.553717
Si Si7 0.166630 0.283480 0.775823
Si Si8 0.358882 0.780762 0.121763
O O1 0.588635 0.120180 0.663373
O O2 0.374953 0.085858 0.737572
O O3 0.619083 0.172538 0.738411
O O4 0.872928 0.086503 0.737510
O O5 0.697193 0.086853 0.410775
O O6 0.433793 0.171077 0.412957
O O7 0.199139 0.084469 0.410489
O O8 0.779709 0.685770 0.076242
O O9 0.500000 0.664194 0.000000
O O10 0.750000 0.750000 0.000000
O O11 0.000000 0.664188 0.000000
O O12 0.560537 0.500000 0.587462
O O13 0.590297 0.445073 0.663564
O O14 0.877862 0.000000 0.260442
O O15 0.500000 0.200359 0.500000
O O16 0.737526 0.258383 0.565000
O O17 0.438853 0.257506 0.768223
O O18 0.170642 0.307747 0.828273
O O19 0.656806 0.765776 0.119143
#
# Coordination Sequence:
#
# PCOD8078034 Si02
#       8
#     8   8   8   8   8   8   8   8
#     4  10  19  31  46  68  91 115 151 182 217 260
#     4  10  19  31  51  71  90 118 147 183 221 262
#     4  10  14  20  34  51  67  88 132 191 210 230
#     4   9  17  30  49  74  97 116 139 173 220 271
#     4   9  17  30  49  69  89 110 142 188 230 264
#     4  10  21  36  52  70  91 118 153 192 228 258
#     4  10  21  31  41  56  87 126 155 178 204 257
#     4  10  16  25  35  50  72 104 142 179 207 244
#
# _framework density 16.274090999999999
#
# number of rings (size 3 to 8) (size 9 to 14) (size 15 to 20)
#    0.000    2.250    2.500    2.250    0.000    4.000 
#    0.000    0.000    0.000    2.250    0.000    0.000 
#    0.000    0.000    0.000    0.000    0.000   12.500 
#
# Total GULP energy -396656.225701 kJ/mol
# GULP energy per Si atom -12395.507053 kJ/mol
# Density = 1.623705 g / cm^3
# Si number density = 16.274091 Si / 1000 Ang^3
#
#
#
# Elastic Constant Matrix: (Units=GPa)
#
#
# Indices 1 2 3 4 5 6 
#
# 1 132.5289 30.8275 23.7795 0.0000 -1.0497 0.0000
# 2 30.8275 72.8085 29.1894 0.0000 2.0910 0.0000
# 3 23.7795 29.1894 35.7504 0.0000 1.1555 0.0000
# 4 0.0000 0.0000 0.0000 -0.4786 0.0000 -1.4331
# 5 -1.0497 2.0910 1.1555 0.0000 13.9846 0.0000
# 6 0.0000 0.0000 0.0000 -1.4331 0.0000 22.1931
#
#
#
# Elastic Compliance Matrix: (Units=1/GPa)
#
#
# Indices 1 2 3 4 5 6 
#
# 1 0.008792 -0.002080 -0.004193 0.000000 0.001317 0.000000
# 2 -0.002080 0.020949 -0.015657 0.000000 -0.001995 0.000000
# 3 -0.004193 -0.015657 0.043595 0.000000 -0.001576 0.000000
# 4 0.000000 0.000000 0.000000 -1.750788 0.000000 -0.113054
# 5 0.001317 -0.001995 -0.001576 0.000000 0.072035 0.000000
# 6 0.000000 0.000000 0.000000 -0.113054 0.000000 0.037759
#
#
# Mechanical properties :
#
#
# Convention : Reuss Voigt Hill
#
# Bulk Modulus (GPa) = 33.92371 45.40895 39.66633
# Shear Modulus (GPa) = -3.30257 17.62591 7.16167
#
# Velocity S-wave (km/s) = -1.42610 3.29457 2.10005
# Velocity P-wave (km/s) = 4.26366 6.51425 5.50519
#
# Compressibility (1/GPa) = 0.02947791
#
# Stress axis : x y z
#
# Youngs Moduli (GPa) = 113.74027 47.73394 22.93834
#
# Poissons Ratio (x) = 0.09926 0.09617
# Poissons Ratio (y) = 0.23652 0.35915
# Poissons Ratio (z) = 0.47688 0.74738
#
# Static dielectric constant tensor:
#      x y z
#    x 3.907050 0.000000 -0.033020 
#    y 0.000000 2.759690 0.000000 
#    z -0.033020 0.000000 2.951370 
# 
# 
# High freq. dielectric constant tensor:
#      x y z
#    x 1.659520 0.000000 -0.001450 
#    y 0.000000 1.582180 0.000000 
#    z -0.001450 0.000000 1.599540 
# 
# From -- ./inp_files/355067.got.cif
#   From: 2010.06.25/outbox.cif.g09.slc.cpg/sg12_178_cif.got.tgz:355067.got - 2010.06.28 00:19:55.
