data_PCOD8078142
_publ_section_title
;
Structure prediction by ZEFSAII (Michael W. Deem and Ramdas Pophale) SiO2 
 PCOD8078142
Probable space group: C 2/M
;
_chemical_formula_sum "Si O2"
_cell_formula_units_Z 56
_cell_length_a 28.662492
_cell_length_b 9.072938
_cell_length_c 29.034521
_cell_angle_alpha 90.000000
_cell_angle_beta 151.317637
_cell_angle_gamma 90.000000
_cell_volume 3623.895700
_symmetry_space_group_name_H-M "C 2/M"
_symmetry_group_IT_number 12
_symmetry_cell_setting 'monoclinic'
loop_
_space_group_symop_operation_xyz
x,y,z
-x,y,-z
-x,-y,-z
x,-y,z
1/2+x,1/2+y,z
1/2-x,1/2+y,-z
1/2-x,1/2-y,-z
1/2+x,1/2-y,z
loop_
_atom_site_type_symbol
_atom_site_label
_atom_site_fract_x
_atom_site_fract_y
_atom_site_fract_z
Si Si1 0.597742 0.170879 0.058684
Si Si2 0.851656 0.673976 0.077871
Si Si3 0.461696 0.826529 0.364049
Si Si4 0.156252 0.824841 0.018251
Si Si5 0.796990 0.171732 0.278039
Si Si6 0.913321 0.163141 0.461563
Si Si7 0.375145 0.828217 0.197531
O O1 0.685730 0.205915 0.169848
O O2 0.597798 0.000000 0.044036
O O3 0.500000 0.215688 0.000000
O O4 0.603641 0.270253 0.018529
O O5 0.838959 0.500000 0.058208
O O6 0.898512 0.752020 0.073638
O O7 0.913406 0.704091 0.178590
O O8 0.750000 0.750000 0.000000
O O9 0.364833 0.769690 0.304677
O O10 0.561186 0.765815 0.472843
O O11 0.453074 0.772779 0.303116
O O12 0.465623 0.000000 0.372462
O O13 0.148234 0.000000 0.007586
O O14 0.267157 0.762861 0.113755
O O15 0.816971 0.212170 0.349444
O O16 0.823836 0.000000 0.293278
O O17 0.000000 0.169192 0.500000
O O18 0.899774 0.000000 0.470088
O O19 0.360531 0.000000 0.192261
#
# Coordination Sequence:
#
# PCOD8078142 Si02
#       7
#     8   8   8   8   8   8   8
#     4  10  20  32  46  63  80 106 147 185 214 249
#     4   9  16  27  41  59  82 110 141 171 205 247
#     4  10  16  24  39  60  83 108 137 167 198 240
#     4  10  18  30  43  58  82 111 141 174 213 251
#     4   9  17  29  41  54  78 109 137 171 211 245
#     4   8  15  26  37  53  78 107 136 164 200 246
#     4   8  15  25  38  58  84 109 134 166 200 240
#
# _framework density 15.452983
#
# number of rings (size 3 to 8) (size 9 to 14) (size 15 to 20)
#    0.000    2.857    1.429    3.000    0.000    2.857 
#    0.000    2.143    0.000    0.000    0.000    0.000 
#    0.000    1.143    0.000    2.286    0.000    3.143 
#
# Total GULP energy -346878.273810 kJ/mol
# GULP energy per Si atom -12388.509779 kJ/mol
# Density = 1.541781 g / cm^3
# Si number density = 15.452983 Si / 1000 Ang^3
#
#
#
# Elastic Constant Matrix: (Units=GPa)
#
#
# Indices 1 2 3 4 5 6 
#
# 1 80.3890 41.7193 60.2003 0.0000 -28.3772 0.0000
# 2 41.7193 72.8611 44.2175 0.0001 -20.4158 0.0001
# 3 60.2003 44.2175 103.2670 0.0000 -34.9618 0.0000
# 4 0.0000 0.0001 0.0000 18.3005 0.0000 -7.2916
# 5 -28.3772 -20.4158 -34.9618 0.0000 30.3577 0.0000
# 6 0.0000 0.0001 0.0000 -7.2916 0.0000 20.8942
#
#
#
# Elastic Compliance Matrix: (Units=1/GPa)
#
#
# Indices 1 2 3 4 5 6 
#
# 1 0.026101 -0.006780 -0.009173 0.000000 0.009275 0.000000
# 2 -0.006780 0.020872 -0.003898 0.000000 0.003210 0.000000
# 3 -0.009173 -0.003898 0.021160 0.000000 0.013173 0.000000
# 4 0.000000 0.000000 0.000000 0.063468 0.000000 0.022149
# 5 0.009275 0.003210 0.013173 0.000000 0.058940 0.000000
# 6 0.000000 0.000000 0.000000 0.022149 0.000000 0.055590
#
#
# Mechanical properties :
#
#
# Convention : Reuss Voigt Hill
#
# Bulk Modulus (GPa) = 35.17159 60.97681 48.07420
# Shear Modulus (GPa) = 16.93142 21.26916 19.10029
#
# Velocity S-wave (km/s) = 3.31369 3.71398 3.51953
# Velocity P-wave (km/s) = 6.11968 7.61162 6.90606
#
# Compressibility (1/GPa) = 0.02843204
#
# Stress axis : x y z
#
# Youngs Moduli (GPa) = 38.31253 47.91188 47.25890
#
# Poissons Ratio (x) = 0.32482 0.43350
# Poissons Ratio (y) = 0.25974 0.18422
# Poissons Ratio (z) = 0.35143 0.18676
#
# Static dielectric constant tensor:
#      x y z
#    x 2.878540 0.000000 -0.583160 
#    y 0.000000 2.946170 0.000000 
#    z -0.583160 0.000000 3.316120 
# 
# 
# High freq. dielectric constant tensor:
#      x y z
#    x 1.551830 0.000000 -0.048220 
#    y 0.000000 1.592480 0.000000 
#    z -0.048220 0.000000 1.579380 
# 
# From -- ./inp_files/384432.got.cif
#   From: 2010.06.25/outbox.cif.g09.slc.cpg/sg12_193_cif.got.tgz:384432.got - 2010.06.28 00:19:55.
