data_PCOD8078848
_publ_section_title
;
Structure prediction by ZEFSAII (Michael W. Deem and Ramdas Pophale) SiO2 
 PCOD8078848
Probable space group: C 2/M
;
_chemical_formula_sum "Si O2"
_cell_formula_units_Z 48
_cell_length_a 8.624374
_cell_length_b 30.951930
_cell_length_c 19.918102
_cell_angle_alpha 90.000000
_cell_angle_beta 30.005080
_cell_angle_gamma 90.000000
_cell_volume 2658.887483
_symmetry_space_group_name_H-M "C 2/M"
_symmetry_group_IT_number 12
_symmetry_cell_setting 'monoclinic'
loop_
_space_group_symop_operation_xyz
x,y,z
-x,y,-z
-x,-y,-z
x,-y,z
1/2+x,1/2+y,z
1/2-x,1/2+y,-z
1/2-x,1/2-y,-z
1/2+x,1/2-y,z
loop_
_atom_site_type_symbol
_atom_site_label
_atom_site_fract_x
_atom_site_fract_y
_atom_site_fract_z
Si Si1 0.638604 0.381114 0.147693
Si Si2 0.134876 0.706825 0.149579
Si Si3 0.770623 0.118885 0.147693
Si Si4 0.733190 0.206826 0.850421
Si Si5 0.713485 0.951399 0.359748
Si Si6 0.847512 0.451399 0.359754
O O1 0.470821 0.377029 0.139589
O O2 0.571506 0.337384 0.215800
O O3 0.510506 0.420707 0.239849
O O4 0.000000 0.389527 0.000000
O O5 0.065290 0.662614 0.215801
O O6 0.052630 0.749999 0.223686
O O7 0.949998 0.707746 0.150001
O O8 0.500000 0.706607 0.000000
O O9 0.530103 0.079291 0.239848
O O10 0.000000 0.110471 0.000000
O O11 0.500000 0.206610 0.000000
O O12 0.500000 0.934077 0.500000
O O13 0.508728 0.950408 0.370636
O O14 0.832966 0.000000 0.330231
O O15 0.500000 0.434073 0.500000
O O16 0.846075 0.500000 0.330247
#
# Coordination Sequence:
#
# PCOD8078848 Si02
#       6
#     8   8   8   8   8   8
#     4  10  19  31  48  73 102 129 161 201 243 285
#     4  10  17  27  44  67  96 128 161 196 238 285
#     4  10  19  31  48  73 102 129 161 201 243 285
#     4  10  17  27  44  67  96 128 161 196 238 285
#     4   9  19  35  53  72  96 128 165 202 241 289
#     4   9  19  35  53  72  96 128 165 202 241 289
#
# _framework density 18.052662999999999
#
# number of rings (size 3 to 8) (size 9 to 14) (size 15 to 20)
#    0.000    2.333    0.000    7.000    0.000    3.333 
#    0.000    0.000    0.000    1.000    0.000    7.000 
#    0.000    0.000    0.000    0.000    0.000    0.000 
#
# Total GULP energy -297487.547602 kJ/mol
# GULP energy per Si atom -12395.314483 kJ/mol
# Density = 1.801157 g / cm^3
# Si number density = 18.052663 Si / 1000 Ang^3
#
#
#
# Elastic Constant Matrix: (Units=GPa)
#
#
# Indices 1 2 3 4 5 6 
#
# 1 100.1746 54.4766 31.9281 -0.0006 -0.2348 -0.0001
# 2 54.4766 163.1740 76.7016 0.0005 0.2004 0.0002
# 3 31.9281 76.7016 79.8310 -0.0017 0.0541 0.0000
# 4 -0.0006 0.0005 -0.0017 3.6014 0.0005 -0.2129
# 5 -0.2348 0.2004 0.0541 0.0005 20.9651 0.0001
# 6 -0.0001 0.0002 0.0000 -0.2129 0.0001 27.4753
#
#
#
# Elastic Compliance Matrix: (Units=1/GPa)
#
#
# Indices 1 2 3 4 5 6 
#
# 1 0.012335 -0.003281 -0.001781 0.000001 0.000174 0.000000
# 2 -0.003281 0.012049 -0.010264 -0.000007 -0.000125 0.000000
# 3 -0.001781 -0.010264 0.023100 0.000012 0.000019 0.000000
# 4 0.000001 -0.000007 0.000012 0.277798 -0.000007 0.002153
# 5 0.000174 -0.000125 0.000019 -0.000007 0.047701 0.000000
# 6 0.000000 0.000000 0.000000 0.002153 0.000000 0.036413
#
#
# Mechanical properties :
#
#
# Convention : Reuss Voigt Hill
#
# Bulk Modulus (GPa) = 59.41108 74.37693 66.89400
# Shear Modulus (GPa) = 11.21932 22.41324 16.81628
#
# Velocity S-wave (km/s) = 2.49565 3.52738 3.05538
# Velocity P-wave (km/s) = 6.42539 7.60785 7.04148
#
# Compressibility (1/GPa) = 0.01683188
#
# Stress axis : x y z
#
# Youngs Moduli (GPa) = 81.07046 82.99611 43.28933
#
# Poissons Ratio (x) = 0.27233 0.07709
# Poissons Ratio (y) = 0.26601 0.44432
# Poissons Ratio (z) = 0.14437 0.85188
#
# Static dielectric constant tensor:
#      x y z
#    x 3.337960 0.000000 -0.002770 
#    y 0.000000 4.613050 0.000000 
#    z -0.002770 0.000000 3.027830 
# 
# 
# High freq. dielectric constant tensor:
#      x y z
#    x 1.709810 0.000000 -0.000570 
#    y 0.000000 1.723350 0.000000 
#    z -0.000570 0.000000 1.646420 
# 
# From -- ./inp_files/123075.got.cif
#   From: 2010.06.25/outbox.cif.g09.slc.cpg/sg12_62_cif.got.tgz:123075.got - 2010.06.28 00:19:55.
