data_PCOD8078484
_publ_section_title
;
Structure prediction by ZEFSAII (Michael W. Deem and Ramdas Pophale) SiO2 
 PCOD8078484
Probable space group: C 2/M
;
_chemical_formula_sum "Si O2"
_cell_formula_units_Z 64
_cell_length_a 28.988865
_cell_length_b 9.100544
_cell_length_c 20.286109
_cell_angle_alpha 90.000000
_cell_angle_beta 53.490519
_cell_angle_gamma 90.000000
_cell_volume 4301.529014
_symmetry_space_group_name_H-M "C 2/M"
_symmetry_group_IT_number 12
_symmetry_cell_setting 'monoclinic'
loop_
_space_group_symop_operation_xyz
x,y,z
-x,y,-z
-x,-y,-z
x,-y,z
1/2+x,1/2+y,z
1/2-x,1/2+y,-z
1/2-x,1/2-y,-z
1/2+x,1/2-y,z
loop_
_atom_site_type_symbol
_atom_site_label
_atom_site_fract_x
_atom_site_fract_y
_atom_site_fract_z
Si Si1 0.226273 0.828785 0.811940
Si Si2 0.856082 0.329113 0.741358
Si Si3 0.805154 0.667656 0.430036
Si Si4 0.829951 0.165562 0.889963
Si Si5 0.436212 0.174167 0.556460
Si Si6 0.155631 0.671895 0.468212
Si Si7 0.802346 0.666047 0.036998
Si Si8 0.770525 0.327126 0.322841
O O1 0.293857 0.799688 0.762998
O O2 0.190391 0.754465 0.901263
O O3 0.205733 0.755378 0.761446
O O4 0.211485 0.000000 0.823703
O O5 0.863865 0.500000 0.751111
O O6 0.865489 0.240855 0.800931
O O7 0.902938 0.269782 0.649662
O O8 0.787008 0.500000 0.448044
O O9 0.750000 0.750000 0.500000
O O10 0.854190 0.698471 0.444007
O O11 0.816857 0.706423 0.342981
O O12 0.763353 0.166962 0.928855
O O13 0.852316 0.000000 0.880707
O O14 0.840382 0.255048 0.948536
O O15 0.500000 0.243606 0.500000
O O16 0.402073 0.223201 0.519755
O O17 0.440071 0.000000 0.556428
O O18 0.168441 0.500000 0.442041
O O19 0.208358 0.766052 0.395981
O O20 0.824661 0.500000 0.027335
O O21 0.765253 0.500000 0.312193
#
# Coordination Sequence:
#
# PCOD8078484 Si02
#       8
#     8   8   8   8   8   8   8   8
#     4  10  17  25  37  53  74 102 129 156 187 224
#     4   9  16  26  38  52  69  95 127 160 194 226
#     4   8  15  24  36  52  71  93 122 155 190 228
#     4   9  16  25  37  52  70  95 125 156 186 223
#     4   9  16  26  41  59  75  95 129 169 203 231
#     4   9  15  27  41  53  70  96 126 160 197 232
#     4   9  16  25  36  53  74  97 123 155 186 219
#     4  10  17  24  35  54  75  98 126 158 190 227
#
# _framework density 14.878431000000001
#
# number of rings (size 3 to 8) (size 9 to 14) (size 15 to 20)
#    0.000    2.875    1.250    1.500    0.000    4.000 
#    0.000    0.000    0.000    1.500    0.000    0.000 
#    0.000    0.000    0.000    1.125    0.000   26.500 
#
# Total GULP energy -396491.601927 kJ/mol
# GULP energy per Si atom -12390.362560 kJ/mol
# Density = 1.484457 g / cm^3
# Si number density = 14.878431 Si / 1000 Ang^3
#
#
#
# Elastic Constant Matrix: (Units=GPa)
#
#
# Indices 1 2 3 4 5 6 
#
# 1 66.4756 29.9328 56.2464 0.0000 24.3298 -0.0002
# 2 29.9328 79.3015 48.9310 -0.0011 21.9321 0.0006
# 3 56.2464 48.9310 108.5330 -0.0001 35.4628 0.0002
# 4 0.0000 -0.0011 -0.0001 22.7243 0.0002 8.3280
# 5 24.3298 21.9321 35.4628 0.0002 27.3146 -0.0002
# 6 -0.0002 0.0006 0.0002 8.3280 -0.0002 11.1554
#
#
#
# Elastic Compliance Matrix: (Units=1/GPa)
#
#
# Indices 1 2 3 4 5 6 
#
# 1 0.028591 -0.001209 -0.010886 0.000000 -0.010363 0.000001
# 2 -0.001209 0.018235 -0.005492 0.000002 -0.006434 -0.000002
# 3 -0.010886 -0.005492 0.022096 0.000000 -0.014581 -0.000001
# 4 0.000000 0.000002 0.000000 0.060580 -0.000002 -0.045225
# 5 -0.010363 -0.006434 -0.014581 -0.000002 0.069937 0.000003
# 6 0.000001 -0.000002 -0.000001 -0.045225 0.000003 0.123405
#
#
# Mechanical properties :
#
#
# Convention : Reuss Voigt Hill
#
# Bulk Modulus (GPa) = 29.63207 58.28116 43.95661
# Shear Modulus (GPa) = 13.54035 20.18553 16.86294
#
# Velocity S-wave (km/s) = 3.02000 3.68733 3.37023
# Velocity P-wave (km/s) = 5.66744 7.57530 6.68973
#
# Compressibility (1/GPa) = 0.03374723
#
# Stress axis : x y z
#
# Youngs Moduli (GPa) = 34.97588 54.84068 45.25779
#
# Poissons Ratio (x) = 0.06630 0.49268
# Poissons Ratio (y) = 0.04228 0.24856
# Poissons Ratio (z) = 0.38075 0.30119
#
# Static dielectric constant tensor:
#      x y z
#    x 2.866250 0.000000 0.474180 
#    y 0.000000 2.828150 0.000000 
#    z 0.474180 0.000000 2.948870 
# 
# 
# High freq. dielectric constant tensor:
#      x y z
#    x 1.520190 0.000000 0.049370 
#    y 0.000000 1.572390 0.000000 
#    z 0.049370 0.000000 1.555510 
# 
# From -- ./inp_files/326592.got.cif
#   From: 2010.06.25/outbox.cif.g09.slc.cpg/sg12_164_cif.got.tgz:326592.got - 2010.06.28 00:19:55.
