data_PCOD8078534
_publ_section_title
;
Structure prediction by ZEFSAII (Michael W. Deem and Ramdas Pophale) SiO2 
 PCOD8078534
Probable space group: C 2/M
;
_chemical_formula_sum "Si O2"
_cell_formula_units_Z 64
_cell_length_a 21.798614
_cell_length_b 14.011455
_cell_length_c 13.931173
_cell_angle_alpha 90.000000
_cell_angle_beta 66.570926
_cell_angle_gamma 90.000000
_cell_volume 3904.190074
_symmetry_space_group_name_H-M "C 2/M"
_symmetry_group_IT_number 12
_symmetry_cell_setting 'monoclinic'
loop_
_space_group_symop_operation_xyz
x,y,z
-x,y,-z
-x,-y,-z
x,-y,z
1/2+x,1/2+y,z
1/2-x,1/2+y,-z
1/2-x,1/2-y,-z
1/2+x,1/2-y,z
loop_
_atom_site_type_symbol
_atom_site_label
_atom_site_fract_x
_atom_site_fract_y
_atom_site_fract_z
Si Si1 0.018629 0.113051 0.881293
Si Si2 0.566789 0.391525 0.560970
Si Si3 0.522265 0.896666 0.379157
Si Si4 0.567580 0.394489 0.237232
Si Si5 0.118211 0.390780 0.621813
Si Si6 0.278509 0.194224 0.573994
Si Si7 0.136965 0.803258 0.695921
Si Si8 0.384836 0.725760 0.640733
O O1 0.088437 0.162602 0.810738
O O2 0.958926 0.148068 0.847769
O O3 0.028505 0.000000 0.862557
O O4 0.000000 0.143256 0.000000
O O5 0.590274 0.500000 0.524108
O O6 0.493516 0.393011 0.650405
O O7 0.617085 0.342612 0.604033
O O8 0.566863 0.330011 0.463616
O O9 0.500000 0.912063 0.500000
O O10 0.457254 0.861952 0.360531
O O11 0.581912 0.821682 0.338470
O O12 0.547002 0.000000 0.323688
O O13 0.595629 0.500000 0.201985
O O14 0.625877 0.334742 0.253845
O O15 0.122210 0.500000 0.657693
O O16 0.167998 0.383345 0.498104
O O17 0.138299 0.313406 0.690716
O O18 0.250000 0.250000 0.500000
O O19 0.211763 0.154813 0.668932
O O20 0.314342 0.258753 0.632545
#
# Coordination Sequence:
#
# PCOD8078534 Si02
#       8
#     8   8   8   8   8   8   8   8
#     4   9  18  34  57  79  94 113 149 201 258 306
#     4  10  18  27  43  66  93 127 157 191 240 287
#     4  10  17  25  38  57  79 117 162 195 221 246
#     4   9  18  28  44  72  95 116 153 195 247 295
#     4  10  19  30  45  65  95 132 168 194 223 270
#     4  10  20  31  40  63  97 137 171 185 215 280
#     4  10  18  34  46  68  98 128 161 197 235 285
#     4  12  18  28  43  61  98 130 159 196 225 274
#
# _framework density 16.392644000000001
#
# number of rings (size 3 to 8) (size 9 to 14) (size 15 to 20)
#    0.000    2.000    3.750    4.125    0.000    2.000 
#    0.000    0.625    0.000    1.125    0.000    0.000 
#    0.000    0.000    0.000    0.000    0.000    0.000 
#
# Total GULP energy -396450.355664 kJ/mol
# GULP energy per Si atom -12389.073615 kJ/mol
# Density = 1.635533 g / cm^3
# Si number density = 16.392644 Si / 1000 Ang^3
#
#
#
# Elastic Constant Matrix: (Units=GPa)
#
#
# Indices 1 2 3 4 5 6 
#
# 1 95.4934 31.8510 33.6683 0.0000 8.1726 0.0000
# 2 31.8510 74.7555 24.0578 0.0000 0.6701 0.0000
# 3 33.6683 24.0578 77.6029 0.0000 7.9330 0.0000
# 4 0.0000 0.0000 0.0000 14.4044 0.0000 4.8818
# 5 8.1726 0.6701 7.9330 0.0000 15.9776 0.0000
# 6 0.0000 0.0000 0.0000 4.8818 0.0000 15.0255
#
#
#
# Elastic Compliance Matrix: (Units=1/GPa)
#
#
# Indices 1 2 3 4 5 6 
#
# 1 0.013848 -0.004535 -0.004106 0.000000 -0.004854 0.000000
# 2 -0.004535 0.016392 -0.003456 0.000000 0.003348 0.000000
# 3 -0.004106 -0.003456 0.016339 0.000000 -0.005867 0.000000
# 4 0.000000 0.000000 0.000000 0.078014 0.000000 -0.025347
# 5 -0.004854 0.003348 -0.005867 0.000000 0.067844 0.000000
# 6 0.000000 0.000000 0.000000 -0.025347 0.000000 0.074789
#
#
# Mechanical properties :
#
#
# Convention : Reuss Voigt Hill
#
# Bulk Modulus (GPa) = 44.67560 47.44513 46.06036
# Shear Modulus (GPa) = 16.72919 19.63314 18.18116
#
# Velocity S-wave (km/s) = 3.19804 3.46451 3.33394
# Velocity P-wave (km/s) = 6.39916 6.70891 6.55586
#
# Compressibility (1/GPa) = 0.02238358
#
# Stress axis : x y z
#
# Youngs Moduli (GPa) = 72.21471 61.00710 61.20475
#
# Poissons Ratio (x) = 0.27668 0.25128
# Poissons Ratio (y) = 0.32751 0.21154
# Poissons Ratio (z) = 0.29648 0.21085
#
# Static dielectric constant tensor:
#      x y z
#    x 3.403040 0.000000 0.081600 
#    y 0.000000 3.338040 0.000000 
#    z 0.081600 0.000000 2.737810 
# 
# 
# High freq. dielectric constant tensor:
#      x y z
#    x 1.631670 0.000000 0.015750 
#    y 0.000000 1.633380 0.000000 
#    z 0.015750 0.000000 1.566350 
# 
# From -- ./inp_files/233132.got.cif
#   From: 2010.06.25/outbox.cif.g09.slc.cpg/sg12_117_cif.got.tgz:233132.got - 2010.06.28 00:19:55.
