data_PCOD8078052
_publ_section_title
;
Structure prediction by ZEFSAII (Michael W. Deem and Ramdas Pophale) SiO2 
 PCOD8078052
Probable space group: C 2/M
;
_chemical_formula_sum "Si O2"
_cell_formula_units_Z 64
_cell_length_a 18.843670
_cell_length_b 22.664564
_cell_length_c 16.777662
_cell_angle_alpha 90.000000
_cell_angle_beta 144.525994
_cell_angle_gamma 90.000000
_cell_volume 4158.358964
_symmetry_space_group_name_H-M "C 2/M"
_symmetry_group_IT_number 12
_symmetry_cell_setting 'monoclinic'
loop_
_space_group_symop_operation_xyz
x,y,z
-x,y,-z
-x,-y,-z
x,-y,z
1/2+x,1/2+y,z
1/2-x,1/2+y,-z
1/2-x,1/2-y,-z
1/2+x,1/2-y,z
loop_
_atom_site_type_symbol
_atom_site_label
_atom_site_fract_x
_atom_site_fract_y
_atom_site_fract_z
Si Si1 0.120696 0.433472 0.931368
Si Si2 0.216500 0.667113 0.919021
Si Si3 0.806711 0.230329 0.859193
Si Si4 0.942013 0.219586 0.205284
Si Si5 0.785911 0.932939 0.236917
Si Si6 0.417911 0.316915 0.351931
Si Si7 0.063011 0.251528 0.169624
Si Si8 0.082144 0.380963 0.152321
O O1 0.117247 0.500000 0.897385
O O2 0.158724 0.395769 0.888252
O O3 0.987036 0.416375 0.841534
O O4 0.215591 0.424763 0.089684
O O5 0.248495 0.674595 0.853571
O O6 0.116989 0.715715 0.851098
O O7 0.340195 0.673134 0.083330
O O8 0.712527 0.284349 0.766893
O O9 0.854610 0.211386 0.815054
O O10 0.921127 0.256055 0.013076
O O11 0.988383 0.199952 0.334761
O O12 0.060558 0.221719 0.255036
O O13 0.898881 0.887397 0.340272
O O14 0.700214 0.918534 0.234549
O O15 0.834351 0.000000 0.289963
O O16 0.500000 0.294265 0.500000
O O17 0.120314 0.317042 0.221976
O O18 0.000000 0.370256 0.000000
#
# Coordination Sequence:
#
# PCOD8078052 Si02
#       8
#     8   8   8   8   8   8   8   8
#     4  10  17  25  40  66  93 115 136 171 220 260
#     4   9  15  25  43  63  88 110 139 176 210 266
#     4   9  17  27  44  68  83 110 141 176 225 253
#     4   9  17  26  43  63  83 114 146 174 218 252
#     4  10  19  29  40  57  86 123 154 172 198 247
#     4  11  20  31  42  59  91 121 150 179 204 247
#     4  10  14  26  49  67  85 107 138 182 218 273
#     4  10  15  23  39  64  91 110 136 167 218 261
#
# _framework density 15.390687
#
# number of rings (size 3 to 8) (size 9 to 14) (size 15 to 20)
#    0.000    2.250    5.000    1.875    0.000    1.750 
#    0.000    0.625    0.000    0.000    0.000    7.875 
#    0.000    8.000    0.000    0.000    0.000    0.000 
#
# Total GULP energy -396592.928735 kJ/mol
# GULP energy per Si atom -12393.529023 kJ/mol
# Density = 1.535566 g / cm^3
# Si number density = 15.390687 Si / 1000 Ang^3
#
#
#
# Elastic Constant Matrix: (Units=GPa)
#
#
# Indices 1 2 3 4 5 6 
#
# 1 144.0367 59.7468 23.3188 0.0000 -15.3160 0.0000
# 2 59.7468 85.9721 13.3006 0.0000 -4.5827 0.0000
# 3 23.3188 13.3006 26.6825 0.0000 -11.4456 0.0000
# 4 0.0000 0.0000 0.0000 7.6479 0.0000 0.0098
# 5 -15.3160 -4.5827 -11.4456 0.0000 13.1406 0.0000
# 6 0.0000 0.0000 0.0000 0.0098 0.0000 26.1002
#
#
#
# Elastic Compliance Matrix: (Units=1/GPa)
#
#
# Indices 1 2 3 4 5 6 
#
# 1 0.011099 -0.006847 -0.002813 0.000000 0.008099 0.000000
# 2 -0.006847 0.016851 -0.005298 0.000000 -0.006718 0.000000
# 3 -0.002813 -0.005298 0.064463 0.000000 0.051022 0.000000
# 4 0.000000 0.000000 0.000000 0.130756 0.000000 -0.000049
# 5 0.008099 -0.006718 0.051022 0.000000 0.127637 0.000000
# 6 0.000000 0.000000 0.000000 -0.000049 0.000000 0.038314
#
#
# Mechanical properties :
#
#
# Convention : Reuss Voigt Hill
#
# Bulk Modulus (GPa) = 16.00056 49.93597 32.96827
# Shear Modulus (GPa) = 11.36702 20.06607 15.71654
#
# Velocity S-wave (km/s) = 2.72060 3.61471 3.19905
# Velocity P-wave (km/s) = 4.50419 7.06665 5.92559
#
# Compressibility (1/GPa) = 0.06249781
#
# Stress axis : x y z
#
# Youngs Moduli (GPa) = 90.09614 59.34251 15.51268
#
# Poissons Ratio (x) = 0.40629 0.04364
# Poissons Ratio (y) = 0.61685 0.08219
# Poissons Ratio (z) = 0.25346 0.31441
#
# Static dielectric constant tensor:
#      x y z
#    x 3.316520 0.000000 -0.039080 
#    y 0.000000 2.758730 0.000000 
#    z -0.039080 0.000000 2.473860 
# 
# 
# High freq. dielectric constant tensor:
#      x y z
#    x 1.603590 0.000000 0.003870 
#    y 0.000000 1.562820 0.000000 
#    z 0.003870 0.000000 1.534180 
# 
# From -- ./inp_files/168506.got.cif
#   From: 2010.06.25/outbox.cif.g09.slc.cpg/sg12_85_cif.got.tgz:168506.got - 2010.06.28 00:19:55.
