data_PCOD8078662
_publ_section_title
;
Structure prediction by ZEFSAII (Michael W. Deem and Ramdas Pophale) SiO2 
 PCOD8078662
Probable space group: C 2/M
;
_chemical_formula_sum "Si O2"
_cell_formula_units_Z 48
_cell_length_a 18.480496
_cell_length_b 13.542378
_cell_length_c 34.482364
_cell_angle_alpha 90.000000
_cell_angle_beta 156.981248
_cell_angle_gamma 90.000000
_cell_volume 3374.568916
_symmetry_space_group_name_H-M "C 2/M"
_symmetry_group_IT_number 12
_symmetry_cell_setting 'monoclinic'
loop_
_space_group_symop_operation_xyz
x,y,z
-x,y,-z
-x,-y,-z
x,-y,z
1/2+x,1/2+y,z
1/2-x,1/2+y,-z
1/2-x,1/2-y,-z
1/2+x,1/2-y,z
loop_
_atom_site_type_symbol
_atom_site_label
_atom_site_fract_x
_atom_site_fract_y
_atom_site_fract_z
Si Si1 0.822907 0.112531 0.890514
Si Si2 0.306884 0.787089 0.385048
Si Si3 0.639113 0.387929 0.373713
Si Si4 0.973090 0.613946 0.394716
Si Si5 0.430656 0.796773 0.290319
Si Si6 0.575842 0.110509 0.290205
O O1 0.774066 0.177700 0.828068
O O2 0.641955 0.114510 0.829582
O O3 0.865743 0.000000 0.898584
O O4 0.000000 0.158094 0.000000
O O5 0.500000 0.758931 0.500000
O O6 0.191753 0.861183 0.355547
O O7 0.333957 0.840362 0.357530
O O8 0.195603 0.684980 0.323205
O O9 0.568005 0.500000 0.339670
O O10 0.472683 0.319833 0.307398
O O11 0.815778 0.373067 0.488349
O O12 0.921320 0.500000 0.363508
O O13 0.942533 0.672050 0.340239
O O14 0.584147 0.856038 0.339952
O O15 0.656229 0.000000 0.325334
#
# Coordination Sequence:
#
# PCOD8078662 Si02
#       6
#     8   8   8   8   8   8
#     4   8  14  26  46  67  81  99 135 179 217 246
#     4   9  17  27  39  58  85 117 144 163 193 246
#     4   9  17  28  41  58  83 117 145 166 198 247
#     4  10  17  26  41  61  86 111 140 174 203 237
#     4   9  16  27  43  64  83 103 136 181 215 239
#     4   8  15  27  42  61  82 106 137 172 208 245
#
# _framework density 14.224038999999999
#
# number of rings (size 3 to 8) (size 9 to 14) (size 15 to 20)
#    1.000    2.167    0.000    2.000    0.000    2.333 
#    0.000    0.833    0.000    1.500    0.000    0.000 
#    0.000    0.000    0.000    0.000    0.000    0.000 
#
# Total GULP energy -297370.054892 kJ/mol
# GULP energy per Si atom -12390.418954 kJ/mol
# Density = 1.419166 g / cm^3
# Si number density = 14.224039 Si / 1000 Ang^3
#
#
#
# Elastic Constant Matrix: (Units=GPa)
#
#
# Indices 1 2 3 4 5 6 
#
# 1 68.0396 46.6313 34.7567 0.0008 -9.6634 0.0006
# 2 46.6313 121.1746 52.2712 0.0003 -4.1465 0.0000
# 3 34.7567 52.2712 61.0279 0.0003 -6.2311 0.0010
# 4 0.0008 0.0003 0.0003 17.1849 0.0004 3.6667
# 5 -9.6634 -4.1465 -6.2311 0.0004 12.4041 0.0005
# 6 0.0006 0.0000 0.0010 3.6667 0.0005 21.2928
#
#
#
# Elastic Compliance Matrix: (Units=1/GPa)
#
#
# Indices 1 2 3 4 5 6 
#
# 1 0.024353 -0.005581 -0.007740 -0.000001 0.013219 0.000000
# 2 -0.005581 0.014388 -0.009590 0.000000 -0.004355 0.000001
# 3 -0.007740 -0.009590 0.029582 0.000000 0.005625 -0.000001
# 4 -0.000001 0.000000 0.000000 0.060410 -0.000002 -0.010403
# 5 0.013219 -0.004355 0.005625 -0.000002 0.092286 -0.000002
# 6 0.000000 0.000001 -0.000001 -0.010403 -0.000002 0.048756
#
#
# Mechanical properties :
#
#
# Convention : Reuss Voigt Hill
#
# Bulk Modulus (GPa) = 44.44016 57.50672 50.97344
# Shear Modulus (GPa) = 15.47521 17.94856 16.71189
#
# Velocity S-wave (km/s) = 3.30200 3.55610 3.43141
# Velocity P-wave (km/s) = 6.77115 7.57484 7.18424
#
# Compressibility (1/GPa) = 0.02250217
#
# Stress axis : x y z
#
# Youngs Moduli (GPa) = 41.06212 69.50316 33.80399
#
# Poissons Ratio (x) = 0.38787 0.26165
# Poissons Ratio (y) = 0.22915 0.32417
# Poissons Ratio (z) = 0.31783 0.66652
#
# Static dielectric constant tensor:
#      x y z
#    x 2.576770 0.000000 0.020550 
#    y 0.000000 2.833580 0.000000 
#    z 0.020550 0.000000 2.593940 
# 
# 
# High freq. dielectric constant tensor:
#      x y z
#    x 1.518700 0.000000 -0.003870 
#    y 0.000000 1.548170 0.000000 
#    z -0.003870 0.000000 1.513130 
# 
# From -- ./inp_files/282498.got.cif
#   From: 2010.06.25/outbox.cif.g09.slc.cpg/sg12_142_cif.got.tgz:282498.got - 2010.06.28 00:19:55.
