data_PCOD8078676
_publ_section_title
;
Structure prediction by ZEFSAII (Michael W. Deem and Ramdas Pophale) SiO2 
 PCOD8078676
Probable space group: C 2/M
;
_chemical_formula_sum "Si O2"
_cell_formula_units_Z 64
_cell_length_a 27.348845
_cell_length_b 9.033338
_cell_length_c 28.830596
_cell_angle_alpha 90.000000
_cell_angle_beta 35.244941
_cell_angle_gamma 90.000000
_cell_volume 4110.282644
_symmetry_space_group_name_H-M "C 2/M"
_symmetry_group_IT_number 12
_symmetry_cell_setting 'monoclinic'
loop_
_space_group_symop_operation_xyz
x,y,z
-x,y,-z
-x,-y,-z
x,-y,z
1/2+x,1/2+y,z
1/2-x,1/2+y,-z
1/2-x,1/2-y,-z
1/2+x,1/2-y,z
loop_
_atom_site_type_symbol
_atom_site_label
_atom_site_fract_x
_atom_site_fract_y
_atom_site_fract_z
Si Si1 0.914445 0.329096 0.658640
Si Si2 0.947833 0.671933 0.938203
Si Si3 0.775458 0.676456 0.027956
Si Si4 0.293626 0.171008 0.832312
Si Si5 0.869307 0.328763 0.194996
Si Si6 0.943763 0.166894 0.497833
Si Si7 0.647544 0.831971 0.898638
Si Si8 0.303653 0.825754 0.657349
O O1 0.934913 0.500000 0.633117
O O2 0.881563 0.303333 0.736515
O O3 0.843892 0.276565 0.675563
O O4 0.001648 0.238592 0.585985
O O5 0.952359 0.500000 0.924569
O O6 0.041664 0.733803 0.852421
O O7 0.870202 0.735437 0.967442
O O8 0.929869 0.701762 0.006481
O O9 0.770865 0.500000 0.027879
O O10 0.710129 0.729900 0.118425
O O11 0.750000 0.750000 0.000000
O O12 0.221559 0.216258 0.851767
O O13 0.282579 0.000000 0.854772
O O14 0.852794 0.500000 0.220640
O O15 0.882903 0.310220 0.129698
O O16 0.791634 0.233491 0.273773
O O17 0.857704 0.257457 0.573173
O O18 0.000000 0.173678 0.500000
O O19 0.920029 0.000000 0.502422
O O20 0.680935 0.000000 0.881537
O O21 0.302084 0.000000 0.652572
#
# Coordination Sequence:
#
# PCOD8078676 Si02
#       8
#     8   8   8   8   8   8   8   8
#     4   9  17  28  41  58  85 118 148 181 220 259
#     4   8  16  29  44  63  84 111 146 182 221 263
#     4  10  20  35  52  68  87 113 145 184 231 272
#     4  10  18  29  45  66  90 117 149 181 219 265
#     4  10  17  26  42  61  85 116 152 186 213 252
#     4   9  17  27  40  58  79 110 153 191 219 252
#     4   9  16  26  41  60  85 116 149 183 217 251
#     4  10  18  28  39  56  86 121 152 182 221 259
#
# _framework density 15.570705
#
# number of rings (size 3 to 8) (size 9 to 14) (size 15 to 20)
#    0.000    2.625    1.250    2.625    0.000    4.500 
#    0.000    3.125    0.000    3.750    0.000    0.000 
#    0.000    1.000    0.000    3.000    0.000    4.000 
#
# Total GULP energy -396594.956861 kJ/mol
# GULP energy per Si atom -12393.592402 kJ/mol
# Density = 1.553527 g / cm^3
# Si number density = 15.570705 Si / 1000 Ang^3
#
#
#
# Elastic Constant Matrix: (Units=GPa)
#
#
# Indices 1 2 3 4 5 6 
#
# 1 51.1539 29.7292 46.5831 -0.0107 -3.9198 0.0081
# 2 29.7292 73.6492 54.5530 -0.0094 -1.9202 0.0193
# 3 46.5831 54.5530 125.7120 -0.0016 -12.6160 0.0032
# 4 -0.0107 -0.0094 -0.0016 27.4450 -0.0031 2.6516
# 5 -3.9198 -1.9202 -12.6160 -0.0031 14.5304 0.0062
# 6 0.0081 0.0193 0.0032 2.6516 0.0062 14.0541
#
#
#
# Elastic Compliance Matrix: (Units=1/GPa)
#
#
# Indices 1 2 3 4 5 6 
#
# 1 0.031172 -0.005921 -0.009000 0.000011 -0.000188 -0.000010
# 2 -0.005921 0.021523 -0.007691 0.000006 -0.005431 -0.000023
# 3 -0.009000 -0.007691 0.015645 -0.000005 0.010139 0.000009
# 4 0.000011 0.000006 -0.000005 0.037113 0.000010 -0.007002
# 5 -0.000188 -0.005431 0.010139 0.000010 0.076856 -0.000031
# 6 -0.000010 -0.000023 0.000009 -0.007002 -0.000031 0.072475
#
#
# Mechanical properties :
#
#
# Convention : Reuss Voigt Hill
#
# Bulk Modulus (GPa) = 43.26156 56.91619 50.08888
# Shear Modulus (GPa) = 16.24890 19.18255 17.71573
#
# Velocity S-wave (km/s) = 3.23392 3.51374 3.37673
# Velocity P-wave (km/s) = 6.46441 7.28660 6.88778
#
# Compressibility (1/GPa) = 0.02311521
#
# Stress axis : x y z
#
# Youngs Moduli (GPa) = 32.08049 46.46148 63.91889
#
# Poissons Ratio (x) = 0.27510 0.57528
# Poissons Ratio (y) = 0.18995 0.49160
# Poissons Ratio (z) = 0.28873 0.35733
#
# Static dielectric constant tensor:
#      x y z
#    x 2.658040 -0.000010 -0.122010 
#    y -0.000010 2.955240 0.000010 
#    z -0.122010 0.000010 3.109360 
# 
# 
# High freq. dielectric constant tensor:
#      x y z
#    x 1.538940 0.000000 -0.007970 
#    y 0.000000 1.596390 0.000000 
#    z -0.007970 0.000000 1.602230 
# 
# From -- ./inp_files/384543.got.cif
#   From: 2010.06.25/outbox.cif.g09.slc.cpg/sg12_193_cif.got.tgz:384543.got - 2010.06.28 00:19:55.
