data_PCOD8078035
_publ_section_title
;
Structure prediction by ZEFSAII (Michael W. Deem and Ramdas Pophale) SiO2 
 PCOD8078035
Probable space group: C 2/M
;
_chemical_formula_sum "Si O2"
_cell_formula_units_Z 48
_cell_length_a 5.194988
_cell_length_b 17.828582
_cell_length_c 29.579835
_cell_angle_alpha 90.000000
_cell_angle_beta 74.904480
_cell_angle_gamma 90.000000
_cell_volume 2645.125162
_symmetry_space_group_name_H-M "C 2/M"
_symmetry_group_IT_number 12
_symmetry_cell_setting 'monoclinic'
loop_
_space_group_symop_operation_xyz
x,y,z
-x,y,-z
-x,-y,-z
x,-y,z
1/2+x,1/2+y,z
1/2-x,1/2+y,-z
1/2-x,1/2-y,-z
1/2+x,1/2-y,z
loop_
_atom_site_type_symbol
_atom_site_label
_atom_site_fract_x
_atom_site_fract_y
_atom_site_fract_z
Si Si1 0.220005 0.335393 0.020218
Si Si2 0.225991 0.412509 0.365957
Si Si3 0.599095 0.799804 0.775688
Si Si4 0.187655 0.412276 0.692461
Si Si5 0.566100 0.202518 0.446255
Si Si6 0.874784 0.295609 0.878176
O O1 0.132158 0.345121 0.076353
O O2 0.500000 0.377304 0.000000
O O3 0.250000 0.250000 0.000000
O O4 0.000000 0.377295 0.000000
O O5 0.205846 0.500000 0.377619
O O6 0.522707 0.388527 0.338572
O O7 0.145592 0.371196 0.415394
O O8 0.028113 0.388854 0.334976
O O9 0.386427 0.739067 0.767642
O O10 0.621316 0.868991 0.741092
O O11 0.502048 0.835291 0.828159
O O12 0.174791 0.500000 0.704302
O O13 0.500000 0.176362 0.500000
O O14 0.308486 0.238840 0.434632
O O15 0.570494 0.273871 0.880780
#
# Coordination Sequence:
#
# PCOD8078035 Si02
#       6
#     8   8   8   8   8   8
#     4  10  14  20  34  52  77 116 146 173 226 287
#     4  10  21  36  56  77  99 131 171 212 244 286
#     4  10  21  32  48  71  99 127 158 205 249 291
#     4  10  21  37  53  73 100 131 170 207 247 295
#     4  10  21  36  54  80 110 138 165 201 248 299
#     4  10  16  25  36  57  87 117 146 188 232 284
#
# _framework density 18.146588999999999
#
# number of rings (size 3 to 8) (size 9 to 14) (size 15 to 20)
#    0.000    2.000    3.333    2.000    0.000    4.333 
#    0.000    0.000    0.000    6.000    0.000    0.000 
#    0.000    1.333    0.000    0.000    0.000    6.667 
#
# Total GULP energy -297483.249340 kJ/mol
# GULP energy per Si atom -12395.135389 kJ/mol
# Density = 1.810529 g / cm^3
# Si number density = 18.146589 Si / 1000 Ang^3
#
#
#
# Elastic Constant Matrix: (Units=GPa)
#
#
# Indices 1 2 3 4 5 6 
#
# 1 118.9250 11.9944 29.9683 0.0000 -3.6832 0.0000
# 2 11.9944 34.3983 53.6475 0.0000 -0.6380 0.0000
# 3 29.9683 53.6475 141.5365 0.0000 -0.5318 0.0000
# 4 0.0000 0.0000 0.0000 6.0025 0.0000 0.8896
# 5 -3.6832 -0.6380 -0.5318 0.0000 26.2174 0.0000
# 6 0.0000 0.0000 0.0000 0.8896 0.0000 3.7115
#
#
#
# Elastic Compliance Matrix: (Units=1/GPa)
#
#
# Indices 1 2 3 4 5 6 
#
# 1 0.008923 -0.000366 -0.001746 0.000000 0.001209 0.000000
# 2 -0.000366 0.071155 -0.026889 0.000000 0.001135 0.000000
# 3 -0.001746 -0.026889 0.017625 0.000000 -0.000542 0.000000
# 4 0.000000 0.000000 0.000000 0.172733 0.000000 -0.041400
# 5 0.001209 0.001135 -0.000542 0.000000 0.038329 0.000000
# 6 0.000000 0.000000 0.000000 -0.041400 0.000000 0.279356
#
#
# Mechanical properties :
#
#
# Convention : Reuss Voigt Hill
#
# Bulk Modulus (GPa) = 25.18759 54.00891 39.59825
# Shear Modulus (GPa) = 7.58315 20.46960 14.02638
#
# Velocity S-wave (km/s) = 2.04644 3.36224 2.78321
# Velocity P-wave (km/s) = 4.41521 6.70075 5.67424
#
# Compressibility (1/GPa) = 0.03970209
#
# Stress axis : x y z
#
# Youngs Moduli (GPa) = 112.06975 14.05373 56.73799
#
# Poissons Ratio (x) = 0.00514 0.09908
# Poissons Ratio (y) = 0.04097 1.52562
# Poissons Ratio (z) = 0.19570 0.37789
#
# Static dielectric constant tensor:
#      x y z
#    x 4.649800 0.000000 -0.028060 
#    y 0.000000 2.746530 0.000000 
#    z -0.028060 0.000000 3.563390 
# 
# 
# High freq. dielectric constant tensor:
#      x y z
#    x 1.737940 0.000000 -0.000500 
#    y 0.000000 1.634130 0.000000 
#    z -0.000500 0.000000 1.720550 
# 
# From -- ./inp_files/330991.got.cif
#   From: 2010.06.25/outbox.cif.g09.slc.cpg/sg12_166_cif.got.tgz:330991.got - 2010.06.28 00:19:55.
