data_PCOD8078485
_publ_section_title
;
Structure prediction by ZEFSAII (Michael W. Deem and Ramdas Pophale) SiO2 
 PCOD8078485
Probable space group: C 2/M
;
_chemical_formula_sum "Si O2"
_cell_formula_units_Z 56
_cell_length_a 24.439756
_cell_length_b 8.620595
_cell_length_c 25.782435
_cell_angle_alpha 90.000000
_cell_angle_beta 141.589587
_cell_angle_gamma 90.000000
_cell_volume 3374.834983
_symmetry_space_group_name_H-M "C 2/M"
_symmetry_group_IT_number 12
_symmetry_cell_setting 'monoclinic'
loop_
_space_group_symop_operation_xyz
x,y,z
-x,y,-z
-x,-y,-z
x,-y,z
1/2+x,1/2+y,z
1/2-x,1/2+y,-z
1/2-x,1/2-y,-z
1/2+x,1/2-y,z
loop_
_atom_site_type_symbol
_atom_site_label
_atom_site_fract_x
_atom_site_fract_y
_atom_site_fract_z
Si Si1 0.656463 0.682311 0.487068
Si Si2 0.142028 0.318154 0.368422
Si Si3 0.128303 0.819191 0.099827
Si Si4 0.263700 0.316617 0.727388
Si Si5 0.408183 0.183777 0.456594
Si Si6 0.021041 0.681156 0.940266
Si Si7 0.928100 0.182867 0.783063
O O1 0.649353 0.500000 0.473388
O O2 0.757875 0.734395 0.569662
O O3 0.615729 0.766223 0.406615
O O4 0.599732 0.734989 0.493894
O O5 0.129491 0.500000 0.353168
O O6 0.075926 0.233366 0.279725
O O7 0.216012 0.768391 0.197480
O O8 0.048005 0.784322 0.079038
O O9 0.130837 0.000000 0.088093
O O10 0.116413 0.723103 0.037043
O O11 0.265355 0.500000 0.724366
O O12 0.168892 0.253454 0.638827
O O13 0.339277 0.253210 0.744901
O O14 0.500000 0.235403 0.500000
O O15 0.402428 0.000000 0.460217
O O16 0.001916 0.500000 0.932277
O O17 0.012031 0.734461 0.873600
O O18 0.939896 0.000000 0.796099
#
# Coordination Sequence:
#
# PCOD8078485 Si02
#       7
#     8   8   8   8   8   8   8
#     4  10  20  32  46  65  89 118 150 187 230 272
#     4  10  19  30  46  67  89 116 150 188 225 269
#     4   9  15  25  38  53  77 112 149 180 217 263
#     4   8  15  26  41  60  82 112 149 186 220 263
#     4  10  19  32  49  67  89 119 156 195 230 264
#     4  10  17  24  35  56  84 111 143 179 217 261
#     4  10  17  27  43  61  87 118 148 180 218 267
#
# _framework density 16.593404
#
# number of rings (size 3 to 8) (size 9 to 14) (size 15 to 20)
#    0.000    2.429    1.429    4.714    0.000    1.429 
#    0.000    0.714    0.000    0.000    0.000    0.000 
#    0.000    1.143    0.000    3.143    0.000    4.857 
#
# Total GULP energy -347033.685617 kJ/mol
# GULP energy per Si atom -12394.060201 kJ/mol
# Density = 1.655564 g / cm^3
# Si number density = 16.593404 Si / 1000 Ang^3
#
#
#
# Elastic Constant Matrix: (Units=GPa)
#
#
# Indices 1 2 3 4 5 6 
#
# 1 53.0669 14.6929 40.5165 0.0000 -10.6597 0.0000
# 2 14.6929 54.4183 32.5801 -0.0001 -9.3707 -0.0005
# 3 40.5165 32.5801 138.6992 0.0001 -32.4866 0.0002
# 4 0.0000 -0.0001 0.0001 25.0792 0.0000 -9.3375
# 5 -10.6597 -9.3707 -32.4866 0.0000 22.1034 -0.0001
# 6 0.0000 -0.0005 0.0002 -9.3375 -0.0001 16.5943
#
#
#
# Elastic Compliance Matrix: (Units=1/GPa)
#
#
# Indices 1 2 3 4 5 6 
#
# 1 0.024635 -0.002664 -0.006180 0.000000 0.001668 0.000000
# 2 -0.002664 0.021767 -0.003773 0.000000 0.002398 0.000001
# 3 -0.006180 -0.003773 0.013463 0.000000 0.015208 0.000000
# 4 0.000000 0.000000 0.000000 0.050441 0.000000 0.028383
# 5 0.001668 0.002398 0.015208 0.000000 0.069415 0.000000
# 6 0.000000 0.000001 0.000000 0.028383 0.000000 0.076232
#
#
# Mechanical properties :
#
#
# Convention : Reuss Voigt Hill
#
# Bulk Modulus (GPa) = 28.87553 46.86262 37.86908
# Shear Modulus (GPa) = 17.08041 23.31505 20.19773
#
# Velocity S-wave (km/s) = 3.21183 3.75251 3.49264
# Velocity P-wave (km/s) = 5.58516 6.86135 6.25588
#
# Compressibility (1/GPa) = 0.03463140
#
# Stress axis : x y z
#
# Youngs Moduli (GPa) = 40.59233 45.94017 74.27525
#
# Poissons Ratio (x) = 0.12240 0.45900
# Poissons Ratio (y) = 0.10815 0.28026
# Poissons Ratio (z) = 0.25085 0.17334
#
# Static dielectric constant tensor:
#      x y z
#    x 2.618100 0.000000 -0.256680 
#    y 0.000000 2.970390 0.000000 
#    z -0.256680 0.000000 3.848970 
# 
# 
# High freq. dielectric constant tensor:
#      x y z
#    x 1.563560 0.000000 -0.036210 
#    y 0.000000 1.639590 0.000000 
#    z -0.036210 0.000000 1.655680 
# 
# From -- ./inp_files/348637.got.cif
#   From: 2010.06.25/outbox.cif.g09.slc.cpg/sg12_175_cif.got.tgz:348637.got - 2010.06.28 00:19:55.
