data_PCOD8078849
_publ_section_title
;
Structure prediction by ZEFSAII (Michael W. Deem and Ramdas Pophale) SiO2 
 PCOD8078849
Probable space group: C 2/M
;
_chemical_formula_sum "Si O2"
_cell_formula_units_Z 40
_cell_length_a 23.168947
_cell_length_b 19.332373
_cell_length_c 9.039439
_cell_angle_alpha 90.000000
_cell_angle_beta 40.698381
_cell_angle_gamma 90.000000
_cell_volume 2640.169501
_symmetry_space_group_name_H-M "C 2/M"
_symmetry_group_IT_number 12
_symmetry_cell_setting 'monoclinic'
loop_
_space_group_symop_operation_xyz
x,y,z
-x,y,-z
-x,-y,-z
x,-y,z
1/2+x,1/2+y,z
1/2-x,1/2+y,-z
1/2-x,1/2-y,-z
1/2+x,1/2-y,z
loop_
_atom_site_type_symbol
_atom_site_label
_atom_site_fract_x
_atom_site_fract_y
_atom_site_fract_z
Si Si1 0.772101 0.718448 0.298171
Si Si2 0.412363 0.305255 0.861840
Si Si3 0.203791 0.922673 0.424771
Si Si4 0.418652 0.576754 0.067416
Si Si5 0.113806 0.186565 0.425330
O O1 0.750000 0.750000 0.500000
O O2 0.783246 0.634106 0.279589
O O3 0.686788 0.736506 0.360318
O O4 0.862491 0.747444 0.055000
O O5 0.371888 0.310232 0.777608
O O6 0.516213 0.286934 0.657776
O O7 0.395328 0.379269 0.969091
O O8 0.165929 0.926575 0.663158
O O9 0.129504 0.892513 0.454236
O O10 0.234610 0.000000 0.314712
O O11 0.446392 0.500000 0.960192
O O12 0.500000 0.611084 0.000000
#
# Coordination Sequence:
#
# PCOD8078849 Si02
#       5
#     8   8   8   8   8
#     4  10  19  32  51  70  95 131 163 199 238 288
#     4  11  18  32  48  72 102 128 161 199 243 286
#     4   9  18  32  46  69 100 126 159 197 237 289
#     4  10  17  27  44  68 101 131 159 191 233 294
#     4   9  21  30  47  73 101 126 159 198 244 290
#
# _framework density 15.150541
#
# number of rings (size 3 to 8) (size 9 to 14) (size 15 to 20)
#    1.200    1.000    4.000    0.600    0.000    0.800 
#    0.000    2.000    0.000    0.000    0.000    7.000 
#    0.000    0.000    0.000    0.000    0.000    0.000 
#
# Total GULP energy -247762.831204 kJ/mol
# GULP energy per Si atom -12388.141560 kJ/mol
# Density = 1.511606 g / cm^3
# Si number density = 15.150541 Si / 1000 Ang^3
#
#
#
# Elastic Constant Matrix: (Units=GPa)
#
#
# Indices 1 2 3 4 5 6 
#
# 1 78.7716 39.7861 33.4009 0.0000 11.7499 0.0000
# 2 39.7861 98.4235 48.8263 0.0000 -1.6012 0.0000
# 3 33.4009 48.8263 84.7801 0.0000 11.5497 0.0000
# 4 0.0000 0.0000 0.0000 16.1985 0.0000 -4.9551
# 5 11.7499 -1.6012 11.5497 0.0000 20.2263 0.0000
# 6 0.0000 0.0000 0.0000 -4.9551 0.0000 22.5171
#
#
#
# Elastic Compliance Matrix: (Units=1/GPa)
#
#
# Indices 1 2 3 4 5 6 
#
# 1 0.018389 -0.006548 -0.002112 0.000000 -0.009995 0.000000
# 2 -0.006548 0.017335 -0.008793 0.000000 0.010197 0.000000
# 3 -0.002112 -0.008793 0.019105 0.000000 -0.010379 0.000000
# 4 0.000000 0.000000 0.000000 0.066190 0.000000 0.014566
# 5 -0.009995 0.010197 -0.010379 0.000000 0.061981 0.000000
# 6 0.000000 0.000000 0.000000 0.014566 0.000000 0.047616
#
#
# Mechanical properties :
#
#
# Convention : Reuss Voigt Hill
#
# Bulk Modulus (GPa) = 50.19334 56.22244 53.20789
# Shear Modulus (GPa) = 18.37139 21.11918 19.74529
#
# Velocity S-wave (km/s) = 3.48600 3.73762 3.61400
# Velocity P-wave (km/s) = 7.02884 7.47102 7.25330
#
# Compressibility (1/GPa) = 0.01992296
#
# Stress axis : x y z
#
# Youngs Moduli (GPa) = 54.38137 57.68605 52.34201
#
# Poissons Ratio (x) = 0.37775 0.11053
# Poissons Ratio (y) = 0.35611 0.46024
# Poissons Ratio (z) = 0.11483 0.50723
#
# Static dielectric constant tensor:
#      x y z
#    x 2.838300 0.000000 0.122800 
#    y 0.000000 2.901270 0.000000 
#    z 0.122800 0.000000 2.811210 
# 
# 
# High freq. dielectric constant tensor:
#      x y z
#    x 1.569240 0.000000 0.018020 
#    y 0.000000 1.563160 0.000000 
#    z 0.018020 0.000000 1.573600 
# 
# From -- ./inp_files/62182.got.cif
#   From: 2010.06.25/outbox.cif.g09.slc.cpg/sg12_32_cif.got.tgz:62182.got - 2010.06.28 00:19:55.
