data_PCOD8078911
_publ_section_title
;
Structure prediction by ZEFSAII (Michael W. Deem and Ramdas Pophale) SiO2 
 PCOD8078911
Probable space group: C 2/M
;
_chemical_formula_sum "Si O2"
_cell_formula_units_Z 48
_cell_length_a 18.619099
_cell_length_b 7.893102
_cell_length_c 19.890426
_cell_angle_alpha 90.000000
_cell_angle_beta 119.957028
_cell_angle_gamma 90.000000
_cell_volume 2532.613896
_symmetry_space_group_name_H-M "C 2/M"
_symmetry_group_IT_number 12
_symmetry_cell_setting 'monoclinic'
loop_
_space_group_symop_operation_xyz
x,y,z
-x,y,-z
-x,-y,-z
x,-y,z
1/2+x,1/2+y,z
1/2-x,1/2+y,-z
1/2-x,1/2-y,-z
1/2+x,1/2-y,z
loop_
_atom_site_type_symbol
_atom_site_label
_atom_site_fract_x
_atom_site_fract_y
_atom_site_fract_z
Si Si1 0.954953 0.500000 0.083508
Si Si2 0.821311 0.812176 0.808852
Si Si3 0.078402 0.701946 0.495832
Si Si4 0.997020 0.184964 0.818629
Si Si5 0.130978 0.500000 0.092006
Si Si6 0.916326 0.693809 0.652375
Si Si7 0.250244 0.802260 0.363220
O O1 0.944067 0.332557 0.124572
O O2 0.044241 0.500000 0.090345
O O3 0.882737 0.500000 0.994280
O O4 0.816777 0.668482 0.864227
O O5 0.754879 0.769898 0.719441
O O6 0.910963 0.809267 0.817371
O O7 0.804295 0.000000 0.831886
O O8 0.078621 0.500000 0.496208
O O9 0.074302 0.771200 0.417795
O O10 0.161877 0.768657 0.570397
O O11 0.000000 0.774212 0.500000
O O12 0.978300 0.207497 0.730923
O O13 0.039233 0.000000 0.848726
O O14 0.944640 0.500000 0.666839
O O15 0.821015 0.702951 0.630636
O O16 0.238184 0.000000 0.373463
#
# Coordination Sequence:
#
# PCOD8078911 Si02
#       7
#     4   8   8   8   4   8   8
#     4   9  16  26  38  64  91 122 158 182 238 295
#     4   8  15  25  39  61  86 120 158 190 231 279
#     4   9  18  31  46  67  96 128 158 205 247 287
#     4   9  16  27  42  61  90 123 157 197 232 279
#     4   9  16  24  40  60  93 124 148 192 234 287
#     4  10  17  27  47  69  90 125 170 202 236 285
#     4   9  17  29  46  67  90 124 168 201 236 286
#
# _framework density 18.952750000000002
#
# number of rings (size 3 to 8) (size 9 to 14) (size 15 to 20)
#    0.000    3.000    0.833    2.000    3.500    0.667 
#    0.000    4.167    0.000    4.500    0.000    0.000 
#    0.000    1.333    0.667    0.000    0.000    0.000 
#
# Total GULP energy -297491.772429 kJ/mol
# GULP energy per Si atom -12395.490518 kJ/mol
# Density = 1.890961 g / cm^3
# Si number density = 18.952750 Si / 1000 Ang^3
#
#
#
# Elastic Constant Matrix: (Units=GPa)
#
#
# Indices 1 2 3 4 5 6 
#
# 1 38.5414 13.5238 36.2420 0.0000 -5.6258 0.0000
# 2 13.5238 118.2521 76.5970 0.0000 -4.8283 0.0000
# 3 36.2420 76.5970 164.2210 0.0000 -11.8962 0.0000
# 4 0.0000 0.0000 0.0000 24.1769 0.0000 0.3039
# 5 -5.6258 -4.8283 -11.8962 0.0000 3.7567 0.0000
# 6 0.0000 0.0000 0.0000 0.3039 0.0000 7.1492
#
#
#
# Elastic Compliance Matrix: (Units=1/GPa)
#
#
# Indices 1 2 3 4 5 6 
#
# 1 0.036564 0.001169 -0.005891 0.000000 0.037604 0.000000
# 2 0.001169 0.012181 -0.006072 0.000000 -0.001819 0.000000
# 3 -0.005891 -0.006072 0.011701 0.000000 0.020429 0.000000
# 4 0.000000 0.000000 0.000000 0.041384 0.000000 -0.001759
# 5 0.037604 -0.001819 0.020429 0.000000 0.384854 0.000000
# 6 0.000000 0.000000 0.000000 -0.001759 0.000000 0.139951
#
#
# Mechanical properties :
#
#
# Convention : Reuss Voigt Hill
#
# Bulk Modulus (GPa) = 25.73281 63.74890 44.74086
# Shear Modulus (GPa) = 7.56230 19.99335 13.77783
#
# Velocity S-wave (km/s) = 1.99969 3.25145 2.69914
# Velocity P-wave (km/s) = 4.35184 6.91409 5.77681
#
# Compressibility (1/GPa) = 0.03886089
#
# Stress axis : x y z
#
# Youngs Moduli (GPa) = 27.34926 82.09308 85.46148
#
# Poissons Ratio (x) = -0.09600 0.50343
# Poissons Ratio (y) = -0.03198 0.51888
# Poissons Ratio (z) = 0.16111 0.49843
#
# Static dielectric constant tensor:
#      x y z
#    x 2.894310 0.000000 -0.030240 
#    y 0.000000 3.594260 0.000000 
#    z -0.030240 0.000000 3.671750 
# 
# 
# High freq. dielectric constant tensor:
#      x y z
#    x 1.660300 0.000000 -0.003780 
#    y 0.000000 1.738060 0.000000 
#    z -0.003780 0.000000 1.741690 
# 
# From -- ./inp_files/274655.got.cif
#   From: 2010.06.25/outbox.cif.g09.slc.cpg/sg12_138_cif.got.tgz:274655.got - 2010.06.28 00:19:55.
