data_PCOD8078039
_publ_section_title
;
Structure prediction by ZEFSAII (Michael W. Deem and Ramdas Pophale) SiO2 
 PCOD8078039
Probable space group: C 2/M
;
_chemical_formula_sum "Si O2"
_cell_formula_units_Z 40
_cell_length_a 5.168949
_cell_length_b 13.793077
_cell_length_c 32.334665
_cell_angle_alpha 90.000000
_cell_angle_beta 55.281676
_cell_angle_gamma 90.000000
_cell_volume 1894.887713
_symmetry_space_group_name_H-M "C 2/M"
_symmetry_group_IT_number 12
_symmetry_cell_setting 'monoclinic'
loop_
_space_group_symop_operation_xyz
x,y,z
-x,y,-z
-x,-y,-z
x,-y,z
1/2+x,1/2+y,z
1/2-x,1/2+y,-z
1/2-x,1/2-y,-z
1/2+x,1/2-y,z
loop_
_atom_site_type_symbol
_atom_site_label
_atom_site_fract_x
_atom_site_fract_y
_atom_site_fract_z
Si Si1 0.185793 0.000000 0.811144
Si Si2 0.877602 0.315413 0.741289
Si Si3 0.046357 0.500000 0.123771
Si Si4 0.841558 0.190901 0.630891
Si Si5 0.827490 0.859823 0.478253
Si Si6 0.780557 0.189144 0.058373
O O1 0.260755 0.903931 0.778943
O O2 0.404384 0.000000 0.831601
O O3 0.818339 0.000000 0.855619
O O4 0.573569 0.261521 0.750482
O O5 0.095959 0.360197 0.684595
O O6 0.213832 0.593486 0.090026
O O7 0.654016 0.281643 0.628065
O O8 0.953114 0.126949 0.582091
O O9 0.500000 0.914265 0.500000
O O10 0.750000 0.750000 0.500000
O O11 0.000000 0.914256 0.500000
O O12 0.454426 0.234638 0.072358
O O13 0.000000 0.160379 0.000000
#
# Coordination Sequence:
#
# PCOD8078039 Si02
#       6
#     4   8   4   8   8   8
#     4  12  26  42  61  90 120 161 210 260 303 342
#     4  10  23  40  60  82 114 153 202 251 301 362
#     4  12  25  40  66  92 124 165 210 250 305 352
#     4  10  16  27  44  69 101 136 176 224 286 347
#     4  10  14  20  36  65 101 123 161 225 268 340
#     4  10  22  41  65  97 133 167 203 246 300 360
#
# _framework density 21.109428999999999
#
# number of rings (size 3 to 8) (size 9 to 14) (size 15 to 20)
#    0.000    1.600    4.000    2.700    0.000    4.800 
#    0.000    4.000    0.000    0.000    0.000    1.400 
#    0.000    0.000    0.000    0.000    0.000    0.000 
#
# Total GULP energy -247878.253865 kJ/mol
# GULP energy per Si atom -12393.912693 kJ/mol
# Density = 2.106138 g / cm^3
# Si number density = 21.109429 Si / 1000 Ang^3
#
#
#
# Elastic Constant Matrix: (Units=GPa)
#
#
# Indices 1 2 3 4 5 6 
#
# 1 131.7059 5.0595 25.9548 0.0064 9.7057 0.0164
# 2 5.0595 75.4918 57.4217 0.0004 5.6588 0.0024
# 3 25.9548 57.4217 115.2905 0.0146 7.7029 0.0186
# 4 0.0064 0.0004 0.0146 -114.0585 0.0002 -23.3824
# 5 9.7057 5.6588 7.7029 0.0002 36.4825 -0.0124
# 6 0.0164 0.0024 0.0186 -23.3824 -0.0124 4.2714
#
#
#
# Elastic Compliance Matrix: (Units=1/GPa)
#
#
# Indices 1 2 3 4 5 6 
#
# 1 0.008154 0.001441 -0.002428 0.000003 -0.001880 -0.000012
# 2 0.001441 0.021622 -0.010999 -0.000003 -0.001415 0.000009
# 3 -0.002428 -0.010999 0.014749 0.000006 -0.000762 -0.000020
# 4 0.000003 -0.000003 0.000006 -0.004131 -0.000009 -0.022615
# 5 -0.001880 -0.001415 -0.000762 -0.000009 0.028291 0.000044
# 6 -0.000012 0.000009 -0.000020 -0.022615 0.000044 0.110315
#
#
# Mechanical properties :
#
#
# Convention : Reuss Voigt Hill
#
# Bulk Modulus (GPa) = 48.65139 55.48447 52.06793
# Shear Modulus (GPa) = 23.82945 0.94259 12.38602
#
# Velocity S-wave (km/s) = 3.36349 0.66895 2.42493
# Velocity P-wave (km/s) = 6.17910 5.19018 5.70610
#
# Compressibility (1/GPa) = 0.02055440
#
# Stress axis : x y z
#
# Youngs Moduli (GPa) = 122.63414 46.24865 67.79899
#
# Poissons Ratio (x) = -0.06665 0.16461
# Poissons Ratio (y) = -0.17674 0.74573
# Poissons Ratio (z) = 0.29775 0.50869
#
# Static dielectric constant tensor:
#      x y z
#    x 6.408360 0.000170 0.136610 
#    y 0.000170 3.314230 0.000010 
#    z 0.136610 0.000010 4.087350 
# 
# 
# High freq. dielectric constant tensor:
#      x y z
#    x 1.857750 0.000000 0.002980 
#    y 0.000000 1.789570 0.000000 
#    z 0.002980 0.000000 1.841620 
# 
# From -- ./inp_files/371421.got.cif
#   From: 2010.06.25/outbox.cif.g09.slc.cpg/sg12_186_cif.got.tgz:371421.got - 2010.06.28 00:19:55.
