data_PCOD8078701
_publ_section_title
;
Structure prediction by ZEFSAII (Michael W. Deem and Ramdas Pophale) SiO2 
 PCOD8078701
Probable space group: C 2/M
;
_chemical_formula_sum "Si O2"
_cell_formula_units_Z 64
_cell_length_a 15.777210
_cell_length_b 17.598334
_cell_length_c 17.479676
_cell_angle_alpha 90.000000
_cell_angle_beta 128.294602
_cell_angle_gamma 90.000000
_cell_volume 3809.021017
_symmetry_space_group_name_H-M "C 2/M"
_symmetry_group_IT_number 12
_symmetry_cell_setting 'monoclinic'
loop_
_space_group_symop_operation_xyz
x,y,z
-x,y,-z
-x,-y,-z
x,-y,z
1/2+x,1/2+y,z
1/2-x,1/2+y,-z
1/2-x,1/2-y,-z
1/2+x,1/2-y,z
loop_
_atom_site_type_symbol
_atom_site_label
_atom_site_fract_x
_atom_site_fract_y
_atom_site_fract_z
Si Si1 0.604399 0.823084 0.436854
Si Si2 0.115454 0.588120 0.039324
Si Si3 0.112533 0.587997 0.704248
Si Si4 0.062159 0.587142 0.844076
Si Si5 0.793853 0.088991 0.253786
Si Si6 0.343337 0.832416 0.702693
Si Si7 0.531078 0.689244 0.596987
Si Si8 0.289023 0.193660 0.350324
O O1 0.503274 0.880074 0.386937
O O2 0.669781 0.839703 0.395846
O O3 0.566921 0.733824 0.415932
O O4 0.688088 0.839935 0.552304
O O5 0.112074 0.500000 0.059786
O O6 0.215245 0.622820 0.143297
O O7 0.000000 0.624274 0.000000
O O8 0.136299 0.600931 0.960419
O O9 0.115036 0.500000 0.685931
O O10 0.211984 0.626566 0.713609
O O11 0.129966 0.603092 0.805001
O O12 0.018293 0.500000 0.819381
O O13 0.963004 0.645151 0.795453
O O14 0.741882 0.109754 0.306749
O O15 0.910557 0.130357 0.312587
O O16 0.813699 0.000000 0.256974
O O17 0.319612 0.744736 0.713947
O O18 0.500000 0.646398 0.500000
O O19 0.610568 0.754861 0.614854
#
# Coordination Sequence:
#
# PCOD8078701 Si02
#       8
#     8   8   8   8   8   8   8   8
#     4   9  17  29  44  60  82 116 149 176 212 254
#     4   9  15  25  42  64  92 115 137 173 221 270
#     4   9  17  28  44  63  84 109 141 182 224 260
#     4   9  16  27  44  66  87 110 138 173 219 262
#     4  10  18  27  44  68  89 114 144 175 216 258
#     4  10  17  26  43  62  85 112 144 179 210 254
#     4   8  16  30  44  59  85 120 151 174 203 252
#     4   9  17  28  42  61  84 115 149 176 212 260
#
# _framework density 16.802216999999999
#
# number of rings (size 3 to 8) (size 9 to 14) (size 15 to 20)
#    0.000    2.875    1.250    1.875    0.000    1.750 
#    0.000    0.000    0.000   14.250    0.000    0.000 
#    0.000    0.000    0.000   26.500    0.000    2.000 
#
# Total GULP energy -396506.427905 kJ/mol
# GULP energy per Si atom -12390.825872 kJ/mol
# Density = 1.676397 g / cm^3
# Si number density = 16.802217 Si / 1000 Ang^3
#
#
#
# Elastic Constant Matrix: (Units=GPa)
#
#
# Indices 1 2 3 4 5 6 
#
# 1 50.9318 30.9170 31.9967 0.0000 -14.9801 0.0000
# 2 30.9170 69.9252 40.9162 0.0000 -6.8699 0.0000
# 3 31.9967 40.9162 107.8289 0.0000 -13.8543 0.0000
# 4 0.0000 0.0000 0.0000 18.3022 0.0000 0.8906
# 5 -14.9801 -6.8699 -13.8543 0.0000 20.5102 0.0000
# 6 0.0000 0.0000 0.0000 0.8906 0.0000 24.0650
#
#
#
# Elastic Compliance Matrix: (Units=1/GPa)
#
#
# Indices 1 2 3 4 5 6 
#
# 1 0.034171 -0.011235 -0.003453 0.000000 0.018862 0.000000
# 2 -0.011235 0.022123 -0.005654 0.000000 -0.004615 0.000000
# 3 -0.003453 -0.005654 0.013005 0.000000 0.004369 0.000000
# 4 0.000000 0.000000 0.000000 0.054737 0.000000 -0.002026
# 5 0.018862 -0.004615 0.004369 0.000000 0.063938 0.000000
# 6 0.000000 0.000000 0.000000 -0.002026 0.000000 0.041629
#
#
# Mechanical properties :
#
#
# Convention : Reuss Voigt Hill
#
# Bulk Modulus (GPa) = 34.94555 48.48286 41.71420
# Shear Modulus (GPa) = 17.86821 20.89922 19.38372
#
# Velocity S-wave (km/s) = 3.26459 3.53063 3.40021
# Velocity P-wave (km/s) = 5.92059 6.74820 6.34789
#
# Compressibility (1/GPa) = 0.02861595
#
# Stress axis : x y z
#
# Youngs Moduli (GPa) = 29.26448 45.20090 76.89100
#
# Poissons Ratio (x) = 0.50783 0.26552
# Poissons Ratio (y) = 0.32878 0.43474
# Poissons Ratio (z) = 0.10106 0.25556
#
# Static dielectric constant tensor:
#      x y z
#    x 3.148100 0.000000 -0.190920 
#    y 0.000000 3.094350 0.000000 
#    z -0.190920 0.000000 3.294580 
# 
# 
# High freq. dielectric constant tensor:
#      x y z
#    x 1.622710 0.000000 -0.023480 
#    y 0.000000 1.621840 0.000000 
#    z -0.023480 0.000000 1.638690 
# 
# From -- ./inp_files/278415.got.cif
#   From: 2010.06.25/outbox.cif.g09.slc.cpg/sg12_140_cif.got.tgz:278415.got - 2010.06.28 00:19:55.
