data_PCOD8078018
_publ_section_title
;
Structure prediction by ZEFSAII (Michael W. Deem and Ramdas Pophale) SiO2 
 PCOD8078018
Probable space group: P 21/M
;
_chemical_formula_sum "Si O2"
_cell_formula_units_Z 20
_cell_length_a 18.000000
_cell_length_b 9.000000
_cell_length_c 12.000000
_cell_angle_alpha 90.000000
_cell_angle_beta 30.000000
_cell_angle_gamma 90.000000
_cell_volume 972.000000
_symmetry_space_group_name_H-M "P 21/M"
_symmetry_group_IT_number 11
_symmetry_cell_setting 'monoclinic'
loop_
_space_group_symop_operation_xyz
x,y,z
-x,1/2+y,-z
-x,-y,-z
x,1/2-y,z
loop_
_atom_site_type_symbol
_atom_site_label
_atom_site_fract_x
_atom_site_fract_y
_atom_site_fract_z
Si Si1 0.254171 0.090019 0.912360
Si Si2 0.863076 0.079234 0.123968
Si Si3 0.549197 0.078504 0.629175
Si Si4 0.576069 0.077034 0.000631
Si Si5 0.148779 0.414278 0.299417
O O1 0.225122 0.250000 0.891859
O O2 0.431170 0.056247 0.681865
O O3 0.156323 0.965323 0.979481
O O4 0.204042 0.098511 0.103129
O O5 0.896009 0.250000 0.089877
O O6 0.711775 0.030751 0.379880
O O7 0.000000 0.000000 0.000000
O O8 0.544734 0.250000 0.676855
O O9 0.508712 0.964779 0.777565
O O10 0.576992 0.250000 0.983516
O O11 0.500000 0.000000 0.000000
O O12 0.741458 0.016934 0.774943
O O13 0.136279 0.250000 0.368932
O O14 0.000000 0.500000 0.500000
#
# Coordination Sequence:
#
# PCOD8078018 Si02
#       5
#     4   4   4   4   4
#     4   9  19  37  59  81 109 143 182 228 276 327
#     4  11  23  37  56  82 113 146 182 227 278 329
#     4   9  20  39  59  81 110 145 185 230 277 330
#     4  11  22  37  59  85 113 148 188 233 281 333
#     4  10  21  38  59  85 116 150 187 230 278 331
#
# _framework density 20.576132000000001
#
# number of rings (size 3 to 8) (size 9 to 14) (size 15 to 20)
#    0.000    2.000    0.000    4.800    0.000    7.200 
#    0.000    2.000    0.000    0.000    0.000    0.000 
#    0.000    0.000    0.000    0.000    0.000    0.000 
#
# Total GULP energy -247838.345097 kJ/mol
# GULP energy per Si atom -12391.917255 kJ/mol
# Density = 2.052930 g / cm^3
# Si number density = 20.576132 Si / 1000 Ang^3
#
#
#
# Elastic Constant Matrix: (Units=GPa)
#
#
# Indices 1 2 3 4 5 6 
#
# 1 100.9234 64.3687 41.7672 0.0000 -36.2235 0.0000
# 2 64.3687 104.7487 39.3136 0.0000 -12.9935 0.0000
# 3 41.7672 39.3136 59.0973 0.0000 -35.3485 0.0000
# 4 0.0000 0.0000 0.0000 29.0714 0.0000 -3.6922
# 5 -36.2235 -12.9935 -35.3485 0.0000 16.4862 0.0000
# 6 0.0000 0.0000 0.0000 -3.6922 0.0000 35.7355
#
#
#
# Elastic Compliance Matrix: (Units=1/GPa)
#
#
# Indices 1 2 3 4 5 6 
#
# 1 0.010276 -0.001123 -0.022869 0.000000 -0.027340 0.000000
# 2 -0.001123 0.009892 0.009202 0.000000 0.025058 0.000000
# 3 -0.022869 0.009202 -0.004408 0.000000 -0.052447 0.000000
# 4 0.000000 0.000000 0.000000 0.034855 0.000000 0.003601
# 5 -0.027340 0.025058 -0.052447 0.000000 -0.092120 0.000000
# 6 0.000000 0.000000 0.000000 0.003601 0.000000 0.028355
#
#
# Mechanical properties :
#
#
# Convention : Reuss Voigt Hill
#
# Bulk Modulus (GPa) = -72.35291 61.74091 -5.30600
# Shear Modulus (GPa) = 422.87713 24.21328 223.54521
#
# Velocity S-wave (km/s) = 14.35146 3.43412 10.43450
# Velocity P-wave (km/s) = 15.47189 6.76724 11.94100
#
# Compressibility (1/GPa) = -0.01382114
#
# Stress axis : x y z
#
# Youngs Moduli (GPa) = 97.31311 101.09598 -226.84713
#
# Poissons Ratio (x) = 0.11354 -5.18775
# Poissons Ratio (y) = 0.10930 2.08740
# Poissons Ratio (z) = 2.22545 -0.93026
#
# Static dielectric constant tensor:
#      x y z
#    x 3.530540 0.000000 -0.205780 
#    y 0.000000 3.707330 0.000000 
#    z -0.205780 0.000000 3.451340 
# 
# 
# High freq. dielectric constant tensor:
#      x y z
#    x 1.782450 0.000000 -0.016340 
#    y 0.000000 1.804790 0.000000 
#    z -0.016340 0.000000 1.790030 
# 
# From -- ./inp_files/15943.got.cif
#   From: 2010.06.25/outbox.ucp.g09.slc.cvg/sg11_8_cif.got.tgz:15943.got - 2010.06.28 13:43:20.
