data_PCOD8078612
_publ_section_title
;
Structure prediction by ZEFSAII (Michael W. Deem and Ramdas Pophale) SiO2 
 PCOD8078612
Probable space group: C 2/M
;
_chemical_formula_sum "Si O2"
_cell_formula_units_Z 48
_cell_length_a 17.569253
_cell_length_b 13.613499
_cell_length_c 9.686180
_cell_angle_alpha 90.000000
_cell_angle_beta 94.768487
_cell_angle_gamma 90.000000
_cell_volume 2308.712098
_symmetry_space_group_name_H-M "C 2/M"
_symmetry_group_IT_number 12
_symmetry_cell_setting 'monoclinic'
loop_
_space_group_symop_operation_xyz
x,y,z
-x,y,-z
-x,-y,-z
x,-y,z
1/2+x,1/2+y,z
1/2-x,1/2+y,-z
1/2-x,1/2-y,-z
1/2+x,1/2-y,z
loop_
_atom_site_type_symbol
_atom_site_label
_atom_site_fract_x
_atom_site_fract_y
_atom_site_fract_z
Si Si1 0.169804 0.884150 0.546183
Si Si2 0.911311 0.390077 0.991268
Si Si3 0.547883 0.387396 0.739986
Si Si4 0.841898 0.802710 0.037588
Si Si5 0.778730 0.611502 0.792452
Si Si6 0.122127 0.882976 0.245686
O O1 0.097567 0.839870 0.621820
O O2 0.249641 0.854839 0.636009
O O3 0.169842 0.848176 0.388202
O O4 0.159232 0.000000 0.541976
O O5 0.898886 0.500000 0.050875
O O6 0.870686 0.307952 0.078804
O O7 0.870409 0.383676 0.831855
O O8 0.000000 0.364736 0.000000
O O9 0.533530 0.500000 0.703927
O O10 0.596196 0.376630 0.887542
O O11 0.463904 0.341403 0.745765
O O12 0.758718 0.820401 0.092606
O O13 0.839154 0.824689 0.873890
O O14 0.749043 0.500000 0.811219
O O15 0.125469 0.000000 0.220235
#
# Coordination Sequence:
#
# PCOD8078612 Si02
#       6
#     8   8   8   8   8   8
#     4   8  15  27  43  66 100 138 166 189 231 299
#     4  10  21  36  53  72  95 130 176 215 243 282
#     4   9  16  26  42  68 105 141 164 190 238 300
#     4  11  19  30  49  76 102 124 158 210 258 289
#     4   9  18  34  54  76 103 131 159 198 251 303
#     4  10  17  25  42  72 106 135 162 194 240 300
#
# _framework density 20.790813
#
# number of rings (size 3 to 8) (size 9 to 14) (size 15 to 20)
#    0.000    2.500    0.000    5.000    0.000    3.333 
#    0.000    0.833    0.000    0.000    0.000    8.167 
#    0.000   36.000    0.000    0.000    0.000    0.000 
#
# Total GULP energy -297332.572350 kJ/mol
# GULP energy per Si atom -12388.857181 kJ/mol
# Density = 2.074349 g / cm^3
# Si number density = 20.790813 Si / 1000 Ang^3
#
#
#
# Elastic Constant Matrix: (Units=GPa)
#
#
# Indices 1 2 3 4 5 6 
#
# 1 131.0297 25.8456 52.4915 0.0000 26.5935 0.0000
# 2 25.8456 63.1292 14.7160 0.0000 -6.3109 0.0000
# 3 52.4915 14.7160 142.2093 0.0000 13.4993 0.0000
# 4 0.0000 0.0000 0.0000 9.0827 0.0000 -2.8149
# 5 26.5935 -6.3109 13.4993 0.0000 22.5286 0.0000
# 6 0.0000 0.0000 0.0000 -2.8149 0.0000 16.8266
#
#
#
# Elastic Compliance Matrix: (Units=1/GPa)
#
#
# Indices 1 2 3 4 5 6 
#
# 1 0.013141 -0.006313 -0.002711 0.000000 -0.015655 0.000000
# 2 -0.006313 0.020037 -0.001043 0.000000 0.013690 0.000000
# 3 -0.002711 -0.001043 0.008339 0.000000 -0.002089 0.000000
# 4 0.000000 0.000000 0.000000 0.116120 0.000000 0.019426
# 5 -0.015655 0.013690 -0.002089 0.000000 0.067954 0.000000
# 6 0.000000 0.000000 0.000000 0.019426 0.000000 0.062680
#
#
# Mechanical properties :
#
#
# Convention : Reuss Voigt Hill
#
# Bulk Modulus (GPa) = 46.76686 58.05270 52.40978
# Shear Modulus (GPa) = 15.84631 25.90858 20.87745
#
# Velocity S-wave (km/s) = 2.76375 3.53392 3.17230
# Velocity P-wave (km/s) = 5.72078 6.68090 6.21939
#
# Compressibility (1/GPa) = 0.02138266
#
# Stress axis : x y z
#
# Youngs Moduli (GPa) = 76.10059 49.90849 119.92261
#
# Poissons Ratio (x) = 0.31507 0.32511
# Poissons Ratio (y) = 0.48042 0.12505
# Poissons Ratio (z) = 0.20631 0.05204
#
# Static dielectric constant tensor:
#      x y z
#    x 3.826740 0.000000 0.350590 
#    y 0.000000 3.732020 0.000000 
#    z 0.350590 0.000000 3.801120 
# 
# 
# High freq. dielectric constant tensor:
#      x y z
#    x 1.815360 0.000000 0.033180 
#    y 0.000000 1.799840 0.000000 
#    z 0.033180 0.000000 1.790410 
# 
# From -- ./inp_files/73629.got.cif
#   From: 2010.06.25/outbox.cif.g09.slc.cpg/sg12_37_cif.got.tgz:73629.got - 2010.06.28 00:19:55.
