data_PCOD8078610
_publ_section_title
;
Structure prediction by ZEFSAII (Michael W. Deem and Ramdas Pophale) SiO2 
 PCOD8078610
Probable space group: C 2/M
;
_chemical_formula_sum "Si O2"
_cell_formula_units_Z 48
_cell_length_a 14.412236
_cell_length_b 8.931452
_cell_length_c 28.711376
_cell_angle_alpha 90.000000
_cell_angle_beta 142.296385
_cell_angle_gamma 90.000000
_cell_volume 2260.260816
_symmetry_space_group_name_H-M "C 2/M"
_symmetry_group_IT_number 12
_symmetry_cell_setting 'monoclinic'
loop_
_space_group_symop_operation_xyz
x,y,z
-x,y,-z
-x,-y,-z
x,-y,z
1/2+x,1/2+y,z
1/2-x,1/2+y,-z
1/2-x,1/2-y,-z
1/2+x,1/2-y,z
loop_
_atom_site_type_symbol
_atom_site_label
_atom_site_fract_x
_atom_site_fract_y
_atom_site_fract_z
Si Si1 0.838225 0.677463 0.415836
Si Si2 0.956277 0.322610 0.680976
Si Si3 0.406039 0.674431 0.862316
Si Si4 0.196904 0.673615 0.701067
Si Si5 0.166205 0.174752 0.831639
Si Si6 0.146049 0.833005 0.024408
O O1 0.815839 0.500000 0.409372
O O2 0.709583 0.756379 0.395977
O O3 0.000000 0.726478 0.500000
O O4 0.818894 0.746441 0.356030
O O5 0.951907 0.500000 0.682205
O O6 0.067310 0.264081 0.684198
O O7 0.013801 0.257255 0.753588
O O8 0.367801 0.500000 0.859982
O O9 0.300329 0.784150 0.849739
O O10 0.581515 0.709225 0.946590
O O11 0.364576 0.700895 0.791185
O O12 0.165978 0.500000 0.681484
O O13 0.132457 0.000000 0.819263
O O14 0.218667 0.224939 0.904529
O O15 0.213444 0.000000 0.051123
O O16 0.000000 0.822414 0.000000
#
# Coordination Sequence:
#
# PCOD8078610 Si02
#       6
#     8   8   8   8   8   8
#     4  10  21  37  57  82 109 134 165 212 268 317
#     4  10  20  36  56  76 103 141 180 213 251 309
#     4   8  14  26  44  66  97 139 179 210 247 302
#     4   8  16  33  55  77 105 142 176 208 256 312
#     4  10  17  25  42  70 102 134 170 215 262 302
#     4   8  13  22  38  63  96 134 175 213 249 296
#
# _framework density 21.236488000000001
#
# number of rings (size 3 to 8) (size 9 to 14) (size 15 to 20)
#    0.000    3.000    0.000    4.000    0.000    4.000 
#    0.000    4.167    0.000    1.000    0.000    0.000 
#    0.000    0.000    0.000    0.000    0.000    0.000 
#
# Total GULP energy -297356.483619 kJ/mol
# GULP energy per Si atom -12389.853484 kJ/mol
# Density = 2.118815 g / cm^3
# Si number density = 21.236488 Si / 1000 Ang^3
#
#
#
# Elastic Constant Matrix: (Units=GPa)
#
#
# Indices 1 2 3 4 5 6 
#
# 1 17.6444 3.1468 20.9559 0.0000 -4.4318 0.0000
# 2 3.1468 67.6271 28.6834 0.0000 6.0422 0.0000
# 3 20.9559 28.6834 129.4616 0.0000 -3.9424 0.0000
# 4 0.0000 0.0000 0.0000 28.8608 0.0000 8.1770
# 5 -4.4318 6.0422 -3.9424 0.0000 34.0557 0.0000
# 6 0.0000 0.0000 0.0000 8.1770 0.0000 12.9784
#
#
#
# Elastic Compliance Matrix: (Units=1/GPa)
#
#
# Indices 1 2 3 4 5 6 
#
# 1 0.072362 0.000874 -0.011666 0.000000 0.007911 0.000000
# 2 0.000874 0.016715 -0.003946 0.000000 -0.003309 0.000000
# 3 -0.011666 -0.003946 0.010499 0.000000 0.000397 0.000000
# 4 0.000000 0.000000 0.000000 0.042178 0.000000 -0.026574
# 5 0.007911 -0.003309 0.000397 0.000000 0.031026 0.000000
# 6 0.000000 0.000000 0.000000 -0.026574 0.000000 0.093794
#
#
# Mechanical properties :
#
#
# Convention : Reuss Voigt Hill
#
# Bulk Modulus (GPa) = 14.26512 35.58947 24.92730
# Shear Modulus (GPa) = 15.65354 25.97545 20.81449
#
# Velocity S-wave (km/s) = 2.71791 3.50115 3.13410
# Velocity P-wave (km/s) = 4.07201 5.75666 4.98600
#
# Compressibility (1/GPa) = 0.07010106
#
# Stress axis : x y z
#
# Youngs Moduli (GPa) = 13.81943 59.82493 95.24752
#
# Poissons Ratio (x) = -0.05229 1.11115
# Poissons Ratio (y) = -0.01208 0.37582
# Poissons Ratio (z) = 0.16122 0.23605
#
# Static dielectric constant tensor:
#      x y z
#    x 3.492850 0.000000 -0.184310 
#    y 0.000000 3.428170 0.000000 
#    z -0.184310 0.000000 4.443580 
# 
# 
# High freq. dielectric constant tensor:
#      x y z
#    x 1.798080 0.000000 -0.002100 
#    y 0.000000 1.800040 0.000000 
#    z -0.002100 0.000000 1.850810 
# 
# From -- ./inp_files/360326.got.cif
#   From: 2010.06.25/outbox.cif.g09.slc.cpg/sg12_181_cif.got.tgz:360326.got - 2010.06.28 00:19:55.
