data_PCOD8078481
_publ_section_title
;
Structure prediction by ZEFSAII (Michael W. Deem and Ramdas Pophale) SiO2 
 PCOD8078481
Probable space group: C 2/M
;
_chemical_formula_sum "Si O2"
_cell_formula_units_Z 56
_cell_length_a 18.222066
_cell_length_b 8.994877
_cell_length_c 29.251552
_cell_angle_alpha 90.000000
_cell_angle_beta 140.843658
_cell_angle_gamma 90.000000
_cell_volume 3027.421601
_symmetry_space_group_name_H-M "C 2/M"
_symmetry_group_IT_number 12
_symmetry_cell_setting 'monoclinic'
loop_
_space_group_symop_operation_xyz
x,y,z
-x,y,-z
-x,-y,-z
x,-y,z
1/2+x,1/2+y,z
1/2-x,1/2+y,-z
1/2-x,1/2-y,-z
1/2+x,1/2-y,z
loop_
_atom_site_type_symbol
_atom_site_label
_atom_site_fract_x
_atom_site_fract_y
_atom_site_fract_z
Si Si1 0.075466 0.834337 0.990300
Si Si2 0.395731 0.826176 0.851286
Si Si3 0.714442 0.823136 0.435697
Si Si4 0.136008 0.672201 0.567895
Si Si5 0.042470 0.327740 0.699354
Si Si6 0.718753 0.175237 0.708002
Si Si7 0.748261 0.172702 0.856128
O O1 0.027307 0.727663 0.926973
O O2 0.071279 0.000000 0.968085
O O3 0.208425 0.793620 0.070877
O O4 0.000000 0.821921 0.000000
O O5 0.342777 0.750608 0.780119
O O6 0.315385 0.781694 0.854749
O O7 0.398543 0.000000 0.844769
O O8 0.750000 0.750000 0.500000
O O9 0.803243 0.774802 0.439787
O O10 0.586220 0.758743 0.360793
O O11 0.717235 0.000000 0.441830
O O12 0.162643 0.500000 0.570263
O O13 0.183771 0.720447 0.640228
O O14 0.000000 0.704156 0.500000
O O15 0.025443 0.500000 0.681301
O O16 0.118828 0.263101 0.694148
O O17 0.110538 0.300111 0.780664
O O18 0.733198 0.000000 0.720847
O O19 0.779049 0.000000 0.858756
#
# Coordination Sequence:
#
# PCOD8078481 Si02
#       7
#     8   8   8   8   8   8   8
#     4   8  13  22  37  57  84 121 162 199 234 281
#     4  10  17  23  36  62  96 126 154 195 245 289
#     4  11  22  36  55  78 105 133 164 203 247 298
#     4  10  21  38  58  77  99 130 167 206 250 298
#     4   8  15  30  51  72  94 127 167 203 242 288
#     4   9  17  32  52  69  92 129 169 202 236 290
#     4   8  14  26  42  59  85 124 167 201 233 283
#
# _framework density 18.497589000000001
#
# number of rings (size 3 to 8) (size 9 to 14) (size 15 to 20)
#    0.000    2.857    0.000    4.286    0.000    5.714 
#    0.000    8.571    0.000    0.000    0.000    1.000 
#    0.000    0.000    0.000    0.000    0.000    0.000 
#
# Total GULP energy -346905.522604 kJ/mol
# GULP energy per Si atom -12389.482950 kJ/mol
# Density = 1.845549 g / cm^3
# Si number density = 18.497589 Si / 1000 Ang^3
#
#
#
# Elastic Constant Matrix: (Units=GPa)
#
#
# Indices 1 2 3 4 5 6 
#
# 1 56.6045 27.1281 52.2067 0.0000 -0.9215 -0.0001
# 2 27.1281 72.5928 60.6696 0.0000 -5.5391 -0.0004
# 3 52.2067 60.6696 208.8435 0.0000 -4.0476 0.0000
# 4 0.0000 0.0000 0.0000 19.6921 0.0000 -5.0138
# 5 -0.9215 -5.5391 -4.0476 0.0000 20.6819 0.0000
# 6 -0.0001 -0.0004 0.0000 -5.0138 0.0000 15.7846
#
#
#
# Elastic Compliance Matrix: (Units=1/GPa)
#
#
# Indices 1 2 3 4 5 6 
#
# 1 0.024451 -0.005421 -0.004562 0.000000 -0.001255 0.000000
# 2 -0.005421 0.019705 -0.004288 0.000000 0.004197 0.000000
# 3 -0.004562 -0.004288 0.007175 0.000000 0.000053 0.000000
# 4 0.000000 0.000000 0.000000 0.055250 0.000000 0.017549
# 5 -0.001255 0.004197 0.000053 0.000000 0.049430 0.000000
# 6 0.000000 0.000000 0.000000 0.017549 0.000000 0.068927
#
#
# Mechanical properties :
#
#
# Convention : Reuss Voigt Hill
#
# Bulk Modulus (GPa) = 43.87758 68.67216 56.27487
# Shear Modulus (GPa) = 19.15144 24.43414 21.79279
#
# Velocity S-wave (km/s) = 3.22117 3.63841 3.43613
# Velocity P-wave (km/s) = 6.13244 7.40650 6.79938
#
# Compressibility (1/GPa) = 0.02279068
#
# Stress axis : x y z
#
# Youngs Moduli (GPa) = 40.89739 50.74823 139.36552
#
# Poissons Ratio (x) = 0.27509 0.63578
# Poissons Ratio (y) = 0.22169 0.59760
# Poissons Ratio (z) = 0.18657 0.21761
#
# Static dielectric constant tensor:
#      x y z
#    x 2.953080 0.000000 0.062290 
#    y 0.000000 3.156360 0.000000 
#    z 0.062290 0.000000 4.254520 
# 
# 
# High freq. dielectric constant tensor:
#      x y z
#    x 1.650820 0.000000 -0.000210 
#    y 0.000000 1.695190 0.000000 
#    z -0.000210 0.000000 1.755020 
# 
# From -- ./inp_files/342580.got.cif
#   From: 2010.06.25/outbox.cif.g09.slc.cpg/sg12_172_cif.got.tgz:342580.got - 2010.06.28 00:19:55.
