data_PCOD8078028
_publ_section_title
;
Structure prediction by ZEFSAII (Michael W. Deem and Ramdas Pophale) SiO2 
 PCOD8078028
Probable space group: C 2/M
;
_chemical_formula_sum "Si O2"
_cell_formula_units_Z 52
_cell_length_a 18.243614
_cell_length_b 11.638257
_cell_length_c 21.963125
_cell_angle_alpha 90.000000
_cell_angle_beta 143.177562
_cell_angle_gamma 90.000000
_cell_volume 2794.886250
_symmetry_space_group_name_H-M "C 2/M"
_symmetry_group_IT_number 12
_symmetry_cell_setting 'monoclinic'
loop_
_space_group_symop_operation_xyz
x,y,z
-x,y,-z
-x,-y,-z
x,-y,z
1/2+x,1/2+y,z
1/2-x,1/2+y,-z
1/2-x,1/2-y,-z
1/2+x,1/2-y,z
loop_
_atom_site_type_symbol
_atom_site_label
_atom_site_fract_x
_atom_site_fract_y
_atom_site_fract_z
Si Si1 0.069828 0.254923 0.982213
Si Si2 0.283639 0.747169 0.198747
Si Si3 0.062855 0.224923 0.400053
Si Si4 0.230614 0.134442 0.408076
Si Si5 0.757238 0.500000 0.789695
Si Si6 0.500409 0.500000 0.429462
Si Si7 0.485871 0.000000 0.063155
Si Si8 0.148209 0.866068 0.217034
O O1 0.079567 0.382700 0.958176
O O2 0.993363 0.173306 0.885848
O O3 0.205938 0.203583 0.088710
O O4 0.000000 0.262741 0.000000
O O5 0.428373 0.769000 0.290750
O O6 0.248040 0.612422 0.171149
O O7 0.239108 0.800180 0.232550
O O8 0.133495 0.201098 0.384755
O O9 0.132242 0.322254 0.485450
O O10 0.061051 0.111614 0.440184
O O11 0.195019 0.162954 0.315405
O O12 0.224055 0.000000 0.417314
O O13 0.643018 0.500000 0.671181
O O14 0.872847 0.500000 0.820561
O O15 0.500000 0.500000 0.500000
O O16 0.500000 0.000000 0.000000
O O17 0.155902 0.000000 0.207705
#
# Coordination Sequence:
#
# PCOD8078028 Si02
#       8
#     8   8   8   8   4   4   4   8
#     4   9  16  28  49  79 112 136 172 217 272 313
#     4  10  19  32  53  86 107 135 176 227 273 311
#     4  10  22  38  60  78 108 144 176 226 277 320
#     4  10  22  42  56  74 106 149 187 212 266 336
#     4  10  16  28  48  80 116 130 162 215 279 322
#     4  10  22  32  56  92 112 129 172 234 282 308
#     4  10  12  24  46  74 110 136 159 205 271 320
#     4  10  21  34  54  79 109 146 181 214 254 320
#
# _framework density 18.605408000000001
#
# number of rings (size 3 to 8) (size 9 to 14) (size 15 to 20)
#    0.000    2.154    5.385    0.000    4.308    3.385 
#    0.000    2.308    0.000    0.000    0.000    0.000 
#    0.000    0.000    0.000    0.000    0.000    0.000 
#
# Total GULP energy -322152.158409 kJ/mol
# GULP energy per Si atom -12390.467631 kJ/mol
# Density = 1.856306 g / cm^3
# Si number density = 18.605408 Si / 1000 Ang^3
#
#
#
# Elastic Constant Matrix: (Units=GPa)
#
#
# Indices 1 2 3 4 5 6 
#
# 1 53.1739 22.8375 48.2294 0.0000 11.8764 0.0000
# 2 22.8375 72.4384 47.9160 0.0000 -3.6766 0.0000
# 3 48.2294 47.9160 157.9890 0.0001 27.7093 0.0000
# 4 0.0000 0.0000 0.0001 28.9610 0.0001 2.5355
# 5 11.8764 -3.6766 27.7093 0.0001 24.2163 0.0000
# 6 0.0000 0.0000 0.0000 2.5355 0.0000 18.2401
#
#
#
# Elastic Compliance Matrix: (Units=1/GPa)
#
#
# Indices 1 2 3 4 5 6 
#
# 1 0.027993 -0.005748 -0.005306 0.000000 -0.008530 0.000000
# 2 -0.005748 0.021035 -0.007105 0.000000 0.014143 0.000000
# 3 -0.005306 -0.007105 0.012307 0.000000 -0.012559 0.000000
# 4 0.000000 0.000000 0.000000 0.034955 0.000000 -0.004859
# 5 -0.008530 0.014143 -0.012559 0.000000 0.061995 0.000000
# 6 0.000000 0.000000 0.000000 -0.004859 0.000000 0.055500
#
#
# Mechanical properties :
#
#
# Convention : Reuss Voigt Hill
#
# Bulk Modulus (GPa) = 39.97553 57.95190 48.96372
# Shear Modulus (GPa) = 19.34673 25.25804 22.30238
#
# Velocity S-wave (km/s) = 3.22816 3.68851 3.46599
# Velocity P-wave (km/s) = 5.95208 7.02536 6.51087
#
# Compressibility (1/GPa) = 0.02501530
#
# Stress axis : x y z
#
# Youngs Moduli (GPa) = 35.72345 47.54002 81.25565
#
# Poissons Ratio (x) = 0.27328 0.43113
# Poissons Ratio (y) = 0.20536 0.57734
# Poissons Ratio (z) = 0.18954 0.33778
#
# Static dielectric constant tensor:
#      x y z
#    x 2.978260 0.000000 0.008010 
#    y 0.000000 3.528810 0.000000 
#    z 0.008010 0.000000 3.101850 
# 
# 
# High freq. dielectric constant tensor:
#      x y z
#    x 1.671160 0.000000 0.015230 
#    y 0.000000 1.722140 0.000000 
#    z 0.015230 0.000000 1.746410 
# 
# From -- ./inp_files/315828.got.cif
#   From: 2010.06.25/outbox.cif.g09.slc.cpg/sg12_158_cif.got.tgz:315828.got - 2010.06.28 00:19:55.
