data_PCOD8078932
_publ_section_title
;
Structure prediction by ZEFSAII (Michael W. Deem and Ramdas Pophale) SiO2 
 PCOD8078932
Probable space group: C 2/M
;
_chemical_formula_sum "Si O2"
_cell_formula_units_Z 48
_cell_length_a 21.189157
_cell_length_b 10.767294
_cell_length_c 27.697646
_cell_angle_alpha 90.000000
_cell_angle_beta 25.836113
_cell_angle_gamma 90.000000
_cell_volume 2753.904130
_symmetry_space_group_name_H-M "C 2/M"
_symmetry_group_IT_number 12
_symmetry_cell_setting 'monoclinic'
loop_
_space_group_symop_operation_xyz
x,y,z
-x,y,-z
-x,-y,-z
x,-y,z
1/2+x,1/2+y,z
1/2-x,1/2+y,-z
1/2-x,1/2-y,-z
1/2+x,1/2-y,z
loop_
_atom_site_type_symbol
_atom_site_label
_atom_site_fract_x
_atom_site_fract_y
_atom_site_fract_z
Si Si1 0.372112 0.000000 0.359263
Si Si2 0.119447 0.500000 0.325103
Si Si3 0.680125 0.638929 0.749835
Si Si4 0.796193 0.500000 0.522790
Si Si5 0.698977 0.000000 0.159513
Si Si6 0.155315 0.237962 0.666085
Si Si7 0.646702 0.365826 0.111564
Si Si8 0.629625 0.309080 0.015196
O O1 0.319402 0.000000 0.450115
O O2 0.546172 0.000000 0.236662
O O3 0.306533 0.124137 0.379224
O O4 0.182906 0.623747 0.308390
O O5 0.174066 0.500000 0.233363
O O6 0.947413 0.500000 0.447915
O O7 0.632669 0.500000 0.764048
O O8 0.720258 0.721275 0.675497
O O9 0.543974 0.698833 0.872318
O O10 0.714718 0.627809 0.591377
O O11 0.795648 0.118825 0.080078
O O12 0.981340 0.229555 0.787446
O O13 0.605879 0.500000 0.160533
O O14 0.797088 0.326565 0.033506
O O15 0.668582 0.375010 0.038993
#
# Coordination Sequence:
#
# PCOD8078932 Si02
#       8
#     4   4   8   4   4   8   8   8
#     4  11  24  32  50  89 112 135 177 213 290 341
#     4   9  22  34  54  82 102 138 195 233 246 312
#     4   9  18  34  52  80 101 134 187 221 262 306
#     4  11  21  38  57  77 111 145 179 228 275 313
#     4  11  17  32  49  79 115 135 166 220 279 307
#     4  11  19  35  56  76 113 142 174 230 270 326
#     4  10  18  29  47  78 110 145 179 204 266 340
#     4  10  17  27  49  74 112 137 165 220 265 320
#
# _framework density 17.4298
#
# number of rings (size 3 to 8) (size 9 to 14) (size 15 to 20)
#    0.500    1.333    5.000    1.500    0.000    2.667 
#    0.000    0.000    0.000    2.000    2.167    1.167 
#    0.000    0.000    0.000    0.000    0.000    0.000 
#
# Total GULP energy -297393.408037 kJ/mol
# GULP energy per Si atom -12391.392002 kJ/mol
# Density = 1.739013 g / cm^3
# Si number density = 17.429800 Si / 1000 Ang^3
#
#
#
# Elastic Constant Matrix: (Units=GPa)
#
#
# Indices 1 2 3 4 5 6 
#
# 1 73.8231 33.0388 26.7432 -0.0012 -2.8597 -0.0001
# 2 33.0388 102.4251 29.0583 -0.0007 3.6440 0.0008
# 3 26.7432 29.0583 77.3659 -0.0027 5.8784 0.0007
# 4 -0.0012 -0.0007 -0.0027 24.6614 0.0038 -2.9483
# 5 -2.8597 3.6440 5.8784 0.0038 19.5769 0.0002
# 6 -0.0001 0.0008 0.0007 -2.9483 0.0002 17.9801
#
#
#
# Elastic Compliance Matrix: (Units=1/GPa)
#
#
# Indices 1 2 3 4 5 6 
#
# 1 0.017435 -0.004456 -0.004717 0.000000 0.004793 0.000000
# 2 -0.004456 0.012079 -0.002841 0.000000 -0.002046 0.000000
# 3 -0.004717 -0.002841 0.016001 0.000002 -0.004965 0.000000
# 4 0.000000 0.000000 0.000002 0.041360 -0.000009 0.006782
# 5 0.004793 -0.002046 -0.004965 -0.000009 0.053652 -0.000002
# 6 0.000000 0.000000 0.000000 0.006782 -0.000002 0.056729
#
#
# Mechanical properties :
#
#
# Convention : Reuss Voigt Hill
#
# Bulk Modulus (GPa) = 46.54219 47.92162 47.23191
# Shear Modulus (GPa) = 21.88691 23.42859 22.65775
#
# Velocity S-wave (km/s) = 3.54746 3.67027 3.60938
# Velocity P-wave (km/s) = 6.59847 6.74647 6.67288
#
# Compressibility (1/GPa) = 0.02148588
#
# Stress axis : x y z
#
# Youngs Moduli (GPa) = 57.35705 82.78518 62.49791
#
# Poissons Ratio (x) = 0.36890 0.29481
# Poissons Ratio (y) = 0.25559 0.17757
# Poissons Ratio (z) = 0.27056 0.23521
#
# Static dielectric constant tensor:
#      x y z
#    x 2.972470 0.000000 -0.046390 
#    y 0.000000 3.117680 0.000000 
#    z -0.046390 0.000000 3.268230 
# 
# 
# High freq. dielectric constant tensor:
#      x y z
#    x 1.641320 0.000000 0.000990 
#    y 0.000000 1.652270 0.000000 
#    z 0.000990 0.000000 1.683190 
# 
# From -- ./inp_files/346779.got.cif
#   From: 2010.06.25/outbox.cif.g09.slc.cpg/sg12_174_cif.got.tgz:346779.got - 2010.06.28 00:19:55.
