data_PCOD8078161
_publ_section_title
;
Structure prediction by ZEFSAII (Michael W. Deem and Ramdas Pophale) SiO2 
 PCOD8078161
Probable space group: C 2/M
;
_chemical_formula_sum "Si O2"
_cell_formula_units_Z 44
_cell_length_a 5.292115
_cell_length_b 17.283113
_cell_length_c 27.315928
_cell_angle_alpha 90.000000
_cell_angle_beta 113.044477
_cell_angle_gamma 90.000000
_cell_volume 2299.058525
_symmetry_space_group_name_H-M "C 2/M"
_symmetry_group_IT_number 12
_symmetry_cell_setting 'monoclinic'
loop_
_space_group_symop_operation_xyz
x,y,z
-x,y,-z
-x,-y,-z
x,-y,z
1/2+x,1/2+y,z
1/2-x,1/2+y,-z
1/2-x,1/2-y,-z
1/2+x,1/2-y,z
loop_
_atom_site_type_symbol
_atom_site_label
_atom_site_fract_x
_atom_site_fract_y
_atom_site_fract_z
Si Si1 0.239704 0.840257 0.116005
Si Si2 0.669888 0.667061 0.839193
Si Si3 0.377484 0.408051 0.440201
Si Si4 0.582362 0.701833 0.284073
Si Si5 0.500000 0.699192 0.000000
Si Si6 0.245403 0.591782 0.620577
O O1 0.275986 0.749578 0.131176
O O2 0.541586 0.879336 0.140879
O O3 0.045904 0.878987 0.142774
O O4 0.106254 0.853758 0.052635
O O5 0.551142 0.674775 0.776369
O O6 0.500000 0.374458 0.500000
O O7 0.381717 0.500000 0.441916
O O8 0.567390 0.378300 0.410163
O O9 0.065566 0.378475 0.410978
O O10 0.371957 0.757025 0.296519
O O11 0.636563 0.626320 0.320490
O O12 0.250000 0.750000 0.000000
O O13 0.257364 0.500000 0.626466
#
# Coordination Sequence:
#
# PCOD8078161 Si02
#       6
#     8   8   8   8   4   8
#     4  10  16  25  36  56  85 114 156 192 232 284
#     4  10  16  27  39  56  83 118 159 187 219 277
#     4   9  17  33  57  79  98 126 163 200 243 294
#     4  12  21  33  52  72  98 136 173 196 235 291
#     4  12  16  20  34  52  78 118 142 188 246 278
#     4  10  21  35  53  80 105 125 159 209 247 280
#
# _framework density 19.138268
#
# number of rings (size 3 to 8) (size 9 to 14) (size 15 to 20)
#    0.000    1.636    7.273    1.636    0.000    2.182 
#    0.000    0.000    0.000   10.909    0.000    0.000 
#    0.000    0.000    0.000    9.000    0.000    0.364 
#
# Total GULP energy -272703.732665 kJ/mol
# GULP energy per Si atom -12395.624212 kJ/mol
# Density = 1.909471 g / cm^3
# Si number density = 19.138268 Si / 1000 Ang^3
#
#
#
# Elastic Constant Matrix: (Units=GPa)
#
#
# Indices 1 2 3 4 5 6 
#
# 1 196.4355 14.1398 55.0593 0.0000 -13.2497 0.0000
# 2 14.1398 11.6276 31.0310 0.0000 -4.5470 0.0000
# 3 55.0593 31.0310 160.2787 0.0000 -6.1932 0.0000
# 4 0.0000 0.0000 0.0000 -0.2280 0.0000 0.3285
# 5 -13.2497 -4.5470 -6.1932 0.0000 31.2620 0.0000
# 6 0.0000 0.0000 0.0000 0.3285 0.0000 6.7477
#
#
#
# Elastic Compliance Matrix: (Units=1/GPa)
#
#
# Indices 1 2 3 4 5 6 
#
# 1 0.005796 -0.002513 -0.001435 0.000000 0.001807 0.000000
# 2 -0.002513 0.191259 -0.035403 0.000000 0.019740 0.000000
# 3 -0.001435 -0.035403 0.013467 0.000000 -0.003089 0.000000
# 4 0.000000 0.000000 0.000000 -4.098412 0.000000 0.199547
# 5 0.001807 0.019740 -0.003089 0.000000 0.035012 0.000000
# 6 0.000000 0.000000 0.000000 0.199547 0.000000 0.138482
#
#
# Mechanical properties :
#
#
# Convention : Reuss Voigt Hill
#
# Bulk Modulus (GPa) = 7.58606 63.20022 35.39314
# Shear Modulus (GPa) = -1.39208 25.43046 12.01919
#
# Velocity S-wave (km/s) = -0.85379 3.64919 2.50875
# Velocity P-wave (km/s) = 1.73219 7.13093 5.18896
#
# Compressibility (1/GPa) = 0.13182072
#
# Stress axis : x y z
#
# Youngs Moduli (GPa) = 172.54552 5.22851 74.25635
#
# Poissons Ratio (x) = 0.01314 0.10653
# Poissons Ratio (y) = 0.43353 2.62891
# Poissons Ratio (z) = 0.24754 0.18511
#
# Static dielectric constant tensor:
#      x y z
#    x 5.570630 0.000000 -0.034220 
#    y 0.000000 2.656450 0.000000 
#    z -0.034220 0.000000 3.733880 
# 
# 
# High freq. dielectric constant tensor:
#      x y z
#    x 1.785330 0.000000 -0.000910 
#    y 0.000000 1.647930 0.000000 
#    z -0.000910 0.000000 1.762730 
# 
# From -- ./inp_files/331075.got.cif
#   From: 2010.06.25/outbox.cif.g09.slc.cpg/sg12_166_cif.got.tgz:331075.got - 2010.06.28 00:19:55.
