data_PCOD8078602
_publ_section_title
;
Structure prediction by ZEFSAII (Michael W. Deem and Ramdas Pophale) SiO2 
 PCOD8078602
Probable space group: C 2/M
;
_chemical_formula_sum "Si O2"
_cell_formula_units_Z 56
_cell_length_a 20.291796
_cell_length_b 9.518512
_cell_length_c 31.192643
_cell_angle_alpha 90.000000
_cell_angle_beta 149.523873
_cell_angle_gamma 90.000000
_cell_volume 3055.647503
_symmetry_space_group_name_H-M "C 2/M"
_symmetry_group_IT_number 12
_symmetry_cell_setting 'monoclinic'
loop_
_space_group_symop_operation_xyz
x,y,z
-x,y,-z
-x,-y,-z
x,-y,z
1/2+x,1/2+y,z
1/2-x,1/2+y,-z
1/2-x,1/2-y,-z
1/2+x,1/2-y,z
loop_
_atom_site_type_symbol
_atom_site_label
_atom_site_fract_x
_atom_site_fract_y
_atom_site_fract_z
Si Si1 0.496722 0.332651 0.401666
Si Si2 0.852453 0.664283 0.905454
Si Si3 0.635941 0.162146 0.823921
Si Si4 0.212153 0.841893 0.580803
Si Si5 0.708464 0.166375 0.223431
Si Si6 0.586829 0.167648 0.240541
Si Si7 0.931530 0.344712 0.635605
O O1 0.505305 0.500000 0.403076
O O2 0.571239 0.279515 0.487029
O O3 0.348392 0.278727 0.318186
O O4 0.570456 0.271507 0.402008
O O5 0.818551 0.500000 0.888946
O O6 0.764776 0.744264 0.891279
O O7 0.827498 0.726085 0.843535
O O8 0.000000 0.694556 0.000000
O O9 0.551639 0.217305 0.817745
O O10 0.551282 0.184879 0.734244
O O11 0.676570 0.000000 0.852859
O O12 0.290637 0.766448 0.663639
O O13 0.297855 0.835823 0.586098
O O14 0.186811 0.000000 0.582001
O O15 0.601941 0.214057 0.199378
O O16 0.709559 0.000000 0.221191
O O17 0.592235 0.000000 0.249766
O O18 0.947194 0.500000 0.624099
#
# Coordination Sequence:
#
# PCOD8078602 Si02
#       7
#     8   8   8   8   8   8   8
#     4  10  17  25  42  68  94 120 157 197 229 267
#     4  10  20  34  52  74  99 122 147 188 241 288
#     4   9  17  31  52  72  91 123 160 194 229 273
#     4   8  15  25  39  64  94 122 155 196 232 263
#     4   9  17  29  46  69  95 125 157 191 235 281
#     4   8  15  29  47  68  97 127 157 192 233 275
#     4   9  16  27  42  63  93 125 154 187 233 276
#
# _framework density 18.326720999999999
#
# number of rings (size 3 to 8) (size 9 to 14) (size 15 to 20)
#    0.000    3.000    1.429    2.143    0.000    0.857 
#    0.000    3.571    0.000    1.714    0.000    1.000 
#    0.000    0.000    0.000    0.000    0.000    0.000 
#
# Total GULP energy -346885.400112 kJ/mol
# GULP energy per Si atom -12388.764290 kJ/mol
# Density = 1.828501 g / cm^3
# Si number density = 18.326721 Si / 1000 Ang^3
#
#
#
# Elastic Constant Matrix: (Units=GPa)
#
#
# Indices 1 2 3 4 5 6 
#
# 1 89.3073 16.4284 46.9127 0.0001 -2.7318 0.0000
# 2 16.4284 23.4001 22.0148 0.0000 4.5909 -0.0001
# 3 46.9127 22.0148 86.4588 0.0000 17.2092 0.0000
# 4 0.0001 0.0000 0.0000 12.7425 0.0000 2.3393
# 5 -2.7318 4.5909 17.2092 0.0000 16.9111 0.0000
# 6 0.0000 -0.0001 0.0000 2.3393 0.0000 18.3116
#
#
#
# Elastic Compliance Matrix: (Units=1/GPa)
#
#
# Indices 1 2 3 4 5 6 
#
# 1 0.019296 -0.005065 -0.012633 0.000000 0.017348 0.000000
# 2 -0.005065 0.057537 -0.010822 0.000000 -0.005425 0.000000
# 3 -0.012633 -0.010822 0.026332 0.000000 -0.025899 0.000000
# 4 0.000000 0.000000 0.000000 0.080362 0.000000 -0.010266
# 5 0.017348 -0.005425 -0.025899 0.000000 0.089764 0.000000
# 6 0.000000 0.000000 0.000000 -0.010266 0.000000 0.055922
#
#
# Mechanical properties :
#
#
# Convention : Reuss Voigt Hill
#
# Bulk Modulus (GPa) = 21.68115 41.09756 31.38936
# Shear Modulus (GPa) = 12.44932 17.18038 14.81485
#
# Velocity S-wave (km/s) = 2.60916 3.06510 2.84628
# Velocity P-wave (km/s) = 4.57526 5.91609 5.28834
#
# Compressibility (1/GPa) = 0.04612301
#
# Stress axis : x y z
#
# Youngs Moduli (GPa) = 51.82426 17.38011 37.97677
#
# Poissons Ratio (x) = 0.08803 0.47978
# Poissons Ratio (y) = 0.26250 0.41100
# Poissons Ratio (z) = 0.65472 0.18809
#
# Static dielectric constant tensor:
#      x y z
#    x 3.444110 0.000000 0.024490 
#    y 0.000000 2.896620 0.000000 
#    z 0.024490 0.000000 3.421050 
# 
# 
# High freq. dielectric constant tensor:
#      x y z
#    x 1.710530 0.000000 0.005700 
#    y 0.000000 1.649800 0.000000 
#    z 0.005700 0.000000 1.705460 
# 
# From -- ./inp_files/276661.got.cif
#   From: 2010.06.25/outbox.cif.g09.slc.cpg/sg12_139_cif.got.tgz:276661.got - 2010.06.28 00:19:55.
