data_PCOD8078652
_publ_section_title
;
Structure prediction by ZEFSAII (Michael W. Deem and Ramdas Pophale) SiO2 
 PCOD8078652
Probable space group: C 2/M
;
_chemical_formula_sum "Si O2"
_cell_formula_units_Z 64
_cell_length_a 32.560379
_cell_length_b 9.038049
_cell_length_c 14.190625
_cell_angle_alpha 90.000000
_cell_angle_beta 81.800577
_cell_angle_gamma 90.000000
_cell_volume 4133.360805
_symmetry_space_group_name_H-M "C 2/M"
_symmetry_group_IT_number 12
_symmetry_cell_setting 'monoclinic'
loop_
_space_group_symop_operation_xyz
x,y,z
-x,y,-z
-x,-y,-z
x,-y,z
1/2+x,1/2+y,z
1/2-x,1/2+y,-z
1/2-x,1/2-y,-z
1/2+x,1/2-y,z
loop_
_atom_site_type_symbol
_atom_site_label
_atom_site_fract_x
_atom_site_fract_y
_atom_site_fract_z
Si Si1 0.540609 0.667067 0.550449
Si Si2 0.618009 0.673248 0.046918
Si Si3 0.305861 0.833136 0.051631
Si Si4 0.508091 0.828958 0.286159
Si Si5 0.153484 0.825971 0.238647
Si Si6 0.088075 0.673282 0.382439
Si Si7 0.532455 0.828857 0.071036
Si Si8 0.769128 0.332862 0.855411
O O1 0.500000 0.673556 0.500000
O O2 0.556381 0.500000 0.559256
O O3 0.529366 0.735934 0.655608
O O4 0.576612 0.762142 0.488788
O O5 0.621015 0.500000 0.027270
O O6 0.628994 0.712906 0.150930
O O7 0.572307 0.729433 0.038418
O O8 0.649790 0.752551 0.965397
O O9 0.275633 0.746474 0.133199
O O10 0.311903 0.000000 0.086567
O O11 0.285927 0.832836 0.955459
O O12 0.551800 0.790573 0.320213
O O13 0.510910 0.784031 0.176204
O O14 0.497142 0.000000 0.304309
O O15 0.129501 0.753349 0.333600
O O16 0.199440 0.757173 0.221311
O O17 0.157213 0.000000 0.253185
O O18 0.096504 0.500000 0.388898
O O19 0.546339 0.000000 0.069404
O O20 0.500000 0.795912 0.000000
O O21 0.764610 0.500000 0.819020
#
# Coordination Sequence:
#
# PCOD8078652 Si02
#       8
#     8   8   8   8   8   8   8   8
#     4   9  17  27  40  58  79 102 131 167 206 248
#     4  10  19  29  42  58  78 105 138 175 213 250
#     4   9  16  26  40  55  75 102 135 170 204 244
#     4   9  17  29  43  58  77 103 136 172 210 251
#     4  10  18  26  38  57  82 110 139 170 205 244
#     4  10  17  26  41  59  80 107 138 171 205 245
#     4  10  20  33  47  62  81 107 141 180 219 255
#     4   9  16  25  37  55  78 104 135 168 202 240
#
# _framework density 15.483769000000001
#
# number of rings (size 3 to 8) (size 9 to 14) (size 15 to 20)
#    0.000    2.500    1.250    2.250    0.000    6.750 
#    0.000    0.000    0.000    0.000    0.000    0.000 
#    0.000    0.000    0.000    1.125    0.000   14.250 
#
# Total GULP energy -396831.172373 kJ/mol
# GULP energy per Si atom -12400.974137 kJ/mol
# Density = 1.544853 g / cm^3
# Si number density = 15.483769 Si / 1000 Ang^3
#
#
#
# Elastic Constant Matrix: (Units=GPa)
#
#
# Indices 1 2 3 4 5 6 
#
# 1 67.5336 50.5978 48.1776 0.0000 -29.6113 0.0000
# 2 50.5978 108.7569 44.8656 0.0000 -27.2109 0.0000
# 3 48.1776 44.8656 77.3647 0.0000 -27.2722 0.0000
# 4 0.0000 0.0000 0.0000 22.4818 0.0000 -12.8570
# 5 -29.6113 -27.2109 -27.2722 0.0000 29.0036 0.0000
# 6 0.0000 0.0000 0.0000 -12.8570 0.0000 26.2132
#
#
#
# Elastic Compliance Matrix: (Units=1/GPa)
#
#
# Indices 1 2 3 4 5 6 
#
# 1 0.038089 -0.007632 -0.012130 0.000000 0.020321 0.000000
# 2 -0.007632 0.014680 -0.002471 0.000000 0.003657 0.000000
# 3 -0.012130 -0.002471 0.025025 0.000000 0.008828 0.000000
# 4 0.000000 0.000000 0.000000 0.061821 0.000000 0.030322
# 5 0.020321 0.003657 0.008828 0.000000 0.066957 0.000000
# 6 0.000000 0.000000 0.000000 0.030322 0.000000 0.053021
#
#
# Mechanical properties :
#
#
# Convention : Reuss Voigt Hill
#
# Bulk Modulus (GPa) = 30.00592 60.10415 45.05504
# Shear Modulus (GPa) = 15.86452 22.87399 19.36926
#
# Velocity S-wave (km/s) = 3.20440 3.84772 3.54070
# Velocity P-wave (km/s) = 5.75429 7.65779 6.77324
#
# Compressibility (1/GPa) = 0.03332676
#
# Stress axis : x y z
#
# Youngs Moduli (GPa) = 26.25438 68.11959 39.96050
#
# Poissons Ratio (x) = 0.51991 0.48471
# Poissons Ratio (y) = 0.20038 0.09876
# Poissons Ratio (z) = 0.31846 0.16835
#
# Static dielectric constant tensor:
#      x y z
#    x 2.710180 0.000000 -0.365650 
#    y 0.000000 3.096120 0.000000 
#    z -0.365650 0.000000 2.770190 
# 
# 
# High freq. dielectric constant tensor:
#      x y z
#    x 1.559060 0.000000 -0.047990 
#    y 0.000000 1.611230 0.000000 
#    z -0.047990 0.000000 1.558880 
# 
# From -- ./inp_files/248235.got.cif
#   From: 2010.06.25/outbox.cif.g09.slc.cpg/sg12_125_cif.got.tgz:248235.got - 2010.06.28 00:19:55.
