data_PCOD8078664
_publ_section_title
;
Structure prediction by ZEFSAII (Michael W. Deem and Ramdas Pophale) SiO2 
 PCOD8078664
Probable space group: C 2/M
;
_chemical_formula_sum "Si O2"
_cell_formula_units_Z 56
_cell_length_a 28.688887
_cell_length_b 9.074132
_cell_length_c 29.096488
_cell_angle_alpha 90.000000
_cell_angle_beta 151.898911
_cell_angle_gamma 90.000000
_cell_volume 3567.850807
_symmetry_space_group_name_H-M "C 2/M"
_symmetry_group_IT_number 12
_symmetry_cell_setting 'monoclinic'
loop_
_space_group_symop_operation_xyz
x,y,z
-x,y,-z
-x,-y,-z
x,-y,z
1/2+x,1/2+y,z
1/2-x,1/2+y,-z
1/2-x,1/2-y,-z
1/2+x,1/2-y,z
loop_
_atom_site_type_symbol
_atom_site_label
_atom_site_fract_x
_atom_site_fract_y
_atom_site_fract_z
Si Si1 0.598122 0.169618 0.059477
Si Si2 0.649456 0.668227 0.918519
Si Si3 0.461548 0.825583 0.358771
Si Si4 0.174613 0.827210 0.039413
Si Si5 0.803666 0.830459 0.283989
Si Si6 0.901236 0.336962 0.443998
Si Si7 0.385488 0.673477 0.209760
O O1 0.608332 0.268618 0.023152
O O2 0.688737 0.192408 0.173267
O O3 0.589708 0.000000 0.036651
O O4 0.500000 0.223049 0.000000
O O5 0.679005 0.500000 0.939845
O O6 0.581230 0.707188 0.814601
O O7 0.750000 0.750000 0.000000
O O8 0.610037 0.700611 0.935962
O O9 0.365817 0.763377 0.301727
O O10 0.563684 0.786103 0.474517
O O11 0.466532 0.751461 0.312815
O O12 0.448480 0.000000 0.343351
O O13 0.277718 0.739794 0.127207
O O14 0.197442 0.000000 0.066021
O O15 0.823162 0.774871 0.353217
O O16 0.836140 0.000000 0.308525
O O17 0.853198 0.500000 0.404008
O O18 0.000000 0.342057 0.500000
O O19 0.382470 0.500000 0.217978
#
# Coordination Sequence:
#
# PCOD8078664 Si02
#       7
#     8   8   8   8   8   8   8
#     4  10  21  34  45  60  84 113 145 181 217 249
#     4   8  16  27  39  58  82 108 138 170 205 247
#     4  10  18  27  40  60  86 113 139 170 206 248
#     4  10  18  29  44  60  81 110 143 178 212 248
#     4  10  18  28  43  59  78 108 143 177 210 248
#     4   8  16  28  40  56  81 110 136 167 209 250
#     4  10  17  26  41  61  86 114 141 169 205 250
#
# _framework density 15.695724
#
# number of rings (size 3 to 8) (size 9 to 14) (size 15 to 20)
#    0.000    2.571    1.429    2.571    0.000    5.143 
#    0.000    0.000    0.000    0.000    0.000    0.000 
#    0.000    1.143    0.000    2.571    0.000    4.571 
#
# Total GULP energy -346894.410147 kJ/mol
# GULP energy per Si atom -12389.086077 kJ/mol
# Density = 1.566000 g / cm^3
# Si number density = 15.695724 Si / 1000 Ang^3
#
#
#
# Elastic Constant Matrix: (Units=GPa)
#
#
# Indices 1 2 3 4 5 6 
#
# 1 72.9604 40.2551 53.6832 0.0000 -29.2839 0.0000
# 2 40.2551 81.4548 47.6546 0.0000 -21.6266 -0.0001
# 3 53.6832 47.6546 86.7007 0.0000 -34.4586 0.0000
# 4 0.0000 0.0000 0.0000 22.4719 0.0000 -9.4136
# 5 -29.2839 -21.6266 -34.4586 0.0000 33.0851 0.0000
# 6 0.0000 -0.0001 0.0000 -9.4136 0.0000 16.1164
#
#
#
# Elastic Compliance Matrix: (Units=1/GPa)
#
#
# Indices 1 2 3 4 5 6 
#
# 1 0.028762 -0.005055 -0.010623 0.000000 0.011089 0.000000
# 2 -0.005055 0.019107 -0.007143 0.000000 0.000575 0.000000
# 3 -0.010623 -0.007143 0.028060 0.000000 0.015153 0.000000
# 4 0.000000 0.000000 0.000000 0.058916 0.000000 0.034413
# 5 0.011089 0.000575 0.015153 0.000000 0.056199 0.000000
# 6 0.000000 0.000000 0.000000 0.034413 0.000000 0.082149
#
#
# Mechanical properties :
#
#
# Convention : Reuss Voigt Hill
#
# Bulk Modulus (GPa) = 33.01792 58.25573 45.63683
# Shear Modulus (GPa) = 15.20069 20.96955 18.08512
#
# Velocity S-wave (km/s) = 3.11539 3.65910 3.39814
# Velocity P-wave (km/s) = 5.83290 7.41945 6.67349
#
# Compressibility (1/GPa) = 0.03028658
#
# Stress axis : x y z
#
# Youngs Moduli (GPa) = 34.76756 52.33705 35.63738
#
# Poissons Ratio (x) = 0.26457 0.37858
# Poissons Ratio (y) = 0.17576 0.25457
# Poissons Ratio (z) = 0.36934 0.37386
#
# Static dielectric constant tensor:
#      x y z
#    x 3.083710 0.000000 -0.733450 
#    y 0.000000 3.074010 0.000000 
#    z -0.733450 0.000000 3.254190 
# 
# 
# High freq. dielectric constant tensor:
#      x y z
#    x 1.562410 0.000000 -0.053900 
#    y 0.000000 1.617400 0.000000 
#    z -0.053900 0.000000 1.584400 
# 
# From -- ./inp_files/384431.got.cif
#   From: 2010.06.25/outbox.cif.g09.slc.cpg/sg12_193_cif.got.tgz:384431.got - 2010.06.28 00:19:55.
