data_PCOD8078726
_publ_section_title
;
Structure prediction by ZEFSAII (Michael W. Deem and Ramdas Pophale) SiO2 
 PCOD8078726
Probable space group: C 2/M
;
_chemical_formula_sum "Si O2"
_cell_formula_units_Z 48
_cell_length_a 18.417941
_cell_length_b 8.615925
_cell_length_c 21.043933
_cell_angle_alpha 90.000000
_cell_angle_beta 48.554266
_cell_angle_gamma 90.000000
_cell_volume 2503.165741
_symmetry_space_group_name_H-M "C 2/M"
_symmetry_group_IT_number 12
_symmetry_cell_setting 'monoclinic'
loop_
_space_group_symop_operation_xyz
x,y,z
-x,y,-z
-x,-y,-z
x,-y,z
1/2+x,1/2+y,z
1/2-x,1/2+y,-z
1/2-x,1/2-y,-z
1/2+x,1/2-y,z
loop_
_atom_site_type_symbol
_atom_site_label
_atom_site_fract_x
_atom_site_fract_y
_atom_site_fract_z
Si Si1 0.475074 0.680555 0.422884
Si Si2 0.352023 0.683621 0.920808
Si Si3 0.477640 0.318103 0.085107
Si Si4 0.858861 0.319031 0.588710
Si Si5 0.777059 0.682381 0.241603
Si Si6 0.384836 0.683832 0.761642
O O1 0.448938 0.500000 0.439533
O O2 0.380208 0.776793 0.501859
O O3 0.565888 0.714410 0.415867
O O4 0.512458 0.731774 0.330871
O O5 0.344202 0.500000 0.922851
O O6 0.431795 0.736907 0.925278
O O7 0.380802 0.752638 0.835010
O O8 0.250000 0.750000 0.000000
O O9 0.456440 0.500000 0.104896
O O10 0.386147 0.223007 0.161881
O O11 0.500000 0.272645 0.000000
O O12 0.876621 0.500000 0.589797
O O13 0.752577 0.268476 0.674925
O O14 0.766126 0.500000 0.257892
O O15 0.707074 0.745517 0.225750
O O16 0.377763 0.500000 0.768050
#
# Coordination Sequence:
#
# PCOD8078726 Si02
#       6
#     8   8   8   8   8   8
#     4   9  15  26  44  68  98 130 167 205 241 285
#     4  10  20  35  53  73  99 129 163 201 243 292
#     4  10  21  35  51  74 103 131 159 199 251 298
#     4  10  17  26  43  70 102 131 161 200 248 293
#     4  10  19  32  51  73  98 130 169 207 242 287
#     4   8  16  30  49  72  97 129 166 204 243 282
#
# _framework density 19.175719999999998
#
# number of rings (size 3 to 8) (size 9 to 14) (size 15 to 20)
#    0.000    2.500    0.000    5.500    0.000    1.000 
#    0.000    4.167    0.000    1.000    0.000    0.000 
#    0.000    0.000    0.000    0.000    0.000    0.000 
#
# Total GULP energy -297446.806271 kJ/mol
# GULP energy per Si atom -12393.616928 kJ/mol
# Density = 1.913207 g / cm^3
# Si number density = 19.175720 Si / 1000 Ang^3
#
#
#
# Elastic Constant Matrix: (Units=GPa)
#
#
# Indices 1 2 3 4 5 6 
#
# 1 89.0762 23.0502 68.6142 0.0000 3.9118 0.0000
# 2 23.0502 50.5242 44.6322 -0.0001 -2.0445 0.0000
# 3 68.6142 44.6322 201.0963 0.0000 7.4851 0.0000
# 4 0.0000 -0.0001 0.0000 33.4770 0.0000 -8.5504
# 5 3.9118 -2.0445 7.4851 0.0000 23.6250 0.0000
# 6 0.0000 0.0000 0.0000 -8.5504 0.0000 11.8826
#
#
#
# Elastic Compliance Matrix: (Units=1/GPa)
#
#
# Indices 1 2 3 4 5 6 
#
# 1 0.015632 -0.003139 -0.004585 0.000000 -0.001407 0.000000
# 2 -0.003139 0.025611 -0.004772 0.000000 0.004248 0.000000
# 3 -0.004585 -0.004772 0.007674 0.000000 -0.002085 0.000000
# 4 0.000000 0.000000 0.000000 0.036597 0.000000 0.026335
# 5 -0.001407 0.004248 -0.002085 0.000000 0.043589 0.000000
# 6 0.000000 0.000000 0.000000 0.026335 0.000000 0.103107
#
#
# Mechanical properties :
#
#
# Convention : Reuss Voigt Hill
#
# Bulk Modulus (GPa) = 41.79309 68.14333 54.96821
# Shear Modulus (GPa) = 18.85544 27.42358 23.13951
#
# Velocity S-wave (km/s) = 3.13916 3.78580 3.47754
# Velocity P-wave (km/s) = 5.91449 7.39750 6.69717
#
# Compressibility (1/GPa) = 0.02392740
#
# Stress axis : x y z
#
# Youngs Moduli (GPa) = 63.97229 39.04518 130.31618
#
# Poissons Ratio (x) = 0.12254 0.59745
# Poissons Ratio (y) = 0.20078 0.62181
# Poissons Ratio (z) = 0.29329 0.18631
#
# Static dielectric constant tensor:
#      x y z
#    x 3.242560 0.000000 0.238470 
#    y 0.000000 3.248800 0.000000 
#    z 0.238470 0.000000 4.435800 
# 
# 
# High freq. dielectric constant tensor:
#      x y z
#    x 1.691240 0.000000 0.001910 
#    y 0.000000 1.731260 0.000000 
#    z 0.001910 0.000000 1.779360 
# 
# From -- ./inp_files/313626.got.cif
#   From: 2010.06.25/outbox.cif.g09.slc.cpg/sg12_157_cif.got.tgz:313626.got - 2010.06.28 00:19:55.
