data_PCOD8078277
_publ_section_title
;
Structure prediction by ZEFSAII (Michael W. Deem and Ramdas Pophale) SiO2 
 PCOD8078277
Probable space group: C 2/M
;
_chemical_formula_sum "Si O2"
_cell_formula_units_Z 40
_cell_length_a 32.868082
_cell_length_b 12.570907
_cell_length_c 25.527622
_cell_angle_alpha 90.000000
_cell_angle_beta 13.934386
_cell_angle_gamma 90.000000
_cell_volume 2539.960062
_symmetry_space_group_name_H-M "C 2/M"
_symmetry_group_IT_number 12
_symmetry_cell_setting 'monoclinic'
loop_
_space_group_symop_operation_xyz
x,y,z
-x,y,-z
-x,-y,-z
x,-y,z
1/2+x,1/2+y,z
1/2-x,1/2+y,-z
1/2-x,1/2-y,-z
1/2+x,1/2-y,z
loop_
_atom_site_type_symbol
_atom_site_label
_atom_site_fract_x
_atom_site_fract_y
_atom_site_fract_z
Si Si1 0.519303 0.161551 0.807249
Si Si2 0.089979 0.884938 0.690657
Si Si3 0.516713 0.661629 0.291764
Si Si4 0.558693 0.000000 0.010645
Si Si5 0.603755 0.117159 0.152584
Si Si6 0.726485 0.500000 0.356439
O O1 0.709171 0.120638 0.564789
O O2 0.518511 0.289830 0.816248
O O3 0.417313 0.130384 0.883079
O O4 0.430705 0.106277 0.967361
O O5 0.008874 0.879464 0.734818
O O6 0.041891 0.000000 0.775458
O O7 0.500354 0.790935 0.312996
O O8 0.379355 0.607765 0.501218
O O9 0.699069 0.626050 0.082772
O O10 0.386194 0.000000 0.194423
O O11 0.719338 0.000000 0.771776
O O12 0.538615 0.000000 0.251569
#
# Coordination Sequence:
#
# PCOD8078277 Si02
#       6
#     8   8   8   4   8   4
#     4  10  18  28  44  71  93 117 160 194 240 273
#     4  10  16  28  48  65  95 121 149 205 235 276
#     4  10  18  30  46  71  95 127 160 180 241 290
#     4  11  20  33  49  69  97 131 166 194 225 282
#     4  10  18  28  48  71 101 119 144 208 243 275
#     4  11  20  33  51  65  99 135 162 191 222 296
#
# _framework density 15.748279
#
# number of rings (size 3 to 8) (size 9 to 14) (size 15 to 20)
#    0.000    1.800    6.000    0.000    0.000    0.000 
#    0.000    2.000    0.000    1.200    0.000    2.800 
#    0.000    9.600    0.000    0.000    0.000    0.000 
#
# Total GULP energy -247880.959241 kJ/mol
# GULP energy per Si atom -12394.047962 kJ/mol
# Density = 1.571244 g / cm^3
# Si number density = 15.748279 Si / 1000 Ang^3
#
#
#
# Elastic Constant Matrix: (Units=GPa)
#
#
# Indices 1 2 3 4 5 6 
#
# 1 89.1445 39.0477 42.5438 0.0431 -5.7561 -0.0407
# 2 39.0477 195.8317 46.5310 0.0395 20.2412 -0.0419
# 3 42.5438 46.5310 66.8461 0.0101 7.6914 -0.0354
# 4 0.0431 0.0395 0.0101 18.9129 -0.0210 0.9224
# 5 -5.7561 20.2412 7.6914 -0.0210 32.5362 0.0267
# 6 -0.0407 -0.0419 -0.0354 0.9224 0.0267 23.9689
#
#
#
# Elastic Compliance Matrix: (Units=1/GPa)
#
#
# Indices 1 2 3 4 5 6 
#
# 1 0.017498 -0.001615 -0.010777 -0.000024 0.006648 0.000004
# 2 -0.001615 0.006541 -0.003109 -0.000013 -0.003620 0.000009
# 3 -0.010777 -0.003109 0.024650 0.000011 -0.005800 0.000019
# 4 -0.000024 -0.000013 0.000011 0.052973 0.000037 -0.002039
# 5 0.006648 -0.003620 -0.005800 0.000037 0.035535 -0.000045
# 6 0.000004 0.000009 0.000019 -0.002039 -0.000045 0.041799
#
#
# Mechanical properties :
#
#
# Convention : Reuss Voigt Hill
#
# Bulk Modulus (GPa) = 56.53825 67.56303 62.05064
# Shear Modulus (GPa) = 23.15951 29.99694 26.57823
#
# Velocity S-wave (km/s) = 3.83901 4.36911 4.11261
# Velocity P-wave (km/s) = 7.45854 8.27328 7.87645
#
# Compressibility (1/GPa) = 0.01768714
#
# Stress axis : x y z
#
# Youngs Moduli (GPa) = 57.14985 152.87256 40.56815
#
# Poissons Ratio (x) = 0.24696 0.43720
# Poissons Ratio (y) = 0.09232 0.12611
# Poissons Ratio (z) = 0.61590 0.47523
#
# Static dielectric constant tensor:
#      x y z
#    x 3.448800 0.000160 -0.292130 
#    y 0.000160 3.584960 -0.000010 
#    z -0.292130 -0.000010 2.744120 
# 
# 
# High freq. dielectric constant tensor:
#      x y z
#    x 1.602480 0.000000 -0.042430 
#    y 0.000000 1.628830 0.000000 
#    z -0.042430 0.000000 1.560400 
# 
# From -- ./inp_files/187894.got.cif
#   From: 2010.06.25/outbox.cif.g09.slc.cpg/sg12_94_cif.got.tgz:187894.got - 2010.06.28 00:19:55.
