data_PCOD8078230
_publ_section_title
;
Structure prediction by ZEFSAII (Michael W. Deem and Ramdas Pophale) SiO2 
 PCOD8078230
Probable space group: C 2/M
;
_chemical_formula_sum "Si O2"
_cell_formula_units_Z 56
_cell_length_a 17.844672
_cell_length_b 19.918781
_cell_length_c 15.023265
_cell_angle_alpha 90.000000
_cell_angle_beta 149.605821
_cell_angle_gamma 90.000000
_cell_volume 2701.717501
_symmetry_space_group_name_H-M "C 2/M"
_symmetry_group_IT_number 12
_symmetry_cell_setting 'monoclinic'
loop_
_space_group_symop_operation_xyz
x,y,z
-x,y,-z
-x,-y,-z
x,-y,z
1/2+x,1/2+y,z
1/2-x,1/2+y,-z
1/2-x,1/2-y,-z
1/2+x,1/2-y,z
loop_
_atom_site_type_symbol
_atom_site_label
_atom_site_fract_x
_atom_site_fract_y
_atom_site_fract_z
Si Si1 0.678744 0.922721 0.357390
Si Si2 0.667151 0.076505 0.994950
Si Si3 0.828094 0.854219 0.849936
Si Si4 0.668094 0.500000 0.153785
Si Si5 0.932622 0.500000 0.528510
Si Si6 0.665253 0.420256 0.659959
Si Si7 0.619104 0.140167 0.467016
Si Si8 0.689075 0.189237 0.880610
O O1 0.764769 0.893432 0.360340
O O2 0.717980 0.872003 0.479634
O O3 0.724012 0.000000 0.426362
O O4 0.505387 0.918098 0.160168
O O5 0.744208 0.105459 0.162563
O O6 0.715872 0.000000 0.024327
O O7 0.720973 0.121318 0.967719
O O8 0.723686 0.841156 0.656909
O O9 0.779096 0.806455 0.879776
O O10 0.794668 0.929358 0.855569
O O11 0.000000 0.842860 0.000000
O O12 0.753578 0.500000 0.335979
O O13 0.500000 0.500000 0.000000
O O14 0.974622 0.568917 0.620960
O O15 0.000000 0.500000 0.500000
O O16 0.500000 0.391947 0.500000
O O17 0.669590 0.500000 0.660932
O O18 0.488798 0.195310 0.321538
O O19 0.750000 0.250000 0.000000
#
# Coordination Sequence:
#
# PCOD8078230 Si02
#       8
#     8   8   8   4   4   8   8   8
#     4   9  16  29  51  82 118 150 193 244 291 354
#     4   9  19  35  57  82 108 152 206 252 302 355
#     4  10  21  38  61  90 127 161 197 247 311 379
#     4   8  16  30  52  88 123 151 182 230 303 366
#     4  10  16  26  52  88 115 147 187 234 288 364
#     4   9  17  30  49  78 116 153 191 246 303 345
#     4  10  19  35  59  89 120 156 196 245 307 363
#     4  11  24  40  58  85 123 158 205 255 305 365
#
# _framework density 20.727556
#
# number of rings (size 3 to 8) (size 9 to 14) (size 15 to 20)
#    0.000    2.429    0.714    2.571    2.000    2.857 
#    0.000    5.000    0.000    0.000    0.000    0.000 
#    0.000    0.000    0.000    0.000    0.000    0.000 
#
# Total GULP energy -346911.534758 kJ/mol
# GULP energy per Si atom -12389.697670 kJ/mol
# Density = 2.068038 g / cm^3
# Si number density = 20.727556 Si / 1000 Ang^3
#
#
#
# Elastic Constant Matrix: (Units=GPa)
#
#
# Indices 1 2 3 4 5 6 
#
# 1 157.6120 29.2721 80.0989 0.0000 -17.0227 0.0000
# 2 29.2721 51.0080 46.2205 0.0000 -5.6697 0.0000
# 3 80.0989 46.2205 134.0712 0.0000 -11.5430 0.0000
# 4 0.0000 0.0000 0.0000 26.6057 0.0000 -8.2470
# 5 -17.0227 -5.6697 -11.5430 0.0000 30.7594 0.0000
# 6 0.0000 0.0000 0.0000 -8.2470 0.0000 22.6500
#
#
#
# Elastic Compliance Matrix: (Units=1/GPa)
#
#
# Indices 1 2 3 4 5 6 
#
# 1 0.009409 -0.000291 -0.005247 0.000000 0.003185 0.000000
# 2 -0.000291 0.028599 -0.009554 0.000000 0.001525 0.000000
# 3 -0.005247 -0.009554 0.013936 0.000000 0.000565 0.000000
# 4 0.000000 0.000000 0.000000 0.042368 0.000000 0.015426
# 5 0.003185 0.001525 0.000565 0.000000 0.034766 0.000000
# 6 0.000000 0.000000 0.000000 0.015426 0.000000 0.049767
#
#
# Mechanical properties :
#
#
# Convention : Reuss Voigt Hill
#
# Bulk Modulus (GPa) = 45.95721 72.65268 59.30494
# Shear Modulus (GPa) = 23.11807 28.47632 25.79720
#
# Velocity S-wave (km/s) = 3.34328 3.71055 3.53169
# Velocity P-wave (km/s) = 6.09291 7.31334 6.73084
#
# Compressibility (1/GPa) = 0.02175937
#
# Stress axis : x y z
#
# Youngs Moduli (GPa) = 106.27937 34.96672 71.75864
#
# Poissons Ratio (x) = 0.01019 0.37650
# Poissons Ratio (y) = 0.03097 0.68557
# Poissons Ratio (z) = 0.55762 0.33407
#
# Static dielectric constant tensor:
#      x y z
#    x 3.770390 0.000000 -0.076440 
#    y 0.000000 3.257270 0.000000 
#    z -0.076440 0.000000 3.992030 
# 
# 
# High freq. dielectric constant tensor:
#      x y z
#    x 1.811580 0.000000 -0.010260 
#    y 0.000000 1.762490 0.000000 
#    z -0.010260 0.000000 1.818270 
# 
# From -- ./inp_files/227676.got.cif
#   From: 2010.06.25/outbox.cif.g09.slc.cpg/sg12_114_cif.got.tgz:227676.got - 2010.06.28 00:19:55.
