data_PCOD8078359
_publ_section_title
;
Structure prediction by ZEFSAII (Michael W. Deem and Ramdas Pophale) SiO2 
 PCOD8078359
Probable space group: C 2/M
;
_chemical_formula_sum "Si O2"
_cell_formula_units_Z 52
_cell_length_a 24.337480
_cell_length_b 8.039888
_cell_length_c 24.770424
_cell_angle_alpha 90.000000
_cell_angle_beta 142.914258
_cell_angle_gamma 90.000000
_cell_volume 2922.692969
_symmetry_space_group_name_H-M "C 2/M"
_symmetry_group_IT_number 12
_symmetry_cell_setting 'monoclinic'
loop_
_space_group_symop_operation_xyz
x,y,z
-x,y,-z
-x,-y,-z
x,-y,z
1/2+x,1/2+y,z
1/2-x,1/2+y,-z
1/2-x,1/2-y,-z
1/2+x,1/2-y,z
loop_
_atom_site_type_symbol
_atom_site_label
_atom_site_fract_x
_atom_site_fract_y
_atom_site_fract_z
Si Si1 0.712327 0.500000 0.258978
Si Si2 0.390851 0.189467 0.776893
Si Si3 0.448540 0.179923 0.016208
Si Si4 0.106562 0.000000 0.066309
Si Si5 0.007761 0.821389 0.570144
Si Si6 0.353992 0.192844 0.520665
Si Si7 0.916600 0.500000 0.392185
Si Si8 0.144049 0.803506 0.361631
O O1 0.682871 0.330291 0.265469
O O2 0.675891 0.500000 0.169770
O O3 0.820932 0.500000 0.347406
O O4 0.481974 0.224339 0.881686
O O5 0.412670 0.214402 0.730617
O O6 0.356102 0.000000 0.761199
O O7 0.401060 0.000000 0.990407
O O8 0.500000 0.166643 0.000000
O O9 0.376016 0.331993 0.955294
O O10 0.000000 0.000000 0.000000
O O11 0.908617 0.796443 0.518843
O O12 0.000000 0.827073 0.500000
O O13 0.074193 0.666643 0.637718
O O14 0.047235 0.000000 0.621207
O O15 0.249280 0.248990 0.435914
O O16 0.392973 0.233744 0.610787
O O17 0.366312 0.000000 0.517321
O O18 0.000000 0.500000 0.500000
O O19 0.130596 0.000000 0.348863
#
# Coordination Sequence:
#
# PCOD8078359 Si02
#       8
#     4   8   8   4   8   8   4   8
#     4  12  22  34  52  76 110 144 181 220 260 314
#     4  11  21  31  49  77 109 145 173 212 261 323
#     4   9  16  28  45  70 104 140 168 198 258 324
#     4  10  16  30  50  72 102 144 166 206 266 323
#     4  10  21  36  55  72  92 132 180 223 262 304
#     4  10  20  36  53  71 102 138 178 226 271 306
#     4  10  24  38  50  72 102 140 188 222 257 299
#     4  10  21  32  50  76 105 138 176 218 264 323
#
# _framework density 17.791810000000002
#
# number of rings (size 3 to 8) (size 9 to 14) (size 15 to 20)
#    0.000    1.846    4.615    0.923    4.308    2.462 
#    0.000    0.000    0.000    0.000    0.000    0.000 
#    0.000    1.231    0.000    0.000    0.000    0.000 
#
# Total GULP energy -322167.476910 kJ/mol
# GULP energy per Si atom -12391.056804 kJ/mol
# Density = 1.775132 g / cm^3
# Si number density = 17.791810 Si / 1000 Ang^3
#
#
#
# Elastic Constant Matrix: (Units=GPa)
#
#
# Indices 1 2 3 4 5 6 
#
# 1 73.1900 28.8797 23.7014 0.0000 -13.6083 0.0000
# 2 28.8797 150.7612 13.9497 0.0000 1.5457 0.0001
# 3 23.7014 13.9497 83.3467 0.0000 -22.7400 0.0000
# 4 0.0000 0.0000 0.0000 17.3193 0.0000 -2.3149
# 5 -13.6083 1.5457 -22.7400 0.0000 20.5556 0.0000
# 6 0.0000 0.0001 0.0000 -2.3149 0.0000 18.9729
#
#
#
# Elastic Compliance Matrix: (Units=1/GPa)
#
#
# Indices 1 2 3 4 5 6 
#
# 1 0.017330 -0.003264 -0.001697 0.000000 0.009841 0.000000
# 2 -0.003264 0.007444 -0.001518 0.000000 -0.004400 0.000000
# 3 -0.001697 -0.001518 0.017846 0.000000 0.018733 0.000000
# 4 0.000000 0.000000 0.000000 0.058696 0.000000 0.007162
# 5 0.009841 -0.004400 0.018733 0.000000 0.076218 0.000000
# 6 0.000000 0.000000 0.000000 0.007162 0.000000 0.053581
#
#
# Mechanical properties :
#
#
# Convention : Reuss Voigt Hill
#
# Bulk Modulus (GPa) = 33.71312 48.92885 41.32099
# Shear Modulus (GPa) = 19.68818 27.42070 23.55444
#
# Velocity S-wave (km/s) = 3.33015 3.93007 3.64248
# Velocity P-wave (km/s) = 5.81174 6.93934 6.40042
#
# Compressibility (1/GPa) = 0.02966204
#
# Stress axis : x y z
#
# Youngs Moduli (GPa) = 57.70294 134.34042 56.03572
#
# Poissons Ratio (x) = 0.43844 0.09509
# Poissons Ratio (y) = 0.18832 0.08508
# Poissons Ratio (z) = 0.09792 0.20396
#
# Static dielectric constant tensor:
#      x y z
#    x 2.996380 0.000000 -0.299980 
#    y 0.000000 4.903150 0.000000 
#    z -0.299980 0.000000 3.172850 
# 
# 
# High freq. dielectric constant tensor:
#      x y z
#    x 1.633810 0.000000 -0.032110 
#    y 0.000000 1.728240 0.000000 
#    z -0.032110 0.000000 1.660190 
# 
# From -- ./inp_files/324418.got.cif
#   From: 2010.06.25/outbox.cif.g09.slc.cpg/sg12_163_cif.got.tgz:324418.got - 2010.06.28 00:19:55.
