data_PCOD8078251
_publ_section_title
;
Structure prediction by ZEFSAII (Michael W. Deem and Ramdas Pophale) SiO2 
 PCOD8078251
Probable space group: C 2/M
;
_chemical_formula_sum "Si O2"
_cell_formula_units_Z 64
_cell_length_a 25.303528
_cell_length_b 8.943586
_cell_length_c 24.939414
_cell_angle_alpha 90.000000
_cell_angle_beta 48.559755
_cell_angle_gamma 90.000000
_cell_volume 4230.926246
_symmetry_space_group_name_H-M "C 2/M"
_symmetry_group_IT_number 12
_symmetry_cell_setting 'monoclinic'
loop_
_space_group_symop_operation_xyz
x,y,z
-x,y,-z
-x,-y,-z
x,-y,z
1/2+x,1/2+y,z
1/2-x,1/2+y,-z
1/2-x,1/2-y,-z
1/2+x,1/2-y,z
loop_
_atom_site_type_symbol
_atom_site_label
_atom_site_fract_x
_atom_site_fract_y
_atom_site_fract_z
Si Si1 0.576565 0.168134 0.300321
Si Si2 0.024222 0.322955 0.926738
Si Si3 0.182692 0.676844 0.822773
Si Si4 0.810813 0.332500 0.692850
Si Si5 0.221670 0.677185 0.914614
Si Si6 0.904945 0.322398 0.926110
Si Si7 0.378619 0.677515 0.832929
Si Si8 0.555071 0.676596 0.417876
O O1 0.657408 0.164362 0.267827
O O2 0.573374 0.259002 0.247286
O O3 0.530189 0.251994 0.377500
O O4 0.547669 0.000000 0.310866
O O5 0.019753 0.500000 0.934529
O O6 0.103844 0.273055 0.859936
O O7 0.972549 0.267915 0.914595
O O8 0.000000 0.253641 0.000000
O O9 0.192938 0.500000 0.812520
O O10 0.235286 0.751996 0.744681
O O11 0.199303 0.737258 0.871268
O O12 0.802104 0.500000 0.675721
O O13 0.867282 0.241188 0.618249
O O14 0.220984 0.500000 0.912898
O O15 0.298506 0.736349 0.880093
O O16 0.165332 0.733211 0.996211
O O17 0.904478 0.500000 0.917692
O O18 0.910575 0.240004 0.865996
O O19 0.382622 0.500000 0.829303
O O20 0.500000 0.726054 0.500000
O O21 0.559922 0.500000 0.408365
#
# Coordination Sequence:
#
# PCOD8078251 Si02
#       8
#     8   8   8   8   8   8   8   8
#     4   9  18  29  43  63  89 121 150 176 213 256
#     4   9  16  28  48  67  81 108 154 202 245 283
#     4  10  16  27  48  66  84 113 154 197 235 276
#     4   9  18  28  41  64  92 122 151 179 218 264
#     4   9  16  26  43  62  80 108 144 189 234 274
#     4  10  19  31  44  61  84 110 149 196 238 280
#     4  11  20  30  43  61  87 118 152 186 227 277
#     4   9  16  27  45  69  97 125 150 177 211 259
#
# _framework density 15.126711
#
# number of rings (size 3 to 8) (size 9 to 14) (size 15 to 20)
#    0.750    1.750    2.500    1.500    0.000    1.000 
#    0.000    1.875    0.000    0.750    0.000    0.000 
#    0.000    1.000    0.000    3.000    0.000    4.000 
#
# Total GULP energy -396583.844411 kJ/mol
# GULP energy per Si atom -12393.245138 kJ/mol
# Density = 1.509228 g / cm^3
# Si number density = 15.126711 Si / 1000 Ang^3
#
#
#
# Elastic Constant Matrix: (Units=GPa)
#
#
# Indices 1 2 3 4 5 6 
#
# 1 84.5889 28.3386 51.1475 -0.0051 2.4618 0.0060
# 2 28.3386 65.4880 48.3216 -0.0116 -0.6338 0.0075
# 3 51.1475 48.3216 130.3844 0.0004 -3.6606 -0.0004
# 4 -0.0051 -0.0116 0.0004 16.4830 0.0014 3.2457
# 5 2.4618 -0.6338 -3.6606 0.0014 16.4187 -0.0026
# 6 0.0060 0.0075 -0.0004 3.2457 -0.0026 15.0396
#
#
#
# Elastic Compliance Matrix: (Units=1/GPa)
#
#
# Indices 1 2 3 4 5 6 
#
# 1 0.016179 -0.003134 -0.005290 0.000005 -0.003726 -0.000007
# 2 -0.003134 0.021639 -0.006796 0.000017 -0.000210 -0.000013
# 3 -0.005290 -0.006796 0.012356 -0.000009 0.003286 0.000008
# 4 0.000005 0.000017 -0.000009 0.063361 -0.000010 -0.013674
# 5 -0.003726 -0.000210 0.003286 -0.000010 0.062189 0.000014
# 6 -0.000007 -0.000013 0.000008 -0.013674 0.000014 0.069442
#
#
# Mechanical properties :
#
#
# Convention : Reuss Voigt Hill
#
# Bulk Modulus (GPa) = 50.67493 59.56406 55.11950
# Shear Modulus (GPa) = 17.71901 19.76518 18.74210
#
# Velocity S-wave (km/s) = 3.42624 3.61867 3.52377
# Velocity P-wave (km/s) = 7.01607 7.54466 7.28516
#
# Compressibility (1/GPa) = 0.01973362
#
# Stress axis : x y z
#
# Youngs Moduli (GPa) = 61.80945 46.21371 80.93485
#
# Poissons Ratio (x) = 0.14483 0.42813
# Poissons Ratio (y) = 0.19370 0.55003
# Poissons Ratio (z) = 0.32696 0.31407
#
# Static dielectric constant tensor:
#      x y z
#    x 2.774090 -0.000010 -0.067430 
#    y -0.000010 2.717670 0.000000 
#    z -0.067430 0.000000 2.782920 
# 
# 
# High freq. dielectric constant tensor:
#      x y z
#    x 1.546850 0.000000 -0.004470 
#    y 0.000000 1.569510 0.000000 
#    z -0.004470 0.000000 1.565530 
# 
# From -- ./inp_files/350919.got.cif
#   From: 2010.06.25/outbox.cif.g09.slc.cpg/sg12_176_cif.got.tgz:350919.got - 2010.06.28 00:19:55.
