data_PCOD8078823
_publ_section_title
;
Structure prediction by ZEFSAII (Michael W. Deem and Ramdas Pophale) SiO2 
 PCOD8078823
Probable space group: C 2/M
;
_chemical_formula_sum "Si O2"
_cell_formula_units_Z 48
_cell_length_a 24.526352
_cell_length_b 9.109123
_cell_length_c 14.298179
_cell_angle_alpha 90.000000
_cell_angle_beta 111.712577
_cell_angle_gamma 90.000000
_cell_volume 2967.768279
_symmetry_space_group_name_H-M "C 2/M"
_symmetry_group_IT_number 12
_symmetry_cell_setting 'monoclinic'
loop_
_space_group_symop_operation_xyz
x,y,z
-x,y,-z
-x,-y,-z
x,-y,z
1/2+x,1/2+y,z
1/2-x,1/2+y,-z
1/2-x,1/2-y,-z
1/2+x,1/2-y,z
loop_
_atom_site_type_symbol
_atom_site_label
_atom_site_fract_x
_atom_site_fract_y
_atom_site_fract_z
Si Si1 0.669882 0.668628 0.499320
Si Si2 0.375328 0.670542 0.838210
Si Si3 0.460235 0.327146 0.556640
Si Si4 0.556315 0.834281 0.970020
Si Si5 0.791156 0.330843 0.658444
Si Si6 0.986630 0.828973 0.779668
O O1 0.668753 0.500000 0.461725
O O2 0.607841 0.711018 0.506723
O O3 0.720675 0.689652 0.608957
O O4 0.680213 0.773787 0.418686
O O5 0.365581 0.500000 0.851226
O O6 0.315036 0.740461 0.762000
O O7 0.425423 0.700048 0.793253
O O8 0.391294 0.746246 0.946714
O O9 0.500000 0.255321 0.500000
O O10 0.469869 0.500000 0.564034
O O11 0.480012 0.266733 0.670439
O O12 0.540044 0.757742 0.861783
O O13 0.577067 0.000000 0.963908
O O14 0.500000 0.829775 0.000000
O O15 0.808880 0.500000 0.681942
O O16 0.002571 0.000000 0.792799
#
# Coordination Sequence:
#
# PCOD8078823 Si02
#       6
#     8   8   8   8   8   8
#     4   9  17  30  43  62  88 117 151 183 218 260
#     4  10  17  27  43  63  89 117 146 178 217 266
#     4   9  16  28  47  67  87 116 154 188 214 250
#     4   9  17  27  40  61  88 115 144 176 217 268
#     4  10  18  26  42  64  90 119 146 179 221 265
#     4   9  16  27  42  61  86 116 147 180 216 256
#
# _framework density 16.173770000000001
#
# number of rings (size 3 to 8) (size 9 to 14) (size 15 to 20)
#    0.000    2.667    1.667    1.500    0.000    3.333 
#    0.000    0.000    0.000    2.000    0.000    1.167 
#    0.000    0.000    0.000    0.000    0.000    0.000 
#
# Total GULP energy -297555.305145 kJ/mol
# GULP energy per Si atom -12398.137714 kJ/mol
# Density = 1.613696 g / cm^3
# Si number density = 16.173770 Si / 1000 Ang^3
#
#
#
# Elastic Constant Matrix: (Units=GPa)
#
#
# Indices 1 2 3 4 5 6 
#
# 1 74.7406 29.8983 51.8595 0.0000 10.1884 0.0000
# 2 29.8983 86.7141 56.3477 0.0000 17.2693 0.0000
# 3 51.8595 56.3477 129.1674 0.0000 24.3213 0.0000
# 4 0.0000 0.0000 0.0000 29.4512 0.0000 8.7809
# 5 10.1884 17.2693 24.3213 0.0000 24.1098 0.0000
# 6 0.0000 0.0000 0.0000 8.7809 0.0000 12.1510
#
#
#
# Elastic Compliance Matrix: (Units=1/GPa)
#
#
# Indices 1 2 3 4 5 6 
#
# 1 0.018846 -0.002245 -0.006654 0.000000 0.000357 0.000000
# 2 -0.002245 0.016972 -0.005422 0.000000 -0.005739 0.000000
# 3 -0.006654 -0.005422 0.014219 0.000000 -0.007648 0.000000
# 4 0.000000 0.000000 0.000000 0.043279 0.000000 -0.031276
# 5 0.000357 -0.005739 -0.007648 0.000000 0.053151 0.000000
# 6 0.000000 0.000000 0.000000 -0.031276 0.000000 0.104900
#
#
# Mechanical properties :
#
#
# Convention : Reuss Voigt Hill
#
# Bulk Modulus (GPa) = 46.74086 62.98146 54.86116
# Shear Modulus (GPa) = 17.41293 23.31018 20.36155
#
# Velocity S-wave (km/s) = 3.28474 3.80048 3.55198
# Velocity P-wave (km/s) = 6.58392 7.63434 7.12850
#
# Compressibility (1/GPa) = 0.02139456
#
# Stress axis : x y z
#
# Youngs Moduli (GPa) = 53.06095 58.91919 70.32848
#
# Poissons Ratio (x) = 0.13227 0.46800
# Poissons Ratio (y) = 0.11912 0.38133
# Poissons Ratio (z) = 0.35309 0.31947
#
# Static dielectric constant tensor:
#      x y z
#    x 2.849180 0.000000 0.218260 
#    y 0.000000 3.035160 0.000000 
#    z 0.218260 0.000000 3.214090 
# 
# 
# High freq. dielectric constant tensor:
#      x y z
#    x 1.572030 0.000000 0.031040 
#    y 0.000000 1.617280 0.000000 
#    z 0.031040 0.000000 1.624010 
# 
# From -- ./inp_files/230450.got.cif
#   From: 2010.06.25/outbox.cif.g09.slc.cpg/sg12_116_cif.got.tgz:230450.got - 2010.06.28 00:19:55.
