data_PCOD8078079
_publ_section_title
;
Structure prediction by ZEFSAII (Michael W. Deem and Ramdas Pophale) SiO2 
 PCOD8078079
Probable space group: C 2/M
;
_chemical_formula_sum "Si O2"
_cell_formula_units_Z 48
_cell_length_a 21.073528
_cell_length_b 13.402083
_cell_length_c 18.868477
_cell_angle_alpha 90.000000
_cell_angle_beta 146.602798
_cell_angle_gamma 90.000000
_cell_volume 2933.299183
_symmetry_space_group_name_H-M "C 2/M"
_symmetry_group_IT_number 12
_symmetry_cell_setting 'monoclinic'
loop_
_space_group_symop_operation_xyz
x,y,z
-x,y,-z
-x,-y,-z
x,-y,z
1/2+x,1/2+y,z
1/2-x,1/2+y,-z
1/2-x,1/2-y,-z
1/2+x,1/2-y,z
loop_
_atom_site_type_symbol
_atom_site_label
_atom_site_fract_x
_atom_site_fract_y
_atom_site_fract_z
Si Si1 0.049186 0.890996 0.624189
Si Si2 0.291611 0.303417 0.629188
Si Si3 0.336211 0.616499 0.525712
Si Si4 0.346901 0.193370 0.298751
Si Si5 0.376501 0.382979 0.854864
Si Si6 0.925364 0.614070 0.518782
O O1 0.948493 0.858949 0.584069
O O2 0.000000 0.895717 0.500000
O O3 0.152028 0.809756 0.723195
O O4 0.099067 0.000000 0.691863
O O5 0.365323 0.350516 0.633650
O O6 0.271325 0.184168 0.602084
O O7 0.356973 0.324740 0.763381
O O8 0.165212 0.357186 0.504617
O O9 0.302330 0.500000 0.488369
O O10 0.218092 0.148868 0.173789
O O11 0.389538 0.183365 0.419361
O O12 0.440523 0.135200 0.336345
O O13 0.366683 0.500000 0.830540
O O14 0.500000 0.352324 0.000000
O O15 0.909373 0.500000 0.481333
#
# Coordination Sequence:
#
# PCOD8078079 Si02
#       6
#     8   8   8   8   8   8
#     4  10  17  27  43  66  96 124 155 191 233 286
#     4  10  18  31  49  72 102 127 156 195 244 292
#     4  10  19  30  47  74 102 129 156 193 246 295
#     4  10  15  27  42  65  92 117 150 191 238 279
#     4  10  20  33  50  71  96 128 164 200 236 284
#     4  10  16  24  42  68  93 118 144 192 247 289
#
# _framework density 16.363826
#
# number of rings (size 3 to 8) (size 9 to 14) (size 15 to 20)
#    0.000    2.000    3.333    5.500    0.000    0.000 
#    0.000    0.000    0.000    3.000    0.000    0.000 
#    0.000    0.000    0.000    0.000    0.000    0.000 
#
# Total GULP energy -297378.880167 kJ/mol
# GULP energy per Si atom -12390.786674 kJ/mol
# Density = 1.632658 g / cm^3
# Si number density = 16.363826 Si / 1000 Ang^3
#
#
#
# Elastic Constant Matrix: (Units=GPa)
#
#
# Indices 1 2 3 4 5 6 
#
# 1 98.0929 31.6962 34.7065 0.0000 7.8812 0.0000
# 2 31.6962 113.8061 32.1001 0.0000 2.2372 0.0000
# 3 34.7065 32.1001 78.6869 0.0000 13.7003 0.0000
# 4 0.0000 0.0000 0.0000 11.2635 0.0000 8.2565
# 5 7.8812 2.2372 13.7003 0.0000 20.6129 0.0000
# 6 0.0000 0.0000 0.0000 8.2565 0.0000 26.0564
#
#
#
# Elastic Compliance Matrix: (Units=1/GPa)
#
#
# Indices 1 2 3 4 5 6 
#
# 1 0.012593 -0.002249 -0.004344 0.000000 -0.001684 0.000000
# 2 -0.002249 0.010392 -0.003620 0.000000 0.002138 0.000000
# 3 -0.004344 -0.003620 0.017804 0.000000 -0.009780 0.000000
# 4 0.000000 0.000000 0.000000 0.115643 0.000000 -0.036644
# 5 -0.001684 0.002138 -0.009780 0.000000 0.055425 0.000000
# 6 0.000000 0.000000 0.000000 -0.036644 0.000000 0.049990
#
#
# Mechanical properties :
#
#
# Convention : Reuss Voigt Hill
#
# Bulk Modulus (GPa) = 49.10579 54.17684 51.64132
# Shear Modulus (GPa) = 17.29740 24.39211 20.84475
#
# Velocity S-wave (km/s) = 3.25476 3.86503 3.57295
# Velocity P-wave (km/s) = 6.64820 7.28680 6.97481
#
# Compressibility (1/GPa) = 0.02036420
#
# Stress axis : x y z
#
# Youngs Moduli (GPa) = 79.40706 96.22600 56.16717
#
# Poissons Ratio (x) = 0.21642 0.24399
# Poissons Ratio (y) = 0.17859 0.20331
# Poissons Ratio (z) = 0.34494 0.34831
#
# Static dielectric constant tensor:
#      x y z
#    x 3.507260 0.000000 0.338240 
#    y 0.000000 3.407250 0.000000 
#    z 0.338240 0.000000 2.652410 
# 
# 
# High freq. dielectric constant tensor:
#      x y z
#    x 1.643720 0.000000 0.019810 
#    y 0.000000 1.649680 0.000000 
#    z 0.019810 0.000000 1.552230 
# 
# From -- ./inp_files/325345.got.cif
#   From: 2010.06.25/outbox.cif.g09.slc.cpg/sg12_163_cif.got.tgz:325345.got - 2010.06.28 00:19:55.
