data_PCOD8078691
_publ_section_title
;
Structure prediction by ZEFSAII (Michael W. Deem and Ramdas Pophale) SiO2 
 PCOD8078691
Probable space group: C 2/M
;
_chemical_formula_sum "Si O2"
_cell_formula_units_Z 56
_cell_length_a 24.163980
_cell_length_b 8.774521
_cell_length_c 22.899397
_cell_angle_alpha 90.000000
_cell_angle_beta 135.284145
_cell_angle_gamma 90.000000
_cell_volume 3416.146095
_symmetry_space_group_name_H-M "C 2/M"
_symmetry_group_IT_number 12
_symmetry_cell_setting 'monoclinic'
loop_
_space_group_symop_operation_xyz
x,y,z
-x,y,-z
-x,-y,-z
x,-y,z
1/2+x,1/2+y,z
1/2-x,1/2+y,-z
1/2-x,1/2-y,-z
1/2+x,1/2-y,z
loop_
_atom_site_type_symbol
_atom_site_label
_atom_site_fract_x
_atom_site_fract_y
_atom_site_fract_z
Si Si1 0.234102 0.679757 0.550514
Si Si2 0.586871 0.322895 0.495694
Si Si3 0.589360 0.323963 0.633161
Si Si4 0.743548 0.819142 0.772682
Si Si5 0.826559 0.320183 0.723973
Si Si6 0.885090 0.170189 0.945332
Si Si7 0.968464 0.827284 0.883561
O O1 0.245010 0.500000 0.556722
O O2 0.250000 0.750000 0.500000
O O3 0.145237 0.718885 0.502580
O O4 0.297785 0.749972 0.641993
O O5 0.607550 0.500000 0.501361
O O6 0.594671 0.280350 0.569290
O O7 0.497751 0.287607 0.408010
O O8 0.609493 0.500000 0.657374
O O9 0.653160 0.225421 0.717021
O O10 0.770771 0.741333 0.733225
O O11 0.797854 0.759060 0.868378
O O12 0.753454 0.000000 0.773456
O O13 0.818348 0.500000 0.715342
O O14 0.918449 0.275101 0.801329
O O15 0.923832 0.169014 0.911044
O O16 0.875386 0.000000 0.961787
O O17 0.944222 0.247400 0.037496
O O18 0.974985 0.000000 0.863918
#
# Coordination Sequence:
#
# PCOD8078691 Si02
#       7
#     8   8   8   8   8   8   8
#     4  12  24  37  52  69  89 118 155 195 234 274
#     4   9  18  33  49  67  92 121 152 188 232 274
#     4   9  17  29  47  68  94 124 151 186 230 273
#     4  10  17  26  42  65  91 121 156 189 222 268
#     4  11  20  30  43  62  89 118 151 190 230 272
#     4   7  12  22  37  57  84 116 148 183 221 261
#     4   8  13  25  41  56  79 115 153 184 219 266
#
# _framework density 16.392741000000001
#
# number of rings (size 3 to 8) (size 9 to 14) (size 15 to 20)
#    0.000    2.571    1.429    5.571    0.000    0.571 
#    0.000    7.857    0.000    0.000    0.000    0.000 
#    0.000    1.143    0.000    3.429    0.000    5.571 
#
# Total GULP energy -346870.278598 kJ/mol
# GULP energy per Si atom -12388.224236 kJ/mol
# Density = 1.635543 g / cm^3
# Si number density = 16.392741 Si / 1000 Ang^3
#
#
#
# Elastic Constant Matrix: (Units=GPa)
#
#
# Indices 1 2 3 4 5 6 
#
# 1 49.9456 30.3846 50.5242 0.0000 11.7447 0.0000
# 2 30.3846 90.6800 50.7212 0.0000 9.3589 0.0000
# 3 50.5242 50.7212 141.1055 0.0000 36.3051 0.0000
# 4 0.0000 0.0000 0.0000 22.8631 0.0000 5.3686
# 5 11.7447 9.3589 36.3051 0.0000 27.0061 0.0000
# 6 0.0000 0.0000 0.0000 5.3686 0.0000 20.5432
#
#
#
# Elastic Compliance Matrix: (Units=1/GPa)
#
#
# Indices 1 2 3 4 5 6 
#
# 1 0.033591 -0.005606 -0.010325 0.000000 0.001215 0.000000
# 2 -0.005606 0.014887 -0.004042 0.000000 0.002713 0.000000
# 3 -0.010325 -0.004042 0.016390 0.000000 -0.016143 0.000000
# 4 0.000000 0.000000 0.000000 0.046598 0.000000 -0.012178
# 5 0.001215 0.002713 -0.016143 0.000000 0.057262 0.000000
# 6 0.000000 0.000000 0.000000 -0.012178 0.000000 0.051860
#
#
# Mechanical properties :
#
#
# Convention : Reuss Voigt Hill
#
# Bulk Modulus (GPa) = 40.12385 60.55457 50.33921
# Shear Modulus (GPa) = 18.59831 24.08921 21.34376
#
# Velocity S-wave (km/s) = 3.37196 3.83757 3.61227
# Velocity P-wave (km/s) = 6.29999 7.52702 6.94067
#
# Compressibility (1/GPa) = 0.02492283
#
# Stress axis : x y z
#
# Youngs Moduli (GPa) = 29.76972 67.17271 61.01197
#
# Poissons Ratio (x) = 0.37654 0.62996
# Poissons Ratio (y) = 0.16688 0.24661
# Poissons Ratio (z) = 0.30738 0.27151
#
# Static dielectric constant tensor:
#      x y z
#    x 2.778420 0.000000 0.507550 
#    y 0.000000 3.003390 0.000000 
#    z 0.507550 0.000000 3.597030 
# 
# 
# High freq. dielectric constant tensor:
#      x y z
#    x 1.573600 0.000000 0.043700 
#    y 0.000000 1.620750 0.000000 
#    z 0.043700 0.000000 1.640960 
# 
# From -- ./inp_files/323817.got.cif
#   From: 2010.06.25/outbox.cif.g09.slc.cpg/sg12_162_cif.got.tgz:323817.got - 2010.06.28 00:19:55.
