data_PCOD8078970
_publ_section_title
;
Structure prediction by ZEFSAII (Michael W. Deem and Ramdas Pophale) SiO2 
 PCOD8078970
Probable space group: C 2/M
;
_chemical_formula_sum "Si O2"
_cell_formula_units_Z 56
_cell_length_a 27.674579
_cell_length_b 14.943833
_cell_length_c 9.580692
_cell_angle_alpha 90.000000
_cell_angle_beta 119.786954
_cell_angle_gamma 90.000000
_cell_volume 3438.736368
_symmetry_space_group_name_H-M "C 2/M"
_symmetry_group_IT_number 12
_symmetry_cell_setting 'monoclinic'
loop_
_space_group_symop_operation_xyz
x,y,z
-x,y,-z
-x,-y,-z
x,-y,z
1/2+x,1/2+y,z
1/2-x,1/2+y,-z
1/2-x,1/2-y,-z
1/2+x,1/2-y,z
loop_
_atom_site_type_symbol
_atom_site_label
_atom_site_fract_x
_atom_site_fract_y
_atom_site_fract_z
Si Si1 0.438963 0.601520 0.641631
Si Si2 0.631608 0.322492 0.229217
Si Si3 0.060092 0.103693 0.893747
Si Si4 0.726784 0.733134 0.812419
Si Si5 0.287681 0.820278 0.641113
Si Si6 0.750330 0.598667 0.333405
Si Si7 0.872607 0.100874 0.282456
O O1 0.437621 0.500000 0.692983
O O2 0.388908 0.652891 0.646271
O O3 0.500128 0.641508 0.759487
O O4 0.426361 0.608208 0.459419
O O5 0.649342 0.217813 0.258863
O O6 0.684681 0.380834 0.256628
O O7 0.579537 0.337887 0.052706
O O8 0.106067 0.117510 0.841776
O O9 0.055747 0.000000 0.930711
O O10 0.765710 0.670280 0.768911
O O11 0.720366 0.830195 0.728930
O O12 0.669651 0.679684 0.741812
O O13 0.750000 0.750000 0.000000
O O14 0.250000 0.750000 0.500000
O O15 0.281498 0.906142 0.531367
O O16 0.756156 0.500000 0.275265
O O17 0.846574 0.000000 0.258420
#
# Coordination Sequence:
#
# PCOD8078970 Si02
#       7
#     8   8   8   8   8   8   8
#     4  10  18  27  41  62  88 120 156 183 205 254
#     4  10  17  28  44  62  88 117 147 183 223 261
#     4  10  19  28  40  63  92 121 153 184 214 257
#     4  10  19  30  46  69  93 118 156 197 227 270
#     4   8  17  30  43  62  86 114 151 189 223 270
#     4  10  19  32  48  66  91 124 158 191 230 274
#     4  10  19  31  45  61  91 130 154 176 220 269
#
# _framework density 16.285052
#
# number of rings (size 3 to 8) (size 9 to 14) (size 15 to 20)
#    0.000    2.571    0.000    6.429    0.000    6.286 
#    0.000    0.000    0.000    0.000    0.000    0.000 
#    0.000   18.286    0.000    0.571    0.000    0.000 
#
# Total GULP energy -346893.148006 kJ/mol
# GULP energy per Si atom -12389.041000 kJ/mol
# Density = 1.624799 g / cm^3
# Si number density = 16.285052 Si / 1000 Ang^3
#
#
#
# Elastic Constant Matrix: (Units=GPa)
#
#
# Indices 1 2 3 4 5 6 
#
# 1 54.6427 26.7700 17.4115 0.0000 2.2421 0.0000
# 2 26.7700 60.2555 16.0719 0.0000 6.3188 0.0000
# 3 17.4115 16.0719 88.6824 0.0000 -5.0847 0.0000
# 4 0.0000 0.0000 0.0000 21.4636 0.0000 -0.3409
# 5 2.2421 6.3188 -5.0847 0.0000 29.7056 0.0000
# 6 0.0000 0.0000 0.0000 -0.3409 0.0000 22.0180
#
#
#
# Elastic Compliance Matrix: (Units=1/GPa)
#
#
# Indices 1 2 3 4 5 6 
#
# 1 0.024098 -0.009896 -0.002950 0.000000 -0.000219 0.000000
# 2 -0.009896 0.022062 -0.002304 0.000000 -0.004340 0.000000
# 3 -0.002950 -0.002304 0.012436 0.000000 0.002841 0.000000
# 4 0.000000 0.000000 0.000000 0.046602 0.000000 0.000722
# 5 -0.000219 -0.004340 0.002841 0.000000 0.035090 0.000000
# 6 0.000000 0.000000 0.000000 0.000722 0.000000 0.045428
#
#
# Mechanical properties :
#
#
# Convention : Reuss Voigt Hill
#
# Bulk Modulus (GPa) = 35.34223 36.00968 35.67596
# Shear Modulus (GPa) = 22.17785 24.19259 23.18522
#
# Velocity S-wave (km/s) = 3.69433 3.85849 3.77730
# Velocity P-wave (km/s) = 6.32035 6.48157 6.40147
#
# Compressibility (1/GPa) = 0.02829476
#
# Stress axis : x y z
#
# Youngs Moduli (GPa) = 41.49709 45.32592 80.41189
#
# Poissons Ratio (x) = 0.44856 0.23724
# Poissons Ratio (y) = 0.41067 0.18529
# Poissons Ratio (z) = 0.12243 0.10444
#
# Static dielectric constant tensor:
#      x y z
#    x 3.011710 0.000000 -0.089820 
#    y 0.000000 3.120750 0.000000 
#    z -0.089820 0.000000 3.358020 
# 
# 
# High freq. dielectric constant tensor:
#      x y z
#    x 1.615750 0.000000 -0.013990 
#    y 0.000000 1.583650 0.000000 
#    z -0.013990 0.000000 1.641470 
# 
# From -- ./inp_files/97370.got.cif
#   From: 2010.06.25/outbox.cif.g09.slc.cpg/sg12_49_cif.got.tgz:97370.got - 2010.06.28 00:19:55.
