data_PCOD8078942
_publ_section_title
;
Structure prediction by ZEFSAII (Michael W. Deem and Ramdas Pophale) SiO2 
 PCOD8078942
Probable space group: C 2/M
;
_chemical_formula_sum "Si O2"
_cell_formula_units_Z 64
_cell_length_a 30.239070
_cell_length_b 13.469984
_cell_length_c 18.334621
_cell_angle_alpha 90.000000
_cell_angle_beta 29.307782
_cell_angle_gamma 90.000000
_cell_volume 3655.619082
_symmetry_space_group_name_H-M "C 2/M"
_symmetry_group_IT_number 12
_symmetry_cell_setting 'monoclinic'
loop_
_space_group_symop_operation_xyz
x,y,z
-x,y,-z
-x,-y,-z
x,-y,z
1/2+x,1/2+y,z
1/2-x,1/2+y,-z
1/2-x,1/2-y,-z
1/2+x,1/2-y,z
loop_
_atom_site_type_symbol
_atom_site_label
_atom_site_fract_x
_atom_site_fract_y
_atom_site_fract_z
Si Si1 0.031402 0.297992 0.152470
Si Si2 0.918720 0.614080 0.771511
Si Si3 0.456112 0.383372 0.336898
Si Si4 0.718784 0.388295 0.101670
Si Si5 0.431049 0.117942 0.164246
Si Si6 0.528999 0.700197 0.375623
Si Si7 0.756636 0.115640 0.623900
Si Si8 0.706277 0.887211 0.852784
O O1 0.032384 0.371114 0.220857
O O2 0.022002 0.183815 0.192795
O O3 0.953924 0.329453 0.207588
O O4 0.126060 0.308272 0.975177
O O5 0.927398 0.500000 0.735314
O O6 0.971748 0.680687 0.635680
O O7 0.812908 0.647127 0.929746
O O8 0.476589 0.500000 0.295527
O O9 0.465088 0.357361 0.410217
O O10 0.355438 0.353714 0.452928
O O11 0.700197 0.500000 0.103338
O O12 0.631340 0.326819 0.205349
O O13 0.724445 0.379969 0.180737
O O14 0.330932 0.161974 0.289938
O O15 0.432812 0.000000 0.172727
O O16 0.500000 0.147613 0.000000
O O17 0.500000 0.673214 0.500000
O O18 0.759519 0.144419 0.704643
O O19 0.743527 0.000000 0.633729
O O20 0.666136 0.000000 0.905040
#
# Coordination Sequence:
#
# PCOD8078942 Si02
#       8
#     8   8   8   8   8   8   8   8
#     4  10  18  30  50  74  98 126 159 193 238 290
#     4   9  19  34  50  70  99 129 157 195 245 289
#     4  10  22  36  47  66  99 135 163 192 237 286
#     4   9  17  29  48  70  95 127 162 201 237 276
#     4  10  17  27  50  82 104 116 150 202 244 283
#     4  11  21  32  50  73  95 125 167 201 237 284
#     4   9  17  29  46  71 103 127 150 194 244 283
#     4   9  15  27  49  76 100 122 152 199 253 285
#
# _framework density 17.507294000000002
#
# number of rings (size 3 to 8) (size 9 to 14) (size 15 to 20)
#    0.000    2.375    1.250    3.375    0.000    2.750 
#    0.000    0.000    0.000    0.375    0.000    5.250 
#    0.000    0.000    0.000    0.000    0.000    0.000 
#
# Total GULP energy -396493.984678 kJ/mol
# GULP energy per Si atom -12390.437021 kJ/mol
# Density = 1.746745 g / cm^3
# Si number density = 17.507294 Si / 1000 Ang^3
#
#
#
# Elastic Constant Matrix: (Units=GPa)
#
#
# Indices 1 2 3 4 5 6 
#
# 1 70.6146 16.8818 21.3741 0.0000 -14.2421 0.0000
# 2 16.8818 70.2865 31.7577 0.0000 -6.1563 0.0000
# 3 21.3741 31.7577 50.3627 0.0000 -9.2328 0.0000
# 4 0.0000 0.0000 0.0000 17.7860 0.0000 0.1082
# 5 -14.2421 -6.1563 -9.2328 0.0000 22.1966 0.0000
# 6 0.0000 0.0000 0.0000 0.1082 0.0000 17.3601
#
#
#
# Elastic Compliance Matrix: (Units=1/GPa)
#
#
# Indices 1 2 3 4 5 6 
#
# 1 0.017814 -0.001147 -0.005196 0.000000 0.008950 0.000000
# 2 -0.001147 0.019972 -0.012154 0.000000 -0.000252 0.000000
# 3 -0.005196 -0.012154 0.030848 0.000000 0.006127 0.000000
# 4 0.000000 0.000000 0.000000 0.056226 0.000000 -0.000350
# 5 0.008950 -0.000252 0.006127 0.000000 0.053273 0.000000
# 6 0.000000 0.000000 0.000000 -0.000350 0.000000 0.057605
#
#
# Mechanical properties :
#
#
# Convention : Reuss Voigt Hill
#
# Bulk Modulus (GPa) = 31.60465 36.81014 34.20739
# Shear Modulus (GPa) = 17.65046 19.55189 18.60117
#
# Velocity S-wave (km/s) = 3.17863 3.34546 3.26311
# Velocity P-wave (km/s) = 5.61810 5.99950 5.81193
#
# Compressibility (1/GPa) = 0.03164091
#
# Stress axis : x y z
#
# Youngs Moduli (GPa) = 56.13719 50.06945 32.41681
#
# Poissons Ratio (x) = 0.05742 0.16844
# Poissons Ratio (y) = 0.06438 0.39398
# Poissons Ratio (z) = 0.29170 0.60852
#
# Static dielectric constant tensor:
#      x y z
#    x 3.376120 0.000000 -0.239830 
#    y 0.000000 3.022070 0.000000 
#    z -0.239830 0.000000 3.219190 
# 
# 
# High freq. dielectric constant tensor:
#      x y z
#    x 1.680620 0.000000 -0.015420 
#    y 0.000000 1.649420 0.000000 
#    z -0.015420 0.000000 1.661180 
# 
# From -- ./inp_files/296680.got.cif
#   From: 2010.06.25/outbox.cif.g09.slc.cpg/sg12_149_cif.got.tgz:296680.got - 2010.06.28 00:19:55.
