data_PCOD8078303
_publ_section_title
;
Structure prediction by ZEFSAII (Michael W. Deem and Ramdas Pophale) SiO2 
 PCOD8078303
Probable space group: C 2/M
;
_chemical_formula_sum "Si O2"
_cell_formula_units_Z 48
_cell_length_a 5.060723
_cell_length_b 23.077717
_cell_length_c 24.208005
_cell_angle_alpha 90.000000
_cell_angle_beta 62.159601
_cell_angle_gamma 90.000000
_cell_volume 2500.002346
_symmetry_space_group_name_H-M "C 2/M"
_symmetry_group_IT_number 12
_symmetry_cell_setting 'monoclinic'
loop_
_space_group_symop_operation_xyz
x,y,z
-x,y,-z
-x,-y,-z
x,-y,z
1/2+x,1/2+y,z
1/2-x,1/2+y,-z
1/2-x,1/2-y,-z
1/2+x,1/2-y,z
loop_
_atom_site_type_symbol
_atom_site_label
_atom_site_fract_x
_atom_site_fract_y
_atom_site_fract_z
Si Si1 0.548395 0.131578 0.285559
Si Si2 0.853029 0.103977 0.460925
Si Si3 0.863802 0.789518 0.172564
Si Si4 0.476379 0.434136 0.327249
Si Si5 0.814114 0.185635 0.971299
Si Si6 0.713652 0.287195 0.394956
O O1 0.770176 0.154273 0.216688
O O2 0.317544 0.085344 0.281875
O O3 0.347325 0.185301 0.326058
O O4 0.737806 0.104659 0.317487
O O5 0.500000 0.112091 0.500000
O O6 0.000000 0.070861 0.500000
O O7 0.920005 0.069393 0.398434
O O8 0.020337 0.165635 0.445935
O O9 0.582748 0.750169 0.186163
O O10 0.020343 0.814085 0.102874
O O11 0.438040 0.500000 0.311231
O O12 0.500000 0.151853 0.000000
O O13 0.750000 0.250000 0.000000
O O14 0.000000 0.151857 0.000000
O O15 0.496807 0.233285 0.403278
#
# Coordination Sequence:
#
# PCOD8078303 Si02
#       6
#     8   8   8   8   8   8
#     4  11  23  38  56  85 108 141 199 224 269 339
#     4  11  23  38  58  86 109 134 184 228 270 351
#     4  12  20  31  54  81 121 163 184 218 259 314
#     4  11  24  44  63  77 106 139 173 248 307 329
#     4  10  16  29  44  73 116 162 187 212 245 307
#     4  11  21  36  54  75 115 151 174 211 257 315
#
# _framework density 19.199978999999999
#
# number of rings (size 3 to 8) (size 9 to 14) (size 15 to 20)
#    0.000    1.000    3.333    7.500    0.000    2.667 
#    0.000    0.000    0.000    0.000    0.000    0.000 
#    0.000   13.333    0.000    0.000    0.000    0.000 
#
# Total GULP energy -297538.333057 kJ/mol
# GULP energy per Si atom -12397.430544 kJ/mol
# Density = 1.915628 g / cm^3
# Si number density = 19.199979 Si / 1000 Ang^3
#
#
#
# Elastic Constant Matrix: (Units=GPa)
#
#
# Indices 1 2 3 4 5 6 
#
# 1 165.5646 32.3028 44.6615 0.0000 -7.3788 0.0000
# 2 32.3028 63.9150 35.1300 0.0000 -4.4952 0.0000
# 3 44.6615 35.1300 125.7856 0.0000 -9.7080 0.0000
# 4 0.0000 0.0000 0.0000 11.1371 0.0000 -1.8869
# 5 -7.3788 -4.4952 -9.7080 0.0000 34.1443 0.0000
# 6 0.0000 0.0000 0.0000 -1.8869 0.0000 22.1943
#
#
#
# Elastic Compliance Matrix: (Units=1/GPa)
#
#
# Indices 1 2 3 4 5 6 
#
# 1 0.007036 -0.002556 -0.001731 0.000000 0.000692 0.000000
# 2 -0.002556 0.019444 -0.004466 0.000000 0.000738 0.000000
# 3 -0.001731 -0.004466 0.009956 0.000000 0.001869 0.000000
# 4 0.000000 0.000000 0.000000 0.091102 0.000000 0.007745
# 5 0.000692 0.000738 0.001869 0.000000 0.030065 0.000000
# 6 0.000000 0.000000 0.000000 0.007745 0.000000 0.045715
#
#
# Mechanical properties :
#
#
# Convention : Reuss Voigt Hill
#
# Bulk Modulus (GPa) = 52.82475 64.38375 58.60425
# Shear Modulus (GPa) = 22.01323 29.70652 25.85988
#
# Velocity S-wave (km/s) = 3.38971 3.93773 3.67395
# Velocity P-wave (km/s) = 6.54926 7.36752 6.97041
#
# Compressibility (1/GPa) = 0.01893052
#
# Stress axis : x y z
#
# Youngs Moduli (GPa) = 142.11702 51.42921 100.44017
#
# Poissons Ratio (x) = 0.13146 0.17387
# Poissons Ratio (y) = 0.36327 0.44856
# Poissons Ratio (z) = 0.24602 0.22968
#
# Static dielectric constant tensor:
#      x y z
#    x 3.716990 0.000000 -0.080560 
#    y 0.000000 3.104750 0.000000 
#    z -0.080560 0.000000 3.498860 
# 
# 
# High freq. dielectric constant tensor:
#      x y z
#    x 1.782660 0.000000 -0.006340 
#    y 0.000000 1.696190 0.000000 
#    z -0.006340 0.000000 1.742590 
# 
# From -- ./inp_files/331230.got.cif
#   From: 2010.06.25/outbox.cif.g09.slc.cpg/sg12_166_cif.got.tgz:331230.got - 2010.06.28 00:19:55.
