data_PCOD8078416
_publ_section_title
;
Structure prediction by ZEFSAII (Michael W. Deem and Ramdas Pophale) SiO2 
 PCOD8078416
Probable space group: C 2/M
;
_chemical_formula_sum "Si O2"
_cell_formula_units_Z 56
_cell_length_a 10.251728
_cell_length_b 27.643068
_cell_length_c 11.398373
_cell_angle_alpha 90.000000
_cell_angle_beta 102.787075
_cell_angle_gamma 90.000000
_cell_volume 3150.065366
_symmetry_space_group_name_H-M "C 2/M"
_symmetry_group_IT_number 12
_symmetry_cell_setting 'monoclinic'
loop_
_space_group_symop_operation_xyz
x,y,z
-x,y,-z
-x,-y,-z
x,-y,z
1/2+x,1/2+y,z
1/2-x,1/2+y,-z
1/2-x,1/2-y,-z
1/2+x,1/2-y,z
loop_
_atom_site_type_symbol
_atom_site_label
_atom_site_fract_x
_atom_site_fract_y
_atom_site_fract_z
Si Si1 0.835062 0.853839 0.069412
Si Si2 0.263253 0.443535 0.408391
Si Si3 0.071048 0.055533 0.787188
Si Si4 0.880798 0.180518 0.823988
Si Si5 0.202491 0.097944 0.333997
Si Si6 0.526040 0.053075 0.642745
Si Si7 0.151166 0.274676 0.072700
O O1 0.849503 0.910500 0.104984
O O2 0.706573 0.828843 0.108231
O O3 0.959804 0.823808 0.144138
O O4 0.823587 0.848123 0.926892
O O5 0.260860 0.500000 0.446785
O O6 0.372549 0.434017 0.331249
O O7 0.302417 0.411567 0.528465
O O8 0.115189 0.428503 0.330124
O O9 0.913413 0.067219 0.754258
O O10 0.094594 0.000000 0.829584
O O11 0.821032 0.154898 0.696217
O O12 0.844899 0.237711 0.815447
O O13 0.346323 0.086163 0.304336
O O14 0.500000 0.050951 0.500000
O O15 0.560456 0.000000 0.698962
O O16 0.250000 0.250000 0.000000
O O17 0.000000 0.278735 0.000000
#
# Coordination Sequence:
#
# PCOD8078416 Si02
#       7
#     8   8   8   8   8   8   8
#     4   9  18  33  49  73 100 127 159 195 249 286
#     4   9  17  30  46  67  96 129 168 205 234 276
#     4  10  19  31  48  70 101 133 164 199 232 283
#     4   9  17  31  49  75 102 117 156 212 237 285
#     4  10  17  27  48  72  94 123 161 201 240 280
#     4   8  14  26  42  61  89 123 161 200 232 269
#     4  10  16  32  56  73  93 122 159 204 242 285
#
# _framework density 17.777408999999999
#
# number of rings (size 3 to 8) (size 9 to 14) (size 15 to 20)
#    0.000    2.714    2.857    2.571    0.000    1.143 
#    5.143    7.143    0.000    1.286    0.000    4.000 
#    0.000    0.000    0.000    0.000    0.000    0.000 
#
# Total GULP energy -346889.672426 kJ/mol
# GULP energy per Si atom -12388.916872 kJ/mol
# Density = 1.773695 g / cm^3
# Si number density = 17.777409 Si / 1000 Ang^3
#
#
#
# Elastic Constant Matrix: (Units=GPa)
#
#
# Indices 1 2 3 4 5 6 
#
# 1 106.0496 47.3787 21.0647 0.0000 11.2401 0.0000
# 2 47.3787 103.2496 32.3851 0.0000 7.9349 0.0000
# 3 21.0647 32.3851 43.3665 0.0000 5.1980 0.0000
# 4 0.0000 0.0000 0.0000 27.7083 0.0000 1.3085
# 5 11.2401 7.9349 5.1980 0.0000 12.9058 0.0000
# 6 0.0000 0.0000 0.0000 1.3085 0.0000 25.8555
#
#
#
# Elastic Compliance Matrix: (Units=1/GPa)
#
#
# Indices 1 2 3 4 5 6 
#
# 1 0.012661 -0.004687 -0.001759 0.000000 -0.007437 0.000000
# 2 -0.004687 0.014600 -0.008448 0.000000 -0.001492 0.000000
# 3 -0.001759 -0.008448 0.030908 0.000000 -0.005723 0.000000
# 4 0.000000 0.000000 0.000000 0.036177 0.000000 -0.001831
# 5 -0.007437 -0.001492 -0.005723 0.000000 0.087184 0.000000
# 6 0.000000 0.000000 0.000000 -0.001831 0.000000 0.038769
#
#
# Mechanical properties :
#
#
# Convention : Reuss Voigt Hill
#
# Bulk Modulus (GPa) = 35.23209 50.48029 42.85619
# Shear Modulus (GPa) = 19.26440 23.41641 21.34040
#
# Velocity S-wave (km/s) = 3.29545 3.63326 3.46847
# Velocity P-wave (km/s) = 5.86016 6.78662 6.34033
#
# Compressibility (1/GPa) = 0.02838321
#
# Stress axis : x y z
#
# Youngs Moduli (GPa) = 78.98332 68.49197 32.35410
#
# Poissons Ratio (x) = 0.32100 0.05690
# Poissons Ratio (y) = 0.37017 0.27332
# Poissons Ratio (z) = 0.13890 0.57860
#
# Static dielectric constant tensor:
#      x y z
#    x 3.800990 0.000000 -0.014020 
#    y 0.000000 3.453670 0.000000 
#    z -0.014020 0.000000 2.880240 
# 
# 
# High freq. dielectric constant tensor:
#      x y z
#    x 1.705660 0.000000 0.000800 
#    y 0.000000 1.671740 0.000000 
#    z 0.000800 0.000000 1.635310 
# 
# From -- ./inp_files/136345.got.cif
#   From: 2010.06.25/outbox.cif.g09.slc.cpg/sg12_69_cif.got.tgz:136345.got - 2010.06.28 00:19:55.
