data_PCOD8078048
_publ_section_title
;
Structure prediction by ZEFSAII (Michael W. Deem and Ramdas Pophale) SiO2 
 PCOD8078048
Probable space group: C 2/M
;
_chemical_formula_sum "Si O2"
_cell_formula_units_Z 48
_cell_length_a 5.270667
_cell_length_b 26.589325
_cell_length_c 23.736631
_cell_angle_alpha 90.000000
_cell_angle_beta 102.782992
_cell_angle_gamma 90.000000
_cell_volume 3244.086131
_symmetry_space_group_name_H-M "C 2/M"
_symmetry_group_IT_number 12
_symmetry_cell_setting 'monoclinic'
loop_
_space_group_symop_operation_xyz
x,y,z
-x,y,-z
-x,-y,-z
x,-y,z
1/2+x,1/2+y,z
1/2-x,1/2+y,-z
1/2-x,1/2-y,-z
1/2+x,1/2-y,z
loop_
_atom_site_type_symbol
_atom_site_label
_atom_site_fract_x
_atom_site_fract_y
_atom_site_fract_z
Si Si1 0.568375 0.886063 0.068663
Si Si2 0.397718 0.781956 0.438014
Si Si3 0.431598 0.556608 0.931299
Si Si4 0.235375 0.197463 0.733976
Si Si5 0.627205 0.219030 0.131191
Si Si6 0.813047 0.309389 0.314624
O O1 0.341675 0.915031 0.091397
O O2 0.594867 0.830730 0.093810
O O3 0.839633 0.915284 0.091376
O O4 0.500000 0.882249 0.000000
O O5 0.500000 0.810045 0.500000
O O6 0.607063 0.738475 0.434340
O O7 0.382143 0.819147 0.383642
O O8 0.406227 0.500000 0.906509
O O9 0.500000 0.555217 0.000000
O O10 0.304588 0.206305 0.801613
O O11 0.202507 0.249851 0.699224
O O12 0.465178 0.166210 0.714342
O O13 0.966105 0.166295 0.715085
O O14 0.357602 0.249048 0.114513
#
# Coordination Sequence:
#
# PCOD8078048 Si02
#       6
#     8   8   8   8   8   8
#     4  10  21  33  46  67  87 105 133 165 204 252
#     4  10  16  20  29  45  62  80 105 155 217 241
#     4   9  17  33  54  70  83  99 122 160 210 258
#     4  10  16  25  37  49  62  94 135 164 187 217
#     4  12  21  31  43  58  83 115 145 169 195 233
#     4  10  14  25  36  46  63  87 130 167 195 230
#
# _framework density 14.796154
#
# number of rings (size 3 to 8) (size 9 to 14) (size 15 to 20)
#    0.000    1.833    6.667    1.500    0.000    2.667 
#    0.000    0.000    0.000    0.000    0.000    0.000 
#    0.000    0.000    0.000    0.000    0.000    0.000 
#
# Total GULP energy -297418.523978 kJ/mol
# GULP energy per Si atom -12392.438499 kJ/mol
# Density = 1.476248 g / cm^3
# Si number density = 14.796154 Si / 1000 Ang^3
#
#
#
# Elastic Constant Matrix: (Units=GPa)
#
#
# Indices 1 2 3 4 5 6 
#
# 1 138.8156 24.3049 27.5762 0.0000 -38.7434 0.0000
# 2 24.3049 43.5750 29.1186 0.0000 -30.0680 0.0000
# 3 27.5762 29.1186 39.1430 0.0000 -0.9907 0.0000
# 4 0.0000 0.0000 0.0000 0.2606 0.0000 -0.8690
# 5 -38.7434 -30.0680 -0.9907 0.0000 -25.9770 0.0000
# 6 0.0000 0.0000 0.0000 -0.8690 0.0000 17.3877
#
#
#
# Elastic Compliance Matrix: (Units=1/GPa)
#
#
# Indices 1 2 3 4 5 6 
#
# 1 0.007386 -0.006272 -0.000632 0.000000 -0.003732 0.000000
# 2 -0.006272 0.023509 -0.013508 0.000000 -0.017341 0.000000
# 3 -0.000632 -0.013508 0.036426 0.000000 0.015189 0.000000
# 4 0.000000 0.000000 0.000000 4.604032 0.000000 0.230108
# 5 -0.003732 -0.017341 0.015189 0.000000 -0.013438 0.000000
# 6 0.000000 0.000000 0.000000 0.230108 0.000000 0.069013
#
#
# Mechanical properties :
#
#
# Convention : Reuss Voigt Hill
#
# Bulk Modulus (GPa) = 37.74218 42.61478 40.17848
# Shear Modulus (GPa) = 1.04677 7.70318 4.37498
#
# Velocity S-wave (km/s) = 0.84202 2.28419 1.72141
# Velocity P-wave (km/s) = 5.14867 5.98502 5.58253
#
# Compressibility (1/GPa) = 0.02649556
#
# Stress axis : x y z
#
# Youngs Moduli (GPa) = 135.39016 42.53756 27.45321
#
# Poissons Ratio (x) = 0.26681 0.01735
# Poissons Ratio (y) = 0.84922 0.37084
# Poissons Ratio (z) = 0.08555 0.57460
#
# Static dielectric constant tensor:
#      x y z
#    x 4.639950 0.000000 -0.079670 
#    y 0.000000 2.378190 0.000000 
#    z -0.079670 0.000000 2.959050 
# 
# 
# High freq. dielectric constant tensor:
#      x y z
#    x 1.606580 0.000000 -0.002570 
#    y 0.000000 1.482600 0.000000 
#    z -0.002570 0.000000 1.558080 
# 
# From -- ./inp_files/297948.got.cif
#   From: 2010.06.25/outbox.cif.g09.slc.cpg/sg12_149_cif.got.tgz:297948.got - 2010.06.28 00:19:55.
