data_PCOD8078871
_publ_section_title
;
Structure prediction by ZEFSAII (Michael W. Deem and Ramdas Pophale) SiO2 
 PCOD8078871
Probable space group: C 2/M
;
_chemical_formula_sum "Si O2"
_cell_formula_units_Z 64
_cell_length_a 30.112041
_cell_length_b 9.634261
_cell_length_c 14.855856
_cell_angle_alpha 90.000000
_cell_angle_beta 77.628680
_cell_angle_gamma 90.000000
_cell_volume 4209.716814
_symmetry_space_group_name_H-M "C 2/M"
_symmetry_group_IT_number 12
_symmetry_cell_setting 'monoclinic'
loop_
_space_group_symop_operation_xyz
x,y,z
-x,y,-z
-x,-y,-z
x,-y,z
1/2+x,1/2+y,z
1/2-x,1/2+y,-z
1/2-x,1/2-y,-z
1/2+x,1/2-y,z
loop_
_atom_site_type_symbol
_atom_site_label
_atom_site_fract_x
_atom_site_fract_y
_atom_site_fract_z
Si Si1 0.542281 0.335685 0.782674
Si Si2 0.033129 0.340075 0.616496
Si Si3 0.297995 0.660753 0.075075
Si Si4 0.603007 0.664585 0.920543
Si Si5 0.566298 0.159629 0.407164
Si Si6 0.714164 0.658651 0.127311
Si Si7 0.942109 0.835457 0.880239
Si Si8 0.120161 0.162370 0.255168
O O1 0.543582 0.500000 0.764687
O O2 0.553078 0.257868 0.685283
O O3 0.580076 0.286672 0.837846
O O4 0.493606 0.287139 0.841955
O O5 0.035820 0.500000 0.645734
O O6 0.063689 0.315298 0.515041
O O7 0.981281 0.298145 0.618128
O O8 0.289027 0.500000 0.099536
O O9 0.344645 0.713864 0.100264
O O10 0.256609 0.746066 0.136274
O O11 0.302265 0.688886 0.966891
O O12 0.601026 0.500000 0.929672
O O13 0.575493 0.727747 0.017562
O O14 0.606353 0.255415 0.350980
O O15 0.577619 0.000000 0.381482
O O16 0.729742 0.500000 0.130221
O O17 0.672822 0.692925 0.211974
O O18 0.910290 0.780146 0.813823
O O19 0.938809 0.000000 0.885268
O O20 0.111400 0.000000 0.274797
#
# Coordination Sequence:
#
# PCOD8078871 Si02
#       8
#     8   8   8   8   8   8   8   8
#     4  10  18  27  45  68  87 115 156 188 209 247
#     4   9  18  32  45  60  87 120 147 178 221 261
#     4   9  16  28  44  61  85 118 151 180 212 255
#     4   9  16  27  43  64  90 120 152 184 214 248
#     4   9  18  31  46  62  85 118 150 177 215 268
#     4   9  17  28  43  63  89 115 143 181 223 259
#     4   9  15  25  40  63  92 119 147 177 211 250
#     4  10  17  27  45  68  91 115 143 181 223 256
#
# _framework density 15.202923
#
# number of rings (size 3 to 8) (size 9 to 14) (size 15 to 20)
#    0.000    2.750    2.500    1.125    0.000    2.500 
#    0.000    1.875    0.000    3.000    0.000    0.875 
#    0.000    0.000    0.000    0.000    0.000    0.000 
#
# Total GULP energy -396769.820327 kJ/mol
# GULP energy per Si atom -12399.056885 kJ/mol
# Density = 1.516832 g / cm^3
# Si number density = 15.202923 Si / 1000 Ang^3
#
#
#
# Elastic Constant Matrix: (Units=GPa)
#
#
# Indices 1 2 3 4 5 6 
#
# 1 104.6494 41.6349 53.5132 0.0000 -3.4825 0.0000
# 2 41.6349 48.0797 45.6368 0.0000 -7.5357 0.0000
# 3 53.5132 45.6368 95.6264 0.0000 -4.7769 0.0000
# 4 0.0000 0.0000 0.0000 21.7000 0.0000 -3.7246
# 5 -3.4825 -7.5357 -4.7769 0.0000 22.2425 0.0000
# 6 0.0000 0.0000 0.0000 -3.7246 0.0000 21.4108
#
#
#
# Elastic Compliance Matrix: (Units=1/GPa)
#
#
# Indices 1 2 3 4 5 6 
#
# 1 0.015486 -0.009833 -0.004062 0.000000 -0.001779 0.000000
# 2 -0.009833 0.046173 -0.016000 0.000000 0.010668 0.000000
# 3 -0.004062 -0.016000 0.020281 0.000000 -0.001701 0.000000
# 4 0.000000 0.000000 0.000000 0.047501 0.000000 0.008263
# 5 -0.001779 0.010668 -0.001701 0.000000 0.047929 0.000000
# 6 0.000000 0.000000 0.000000 0.008263 0.000000 0.048143
#
#
# Mechanical properties :
#
#
# Convention : Reuss Voigt Hill
#
# Bulk Modulus (GPa) = 45.14746 58.88058 52.01402
# Shear Modulus (GPa) = 17.08307 20.24204 18.66255
#
# Velocity S-wave (km/s) = 3.35576 3.65287 3.50746
# Velocity P-wave (km/s) = 6.69147 7.52364 7.11973
#
# Compressibility (1/GPa) = 0.02214964
#
# Stress axis : x y z
#
# Youngs Moduli (GPa) = 64.57516 21.65766 49.30639
#
# Poissons Ratio (x) = 0.21297 0.20028
# Poissons Ratio (y) = 0.63499 0.78890
# Poissons Ratio (z) = 0.26230 0.34652
#
# Static dielectric constant tensor:
#      x y z
#    x 2.901910 0.000000 -0.029900 
#    y 0.000000 2.683520 0.000000 
#    z -0.029900 0.000000 2.836290 
# 
# 
# High freq. dielectric constant tensor:
#      x y z
#    x 1.569170 0.000000 -0.008450 
#    y 0.000000 1.559710 0.000000 
#    z -0.008450 0.000000 1.569370 
# 
# From -- ./inp_files/248257.got.cif
#   From: 2010.06.25/outbox.cif.g09.slc.cpg/sg12_125_cif.got.tgz:248257.got - 2010.06.28 00:19:55.
