data_PCOD8078512
_publ_section_title
;
Structure prediction by ZEFSAII (Michael W. Deem and Ramdas Pophale) SiO2 
 PCOD8078512
Probable space group: C 2/M
;
_chemical_formula_sum "Si O2"
_cell_formula_units_Z 64
_cell_length_a 27.834681
_cell_length_b 8.955852
_cell_length_c 22.025310
_cell_angle_alpha 90.000000
_cell_angle_beta 47.397485
_cell_angle_gamma 90.000000
_cell_volume 4041.408540
_symmetry_space_group_name_H-M "C 2/M"
_symmetry_group_IT_number 12
_symmetry_cell_setting 'monoclinic'
loop_
_space_group_symop_operation_xyz
x,y,z
-x,y,-z
-x,-y,-z
x,-y,z
1/2+x,1/2+y,z
1/2-x,1/2+y,-z
1/2-x,1/2-y,-z
1/2+x,1/2-y,z
loop_
_atom_site_type_symbol
_atom_site_label
_atom_site_fract_x
_atom_site_fract_y
_atom_site_fract_z
Si Si1 0.028588 0.831427 0.908434
Si Si2 0.406009 0.177257 0.555795
Si Si3 0.630517 0.670377 0.226581
Si Si4 0.013735 0.173639 0.405382
Si Si5 0.680379 0.824205 0.066749
Si Si6 0.295676 0.325304 0.713181
Si Si7 0.907131 0.675637 0.969933
Si Si8 0.647554 0.175254 0.854104
O O1 0.099265 0.753156 0.847305
O O2 0.978535 0.750522 0.905722
O O3 0.037349 0.000000 0.878786
O O4 0.000000 0.819981 0.000000
O O5 0.445642 0.235656 0.579609
O O6 0.441202 0.251546 0.466037
O O7 0.331896 0.234491 0.628266
O O8 0.407642 0.000000 0.548867
O O9 0.645507 0.500000 0.194272
O O10 0.553382 0.689960 0.308410
O O11 0.647129 0.781033 0.158292
O O12 0.674925 0.714067 0.246153
O O13 0.009129 0.000000 0.427780
O O14 0.634333 0.767359 0.051753
O O15 0.689914 0.000000 0.055417
O O16 0.750000 0.750000 0.000000
O O17 0.304480 0.500000 0.692514
O O18 0.220708 0.274644 0.776023
O O19 0.918004 0.500000 0.959008
O O20 0.868335 0.725313 0.063535
O O21 0.638181 0.000000 0.855141
#
# Coordination Sequence:
#
# PCOD8078512 Si02
#       8
#     8   8   8   8   8   8   8   8
#     4   9  17  28  43  64  85 104 132 174 220 257
#     4  10  17  24  38  61  85 108 138 177 215 250
#     4   9  18  31  45  61  83 113 150 184 212 248
#     4   9  16  28  43  56  77 111 145 175 209 255
#     4  11  22  33  46  63  86 115 148 184 216 249
#     4   9  17  29  43  60  86 119 148 172 207 258
#     4   9  18  32  46  60  80 111 148 178 208 250
#     4   9  16  28  46  62  81 112 145 174 206 252
#
# _framework density 15.836064
#
# number of rings (size 3 to 8) (size 9 to 14) (size 15 to 20)
#    0.000    2.625    0.000    4.500    0.000    7.500 
#    0.000    2.500    0.000    0.000    0.000    0.000 
#    0.000    1.000    0.000    3.250    0.000    4.250 
#
# Total GULP energy -396657.155243 kJ/mol
# GULP energy per Si atom -12395.536101 kJ/mol
# Density = 1.580002 g / cm^3
# Si number density = 15.836064 Si / 1000 Ang^3
#
#
#
# Elastic Constant Matrix: (Units=GPa)
#
#
# Indices 1 2 3 4 5 6 
#
# 1 100.0507 42.7626 50.9040 0.0043 -22.1512 -0.0130
# 2 42.7626 69.0236 45.0855 0.0184 -13.1430 -0.0370
# 3 50.9040 45.0855 101.1853 0.0079 -25.4241 -0.0037
# 4 0.0043 0.0184 0.0079 26.1174 0.0001 -3.3134
# 5 -22.1512 -13.1430 -25.4241 0.0001 22.4630 0.0015
# 6 -0.0130 -0.0370 -0.0037 -3.3134 0.0015 19.9330
#
#
#
# Elastic Compliance Matrix: (Units=1/GPa)
#
#
# Indices 1 2 3 4 5 6 
#
# 1 0.016243 -0.006342 -0.003149 0.000002 0.008743 -0.000002
# 2 -0.006342 0.022997 -0.007332 -0.000008 -0.001097 0.000036
# 3 -0.003149 -0.007332 0.017993 -0.000002 0.012969 -0.000014
# 4 0.000002 -0.000008 -0.000002 0.039113 -0.000005 0.006502
# 5 0.008743 -0.001097 0.012969 -0.000005 0.067176 0.000000
# 6 -0.000002 0.000036 -0.000014 0.006502 0.000000 0.051249
#
#
# Mechanical properties :
#
#
# Convention : Reuss Voigt Hill
#
# Bulk Modulus (GPa) = 42.39545 60.86265 51.62905
# Shear Modulus (GPa) = 19.50988 22.46986 20.98987
#
# Velocity S-wave (km/s) = 3.51378 3.77092 3.64462
# Velocity P-wave (km/s) = 6.57965 7.58130 7.09817
#
# Compressibility (1/GPa) = 0.02358744
#
# Stress axis : x y z
#
# Youngs Moduli (GPa) = 61.56365 43.48374 55.57754
#
# Poissons Ratio (x) = 0.27575 0.17503
# Poissons Ratio (y) = 0.39041 0.40751
# Poissons Ratio (z) = 0.19388 0.31883
#
# Static dielectric constant tensor:
#      x y z
#    x 2.875160 -0.000030 -0.334340 
#    y -0.000030 3.011100 0.000010 
#    z -0.334340 0.000010 3.349930 
# 
# 
# High freq. dielectric constant tensor:
#      x y z
#    x 1.570320 0.000000 -0.030630 
#    y 0.000000 1.614350 0.000000 
#    z -0.030630 0.000000 1.598330 
# 
# From -- ./inp_files/326874.got.cif
#   From: 2010.06.25/outbox.cif.g09.slc.cpg/sg12_164_cif.got.tgz:326874.got - 2010.06.28 00:19:55.
