data_PCOD8078593
_publ_section_title
;
Structure prediction by ZEFSAII (Michael W. Deem and Ramdas Pophale) SiO2 
 PCOD8078593
Probable space group: C 2/M
;
_chemical_formula_sum "Si O2"
_cell_formula_units_Z 48
_cell_length_a 20.704144
_cell_length_b 8.664425
_cell_length_c 15.303666
_cell_angle_alpha 90.000000
_cell_angle_beta 78.839843
_cell_angle_gamma 90.000000
_cell_volume 2693.403055
_symmetry_space_group_name_H-M "C 2/M"
_symmetry_group_IT_number 12
_symmetry_cell_setting 'monoclinic'
loop_
_space_group_symop_operation_xyz
x,y,z
-x,y,-z
-x,-y,-z
x,-y,z
1/2+x,1/2+y,z
1/2-x,1/2+y,-z
1/2-x,1/2-y,-z
1/2+x,1/2-y,z
loop_
_atom_site_type_symbol
_atom_site_label
_atom_site_fract_x
_atom_site_fract_y
_atom_site_fract_z
Si Si1 0.891534 0.682875 0.275749
Si Si2 0.420399 0.681069 0.096141
Si Si3 0.540575 0.819767 0.272914
Si Si4 0.180313 0.183583 0.544349
Si Si5 0.932210 0.182065 0.556222
Si Si6 0.063126 0.679485 0.077136
O O1 0.885827 0.500000 0.269074
O O2 0.873325 0.760472 0.186627
O O3 0.838688 0.747228 0.357217
O O4 0.964706 0.736500 0.285749
O O5 0.433519 0.500000 0.100028
O O6 0.486750 0.778714 0.087872
O O7 0.393455 0.723762 0.005298
O O8 0.577537 0.733697 0.341451
O O9 0.581188 0.781063 0.173240
O O10 0.541487 0.000000 0.292160
O O11 0.250000 0.250000 0.500000
O O12 0.128208 0.243070 0.485890
O O13 0.182503 0.000000 0.549534
O O14 0.000000 0.252823 0.500000
O O15 0.934998 0.000000 0.551969
O O16 0.073466 0.500000 0.055524
#
# Coordination Sequence:
#
# PCOD8078593 Si02
#       6
#     8   8   8   8   8   8
#     4  10  19  32  49  71  99 134 170 210 256 303
#     4  10  17  25  41  66  95 131 168 205 251 303
#     4   9  18  29  47  73 100 132 169 208 252 301
#     4  11  23  38  54  75 103 136 173 214 258 304
#     4  10  20  34  52  75 102 133 169 213 258 302
#     4   9  16  27  40  63  98 132 165 205 252 301
#
# _framework density 17.82132
#
# number of rings (size 3 to 8) (size 9 to 14) (size 15 to 20)
#    0.000    2.167    1.667    5.000    0.000    5.000 
#    0.000    0.000    0.000    0.000    0.000    1.167 
#    0.000    0.000    0.000    0.000    0.000    0.000 
#
# Total GULP energy -297482.271541 kJ/mol
# GULP energy per Si atom -12395.094648 kJ/mol
# Density = 1.778076 g / cm^3
# Si number density = 17.821320 Si / 1000 Ang^3
#
#
#
# Elastic Constant Matrix: (Units=GPa)
#
#
# Indices 1 2 3 4 5 6 
#
# 1 65.7129 22.2584 51.3775 0.0000 -2.2496 0.0000
# 2 22.2584 48.9570 45.7521 0.0000 0.3244 0.0000
# 3 51.3775 45.7521 181.7072 0.0000 2.9803 0.0000
# 4 0.0000 0.0000 0.0000 38.3699 0.0000 1.6228
# 5 -2.2496 0.3244 2.9803 0.0000 16.6600 0.0000
# 6 0.0000 0.0000 0.0000 1.6228 0.0000 17.6343
#
#
#
# Elastic Compliance Matrix: (Units=1/GPa)
#
#
# Indices 1 2 3 4 5 6 
#
# 1 0.020692 -0.005110 -0.004625 0.000000 0.003721 0.000000
# 2 -0.005110 0.027981 -0.005597 0.000000 -0.000234 0.000000
# 3 -0.004625 -0.005597 0.008253 0.000000 -0.001992 0.000000
# 4 0.000000 0.000000 0.000000 0.026164 0.000000 -0.002408
# 5 0.003721 -0.000234 -0.001992 0.000000 0.060887 0.000000
# 6 0.000000 0.000000 0.000000 -0.002408 0.000000 0.056929
#
#
# Mechanical properties :
#
#
# Convention : Reuss Voigt Hill
#
# Bulk Modulus (GPa) = 38.07687 59.46145 48.76916
# Shear Modulus (GPa) = 20.80520 26.33212 23.56866
#
# Velocity S-wave (km/s) = 3.42048 3.84808 3.64056
# Velocity P-wave (km/s) = 6.08374 7.29256 6.71540
#
# Compressibility (1/GPa) = 0.02626266
#
# Stress axis : x y z
#
# Youngs Moduli (GPa) = 48.32781 35.73817 121.16893
#
# Poissons Ratio (x) = 0.18262 0.56041
# Poissons Ratio (y) = 0.24696 0.67815
# Poissons Ratio (z) = 0.22352 0.20002
#
# Static dielectric constant tensor:
#      x y z
#    x 2.804000 0.000000 0.160140 
#    y 0.000000 3.220190 0.000000 
#    z 0.160140 0.000000 4.075060 
# 
# 
# High freq. dielectric constant tensor:
#      x y z
#    x 1.612860 0.000000 0.012470 
#    y 0.000000 1.696350 0.000000 
#    z 0.012470 0.000000 1.720040 
# 
# From -- ./inp_files/229902.got.cif
#   From: 2010.06.25/outbox.cif.g09.slc.cpg/sg12_115_cif.got.tgz:229902.got - 2010.06.28 00:19:55.
