data_PCOD8078219
_publ_section_title
;
Structure prediction by ZEFSAII (Michael W. Deem and Ramdas Pophale) SiO2 
 PCOD8078219
Probable space group: C 2/M
;
_chemical_formula_sum "Si O2"
_cell_formula_units_Z 40
_cell_length_a 8.780160
_cell_length_b 26.433373
_cell_length_c 16.374556
_cell_angle_alpha 90.000000
_cell_angle_beta 150.311473
_cell_angle_gamma 90.000000
_cell_volume 1882.259419
_symmetry_space_group_name_H-M "C 2/M"
_symmetry_group_IT_number 12
_symmetry_cell_setting 'monoclinic'
loop_
_space_group_symop_operation_xyz
x,y,z
-x,y,-z
-x,-y,-z
x,-y,z
1/2+x,1/2+y,z
1/2-x,1/2+y,-z
1/2-x,1/2-y,-z
1/2+x,1/2-y,z
loop_
_atom_site_type_symbol
_atom_site_label
_atom_site_fract_x
_atom_site_fract_y
_atom_site_fract_z
Si Si1 0.727743 0.500000 0.182938
Si Si2 0.779979 0.598095 0.820707
Si Si3 0.731192 0.791239 0.182575
Si Si4 0.360961 0.795674 0.680519
Si Si5 0.861037 0.600495 0.178614
Si Si6 0.367212 0.500000 0.183298
O O1 0.925687 0.551818 0.267449
O O2 0.543527 0.500000 0.180787
O O3 0.500000 0.500000 0.000000
O O4 0.610298 0.652727 0.741016
O O5 0.545444 0.550739 0.724241
O O6 0.982646 0.588993 0.835029
O O7 0.000000 0.600030 0.000000
O O8 0.546292 0.786099 0.181615
O O9 0.996647 0.749474 0.305959
O O10 0.500000 0.783487 0.000000
O O11 0.494425 0.849609 0.712520
O O12 0.000000 0.796008 0.500000
O O13 0.500000 0.610340 0.000000
O O14 0.000000 0.500000 0.000000
#
# Coordination Sequence:
#
# PCOD8078219 Si02
#       6
#     4   8   8   8   8   4
#     4  10  18  28  49  80 108 141 181 226 269 314
#     4   9  17  29  48  76 106 137 172 218 269 315
#     4  10  21  37  58  82 108 145 188 228 272 325
#     4  11  23  38  56  82 113 147 182 227 282 331
#     4  10  19  33  53  79 108 143 183 225 267 322
#     4  10  16  26  46  76 109 135 164 218 275 316
#
# _framework density 21.251055000000001
#
# number of rings (size 3 to 8) (size 9 to 14) (size 15 to 20)
#    0.000    2.000    0.000    7.200    0.000    4.800 
#    0.000    0.500    0.000    0.000    0.000    6.300 
#    0.000    0.000    0.000    0.000    0.000    0.000 
#
# Total GULP energy -247840.179166 kJ/mol
# GULP energy per Si atom -12392.008958 kJ/mol
# Density = 2.120269 g / cm^3
# Si number density = 21.251055 Si / 1000 Ang^3
#
#
#
# Elastic Constant Matrix: (Units=GPa)
#
#
# Indices 1 2 3 4 5 6 
#
# 1 132.7710 84.8917 11.7023 0.0002 9.7548 0.0000
# 2 84.8917 241.9683 28.8603 -0.0001 30.4849 0.0000
# 3 11.7023 28.8603 44.7884 0.0028 11.5540 0.0002
# 4 0.0002 -0.0001 0.0028 7.2927 0.0004 12.1416
# 5 9.7548 30.4849 11.5540 0.0004 20.7434 -0.0001
# 6 0.0000 0.0000 0.0002 12.1416 -0.0001 45.3458
#
#
#
# Elastic Compliance Matrix: (Units=1/GPa)
#
#
# Indices 1 2 3 4 5 6 
#
# 1 0.009725 -0.003449 -0.000521 0.000000 0.000785 0.000000
# 2 -0.003449 0.006391 -0.001416 0.000002 -0.006982 -0.000001
# 3 -0.000521 -0.001416 0.026598 -0.000017 -0.012489 0.000004
# 4 0.000000 0.000002 -0.000017 0.247419 0.000001 -0.066248
# 5 0.000785 -0.006982 -0.012489 0.000001 0.065056 0.000000
# 6 0.000000 -0.000001 0.000004 -0.066248 0.000000 0.039791
#
#
# Mechanical properties :
#
#
# Convention : Reuss Voigt Hill
#
# Bulk Modulus (GPa) = 31.30704 74.49292 52.89998
# Shear Modulus (GPa) = 12.00771 34.28129 23.14450
#
# Velocity S-wave (km/s) = 2.37964 4.02077 3.30373
# Velocity P-wave (km/s) = 4.72379 7.52896 6.28488
#
# Compressibility (1/GPa) = 0.03194170
#
# Stress axis : x y z
#
# Youngs Moduli (GPa) = 102.82730 156.46360 37.59745
#
# Poissons Ratio (x) = 0.53959 0.01960
# Poissons Ratio (y) = 0.35462 0.05324
# Poissons Ratio (z) = 0.05361 0.22157
#
# Static dielectric constant tensor:
#      x y z
#    x 3.952060 0.000000 -0.076350 
#    y 0.000000 5.872940 0.000000 
#    z -0.076350 0.000000 3.155960 
# 
# 
# High freq. dielectric constant tensor:
#      x y z
#    x 1.840180 0.000000 -0.006150 
#    y 0.000000 1.872890 0.000000 
#    z -0.006150 0.000000 1.766260 
# 
# From -- ./inp_files/259647.got.cif
#   From: 2010.06.25/outbox.cif.g09.slc.cpg/sg12_130_cif.got.tgz:259647.got - 2010.06.28 00:19:55.
