data_PCOD8078689
_publ_section_title
;
Structure prediction by ZEFSAII (Michael W. Deem and Ramdas Pophale) SiO2 
 PCOD8078689
Probable space group: C 2/M
;
_chemical_formula_sum "Si O2"
_cell_formula_units_Z 64
_cell_length_a 30.600023
_cell_length_b 9.210567
_cell_length_c 31.214656
_cell_angle_alpha 90.000000
_cell_angle_beta 28.085886
_cell_angle_gamma 90.000000
_cell_volume 4141.885749
_symmetry_space_group_name_H-M "C 2/M"
_symmetry_group_IT_number 12
_symmetry_cell_setting 'monoclinic'
loop_
_space_group_symop_operation_xyz
x,y,z
-x,y,-z
-x,-y,-z
x,-y,z
1/2+x,1/2+y,z
1/2-x,1/2+y,-z
1/2-x,1/2-y,-z
1/2+x,1/2-y,z
loop_
_atom_site_type_symbol
_atom_site_label
_atom_site_fract_x
_atom_site_fract_y
_atom_site_fract_z
Si Si1 0.414205 0.670472 0.300777
Si Si2 0.773298 0.672237 0.578983
Si Si3 0.382857 0.667604 0.900804
Si Si4 0.916319 0.327752 0.627409
Si Si5 0.373509 0.170901 0.757373
Si Si6 0.621478 0.172776 0.431733
Si Si7 0.074300 0.329163 0.620104
Si Si8 0.262985 0.669386 0.922178
O O1 0.408040 0.500000 0.315879
O O2 0.329688 0.725575 0.344071
O O3 0.508842 0.708049 0.194002
O O4 0.407888 0.751717 0.350782
O O5 0.777268 0.500000 0.576138
O O6 0.800380 0.732596 0.602970
O O7 0.847986 0.729104 0.479933
O O8 0.365753 0.500000 0.927246
O O9 0.339989 0.703873 0.891492
O O10 0.335662 0.765310 0.978025
O O11 0.922150 0.500000 0.624286
O O12 0.867510 0.273877 0.713236
O O13 0.859452 0.276645 0.634016
O O14 0.021377 0.267652 0.533643
O O15 0.473992 0.213142 0.688693
O O16 0.293841 0.255414 0.851615
O O17 0.355032 0.000000 0.777687
O O18 0.619667 0.000000 0.434785
O O19 0.082791 0.500000 0.620064
O O20 0.250371 0.500000 0.924904
#
# Coordination Sequence:
#
# PCOD8078689 Si02
#       8
#     8   8   8   8   8   8   8   8
#     4  10  19  30  43  60  86 117 146 176 211 246
#     4   9  16  26  40  60  87 118 148 176 205 241
#     4   9  18  31  43  59  82 109 141 177 216 253
#     4   8  13  21  37  61  89 114 138 172 211 246
#     4  10  17  26  42  65  90 115 140 171 210 249
#     4   8  12  21  37  60  87 113 142 175 207 242
#     4  10  18  27  40  61  89 119 150 173 195 239
#     4  10  19  30  45  62  82 109 141 176 216 259
#
# _framework density 15.451898999999999
#
# number of rings (size 3 to 8) (size 9 to 14) (size 15 to 20)
#    0.000    2.750    2.500    1.500    0.000    1.000 
#    0.000    0.000    0.000    0.000    0.000    4.375 
#    0.000    7.000    0.000    0.000    0.000    0.000 
#
# Total GULP energy -396638.303343 kJ/mol
# GULP energy per Si atom -12394.946979 kJ/mol
# Density = 1.541673 g / cm^3
# Si number density = 15.451899 Si / 1000 Ang^3
#
#
#
# Elastic Constant Matrix: (Units=GPa)
#
#
# Indices 1 2 3 4 5 6 
#
# 1 132.2809 31.7864 72.9594 0.0016 14.0952 0.0016
# 2 31.7864 25.7986 30.1903 0.0086 5.8251 -0.0004
# 3 72.9594 30.1903 108.8911 0.0036 12.7084 0.0048
# 4 0.0016 0.0086 0.0036 16.1823 -0.0042 3.0702
# 5 14.0952 5.8251 12.7084 -0.0042 24.1203 -0.0031
# 6 0.0016 -0.0004 0.0048 3.0702 -0.0031 12.7658
#
#
#
# Elastic Compliance Matrix: (Units=1/GPa)
#
#
# Indices 1 2 3 4 5 6 
#
# 1 0.013334 -0.008523 -0.006289 0.000004 -0.002420 -0.000001
# 2 -0.008523 0.063608 -0.011415 -0.000034 -0.004366 0.000015
# 3 -0.006289 -0.011415 0.016847 0.000004 -0.002445 -0.000007
# 4 0.000004 -0.000034 0.000004 0.064751 0.000013 -0.015573
# 5 -0.002420 -0.004366 -0.002445 0.000013 0.045216 0.000009
# 6 -0.000001 0.000015 -0.000007 -0.015573 0.000009 0.082080
#
#
# Mechanical properties :
#
#
# Convention : Reuss Voigt Hill
#
# Bulk Modulus (GPa) = 24.19256 59.64919 41.92087
# Shear Modulus (GPa) = 14.20183 19.41597 16.80890
#
# Velocity S-wave (km/s) = 3.03495 3.54862 3.30179
# Velocity P-wave (km/s) = 5.28885 7.44830 6.45946
#
# Compressibility (1/GPa) = 0.04133502
#
# Stress axis : x y z
#
# Youngs Moduli (GPa) = 74.99544 15.72141 59.35744
#
# Poissons Ratio (x) = 0.13400 0.37327
# Poissons Ratio (y) = 0.63922 0.67756
# Poissons Ratio (z) = 0.47161 0.17946
#
# Static dielectric constant tensor:
#      x y z
#    x 3.217450 -0.000010 0.062810 
#    y -0.000010 2.624710 0.000020 
#    z 0.062810 0.000020 2.962320 
# 
# 
# High freq. dielectric constant tensor:
#      x y z
#    x 1.581830 0.000000 0.010550 
#    y 0.000000 1.557940 0.000000 
#    z 0.010550 0.000000 1.582810 
# 
# From -- ./inp_files/384570.got.cif
#   From: 2010.06.25/outbox.cif.g09.slc.cpg/sg12_193_cif.got.tgz:384570.got - 2010.06.28 00:19:55.
