data_PCOD8078223
_publ_section_title
;
Structure prediction by ZEFSAII (Michael W. Deem and Ramdas Pophale) SiO2 
 PCOD8078223
Probable space group: C 2/M
;
_chemical_formula_sum "Si O2"
_cell_formula_units_Z 48
_cell_length_a 16.110602
_cell_length_b 14.748831
_cell_length_c 22.372476
_cell_angle_alpha 90.000000
_cell_angle_beta 148.603207
_cell_angle_gamma 90.000000
_cell_volume 2769.423319
_symmetry_space_group_name_H-M "C 2/M"
_symmetry_group_IT_number 12
_symmetry_cell_setting 'monoclinic'
loop_
_space_group_symop_operation_xyz
x,y,z
-x,y,-z
-x,-y,-z
x,-y,z
1/2+x,1/2+y,z
1/2-x,1/2+y,-z
1/2-x,1/2-y,-z
1/2+x,1/2-y,z
loop_
_atom_site_type_symbol
_atom_site_label
_atom_site_fract_x
_atom_site_fract_y
_atom_site_fract_z
Si Si1 0.561092 0.222295 0.782006
Si Si2 0.898507 0.394088 0.380428
Si Si3 0.630224 0.895916 0.416223
Si Si4 0.043573 0.901000 0.317938
Si Si5 0.625071 0.603317 0.026393
Si Si6 0.565802 0.654892 0.204082
O O1 0.409434 0.164807 0.665706
O O2 0.579790 0.316316 0.754136
O O3 0.722534 0.167324 0.876479
O O4 0.513132 0.250262 0.820842
O O5 0.852144 0.500000 0.352746
O O6 0.738287 0.333341 0.279225
O O7 0.000000 0.366138 0.500000
O O8 0.998805 0.369054 0.384121
O O9 0.805771 0.875638 0.548555
O O10 0.615190 0.000000 0.388263
O O11 0.096212 0.909651 0.280530
O O12 0.972628 0.000000 0.293363
O O13 0.678756 0.500000 0.071976
O O14 0.500000 0.635124 0.000000
O O15 0.552396 0.609325 0.915826
#
# Coordination Sequence:
#
# PCOD8078223 Si02
#       6
#     8   8   8   8   8   8
#     4  10  21  32  49  74 106 137 171 205 251 307
#     4  10  16  26  47  75 103 131 162 201 251 300
#     4  10  18  31  50  78 110 136 167 210 256 300
#     4   9  18  30  50  74 104 138 168 204 246 296
#     4  11  22  37  55  76 103 132 164 211 266 313
#     4  10  20  31  48  72 107 133 169 201 245 305
#
# _framework density 17.332127
#
# number of rings (size 3 to 8) (size 9 to 14) (size 15 to 20)
#    1.000    1.000    1.667    4.000    0.000    2.667 
#    0.000    0.000    0.000    0.500    0.000    7.000 
#    0.000   19.333    0.000    0.000    0.000    0.000 
#
# Total GULP energy -297334.549780 kJ/mol
# GULP energy per Si atom -12388.939574 kJ/mol
# Density = 1.729268 g / cm^3
# Si number density = 17.332127 Si / 1000 Ang^3
#
#
#
# Elastic Constant Matrix: (Units=GPa)
#
#
# Indices 1 2 3 4 5 6 
#
# 1 40.7628 25.4097 17.4151 0.0002 1.8923 -0.0002
# 2 25.4097 88.4160 48.8628 0.0025 11.0851 0.0001
# 3 17.4151 48.8628 95.3135 0.0073 -0.0785 0.0004
# 4 0.0002 0.0025 0.0073 34.7406 0.0016 2.4189
# 5 1.8923 11.0851 -0.0785 0.0016 27.0650 -0.0001
# 6 -0.0002 0.0001 0.0004 2.4189 -0.0001 26.7234
#
#
#
# Elastic Compliance Matrix: (Units=1/GPa)
#
#
# Indices 1 2 3 4 5 6 
#
# 1 0.030071 -0.008029 -0.001377 0.000001 0.001182 0.000000
# 2 -0.008029 0.019153 -0.008358 0.000001 -0.007307 0.000000
# 3 -0.001377 -0.008358 0.015031 -0.000003 0.003563 0.000000
# 4 0.000001 0.000001 -0.000003 0.028967 -0.000002 -0.002622
# 5 0.001182 -0.007307 0.003563 -0.000002 0.039869 0.000000
# 6 0.000000 0.000000 0.000000 -0.002622 0.000000 0.037658
#
#
# Mechanical properties :
#
#
# Convention : Reuss Voigt Hill
#
# Bulk Modulus (GPa) = 34.81132 45.31858 40.06495
# Shear Modulus (GPa) = 23.16414 26.55944 24.86179
#
# Velocity S-wave (km/s) = 3.65976 3.91881 3.79150
# Velocity P-wave (km/s) = 6.16336 6.83228 6.50642
#
# Compressibility (1/GPa) = 0.02872629
#
# Stress axis : x y z
#
# Youngs Moduli (GPa) = 33.25503 52.21243 66.52994
#
# Poissons Ratio (x) = 0.41921 0.09163
# Poissons Ratio (y) = 0.26700 0.55603
# Poissons Ratio (z) = 0.04580 0.43637
#
# Static dielectric constant tensor:
#      x y z
#    x 3.021840 0.000000 -0.209030 
#    y 0.000000 3.142350 -0.000010 
#    z -0.209030 -0.000010 3.225550 
# 
# 
# High freq. dielectric constant tensor:
#      x y z
#    x 1.637290 0.000000 -0.020090 
#    y 0.000000 1.658170 0.000000 
#    z -0.020090 0.000000 1.676680 
# 
# From -- ./inp_files/340223.got.cif
#   From: 2010.06.25/outbox.cif.g09.slc.cpg/sg12_171_cif.got.tgz:340223.got - 2010.06.28 00:19:55.
