data_PCOD8078763
_publ_section_title
;
Structure prediction by ZEFSAII (Michael W. Deem and Ramdas Pophale) SiO2 
 PCOD8078763
Probable space group: C 2/M
;
_chemical_formula_sum "Si O2"
_cell_formula_units_Z 40
_cell_length_a 19.300804
_cell_length_b 9.469119
_cell_length_c 19.496794
_cell_angle_alpha 90.000000
_cell_angle_beta 138.727762
_cell_angle_gamma 90.000000
_cell_volume 2350.463784
_symmetry_space_group_name_H-M "C 2/M"
_symmetry_group_IT_number 12
_symmetry_cell_setting 'monoclinic'
loop_
_space_group_symop_operation_xyz
x,y,z
-x,y,-z
-x,-y,-z
x,-y,z
1/2+x,1/2+y,z
1/2-x,1/2+y,-z
1/2-x,1/2-y,-z
1/2+x,1/2-y,z
loop_
_atom_site_type_symbol
_atom_site_label
_atom_site_fract_x
_atom_site_fract_y
_atom_site_fract_z
Si Si1 0.825728 0.836542 0.604540
Si Si2 0.915403 0.167242 0.062442
Si Si3 0.239296 0.667989 0.827814
Si Si4 0.146771 0.167608 0.222947
Si Si5 0.431293 0.663048 0.228743
O O1 0.750000 0.750000 0.500000
O O2 0.810180 0.781763 0.671152
O O3 0.945157 0.811762 0.669898
O O4 0.795237 0.000000 0.575999
O O5 0.894646 0.211619 0.125599
O O6 0.028837 0.227453 0.122672
O O7 0.917928 0.000000 0.058120
O O8 0.824246 0.226797 0.945761
O O9 0.225999 0.500000 0.822096
O O10 0.276016 0.718169 0.779764
O O11 0.128204 0.741045 0.760003
O O12 0.138032 0.000000 0.217600
O O13 0.402625 0.500000 0.219910
#
# Coordination Sequence:
#
# PCOD8078763 Si02
#       5
#     8   8   8   8   8
#     4   9  18  34  53  67  83 114 153 190 227 266
#     4   8  14  26  45  67  92 124 155 178 208 258
#     4  10  17  26  46  73  95 117 148 184 217 256
#     4   8  15  28  46  69  93 116 148 188 224 257
#     4   9  18  31  45  65  95 124 146 176 224 272
#
# _framework density 17.017918999999999
#
# number of rings (size 3 to 8) (size 9 to 14) (size 15 to 20)
#    0.000    3.200    0.000    3.600    0.000    3.200 
#    0.000    2.000    0.000   10.800    0.000    0.000 
#    0.000    0.000    0.000    0.000    0.000    0.000 
#
# Total GULP energy -247905.218031 kJ/mol
# GULP energy per Si atom -12395.260902 kJ/mol
# Density = 1.697919 g / cm^3
# Si number density = 17.017919 Si / 1000 Ang^3
#
#
#
# Elastic Constant Matrix: (Units=GPa)
#
#
# Indices 1 2 3 4 5 6 
#
# 1 141.7426 44.3353 56.4941 0.0000 4.1100 0.0000
# 2 44.3353 36.6403 35.3217 0.0000 3.6209 0.0000
# 3 56.4941 35.3217 101.6729 0.0000 -5.0174 0.0000
# 4 0.0000 0.0000 0.0000 25.7337 0.0000 3.3025
# 5 4.1100 3.6209 -5.0174 0.0000 13.7096 0.0000
# 6 0.0000 0.0000 0.0000 3.3025 0.0000 26.5776
#
#
#
# Elastic Compliance Matrix: (Units=1/GPa)
#
#
# Indices 1 2 3 4 5 6 
#
# 1 0.011747 -0.011604 -0.002565 0.000000 -0.001396 0.000000
# 2 -0.011604 0.056442 -0.013977 0.000000 -0.016544 0.000000
# 3 -0.002565 -0.013977 0.016637 0.000000 0.010549 0.000000
# 4 0.000000 0.000000 0.000000 0.039489 0.000000 -0.004907
# 5 -0.001396 -0.016544 0.010549 0.000000 0.081591 0.000000
# 6 0.000000 0.000000 0.000000 -0.004907 0.000000 0.038235
#
#
# Mechanical properties :
#
#
# Convention : Reuss Voigt Hill
#
# Bulk Modulus (GPa) = 35.04509 61.37310 48.20910
# Shear Modulus (GPa) = 16.13187 22.79781 19.46484
#
# Velocity S-wave (km/s) = 3.08219 3.66407 3.38566
# Velocity P-wave (km/s) = 5.77099 7.35137 6.60859
#
# Compressibility (1/GPa) = 0.02853466
#
# Stress axis : x y z
#
# Youngs Moduli (GPa) = 85.12530 17.71722 60.10691
#
# Poissons Ratio (x) = 0.20559 0.15418
# Poissons Ratio (y) = 0.98778 0.84012
# Poissons Ratio (z) = 0.21835 0.24764
#
# Static dielectric constant tensor:
#      x y z
#    x 3.354880 0.000000 -0.072670 
#    y 0.000000 2.724840 0.000000 
#    z -0.072670 0.000000 3.146410 
# 
# 
# High freq. dielectric constant tensor:
#      x y z
#    x 1.663970 0.000000 0.000690 
#    y 0.000000 1.611410 0.000000 
#    z 0.000690 0.000000 1.647400 
# 
# From -- ./inp_files/140406.got.cif
#   From: 2010.06.25/outbox.cif.g09.slc.cpg/sg12_71_cif.got.tgz:140406.got - 2010.06.28 00:19:55.
