data_PCOD8078761
_publ_section_title
;
Structure prediction by ZEFSAII (Michael W. Deem and Ramdas Pophale) SiO2 
 PCOD8078761
Probable space group: C 2/M
;
_chemical_formula_sum "Si O2"
_cell_formula_units_Z 64
_cell_length_a 29.553997
_cell_length_b 14.746829
_cell_length_c 8.834404
_cell_angle_alpha 90.000000
_cell_angle_beta 72.607187
_cell_angle_gamma 90.000000
_cell_volume 3674.235256
_symmetry_space_group_name_H-M "C 2/M"
_symmetry_group_IT_number 12
_symmetry_cell_setting 'monoclinic'
loop_
_space_group_symop_operation_xyz
x,y,z
-x,y,-z
-x,-y,-z
x,-y,z
1/2+x,1/2+y,z
1/2-x,1/2+y,-z
1/2-x,1/2-y,-z
1/2+x,1/2-y,z
loop_
_atom_site_type_symbol
_atom_site_label
_atom_site_fract_x
_atom_site_fract_y
_atom_site_fract_z
Si Si1 0.549981 0.896944 0.521870
Si Si2 0.325626 0.599732 0.103980
Si Si3 0.049982 0.603055 0.878167
Si Si4 0.279503 0.898067 0.792375
Si Si5 0.779504 0.398067 0.148617
Si Si6 0.367051 0.216072 0.703281
Si Si7 0.325625 0.400268 0.744764
Si Si8 0.632948 0.783927 0.937388
O O1 0.500000 0.870373 0.500000
O O2 0.545768 0.886258 0.704232
O O3 0.587895 0.826291 0.422087
O O4 0.564165 0.000000 0.462301
O O5 0.342202 0.500000 0.146914
O O6 0.272970 0.623111 0.221247
O O7 0.362926 0.677666 0.113890
O O8 0.321375 0.596470 0.928623
O O9 0.064169 0.500000 0.909362
O O10 0.087893 0.673710 0.902130
O O11 0.000000 0.629621 0.000000
O O12 0.319492 0.831590 0.686293
O O13 0.294515 0.000000 0.734373
O O14 0.277859 0.884020 0.972140
O O15 0.794517 0.500000 0.176593
O O16 0.727032 0.376891 0.267188
O O17 0.819494 0.331589 0.174719
O O18 0.362924 0.322333 0.660255
O O19 0.372390 0.203118 0.877608
O O20 0.342201 0.500000 0.668677
#
# Coordination Sequence:
#
# PCOD8078761 Si02
#       8
#     8   8   8   8   8   8   8   8
#     4  10  21  36  52  70  93 118 144 180 229 283
#     4   8  14  24  39  64  98 131 161 192 223 257
#     4  10  21  36  52  70  93 118 144 180 229 283
#     4   8  13  21  36  63  97 127 156 190 224 261
#     4   8  13  21  36  63  97 127 156 190 224 261
#     4  10  17  26  46  72  95 122 157 194 229 266
#     4   8  14  24  39  64  98 131 161 192 223 257
#     4  10  17  26  46  72  95 122 157 194 229 266
#
# _framework density 17.418590999999999
#
# number of rings (size 3 to 8) (size 9 to 14) (size 15 to 20)
#    0.000    3.000    0.000    3.750    0.000    5.500 
#    0.000    0.000    0.000    4.500    0.000    3.500 
#    0.000    0.000    0.000    0.000    0.000    0.000 
#
# Total GULP energy -396534.956562 kJ/mol
# GULP energy per Si atom -12391.717393 kJ/mol
# Density = 1.737895 g / cm^3
# Si number density = 17.418591 Si / 1000 Ang^3
#
#
#
# Elastic Constant Matrix: (Units=GPa)
#
#
# Indices 1 2 3 4 5 6 
#
# 1 112.0734 88.3511 32.1365 0.0000 -10.4151 0.0000
# 2 88.3511 139.2404 34.3749 0.0000 -14.0157 0.0000
# 3 32.1365 34.3749 35.8564 0.0000 -9.3769 0.0000
# 4 0.0000 0.0000 0.0000 14.7108 0.0000 -3.0517
# 5 -10.4151 -14.0157 -9.3769 0.0000 20.1862 0.0000
# 6 0.0000 0.0000 0.0000 -3.0517 0.0000 26.4671
#
#
#
# Elastic Compliance Matrix: (Units=1/GPa)
#
#
# Indices 1 2 3 4 5 6 
#
# 1 0.019198 -0.010430 -0.007410 0.000000 -0.000779 0.000000
# 2 -0.010430 0.015203 -0.004409 0.000000 0.003126 0.000000
# 3 -0.007410 -0.004409 0.042068 0.000000 0.012656 0.000000
# 4 0.000000 0.000000 0.000000 0.069643 0.000000 0.008030
# 5 -0.000779 0.003126 0.012656 0.000000 0.057186 0.000000
# 6 0.000000 0.000000 0.000000 0.008030 0.000000 0.038709
#
#
# Mechanical properties :
#
#
# Convention : Reuss Voigt Hill
#
# Bulk Modulus (GPa) = 31.28092 66.32167 48.80129
# Shear Modulus (GPa) = 16.82575 21.09335 18.95955
#
# Velocity S-wave (km/s) = 3.11137 3.48367 3.30277
# Velocity P-wave (km/s) = 5.55921 7.37151 6.52855
#
# Compressibility (1/GPa) = 0.03196837
#
# Stress axis : x y z
#
# Youngs Moduli (GPa) = 52.08907 65.77467 23.77123
#
# Poissons Ratio (x) = 0.68606 0.17616
# Poissons Ratio (y) = 0.54331 0.10482
# Poissons Ratio (z) = 0.38601 0.29002
#
# Static dielectric constant tensor:
#      x y z
#    x 3.715470 0.000000 -0.237300 
#    y 0.000000 3.586190 0.000000 
#    z -0.237300 0.000000 2.801460 
# 
# 
# High freq. dielectric constant tensor:
#      x y z
#    x 1.655150 0.000000 -0.008690 
#    y 0.000000 1.680520 0.000000 
#    z -0.008690 0.000000 1.621690 
# 
# From -- ./inp_files/111155.got.cif
#   From: 2010.06.25/outbox.cif.g09.slc.cpg/sg12_56_cif.got.tgz:111155.got - 2010.06.28 00:19:55.
