data_PCOD8078076
_publ_section_title
;
Structure prediction by ZEFSAII (Michael W. Deem and Ramdas Pophale) SiO2 
 PCOD8078076
Probable space group: C 2/M
;
_chemical_formula_sum "Si O2"
_cell_formula_units_Z 64
_cell_length_a 19.764650
_cell_length_b 30.750259
_cell_length_c 11.886562
_cell_angle_alpha 90.000000
_cell_angle_beta 29.647607
_cell_angle_gamma 90.000000
_cell_volume 3573.589062
_symmetry_space_group_name_H-M "C 2/M"
_symmetry_group_IT_number 12
_symmetry_cell_setting 'monoclinic'
loop_
_space_group_symop_operation_xyz
x,y,z
-x,y,-z
-x,-y,-z
x,-y,z
1/2+x,1/2+y,z
1/2-x,1/2+y,-z
1/2-x,1/2-y,-z
1/2+x,1/2-y,z
loop_
_atom_site_type_symbol
_atom_site_label
_atom_site_fract_x
_atom_site_fract_y
_atom_site_fract_z
Si Si1 0.920178 0.836779 0.499117
Si Si2 0.551271 0.568146 0.588005
Si Si3 0.790415 0.621854 0.741546
Si Si4 0.150133 0.797475 0.034898
Si Si5 0.930878 0.048907 0.984662
Si Si6 0.934722 0.618592 0.772053
Si Si7 0.688802 0.798545 0.965124
Si Si8 0.224033 0.951792 0.138589
O O1 0.887295 0.883683 0.496806
O O2 0.784608 0.810187 0.721859
O O3 0.000000 0.843019 0.500000
O O4 0.999213 0.811919 0.286968
O O5 0.546640 0.548593 0.719929
O O6 0.394782 0.568940 0.767238
O O7 0.657368 0.541335 0.358449
O O8 0.861544 0.619998 0.758565
O O9 0.902149 0.614416 0.481515
O O10 0.714850 0.669261 0.848505
O O11 0.685909 0.582508 0.880469
O O12 0.238991 0.796140 0.018970
O O13 0.131743 0.748783 0.013208
O O14 0.870583 0.000000 0.084441
O O15 0.000000 0.064433 0.000000
O O16 0.922095 0.663076 0.862108
O O17 0.860259 0.578454 0.944540
O O18 0.264922 0.000000 0.035161
#
# Coordination Sequence:
#
# PCOD8078076 Si02
#       8
#     8   8   8   8   8   8   8   8
#     4  10  15  26  46  68 102 134 164 207 253 300
#     4  11  17  32  50  76 102 128 171 215 260 304
#     4  10  20  33  49  72 106 141 172 209 260 315
#     4   9  17  27  43  68 104 141 171 202 241 311
#     4  11  23  38  55  74 101 139 183 224 258 304
#     4  10  19  31  47  75 112 138 161 207 265 329
#     4   9  17  27  41  71 105 138 166 196 255 316
#     4  11  19  28  49  77 104 133 161 210 267 317
#
# _framework density 17.909165999999999
#
# number of rings (size 3 to 8) (size 9 to 14) (size 15 to 20)
#    0.000    1.875    5.000    2.250    1.750    0.500 
#    0.000    1.250    0.000    0.750    0.000    6.125 
#    0.000    0.000    0.000    0.000    0.000    0.000 
#
# Total GULP energy -396478.713129 kJ/mol
# GULP energy per Si atom -12389.959785 kJ/mol
# Density = 1.786840 g / cm^3
# Si number density = 17.909166 Si / 1000 Ang^3
#
#
#
# Elastic Constant Matrix: (Units=GPa)
#
#
# Indices 1 2 3 4 5 6 
#
# 1 35.6361 8.6552 20.0247 0.0002 14.0635 -0.0001
# 2 8.6552 148.1961 51.0794 0.0000 2.5519 0.0002
# 3 20.0247 51.0794 119.2978 0.0005 20.4079 0.0001
# 4 0.0002 0.0000 0.0005 22.7206 -0.0003 7.8760
# 5 14.0635 2.5519 20.4079 -0.0003 13.4416 0.0001
# 6 -0.0001 0.0002 0.0001 7.8760 0.0001 6.9189
#
#
#
# Elastic Compliance Matrix: (Units=1/GPa)
#
#
# Indices 1 2 3 4 5 6 
#
# 1 0.048695 -0.002662 0.002155 -0.000002 -0.053713 0.000004
# 2 -0.002662 0.008310 -0.004482 0.000001 0.008012 -0.000001
# 3 0.002155 -0.004482 0.013751 -0.000001 -0.022281 0.000001
# 4 -0.000002 0.000001 -0.000001 0.072700 0.000006 -0.082756
# 5 -0.053713 0.008012 -0.022281 0.000006 0.162902 -0.000009
# 6 0.000004 -0.000001 0.000001 -0.082756 -0.000009 0.238735
#
#
# Mechanical properties :
#
#
# Convention : Reuss Voigt Hill
#
# Bulk Modulus (GPa) = 16.45326 51.40540 33.92933
# Shear Modulus (GPa) = 8.69066 23.50760 16.09913
#
# Velocity S-wave (km/s) = 2.20526 3.62691 3.00147
# Velocity P-wave (km/s) = 3.96122 6.80478 5.56760
#
# Compressibility (1/GPa) = 0.06077821
#
# Stress axis : x y z
#
# Youngs Moduli (GPa) = 20.53611 120.33544 72.72006
#
# Poissons Ratio (x) = 0.32029 -0.15668
# Poissons Ratio (y) = 0.05466 0.32592
# Poissons Ratio (z) = -0.04425 0.53933
#
# Static dielectric constant tensor:
#      x y z
#    x 2.731060 0.000000 0.343370 
#    y 0.000000 3.557610 0.000000 
#    z 0.343370 0.000000 3.567700 
# 
# 
# High freq. dielectric constant tensor:
#      x y z
#    x 1.609370 0.000000 0.034440 
#    y 0.000000 1.714050 0.000000 
#    z 0.034440 0.000000 1.694960 
# 
# From -- ./inp_files/161194.got.cif
#   From: 2010.06.25/outbox.cif.g09.slc.cpg/sg12_81_cif.got.tgz:161194.got - 2010.06.28 00:19:55.
