data_PCOD8078221
_publ_section_title
;
Structure prediction by ZEFSAII (Michael W. Deem and Ramdas Pophale) SiO2 
 PCOD8078221
Probable space group: C 2/M
;
_chemical_formula_sum "Si O2"
_cell_formula_units_Z 60
_cell_length_a 18.206120
_cell_length_b 26.148943
_cell_length_c 14.081558
_cell_angle_alpha 90.000000
_cell_angle_beta 147.545549
_cell_angle_gamma 90.000000
_cell_volume 3597.463145
_symmetry_space_group_name_H-M "C 2/M"
_symmetry_group_IT_number 12
_symmetry_cell_setting 'monoclinic'
loop_
_space_group_symop_operation_xyz
x,y,z
-x,y,-z
-x,-y,-z
x,-y,z
1/2+x,1/2+y,z
1/2-x,1/2+y,-z
1/2-x,1/2-y,-z
1/2+x,1/2-y,z
loop_
_atom_site_type_symbol
_atom_site_label
_atom_site_fract_x
_atom_site_fract_y
_atom_site_fract_z
Si Si1 0.042807 0.348523 0.865133
Si Si2 0.500000 0.205895 0.000000
Si Si3 0.203973 0.302287 0.502342
Si Si4 0.096909 0.156539 0.419005
Si Si5 0.816356 0.209702 0.142686
Si Si6 0.892994 0.556003 0.966961
Si Si7 0.874178 0.058256 0.432482
Si Si8 0.210430 0.760778 0.684037
O O1 0.948256 0.325434 0.679356
O O2 0.199812 0.331646 0.034154
O O3 0.051698 0.409922 0.884448
O O4 0.963502 0.329906 0.872126
O O5 0.371054 0.240712 0.884301
O O6 0.250000 0.250000 0.500000
O O7 0.319489 0.341762 0.590406
O O8 0.191923 0.290987 0.601897
O O9 0.094497 0.097074 0.446636
O O10 0.170433 0.188773 0.581882
O O11 0.946328 0.180955 0.238357
O O12 0.864943 0.237436 0.294945
O O13 0.750000 0.250000 0.000000
O O14 0.866182 0.500000 0.981538
O O15 0.754648 0.578109 0.769079
O O16 0.000000 0.552968 0.000000
O O17 0.000000 0.059403 0.500000
O O18 0.850004 0.000000 0.444925
#
# Coordination Sequence:
#
# PCOD8078221 Si02
#       8
#     8   4   8   8   8   8   8   8
#     4  11  18  31  47  65  96 129 159 189 240 284
#     4  10  16  26  47  64  84 124 161 182 220 284
#     4  10  19  32  48  65  91 127 169 188 231 291
#     4  11  19  32  47  72  96 127 163 198 233 282
#     4  11  23  32  48  71  99 122 161 205 243 282
#     4  10  19  29  45  70  95 124 163 199 230 274
#     4  10  19  31  46  66  97 134 166 195 238 294
#     4  10  20  31  48  64  93 129 158 193 233 289
#
# _framework density 16.678419999999999
#
# number of rings (size 3 to 8) (size 9 to 14) (size 15 to 20)
#    0.000    1.600    3.333    6.000    1.867    0.000 
#    0.000    0.000    0.000    0.000    0.000    0.000 
#    0.000    6.400    0.000    0.000    0.000    0.267 
#
# Total GULP energy -371644.879560 kJ/mol
# GULP energy per Si atom -12388.162652 kJ/mol
# Density = 1.664046 g / cm^3
# Si number density = 16.678420 Si / 1000 Ang^3
#
#
#
# Elastic Constant Matrix: (Units=GPa)
#
#
# Indices 1 2 3 4 5 6 
#
# 1 56.3696 19.6623 21.3822 0.0000 -0.6999 0.0000
# 2 19.6623 96.8116 37.5050 0.0000 -9.5094 0.0000
# 3 21.3822 37.5050 79.5027 0.0000 9.6818 0.0000
# 4 0.0000 0.0000 0.0000 26.1276 0.0000 -2.1758
# 5 -0.6999 -9.5094 9.6818 0.0000 27.9514 0.0000
# 6 0.0000 0.0000 0.0000 -2.1758 0.0000 24.5996
#
#
#
# Elastic Compliance Matrix: (Units=1/GPa)
#
#
# Indices 1 2 3 4 5 6 
#
# 1 0.020262 -0.002214 -0.004567 0.000000 0.001336 0.000000
# 2 -0.002214 0.014186 -0.006971 0.000000 0.007185 0.000000
# 3 -0.004567 -0.006971 0.018164 0.000000 -0.008778 0.000000
# 4 0.000000 0.000000 0.000000 0.038558 0.000000 0.003410
# 5 0.001336 0.007185 -0.008778 0.000000 0.041295 0.000000
# 6 0.000000 0.000000 0.000000 0.003410 0.000000 0.040953
#
#
# Mechanical properties :
#
#
# Convention : Reuss Voigt Hill
#
# Bulk Modulus (GPa) = 39.83283 43.30921 41.57102
# Shear Modulus (GPa) = 23.89011 26.01136 24.95073
#
# Velocity S-wave (km/s) = 3.78881 3.95344 3.87200
# Velocity P-wave (km/s) = 6.56314 6.84567 6.70589
#
# Compressibility (1/GPa) = 0.02510492
#
# Stress axis : x y z
#
# Youngs Moduli (GPa) = 49.35453 70.49385 55.05303
#
# Poissons Ratio (x) = 0.15610 0.25145
# Poissons Ratio (y) = 0.10929 0.38380
# Poissons Ratio (z) = 0.22542 0.49145
#
# Static dielectric constant tensor:
#      x y z
#    x 3.322340 0.000000 0.269920 
#    y 0.000000 3.257780 0.000000 
#    z 0.269920 0.000000 3.359430 
# 
# 
# High freq. dielectric constant tensor:
#      x y z
#    x 1.630140 0.000000 0.036500 
#    y 0.000000 1.618060 0.000000 
#    z 0.036500 0.000000 1.638770 
# 
# From -- ./inp_files/235463.got.cif
#   From: 2010.06.25/outbox.cif.g09.slc.cpg/sg12_118_cif.got.tgz:235463.got - 2010.06.28 00:19:55.
