data_PCOD8078502
_publ_section_title
;
Structure prediction by ZEFSAII (Michael W. Deem and Ramdas Pophale) SiO2 
 PCOD8078502
Probable space group: C 2/M
;
_chemical_formula_sum "Si O2"
_cell_formula_units_Z 56
_cell_length_a 18.721886
_cell_length_b 9.083505
_cell_length_c 33.178204
_cell_angle_alpha 90.000000
_cell_angle_beta 146.311439
_cell_angle_gamma 90.000000
_cell_volume 3129.659712
_symmetry_space_group_name_H-M "C 2/M"
_symmetry_group_IT_number 12
_symmetry_cell_setting 'monoclinic'
loop_
_space_group_symop_operation_xyz
x,y,z
-x,y,-z
-x,-y,-z
x,-y,z
1/2+x,1/2+y,z
1/2-x,1/2+y,-z
1/2-x,1/2-y,-z
1/2+x,1/2-y,z
loop_
_atom_site_type_symbol
_atom_site_label
_atom_site_fract_x
_atom_site_fract_y
_atom_site_fract_z
Si Si1 0.626939 0.326676 0.643461
Si Si2 0.443196 0.834236 0.071571
Si Si3 0.652137 0.326206 0.213308
Si Si4 0.013171 0.330393 0.218807
Si Si5 0.735986 0.836424 0.934204
Si Si6 0.670172 0.326422 0.497063
Si Si7 0.243303 0.330744 0.377159
O O1 0.654017 0.500000 0.660030
O O2 0.705143 0.243728 0.715753
O O3 0.478550 0.286739 0.578972
O O4 0.675385 0.267492 0.622480
O O5 0.574313 0.740601 0.138541
O O6 0.357710 0.823178 0.071435
O O7 0.481766 0.000000 0.078984
O O8 0.357256 0.772328 0.994082
O O9 0.662314 0.500000 0.212693
O O10 0.574788 0.284995 0.217123
O O11 0.034889 0.500000 0.213535
O O12 0.088817 0.309820 0.296686
O O13 0.858330 0.300679 0.148520
O O14 0.793708 0.000000 0.958104
O O15 0.694786 0.500000 0.506491
O O16 0.750000 0.250000 0.500000
O O17 0.717227 0.257193 0.561973
O O18 0.282110 0.500000 0.399382
#
# Coordination Sequence:
#
# PCOD8078502 Si02
#       7
#     8   8   8   8   8   8   8
#     4   9  17  31  49  66  86 117 156 190 221 263
#     4   9  15  22  32  48  76 114 148 176 211 261
#     4  10  17  24  37  58  83 110 143 185 227 263
#     4   8  14  25  40  57  80 111 148 185 218 259
#     4   8  13  20  31  50  76 107 142 180 218 253
#     4  10  20  33  50  70  93 119 147 184 227 271
#     4   8  14  28  50  70  86 114 157 192 218 258
#
# _framework density 17.893319000000002
#
# number of rings (size 3 to 8) (size 9 to 14) (size 15 to 20)
#    0.000    3.143    0.000    3.857    0.000    5.714 
#    0.000    2.857    0.000    4.286    0.000    0.000 
#    0.000    1.143    0.000   13.143    0.000   12.429 
#
# Total GULP energy -346881.330441 kJ/mol
# GULP energy per Si atom -12388.618944 kJ/mol
# Density = 1.785259 g / cm^3
# Si number density = 17.893319 Si / 1000 Ang^3
#
#
#
# Elastic Constant Matrix: (Units=GPa)
#
#
# Indices 1 2 3 4 5 6 
#
# 1 48.0384 22.1021 49.3980 0.0001 7.2720 0.0000
# 2 22.1021 88.8827 69.5118 0.0002 11.8149 -0.0001
# 3 49.3980 69.5118 182.7339 0.0000 29.8101 0.0000
# 4 0.0001 0.0002 0.0000 28.0639 0.0000 5.1221
# 5 7.2720 11.8149 29.8101 0.0000 6.9406 0.0000
# 6 0.0000 -0.0001 0.0000 5.1221 0.0000 14.7865
#
#
#
# Elastic Compliance Matrix: (Units=1/GPa)
#
#
# Indices 1 2 3 4 5 6 
#
# 1 0.029247 -0.001638 -0.009151 0.000000 0.011447 0.000000
# 2 -0.001638 0.016135 -0.004992 0.000000 -0.004310 0.000000
# 3 -0.009151 -0.004992 0.023033 0.000000 -0.080843 0.000000
# 4 0.000000 0.000000 0.000000 0.038038 0.000001 -0.013176
# 5 0.011447 -0.004310 -0.080843 0.000001 0.486646 -0.000001
# 6 0.000000 0.000000 0.000000 -0.013176 -0.000001 0.072194
#
#
# Mechanical properties :
#
#
# Convention : Reuss Voigt Hill
#
# Bulk Modulus (GPa) = 27.13372 66.85323 46.99347
# Shear Modulus (GPa) = 7.05081 21.86773 14.45927
#
# Velocity S-wave (km/s) = 1.98722 3.49967 2.84576
# Velocity P-wave (km/s) = 4.52354 7.33304 6.09245
#
# Compressibility (1/GPa) = 0.03685451
#
# Stress axis : x y z
#
# Youngs Moduli (GPa) = 34.19145 61.97730 43.41554
#
# Poissons Ratio (x) = 0.10152 0.39728
# Poissons Ratio (y) = 0.05601 0.21672
# Poissons Ratio (z) = 0.31287 0.30937
#
# Static dielectric constant tensor:
#      x y z
#    x 2.630630 0.000000 0.111590 
#    y 0.000000 3.130550 0.000000 
#    z 0.111590 0.000000 4.026820 
# 
# 
# High freq. dielectric constant tensor:
#      x y z
#    x 1.606950 0.000000 0.016920 
#    y 0.000000 1.673040 0.000000 
#    z 0.016920 0.000000 1.725600 
# 
# From -- ./inp_files/377768.got.cif
#   From: 2010.06.25/outbox.cif.g09.slc.cpg/sg12_189_cif.got.tgz:377768.got - 2010.06.28 00:19:55.
