data_PCOD8078803
_publ_section_title
;
Structure prediction by ZEFSAII (Michael W. Deem and Ramdas Pophale) SiO2 
 PCOD8078803
Probable space group: C 2/M
;
_chemical_formula_sum "Si O2"
_cell_formula_units_Z 56
_cell_length_a 28.377182
_cell_length_b 8.944211
_cell_length_c 14.425457
_cell_angle_alpha 90.000000
_cell_angle_beta 76.700923
_cell_angle_gamma 90.000000
_cell_volume 3563.159045
_symmetry_space_group_name_H-M "C 2/M"
_symmetry_group_IT_number 12
_symmetry_cell_setting 'monoclinic'
loop_
_space_group_symop_operation_xyz
x,y,z
-x,y,-z
-x,-y,-z
x,-y,z
1/2+x,1/2+y,z
1/2-x,1/2+y,-z
1/2-x,1/2-y,-z
1/2+x,1/2-y,z
loop_
_atom_site_type_symbol
_atom_site_label
_atom_site_fract_x
_atom_site_fract_y
_atom_site_fract_z
Si Si1 0.570295 0.175590 0.799550
Si Si2 0.266439 0.823529 0.269046
Si Si3 0.611662 0.674008 0.960529
Si Si4 0.222482 0.824754 0.928442
Si Si5 0.708848 0.671282 0.463242
Si Si6 0.518797 0.334833 0.095947
Si Si7 0.647335 0.676092 0.653332
O O1 0.599405 0.226422 0.877225
O O2 0.513626 0.222385 0.828576
O O3 0.595230 0.252438 0.699159
O O4 0.573517 0.000000 0.787560
O O5 0.257841 0.748323 0.174350
O O6 0.216426 0.791321 0.350649
O O7 0.312454 0.750591 0.298778
O O8 0.275986 0.000000 0.253036
O O9 0.604791 0.500000 0.935669
O O10 0.665726 0.708750 0.968431
O O11 0.575370 0.714343 0.062755
O O12 0.233380 0.000000 0.920982
O O13 0.250000 0.750000 0.000000
O O14 0.719929 0.500000 0.473817
O O15 0.750000 0.750000 0.500000
O O16 0.658055 0.709872 0.538324
O O17 0.514185 0.500000 0.142259
O O18 0.500000 0.336207 0.000000
O O19 0.646443 0.500000 0.675291
#
# Coordination Sequence:
#
# PCOD8078803 Si02
#       7
#     8   8   8   8   8   8   8
#     4  11  19  25  39  64  90 115 144 179 215 254
#     4  10  18  30  45  63  85 111 145 186 224 258
#     4   9  18  32  46  58  80 114 148 180 219 262
#     4  11  22  34  48  65  86 116 152 188 222 258
#     4   8  16  27  41  60  83 111 144 177 212 256
#     4   8  15  28  43  58  79 111 145 175 211 261
#     4  10  17  27  42  61  87 120 149 174 210 260
#
# _framework density 15.716390000000001
#
# number of rings (size 3 to 8) (size 9 to 14) (size 15 to 20)
#    0.000    2.429    1.429    3.429    0.000    4.286 
#    0.000    0.000    0.000    0.000    0.000    0.000 
#    0.000    1.143    0.000   13.143    0.000    5.143 
#
# Total GULP energy -346890.021980 kJ/mol
# GULP energy per Si atom -12388.929356 kJ/mol
# Density = 1.568062 g / cm^3
# Si number density = 15.716390 Si / 1000 Ang^3
#
#
#
# Elastic Constant Matrix: (Units=GPa)
#
#
# Indices 1 2 3 4 5 6 
#
# 1 62.5307 37.1025 57.5321 0.0000 -20.4303 0.0000
# 2 37.1025 96.3733 59.2442 0.0000 -16.7771 0.0000
# 3 57.5321 59.2442 125.9612 0.0000 -30.8148 0.0000
# 4 0.0000 0.0000 0.0000 21.8655 0.0000 -3.7562
# 5 -20.4303 -16.7771 -30.8148 0.0000 26.6567 0.0000
# 6 0.0000 0.0000 0.0000 -3.7562 0.0000 17.9222
#
#
#
# Elastic Compliance Matrix: (Units=1/GPa)
#
#
# Indices 1 2 3 4 5 6 
#
# 1 0.030416 -0.004138 -0.009593 0.000000 0.009617 0.000000
# 2 -0.004138 0.015218 -0.005159 0.000000 0.000442 0.000000
# 3 -0.009593 -0.005159 0.016947 0.000000 0.008990 0.000000
# 4 0.000000 0.000000 0.000000 0.047442 0.000000 0.009943
# 5 0.009617 0.000442 0.008990 0.000000 0.055556 0.000000
# 6 0.000000 0.000000 0.000000 0.009943 0.000000 0.057881
#
#
# Mechanical properties :
#
#
# Convention : Reuss Voigt Hill
#
# Bulk Modulus (GPa) = 40.32391 65.84698 53.08545
# Shear Modulus (GPa) = 18.55233 22.02133 20.28683
#
# Velocity S-wave (km/s) = 3.43949 3.74728 3.59668
# Velocity P-wave (km/s) = 6.44099 7.79171 7.14833
#
# Compressibility (1/GPa) = 0.02479918
#
# Stress axis : x y z
#
# Youngs Moduli (GPa) = 32.87719 65.71115 59.00872
#
# Poissons Ratio (x) = 0.27193 0.56609
# Poissons Ratio (y) = 0.13606 0.30445
# Poissons Ratio (z) = 0.31540 0.33903
#
# Static dielectric constant tensor:
#      x y z
#    x 2.904040 0.000000 -0.638440 
#    y 0.000000 3.065700 0.000000 
#    z -0.638440 0.000000 3.486510 
# 
# 
# High freq. dielectric constant tensor:
#      x y z
#    x 1.556250 0.000000 -0.048890 
#    y 0.000000 1.615310 0.000000 
#    z -0.048890 0.000000 1.596660 
# 
# From -- ./inp_files/247749.got.cif
#   From: 2010.06.25/outbox.cif.g09.slc.cpg/sg12_124_cif.got.tgz:247749.got - 2010.06.28 00:19:55.
