data_PCOD8078109
_publ_section_title
;
Structure prediction by ZEFSAII (Michael W. Deem and Ramdas Pophale) SiO2 
 PCOD8078109
Probable space group: C 2/M
;
_chemical_formula_sum "Si O2"
_cell_formula_units_Z 44
_cell_length_a 14.080793
_cell_length_b 19.442282
_cell_length_c 11.430591
_cell_angle_alpha 90.000000
_cell_angle_beta 54.887411
_cell_angle_gamma 90.000000
_cell_volume 2559.815958
_symmetry_space_group_name_H-M "C 2/M"
_symmetry_group_IT_number 12
_symmetry_cell_setting 'monoclinic'
loop_
_space_group_symop_operation_xyz
x,y,z
-x,y,-z
-x,-y,-z
x,-y,z
1/2+x,1/2+y,z
1/2-x,1/2+y,-z
1/2-x,1/2-y,-z
1/2+x,1/2-y,z
loop_
_atom_site_type_symbol
_atom_site_label
_atom_site_fract_x
_atom_site_fract_y
_atom_site_fract_z
Si Si1 0.500000 0.116655 0.000000
Si Si2 0.331169 0.925001 0.299264
Si Si3 0.855886 0.277064 0.350915
Si Si4 0.413861 0.297314 0.816360
Si Si5 0.833599 0.735971 0.095751
Si Si6 0.907279 0.921422 0.663328
O O1 0.444748 0.068340 0.137550
O O2 0.398402 0.164581 0.016637
O O3 0.352045 0.860269 0.369590
O O4 0.219862 0.907973 0.298628
O O5 0.315821 0.000000 0.373646
O O6 0.750000 0.250000 0.500000
O O7 0.847052 0.250593 0.223751
O O8 0.977342 0.246660 0.310099
O O9 0.301929 0.263873 0.835466
O O10 0.427524 0.376081 0.765017
O O11 0.397185 0.293817 0.969550
O O12 0.000000 0.899680 0.500000
O O13 0.924867 0.000000 0.689647
#
# Coordination Sequence:
#
# PCOD8078109 Si02
#       6
#     4   8   8   8   8   8
#     4  10  15  34  46  78 107 130 170 208 267 318
#     4  10  19  33  51  77 111 132 168 226 275 316
#     4  11  21  34  54  81 108 142 184 220 265 322
#     4  11  19  33  57  72 113 141 170 226 262 321
#     4  10  20  33  51  79 107 137 181 212 268 312
#     4  10  20  33  51  78 109 138 174 223 276 320
#
# _framework density 17.188735999999999
#
# number of rings (size 3 to 8) (size 9 to 14) (size 15 to 20)
#    0.000    1.636    7.273    1.364    0.000    0.000 
#    0.000    0.000    0.000    3.273    0.000    1.273 
#    0.000    0.000    0.000    0.000    0.000    0.000 
#
# Total GULP energy -272590.440218 kJ/mol
# GULP energy per Si atom -12390.474555 kJ/mol
# Density = 1.714961 g / cm^3
# Si number density = 17.188736 Si / 1000 Ang^3
#
#
#
# Elastic Constant Matrix: (Units=GPa)
#
#
# Indices 1 2 3 4 5 6 
#
# 1 89.8429 34.0501 31.0818 0.0000 -25.9418 0.0000
# 2 34.0501 123.9448 45.7531 0.0000 -4.6497 0.0000
# 3 31.0818 45.7531 84.4330 0.0000 -21.7720 0.0000
# 4 0.0000 0.0000 0.0000 3.3376 0.0000 -34.7869
# 5 -25.9418 -4.6497 -21.7720 0.0000 29.4877 0.0000
# 6 0.0000 0.0000 0.0000 -34.7869 0.0000 -27.8258
#
#
#
# Elastic Compliance Matrix: (Units=1/GPa)
#
#
# Indices 1 2 3 4 5 6 
#
# 1 0.016754 -0.003899 -0.000510 0.000000 0.013748 0.000000
# 2 -0.003899 0.011215 -0.006263 0.000000 -0.006286 0.000000
# 3 -0.000510 -0.006263 0.018595 0.000000 0.012294 0.000000
# 4 0.000000 0.000000 0.000000 0.021355 0.000000 -0.026698
# 5 0.013748 -0.006286 0.012294 0.000000 0.054093 0.000000
# 6 0.000000 0.000000 0.000000 -0.026698 0.000000 -0.002562
#
#
# Mechanical properties :
#
#
# Convention : Reuss Voigt Hill
#
# Bulk Modulus (GPa) = 39.64842 57.77676 48.71259
# Shear Modulus (GPa) = 33.51151 13.48895 23.50023
#
# Velocity S-wave (km/s) = 4.42024 2.80439 3.70156
# Velocity P-wave (km/s) = 7.01199 6.64622 6.83155
#
# Compressibility (1/GPa) = 0.02522168
#
# Stress axis : x y z
#
# Youngs Moduli (GPa) = 59.68606 89.16367 53.77705
#
# Poissons Ratio (x) = 0.34763 0.02741
# Poissons Ratio (y) = 0.23270 0.33681
# Poissons Ratio (z) = 0.03043 0.55844
#
# Static dielectric constant tensor:
#      x y z
#    x 3.335220 0.000000 -0.333080 
#    y 0.000000 3.220360 0.000000 
#    z -0.333080 0.000000 3.278860 
# 
# 
# High freq. dielectric constant tensor:
#      x y z
#    x 1.661540 0.000000 -0.040610 
#    y 0.000000 1.652340 0.000000 
#    z -0.040610 0.000000 1.654590 
# 
# From -- ./inp_files/64669.got.cif
#   From: 2010.06.25/outbox.cif.g09.slc.cpg/sg12_33_cif.got.tgz:64669.got - 2010.06.28 00:19:55.
