data_PCOD8078845
_publ_section_title
;
Structure prediction by ZEFSAII (Michael W. Deem and Ramdas Pophale) SiO2 
 PCOD8078845
Probable space group: C 2/M
;
_chemical_formula_sum "Si O2"
_cell_formula_units_Z 64
_cell_length_a 19.441232
_cell_length_b 9.105386
_cell_length_c 21.770552
_cell_angle_alpha 90.000000
_cell_angle_beta 69.693898
_cell_angle_gamma 90.000000
_cell_volume 3614.314042
_symmetry_space_group_name_H-M "C 2/M"
_symmetry_group_IT_number 12
_symmetry_cell_setting 'monoclinic'
loop_
_space_group_symop_operation_xyz
x,y,z
-x,y,-z
-x,-y,-z
x,-y,z
1/2+x,1/2+y,z
1/2-x,1/2+y,-z
1/2-x,1/2-y,-z
1/2+x,1/2-y,z
loop_
_atom_site_type_symbol
_atom_site_label
_atom_site_fract_x
_atom_site_fract_y
_atom_site_fract_z
Si Si1 0.912604 0.837694 0.524927
Si Si2 0.410367 0.173173 0.643223
Si Si3 0.064174 0.826322 0.615462
Si Si4 0.662051 0.672017 0.815853
Si Si5 0.446145 0.170356 0.838527
Si Si6 0.823502 0.327428 0.787691
Si Si7 0.485907 0.672058 0.072550
Si Si8 0.402522 0.829508 0.275715
O O1 0.881414 0.724202 0.585012
O O2 0.891332 0.792840 0.461663
O O3 0.000000 0.839466 0.500000
O O4 0.882124 0.000000 0.550046
O O5 0.484811 0.252853 0.638430
O O6 0.349972 0.221535 0.711903
O O7 0.424618 0.000000 0.637888
O O8 0.110251 0.755701 0.656566
O O9 0.054403 0.000000 0.628188
O O10 0.661725 0.500000 0.799220
O O11 0.738972 0.719512 0.823204
O O12 0.597494 0.711787 0.883322
O O13 0.653581 0.762934 0.756083
O O14 0.374680 0.237895 0.826147
O O15 0.456372 0.254304 0.899312
O O16 0.514582 0.196764 0.772341
O O17 0.437308 0.000000 0.857422
O O18 0.833556 0.500000 0.789373
O O19 0.500555 0.500000 0.070957
O O20 0.500000 0.733732 0.000000
O O21 0.384864 0.000000 0.290570
#
# Coordination Sequence:
#
# PCOD8078845 Si02
#       8
#     8   8   8   8   8   8   8   8
#     4   8  16  28  39  60  93 125 158 198 241 290
#     4  10  17  27  44  67  94 124 159 201 246 284
#     4  10  18  28  44  66  94 126 162 199 241 293
#     4   9  18  33  52  70  95 132 164 189 235 295
#     4   9  17  31  50  72  97 125 159 196 235 282
#     4   9  17  31  49  71  98 128 161 197 239 289
#     4   9  18  33  52  75 100 126 160 198 232 273
#     4  10  18  30  48  71  98 122 157 209 248 278
#
# _framework density 17.707371999999999
#
# number of rings (size 3 to 8) (size 9 to 14) (size 15 to 20)
#    0.000    2.750    1.250    1.875    0.000    3.500 
#    0.000    2.500    0.000    0.750    0.000    0.000 
#    0.000    0.000    0.000    0.000    0.000    0.000 
#
# Total GULP energy -396683.518576 kJ/mol
# GULP energy per Si atom -12396.359955 kJ/mol
# Density = 1.766707 g / cm^3
# Si number density = 17.707372 Si / 1000 Ang^3
#
#
#
# Elastic Constant Matrix: (Units=GPa)
#
#
# Indices 1 2 3 4 5 6 
#
# 1 100.2318 32.6402 56.7695 0.0000 15.0696 0.0000
# 2 32.6402 66.3168 50.1880 0.0000 10.9049 0.0000
# 3 56.7695 50.1880 141.9242 0.0000 24.3260 0.0000
# 4 0.0000 0.0000 0.0000 26.3376 0.0000 8.9277
# 5 15.0696 10.9049 24.3260 0.0000 21.8013 0.0000
# 6 0.0000 0.0000 0.0000 8.9277 0.0000 17.2771
#
#
#
# Elastic Compliance Matrix: (Units=1/GPa)
#
#
# Indices 1 2 3 4 5 6 
#
# 1 0.013701 -0.003369 -0.003653 0.000000 -0.003709 0.000000
# 2 -0.003369 0.021546 -0.005964 0.000000 -0.001794 0.000000
# 3 -0.003653 -0.005964 0.011960 0.000000 -0.007836 0.000000
# 4 0.000000 0.000000 0.000000 0.046031 0.000000 -0.023786
# 5 -0.003709 -0.001794 -0.007836 0.000000 0.058073 0.000000
# 6 0.000000 0.000000 0.000000 -0.023786 0.000000 0.070171
#
#
# Mechanical properties :
#
#
# Convention : Reuss Voigt Hill
#
# Bulk Modulus (GPa) = 47.09512 65.29647 56.19580
# Shear Modulus (GPa) = 19.64387 24.34153 21.99270
#
# Velocity S-wave (km/s) = 3.33432 3.71166 3.52804
# Velocity P-wave (km/s) = 6.44032 7.43800 6.95707
#
# Compressibility (1/GPa) = 0.02123362
#
# Stress axis : x y z
#
# Youngs Moduli (GPa) = 72.98928 46.41285 83.61517
#
# Poissons Ratio (x) = 0.15635 0.30547
# Poissons Ratio (y) = 0.24587 0.49870
# Poissons Ratio (z) = 0.26665 0.27682
#
# Static dielectric constant tensor:
#      x y z
#    x 3.116250 0.000000 0.192410 
#    y 0.000000 3.222450 0.000000 
#    z 0.192410 0.000000 3.545280 
# 
# 
# High freq. dielectric constant tensor:
#      x y z
#    x 1.654500 0.000000 0.017690 
#    y 0.000000 1.676460 0.000000 
#    z 0.017690 0.000000 1.684180 
# 
# From -- ./inp_files/319105.got.cif
#   From: 2010.06.25/outbox.cif.g09.slc.cpg/sg12_160_cif.got.tgz:319105.got - 2010.06.28 00:19:55.
