data_PCOD8078097
_publ_section_title
;
Structure prediction by ZEFSAII (Michael W. Deem and Ramdas Pophale) SiO2 
 PCOD8078097
Probable space group: C 2/M
;
_chemical_formula_sum "Si O2"
_cell_formula_units_Z 56
_cell_length_a 17.897650
_cell_length_b 19.531140
_cell_length_c 11.366652
_cell_angle_alpha 90.000000
_cell_angle_beta 52.212274
_cell_angle_gamma 90.000000
_cell_volume 3140.079307
_symmetry_space_group_name_H-M "C 2/M"
_symmetry_group_IT_number 12
_symmetry_cell_setting 'monoclinic'
loop_
_space_group_symop_operation_xyz
x,y,z
-x,y,-z
-x,-y,-z
x,-y,z
1/2+x,1/2+y,z
1/2-x,1/2+y,-z
1/2-x,1/2-y,-z
1/2+x,1/2-y,z
loop_
_atom_site_type_symbol
_atom_site_label
_atom_site_fract_x
_atom_site_fract_y
_atom_site_fract_z
Si Si1 0.318973 0.830423 0.529569
Si Si2 0.861701 0.716907 0.007500
Si Si3 0.227994 0.309660 0.677792
Si Si4 0.464465 0.189895 0.693180
Si Si5 0.674035 0.078621 0.264638
Si Si6 0.405060 0.334239 0.653674
Si Si7 0.807558 0.147083 0.968577
O O1 0.248339 0.769274 0.628259
O O2 0.303665 0.851258 0.407756
O O3 0.426731 0.806647 0.447453
O O4 0.295548 0.894840 0.635343
O O5 0.858841 0.689662 0.144359
O O6 0.772724 0.686307 0.025481
O O7 0.954913 0.693493 0.845106
O O8 0.855449 0.799611 0.013252
O O9 0.321187 0.344958 0.641105
O O10 0.417093 0.120487 0.691854
O O11 0.410867 0.254195 0.685587
O O12 0.644554 0.000000 0.301458
O O13 0.762260 0.085928 0.088760
O O14 0.500000 0.361461 0.500000
O O15 0.383180 0.377450 0.795272
#
# Coordination Sequence:
#
# PCOD8078097 Si02
#       7
#     8   8   8   8   8   8   8
#     4  11  20  29  44  72 108 133 162 200 243 298
#     4   8  14  28  48  66  98 128 155 203 258 290
#     4  10  18  29  46  69 104 135 157 199 260 299
#     4  10  18  30  48  75 105 129 159 206 246 290
#     4  11  20  33  51  71 101 141 173 194 230 292
#     4  10  15  29  53  76 102 122 155 212 267 292
#     4   8  15  27  46  73  96 123 163 206 245 289
#
# _framework density 17.833943999999999
#
# number of rings (size 3 to 8) (size 9 to 14) (size 15 to 20)
#    0.000    2.286    4.286    2.143    0.000    1.714 
#    0.000    0.000    0.000    9.000    0.000   11.000 
#    0.000    0.000    0.000    0.000    0.000    0.000 
#
# Total GULP energy -346959.682093 kJ/mol
# GULP energy per Si atom -12391.417218 kJ/mol
# Density = 1.779335 g / cm^3
# Si number density = 17.833944 Si / 1000 Ang^3
#
#
#
# Elastic Constant Matrix: (Units=GPa)
#
#
# Indices 1 2 3 4 5 6 
#
# 1 49.2401 20.1218 27.6818 0.0000 19.7819 0.0000
# 2 20.1218 50.2707 19.6536 0.0000 5.4972 0.0000
# 3 27.6818 19.6536 145.7077 0.0000 15.1364 0.0000
# 4 0.0000 0.0000 0.0000 14.5998 0.0000 2.0600
# 5 19.7819 5.4972 15.1364 0.0000 28.5616 0.0000
# 6 0.0000 0.0000 0.0000 2.0600 0.0000 11.0452
#
#
#
# Elastic Compliance Matrix: (Units=1/GPa)
#
#
# Indices 1 2 3 4 5 6 
#
# 1 0.034361 -0.010359 -0.003032 0.000000 -0.020198 0.000000
# 2 -0.010359 0.024320 -0.001663 0.000000 0.003375 0.000000
# 3 -0.003032 -0.001663 0.007844 0.000000 -0.001737 0.000000
# 4 0.000000 0.000000 0.000000 0.070345 0.000000 -0.013120
# 5 -0.020198 0.003375 -0.001737 0.000000 0.049272 0.000000
# 6 0.000000 0.000000 0.000000 -0.013120 0.000000 0.092984
#
#
# Mechanical properties :
#
#
# Convention : Reuss Voigt Hill
#
# Bulk Modulus (GPa) = 27.46108 42.23698 34.84903
# Shear Modulus (GPa) = 15.55820 22.69206 19.12513
#
# Velocity S-wave (km/s) = 2.95683 3.57095 3.27831
# Velocity P-wave (km/s) = 5.20469 6.38257 5.82348
#
# Compressibility (1/GPa) = 0.03641518
#
# Stress axis : x y z
#
# Youngs Moduli (GPa) = 29.10273 41.11864 127.48817
#
# Poissons Ratio (x) = 0.42597 0.38660
# Poissons Ratio (y) = 0.30149 0.21200
# Poissons Ratio (z) = 0.08825 0.06838
#
# Static dielectric constant tensor:
#      x y z
#    x 3.036540 0.000000 0.156160 
#    y 0.000000 2.672870 0.000000 
#    z 0.156160 0.000000 4.190520 
# 
# 
# High freq. dielectric constant tensor:
#      x y z
#    x 1.657670 0.000000 0.010420 
#    y 0.000000 1.616730 0.000000 
#    z 0.010420 0.000000 1.729050 
# 
# From -- ./inp_files/169166.got.cif
#   From: 2010.06.25/outbox.cif.g09.slc.cpg/sg12_85_cif.got.tgz:169166.got - 2010.06.28 00:19:55.
