data_PCOD8078203
_publ_section_title
;
Structure prediction by ZEFSAII (Michael W. Deem and Ramdas Pophale) SiO2 
 PCOD8078203
Probable space group: C 2/M
;
_chemical_formula_sum "Si O2"
_cell_formula_units_Z 40
_cell_length_a 11.978819
_cell_length_b 32.388859
_cell_length_c 7.587514
_cell_angle_alpha 90.000000
_cell_angle_beta 143.811898
_cell_angle_gamma 90.000000
_cell_volume 1738.135052
_symmetry_space_group_name_H-M "C 2/M"
_symmetry_group_IT_number 12
_symmetry_cell_setting 'monoclinic'
loop_
_space_group_symop_operation_xyz
x,y,z
-x,y,-z
-x,-y,-z
x,-y,z
1/2+x,1/2+y,z
1/2-x,1/2+y,-z
1/2-x,1/2-y,-z
1/2+x,1/2-y,z
loop_
_atom_site_type_symbol
_atom_site_label
_atom_site_fract_x
_atom_site_fract_y
_atom_site_fract_z
Si Si1 0.581341 0.699821 0.354988
Si Si2 0.259519 0.454601 0.978805
Si Si3 0.208018 0.726858 0.718630
Si Si4 0.357101 0.954388 0.574677
Si Si5 0.557523 0.392324 0.277382
O O1 0.707865 0.702563 0.341189
O O2 0.686155 0.724441 0.644815
O O3 0.569711 0.651808 0.388730
O O4 0.370198 0.720936 0.074026
O O5 0.346860 0.500000 0.129053
O O6 0.407923 0.418373 0.200812
O O7 0.198786 0.453175 0.699416
O O8 0.081069 0.446810 0.879134
O O9 0.000000 0.707834 0.500000
O O10 0.251751 0.917820 0.543126
O O11 0.304384 0.000000 0.583313
O O12 0.500000 0.386158 0.000000
#
# Coordination Sequence:
#
# PCOD8078203 Si02
#       5
#     8   8   8   8   8
#     4  10  21  35  51  78  98 128 174 206 243 307
#     4   8  14  23  36  56  87 126 158 184 231 291
#     4  10  20  37  55  70  98 132 165 208 259 297
#     4   8  14  23  36  56  86 126 157 184 232 290
#     4  10  16  26  39  63  93 123 158 199 235 278
#
# _framework density 23.013171
#
# number of rings (size 3 to 8) (size 9 to 14) (size 15 to 20)
#    0.000    2.800    2.000    2.400    0.000    4.000 
#    0.000    0.000    0.000    0.000    0.000    0.000 
#    0.000    3.200    0.000   69.600    0.000    0.600 
#
# Total GULP energy -247870.505328 kJ/mol
# GULP energy per Si atom -12393.525266 kJ/mol
# Density = 2.296079 g / cm^3
# Si number density = 23.013171 Si / 1000 Ang^3
#
#
#
# Elastic Constant Matrix: (Units=GPa)
#
#
# Indices 1 2 3 4 5 6 
#
# 1 68.4314 52.6785 46.4461 0.0000 45.2569 0.0000
# 2 52.6785 235.1740 64.6221 0.0000 40.7595 0.0000
# 3 46.4461 64.6221 64.5715 0.0000 26.6824 0.0000
# 4 0.0000 0.0000 0.0000 -13.4819 0.0000 -17.0682
# 5 45.2569 40.7595 26.6824 0.0000 40.8114 0.0000
# 6 0.0000 0.0000 0.0000 -17.0682 0.0000 -10.0147
#
#
#
# Elastic Compliance Matrix: (Units=1/GPa)
#
#
# Indices 1 2 3 4 5 6 
#
# 1 0.083420 0.003107 -0.032343 0.000000 -0.074465 0.000000
# 2 0.003107 0.006218 -0.006122 0.000000 -0.005654 0.000000
# 3 -0.032343 -0.006122 0.037722 0.000000 0.017318 0.000000
# 4 0.000000 0.000000 0.000000 0.064071 0.000000 -0.109197
# 5 -0.074465 -0.005654 0.017318 0.000000 0.101402 0.000000
# 6 0.000000 0.000000 0.000000 -0.109197 0.000000 0.086252
#
#
# Mechanical properties :
#
#
# Convention : Reuss Voigt Hill
#
# Bulk Modulus (GPa) = 17.65406 77.29669 47.47537
# Shear Modulus (GPa) = 10.66819 17.09165 13.87992
#
# Velocity S-wave (km/s) = 2.15540 2.72819 2.45853
# Velocity P-wave (km/s) = 3.72589 6.60189 5.36038
#
# Compressibility (1/GPa) = 0.05664420
#
# Stress axis : x y z
#
# Youngs Moduli (GPa) = 11.98750 160.81763 26.50994
#
# Poissons Ratio (x) = -0.49972 0.85742
# Poissons Ratio (y) = -0.03725 0.16229
# Poissons Ratio (z) = 0.38772 0.98453
#
# Static dielectric constant tensor:
#      x y z
#    x 4.271460 0.000000 0.525760 
#    y 0.000000 4.080270 0.000000 
#    z 0.525760 0.000000 4.014980 
# 
# 
# High freq. dielectric constant tensor:
#      x y z
#    x 1.912760 0.000000 0.019150 
#    y 0.000000 1.898690 0.000000 
#    z 0.019150 0.000000 1.882460 
# 
# From -- ./inp_files/68743.got.cif
#   From: 2010.06.25/outbox.cif.g09.slc.cpg/sg12_35_cif.got.tgz:68743.got - 2010.06.28 00:19:55.
