data_PCOD8078247
_publ_section_title
;
Structure prediction by ZEFSAII (Michael W. Deem and Ramdas Pophale) SiO2 
 PCOD8078247
Probable space group: C 2/M
;
_chemical_formula_sum "Si O2"
_cell_formula_units_Z 64
_cell_length_a 19.498185
_cell_length_b 20.810768
_cell_length_c 10.111847
_cell_angle_alpha 90.000000
_cell_angle_beta 81.748832
_cell_angle_gamma 90.000000
_cell_volume 4060.632984
_symmetry_space_group_name_H-M "C 2/M"
_symmetry_group_IT_number 12
_symmetry_cell_setting 'monoclinic'
loop_
_space_group_symop_operation_xyz
x,y,z
-x,y,-z
-x,-y,-z
x,-y,z
1/2+x,1/2+y,z
1/2-x,1/2+y,-z
1/2-x,1/2-y,-z
1/2+x,1/2-y,z
loop_
_atom_site_type_symbol
_atom_site_label
_atom_site_fract_x
_atom_site_fract_y
_atom_site_fract_z
Si Si1 0.813070 0.371933 0.678680
Si Si2 0.286469 0.262014 0.301565
Si Si3 0.939600 0.720066 0.619248
Si Si4 0.838140 0.186951 0.538355
Si Si5 0.845669 0.359875 0.185305
Si Si6 0.874424 0.573735 0.913596
Si Si7 0.748082 0.925364 0.570578
Si Si8 0.999276 0.664745 0.853637
O O1 0.755315 0.321727 0.749460
O O2 0.881167 0.333603 0.612983
O O3 0.828778 0.420033 0.793953
O O4 0.786545 0.412177 0.561747
O O5 0.233816 0.217419 0.395697
O O6 0.346211 0.289674 0.383647
O O7 0.321830 0.215203 0.184139
O O8 0.905209 0.790464 0.603488
O O9 0.000000 0.705442 0.500000
O O10 0.969784 0.717664 0.759486
O O11 0.823382 0.110579 0.556131
O O12 0.803099 0.402610 0.299727
O O13 0.925549 0.360690 0.209614
O O14 0.835933 0.388770 0.042267
O O15 0.882344 0.500000 0.951073
O O16 0.950528 0.602186 0.868025
O O17 0.763519 0.000000 0.583921
O O18 0.000000 0.696602 0.000000
#
# Coordination Sequence:
#
# PCOD8078247 Si02
#       8
#     8   8   8   8   8   8   8   8
#     4   9  18  30  44  64  87 111 139 174 214 248
#     4   8  14  27  44  62  84 105 135 179 217 247
#     4  10  16  27  47  65  83 107 139 176 212 250
#     4   8  15  26  42  65  87 106 131 172 221 250
#     4  10  18  29  45  63  82 109 147 180 207 244
#     4  10  20  31  41  58  89 122 145 168 203 246
#     4  10  18  29  46  64  85 113 143 172 202 249
#     4   9  19  30  41  60  86 114 142 174 209 245
#
# _framework density 15.761089
#
# number of rings (size 3 to 8) (size 9 to 14) (size 15 to 20)
#    0.000    2.750    0.000    4.500    0.000    3.250 
#    0.000    1.250    0.000    4.500    0.000    0.000 
#    0.000    0.500    0.000    0.000    0.000   32.125 
#
# Total GULP energy -396579.241605 kJ/mol
# GULP energy per Si atom -12393.101300 kJ/mol
# Density = 1.572522 g / cm^3
# Si number density = 15.761089 Si / 1000 Ang^3
#
#
#
# Elastic Constant Matrix: (Units=GPa)
#
#
# Indices 1 2 3 4 5 6 
#
# 1 51.7580 44.9482 42.4753 0.0000 6.8597 0.0000
# 2 44.9482 89.3979 39.7159 0.0000 -3.3852 0.0000
# 3 42.4753 39.7159 82.0846 0.0000 3.8176 0.0000
# 4 0.0000 0.0000 0.0000 21.3348 0.0000 1.1692
# 5 6.8597 -3.3852 3.8176 0.0000 21.1273 0.0000
# 6 0.0000 0.0000 0.0000 1.1692 0.0000 13.9555
#
#
#
# Elastic Compliance Matrix: (Units=1/GPa)
#
#
# Indices 1 2 3 4 5 6 
#
# 1 0.052322 -0.019460 -0.016865 0.000000 -0.017059 0.000000
# 2 -0.019460 0.021757 -0.000921 0.000000 0.009971 0.000000
# 3 -0.016865 -0.000921 0.021286 0.000000 0.001482 0.000000
# 4 0.000000 0.000000 0.000000 0.047088 0.000000 -0.003945
# 5 -0.017059 0.009971 0.001482 0.000000 0.054201 0.000000
# 6 0.000000 0.000000 0.000000 -0.003945 0.000000 0.071987
#
#
# Mechanical properties :
#
#
# Convention : Reuss Voigt Hill
#
# Bulk Modulus (GPa) = 47.91016 53.05770 50.48393
# Shear Modulus (GPa) = 14.28201 17.69027 15.98614
#
# Velocity S-wave (km/s) = 3.01351 3.35386 3.18823
# Velocity P-wave (km/s) = 6.52473 6.98102 6.75673
#
# Compressibility (1/GPa) = 0.02087240
#
# Stress axis : x y z
#
# Youngs Moduli (GPa) = 19.11242 45.96242 46.97860
#
# Poissons Ratio (x) = 0.89444 0.79231
# Poissons Ratio (y) = 0.37193 0.04326
# Poissons Ratio (z) = 0.32234 0.04232
#
# Static dielectric constant tensor:
#      x y z
#    x 2.974490 0.000000 0.068570 
#    y 0.000000 2.992920 0.000000 
#    z 0.068570 0.000000 3.050330 
# 
# 
# High freq. dielectric constant tensor:
#      x y z
#    x 1.590290 0.000000 0.007220 
#    y 0.000000 1.584760 0.000000 
#    z 0.007220 0.000000 1.602680 
# 
# From -- ./inp_files/89130.got.cif
#   From: 2010.06.25/outbox.cif.g09.slc.cpg/sg12_45_cif.got.tgz:89130.got - 2010.06.28 00:19:55.
