data_PCOD8078838
_publ_section_title
;
Structure prediction by ZEFSAII (Michael W. Deem and Ramdas Pophale) SiO2 
 PCOD8078838
Probable space group: C 2/M
;
_chemical_formula_sum "Si O2"
_cell_formula_units_Z 64
_cell_length_a 19.357129
_cell_length_b 8.994091
_cell_length_c 24.156425
_cell_angle_alpha 90.000000
_cell_angle_beta 58.544840
_cell_angle_gamma 90.000000
_cell_volume 3587.606207
_symmetry_space_group_name_H-M "C 2/M"
_symmetry_group_IT_number 12
_symmetry_cell_setting 'monoclinic'
loop_
_space_group_symop_operation_xyz
x,y,z
-x,y,-z
-x,-y,-z
x,-y,z
1/2+x,1/2+y,z
1/2-x,1/2+y,-z
1/2-x,1/2-y,-z
1/2+x,1/2-y,z
loop_
_atom_site_type_symbol
_atom_site_label
_atom_site_fract_x
_atom_site_fract_y
_atom_site_fract_z
Si Si1 0.436218 0.827985 0.226683
Si Si2 0.755625 0.326622 0.332907
Si Si3 0.189632 0.173152 0.148746
Si Si4 0.640915 0.326261 0.286624
Si Si5 0.064543 0.175860 0.108020
Si Si6 0.033017 0.171159 0.674870
Si Si7 0.184553 0.674174 0.988562
Si Si8 0.289338 0.326686 0.431329
O O1 0.340456 0.798302 0.266454
O O2 0.475232 0.738118 0.159013
O O3 0.474441 0.772232 0.268090
O O4 0.457055 0.000000 0.210883
O O5 0.744124 0.500000 0.351991
O O6 0.685977 0.260642 0.321653
O O7 0.749800 0.236955 0.392209
O O8 0.176512 0.245997 0.214841
O O9 0.123742 0.233739 0.132377
O O10 0.170734 0.000000 0.162097
O O11 0.281806 0.200383 0.088245
O O12 0.661032 0.500000 0.278099
O O13 0.544586 0.295552 0.331499
O O14 0.097838 0.247719 0.036434
O O15 0.062198 0.000000 0.101905
O O16 0.114464 0.207120 0.606937
O O17 0.032576 0.000000 0.695145
O O18 0.178824 0.500000 0.004259
O O19 0.250000 0.750000 0.000000
O O20 0.270691 0.500000 0.441667
O O21 0.250000 0.250000 0.500000
#
# Coordination Sequence:
#
# PCOD8078838 Si02
#       8
#     8   8   8   8   8   8   8   8
#     4  10  18  28  44  71 100 125 157 202 251 296
#     4   9  19  33  52  76 102 129 158 196 244 292
#     4   8  14  24  43  67  91 120 157 200 245 286
#     4   9  15  29  52  75  98 125 161 203 241 287
#     4  10  17  27  44  65  90 126 169 211 249 288
#     4   9  17  31  53  76  96 126 166 201 235 281
#     4   9  16  25  38  63  95 125 159 204 254 303
#     4  10  20  35  56  78 102 132 164 197 234 281
#
# _framework density 17.839193000000002
#
# number of rings (size 3 to 8) (size 9 to 14) (size 15 to 20)
#    0.000    2.750    1.250    2.250    0.000    1.000 
#    0.000    1.250    0.000    4.500    0.000    5.250 
#    0.000    0.000    0.000    0.000    0.000    0.000 
#
# Total GULP energy -396598.366857 kJ/mol
# GULP energy per Si atom -12393.698964 kJ/mol
# Density = 1.779859 g / cm^3
# Si number density = 17.839193 Si / 1000 Ang^3
#
#
#
# Elastic Constant Matrix: (Units=GPa)
#
#
# Indices 1 2 3 4 5 6 
#
# 1 95.4777 27.2426 46.3325 -0.0001 1.8132 -0.0001
# 2 27.2426 71.1233 43.8768 -0.0002 -6.6593 -0.0006
# 3 46.3325 43.8768 124.3683 0.0000 -11.4539 0.0000
# 4 -0.0001 -0.0002 0.0000 29.5645 0.0000 -4.3149
# 5 1.8132 -6.6593 -11.4539 0.0000 20.1570 0.0000
# 6 -0.0001 -0.0006 0.0000 -4.3149 0.0000 16.7835
#
#
#
# Elastic Compliance Matrix: (Units=1/GPa)
#
#
# Indices 1 2 3 4 5 6 
#
# 1 0.013551 -0.002875 -0.004468 0.000000 -0.004708 0.000000
# 2 -0.002875 0.018698 -0.005205 0.000000 0.003478 0.000001
# 3 -0.004468 -0.005205 0.012051 0.000000 0.005530 0.000000
# 4 0.000000 0.000000 0.000000 0.035143 0.000000 0.009035
# 5 -0.004708 0.003478 0.005530 0.000000 0.054325 0.000000
# 6 0.000000 0.000001 0.000000 0.009035 0.000000 0.061905
#
#
# Mechanical properties :
#
#
# Convention : Reuss Voigt Hill
#
# Bulk Modulus (GPa) = 52.07218 58.43034 55.25126
# Shear Modulus (GPa) = 22.00982 24.86884 23.43933
#
# Velocity S-wave (km/s) = 3.51635 3.73776 3.62874
# Velocity P-wave (km/s) = 6.76309 7.17306 6.97109
#
# Compressibility (1/GPa) = 0.01920411
#
# Stress axis : x y z
#
# Youngs Moduli (GPa) = 73.79266 53.48105 82.98292
#
# Poissons Ratio (x) = 0.15377 0.37074
# Poissons Ratio (y) = 0.21218 0.43194
# Poissons Ratio (z) = 0.32968 0.27838
#
# Static dielectric constant tensor:
#      x y z
#    x 2.725510 0.000000 0.342180 
#    y 0.000000 3.205780 0.000000 
#    z 0.342180 0.000000 2.998670 
# 
# 
# High freq. dielectric constant tensor:
#      x y z
#    x 1.658720 0.000000 -0.020880 
#    y 0.000000 1.674620 0.000000 
#    z -0.020880 0.000000 1.691410 
# 
# From -- ./inp_files/345528.got.cif
#   From: 2010.06.25/outbox.cif.g09.slc.cpg/sg12_173_cif.got.tgz:345528.got - 2010.06.28 00:19:55.
