data_PCOD8078062
_publ_section_title
;
Structure prediction by ZEFSAII (Michael W. Deem and Ramdas Pophale) SiO2 
 PCOD8078062
Probable space group: C 2/M
;
_chemical_formula_sum "Si O2"
_cell_formula_units_Z 64
_cell_length_a 26.434647
_cell_length_b 18.160395
_cell_length_c 9.514029
_cell_angle_alpha 90.000000
_cell_angle_beta 115.586335
_cell_angle_gamma 90.000000
_cell_volume 4119.445705
_symmetry_space_group_name_H-M "C 2/M"
_symmetry_group_IT_number 12
_symmetry_cell_setting 'monoclinic'
loop_
_space_group_symop_operation_xyz
x,y,z
-x,y,-z
-x,-y,-z
x,-y,z
1/2+x,1/2+y,z
1/2-x,1/2+y,-z
1/2-x,1/2-y,-z
1/2+x,1/2-y,z
loop_
_atom_site_type_symbol
_atom_site_label
_atom_site_fract_x
_atom_site_fract_y
_atom_site_fract_z
Si Si1 0.758604 0.168008 0.661957
Si Si2 0.096557 0.663625 0.400751
Si Si3 0.750973 0.915111 0.925028
Si Si4 0.010340 0.417960 0.677644
Si Si5 0.374790 0.915142 0.279186
Si Si6 0.330183 0.708568 0.500739
Si Si7 0.716063 0.414920 0.726010
Si Si8 0.312015 0.083605 0.633046
O O1 0.776145 0.139114 0.837015
O O2 0.717312 0.237830 0.621300
O O3 0.814521 0.189419 0.643077
O O4 0.728056 0.100321 0.547327
O O5 0.121623 0.629196 0.572451
O O6 0.108570 0.751696 0.425189
O O7 0.132031 0.633328 0.309883
O O8 0.031188 0.642228 0.300885
O O9 0.684565 0.900399 0.865145
O O10 0.761842 0.000000 0.896972
O O11 0.781600 0.895618 0.106987
O O12 0.999450 0.500000 0.728175
O O13 0.075600 0.393405 0.772681
O O14 0.000000 0.419531 0.500000
O O15 0.383334 0.000000 0.331254
O O16 0.331345 0.635692 0.404751
O O17 0.699682 0.500000 0.680618
O O18 0.777447 0.398465 0.733145
O O19 0.331814 0.000000 0.650929
#
# Coordination Sequence:
#
# PCOD8078062 Si02
#       8
#     8   8   8   8   8   8   8   8
#     4   9  16  25  38  56  75 101 135 174 192 232
#     4  10  15  23  39  57  77 104 134 167 197 239
#     4  10  17  27  42  58  79 110 140 165 191 228
#     4   8  14  22  36  60  85 103 130 170 201 224
#     4   9  15  24  38  60  84 105 134 171 197 219
#     4   9  17  27  37  55  81 103 134 165 204 234
#     4   9  19  29  37  53  79 109 138 166 196 237
#     4   9  14  23  38  54  75 102 134 165 196 231
#
# _framework density 15.536071
#
# number of rings (size 3 to 8) (size 9 to 14) (size 15 to 20)
#    0.000    2.875    2.500    3.000    0.000    1.000 
#    0.000    0.000    0.000    0.750    0.000    4.375 
#    0.000    4.500    0.000    0.000    0.000   34.250 
#
# Total GULP energy -396513.636749 kJ/mol
# GULP energy per Si atom -12391.051148 kJ/mol
# Density = 1.550071 g / cm^3
# Si number density = 15.536071 Si / 1000 Ang^3
#
#
#
# Elastic Constant Matrix: (Units=GPa)
#
#
# Indices 1 2 3 4 5 6 
#
# 1 69.5657 41.9138 18.7344 0.0000 -6.9423 0.0000
# 2 41.9138 77.9524 35.1368 0.0000 -7.9867 0.0000
# 3 18.7344 35.1368 46.4030 0.0000 -15.7233 0.0000
# 4 0.0000 0.0000 0.0000 17.7028 0.0000 -3.5764
# 5 -6.9423 -7.9867 -15.7233 0.0000 15.4234 0.0000
# 6 0.0000 0.0000 0.0000 -3.5764 0.0000 24.7459
#
#
#
# Elastic Compliance Matrix: (Units=1/GPa)
#
#
# Indices 1 2 3 4 5 6 
#
# 1 0.021608 -0.012125 0.002483 0.000000 0.005979 0.000000
# 2 -0.012125 0.026874 -0.019231 0.000000 -0.011146 0.000000
# 3 0.002483 -0.019231 0.049061 0.000000 0.041175 0.000000
# 4 0.000000 0.000000 0.000000 0.058187 0.000000 0.008409
# 5 0.005979 -0.011146 0.041175 0.000000 0.103732 0.000000
# 6 0.000000 0.000000 0.000000 0.008409 0.000000 0.041626
#
#
# Mechanical properties :
#
#
# Convention : Reuss Voigt Hill
#
# Bulk Modulus (GPa) = 25.12672 42.83232 33.97952
# Shear Modulus (GPa) = 13.43726 18.11684 15.77705
#
# Velocity S-wave (km/s) = 2.94412 3.41855 3.19017
# Velocity P-wave (km/s) = 5.26929 6.57354 5.95721
#
# Compressibility (1/GPa) = 0.03979826
#
# Stress axis : x y z
#
# Youngs Moduli (GPa) = 46.27847 37.21062 20.38269
#
# Poissons Ratio (x) = 0.45119 -0.05062
# Poissons Ratio (y) = 0.56114 0.39197
# Poissons Ratio (z) = -0.11492 0.71559
#
# Static dielectric constant tensor:
#      x y z
#    x 3.084150 0.000000 -0.165550 
#    y 0.000000 3.034400 0.000000 
#    z -0.165550 0.000000 2.654140 
# 
# 
# High freq. dielectric constant tensor:
#      x y z
#    x 1.569060 0.000000 -0.026250 
#    y 0.000000 1.586700 0.000000 
#    z -0.026250 0.000000 1.555650 
# 
# From -- ./inp_files/112337.got.cif
#   From: 2010.06.25/outbox.cif.g09.slc.cpg/sg12_57_cif.got.tgz:112337.got - 2010.06.28 00:19:55.
