data_PCOD8078075
_publ_section_title
;
Structure prediction by ZEFSAII (Michael W. Deem and Ramdas Pophale) SiO2 
 PCOD8078075
Probable space group: C 2/M
;
_chemical_formula_sum "Si O2"
_cell_formula_units_Z 64
_cell_length_a 9.721735
_cell_length_b 23.676722
_cell_length_c 16.434535
_cell_angle_alpha 90.000000
_cell_angle_beta 91.868083
_cell_angle_gamma 90.000000
_cell_volume 3780.871336
_symmetry_space_group_name_H-M "C 2/M"
_symmetry_group_IT_number 12
_symmetry_cell_setting 'monoclinic'
loop_
_space_group_symop_operation_xyz
x,y,z
-x,y,-z
-x,-y,-z
x,-y,z
1/2+x,1/2+y,z
1/2-x,1/2+y,-z
1/2-x,1/2-y,-z
1/2+x,1/2-y,z
loop_
_atom_site_type_symbol
_atom_site_label
_atom_site_fract_x
_atom_site_fract_y
_atom_site_fract_z
Si Si1 0.783656 0.645761 0.696228
Si Si2 0.009761 0.817172 0.304801
Si Si3 0.512735 0.212517 0.405176
Si Si4 0.680097 0.817510 0.123569
Si Si5 0.307145 0.158218 0.283443
Si Si6 0.495183 0.938037 0.746000
Si Si7 0.902030 0.437118 0.921893
Si Si8 0.583541 0.240728 0.843667
O O1 0.619516 0.641256 0.681757
O O2 0.853563 0.678292 0.622725
O O3 0.820257 0.680904 0.778132
O O4 0.849454 0.583869 0.707233
O O5 0.032120 0.778200 0.384298
O O6 0.146595 0.853836 0.294912
O O7 0.989314 0.780198 0.223825
O O8 0.500000 0.203122 0.500000
O O9 0.371925 0.192920 0.359399
O O10 0.696217 0.881001 0.084824
O O11 0.532781 0.787789 0.099824
O O12 0.809994 0.778367 0.099419
O O13 0.376957 0.097496 0.282700
O O14 0.331194 0.191343 0.199491
O O15 0.495608 0.936550 0.843601
O O16 0.516231 0.000000 0.711215
O O17 0.827169 0.500000 0.925314
O O18 0.000000 0.429442 0.000000
#
# Coordination Sequence:
#
# PCOD8078075 Si02
#       8
#     8   8   8   8   8   8   8   8
#     4   9  17  29  43  66  90 121 156 189 232 270
#     4  10  17  26  42  65  96 122 151 185 234 279
#     4  10  18  28  43  67 100 129 153 181 224 287
#     4  10  16  28  47  68  92 122 157 192 234 283
#     4  10  17  29  45  67  93 123 156 193 234 274
#     4   9  17  32  52  68  85 116 161 201 231 278
#     4   9  17  30  48  70  94 121 157 199 237 276
#     4  10  15  26  44  68  90 119 151 188 230 278
#
# _framework density 16.927315
#
# number of rings (size 3 to 8) (size 9 to 14) (size 15 to 20)
#    0.000    2.375    6.250    1.500    0.000    2.000 
#    0.000    1.250    0.000    6.750    0.000    7.000 
#    0.000   51.000    0.000    0.375    0.000    0.750 
#
# Total GULP energy -396531.409090 kJ/mol
# GULP energy per Si atom -12391.606534 kJ/mol
# Density = 1.688879 g / cm^3
# Si number density = 16.927315 Si / 1000 Ang^3
#
#
#
# Elastic Constant Matrix: (Units=GPa)
#
#
# Indices 1 2 3 4 5 6 
#
# 1 130.5439 53.9368 7.2131 0.0000 8.9519 0.0000
# 2 53.9368 115.8207 13.8256 0.0000 8.1329 0.0000
# 3 7.2131 13.8256 35.3619 0.0000 4.4402 0.0000
# 4 0.0000 0.0000 0.0000 11.2167 0.0000 -0.8234
# 5 8.9519 8.1329 4.4402 0.0000 8.1392 0.0000
# 6 0.0000 0.0000 0.0000 -0.8234 0.0000 9.8199
#
#
#
# Elastic Compliance Matrix: (Units=1/GPa)
#
#
# Indices 1 2 3 4 5 6 
#
# 1 0.009821 -0.004145 0.000487 0.000000 -0.006925 0.000000
# 2 -0.004145 0.011272 -0.002920 0.000000 -0.005111 0.000000
# 3 0.000487 -0.002920 0.031156 0.000000 -0.014615 0.000000
# 4 0.000000 0.000000 0.000000 0.089705 0.000000 0.007522
# 5 -0.006925 -0.005111 -0.014615 0.000000 0.143560 0.000000
# 6 0.000000 0.000000 0.000000 0.007522 0.000000 0.102465
#
#
# Mechanical properties :
#
#
# Convention : Reuss Voigt Hill
#
# Bulk Modulus (GPa) = 25.57994 47.96419 36.77206
# Shear Modulus (GPa) = 12.07245 19.61855 15.84550
#
# Velocity S-wave (km/s) = 2.67347 3.40808 3.06288
# Velocity P-wave (km/s) = 4.96733 6.62447 5.85482
#
# Compressibility (1/GPa) = 0.03909313
#
# Stress axis : x y z
#
# Youngs Moduli (GPa) = 101.82275 88.71575 32.09620
#
# Poissons Ratio (x) = 0.36776 -0.01563
# Poissons Ratio (y) = 0.42210 0.09371
# Poissons Ratio (z) = -0.04959 0.25902
#
# Static dielectric constant tensor:
#      x y z
#    x 3.228780 0.000000 0.084660 
#    y 0.000000 3.290020 0.000000 
#    z 0.084660 0.000000 2.856200 
# 
# 
# High freq. dielectric constant tensor:
#      x y z
#    x 1.640730 0.000000 0.005730 
#    y 0.000000 1.638080 0.000000 
#    z 0.005730 0.000000 1.622350 
# 
# From -- ./inp_files/199845.got.cif
#   From: 2010.06.25/outbox.cif.g09.slc.cpg/sg12_100_cif.got.tgz:199845.got - 2010.06.28 00:19:55.
