data_PCOD8078565
_publ_section_title
;
Structure prediction by ZEFSAII (Michael W. Deem and Ramdas Pophale) SiO2 
 PCOD8078565
Probable space group: C 2/M
;
_chemical_formula_sum "Si O2"
_cell_formula_units_Z 64
_cell_length_a 23.091628
_cell_length_b 9.136474
_cell_length_c 20.917258
_cell_angle_alpha 90.000000
_cell_angle_beta 115.770610
_cell_angle_gamma 90.000000
_cell_volume 3974.128041
_symmetry_space_group_name_H-M "C 2/M"
_symmetry_group_IT_number 12
_symmetry_cell_setting 'monoclinic'
loop_
_space_group_symop_operation_xyz
x,y,z
-x,y,-z
-x,-y,-z
x,-y,z
1/2+x,1/2+y,z
1/2-x,1/2+y,-z
1/2-x,1/2-y,-z
1/2+x,1/2-y,z
loop_
_atom_site_type_symbol
_atom_site_label
_atom_site_fract_x
_atom_site_fract_y
_atom_site_fract_z
Si Si1 0.487738 0.326608 0.895109
Si Si2 0.238650 0.172643 0.061219
Si Si3 0.465056 0.835558 0.623831
Si Si4 0.600989 0.326050 0.037497
Si Si5 0.010573 0.825840 0.764555
Si Si6 0.140678 0.328486 0.795159
Si Si7 0.109699 0.338296 0.643411
Si Si8 0.927082 0.835835 0.488962
O O1 0.490546 0.500000 0.899003
O O2 0.426249 0.270986 0.906742
O O3 0.482316 0.274692 0.819387
O O4 0.553658 0.267214 0.958926
O O5 0.172540 0.234514 0.059891
O O6 0.295033 0.214799 0.137012
O O7 0.235469 0.000000 0.047769
O O8 0.250000 0.250000 0.000000
O O9 0.464039 0.744736 0.689175
O O10 0.536537 0.838694 0.631291
O O11 0.419090 0.757865 0.549813
O O12 0.439724 0.000000 0.623876
O O13 0.602634 0.500000 0.037678
O O14 0.083217 0.768220 0.795428
O O15 0.011133 0.000000 0.755926
O O16 0.122754 0.500000 0.794022
O O17 0.152138 0.291691 0.725353
O O18 0.129102 0.500000 0.628748
O O19 0.119128 0.228615 0.588658
O O20 0.000000 0.832298 0.500000
O O21 0.904384 0.000000 0.492517
#
# Coordination Sequence:
#
# PCOD8078565 Si02
#       8
#     8   8   8   8   8   8   8   8
#     4   8  14  24  40  61  82 103 133 173 209 240
#     4  10  19  30  45  63  84 110 139 171 206 244
#     4   9  16  25  36  52  78 110 137 162 198 245
#     4   8  14  26  42  60  81 106 136 169 206 245
#     4  10  17  25  40  61  82 106 138 174 207 238
#     4   9  18  29  39  56  83 112 139 167 202 248
#     4   8  14  24  35  47  70 105 137 162 194 238
#     4   9  15  22  34  53  75 100 134 171 200 231
#
# _framework density 16.104161999999999
#
# number of rings (size 3 to 8) (size 9 to 14) (size 15 to 20)
#    0.000    3.125    0.000    3.375    0.000    6.000 
#    0.000    0.000    0.000    1.500    0.000    6.125 
#    0.000    1.000    0.000    1.750    0.000    3.250 
#
# Total GULP energy -396593.827026 kJ/mol
# GULP energy per Si atom -12393.557095 kJ/mol
# Density = 1.606751 g / cm^3
# Si number density = 16.104162 Si / 1000 Ang^3
#
#
#
# Elastic Constant Matrix: (Units=GPa)
#
#
# Indices 1 2 3 4 5 6 
#
# 1 66.5942 27.0516 53.0994 0.0000 -10.9614 0.0000
# 2 27.0516 74.4448 58.6470 0.0000 -9.1869 0.0000
# 3 53.0994 58.6470 160.0650 0.0000 -17.4627 0.0000
# 4 0.0000 0.0000 0.0000 25.9550 0.0000 -2.9736
# 5 -10.9614 -9.1869 -17.4627 0.0000 17.7764 0.0000
# 6 0.0000 0.0000 0.0000 -2.9736 0.0000 9.4540
#
#
#
# Elastic Compliance Matrix: (Units=1/GPa)
#
#
# Indices 1 2 3 4 5 6 
#
# 1 0.021532 -0.002745 -0.005425 0.000000 0.006529 0.000000
# 2 -0.002745 0.019410 -0.005926 0.000000 0.002517 0.000000
# 3 -0.005425 -0.005926 0.010662 0.000000 0.004066 0.000000
# 4 0.000000 0.000000 0.000000 0.039968 0.000000 0.012571
# 5 0.006529 0.002517 0.004066 0.000000 0.065576 0.000000
# 6 0.000000 0.000000 0.000000 0.012571 0.000000 0.109729
#
#
# Mechanical properties :
#
#
# Convention : Reuss Voigt Hill
#
# Bulk Modulus (GPa) = 42.71465 64.30000 53.50733
# Shear Modulus (GPa) = 16.50861 21.45748 18.98305
#
# Velocity S-wave (km/s) = 3.20521 3.65419 3.43704
# Velocity P-wave (km/s) = 6.34661 7.60384 7.00349
#
# Compressibility (1/GPa) = 0.02341117
#
# Stress axis : x y z
#
# Youngs Moduli (GPa) = 46.44358 51.52105 93.79015
#
# Poissons Ratio (x) = 0.14141 0.50879
# Poissons Ratio (y) = 0.12747 0.55585
# Poissons Ratio (z) = 0.25195 0.30534
#
# Static dielectric constant tensor:
#      x y z
#    x 2.802520 0.000000 -0.142700 
#    y 0.000000 2.958640 0.000000 
#    z -0.142700 0.000000 3.395230 
# 
# 
# High freq. dielectric constant tensor:
#      x y z
#    x 1.560440 0.000000 -0.014710 
#    y 0.000000 1.604670 0.000000 
#    z -0.014710 0.000000 1.633250 
# 
# From -- ./inp_files/326622.got.cif
#   From: 2010.06.25/outbox.cif.g09.slc.cpg/sg12_164_cif.got.tgz:326622.got - 2010.06.28 00:19:55.
