data_PCOD8078195
_publ_section_title
;
Structure prediction by ZEFSAII (Michael W. Deem and Ramdas Pophale) SiO2 
 PCOD8078195
Probable space group: C 2/M
;
_chemical_formula_sum "Si O2"
_cell_formula_units_Z 56
_cell_length_a 23.689988
_cell_length_b 16.462993
_cell_length_c 20.982390
_cell_angle_alpha 90.000000
_cell_angle_beta 24.082644
_cell_angle_gamma 90.000000
_cell_volume 3339.228593
_symmetry_space_group_name_H-M "C 2/M"
_symmetry_group_IT_number 12
_symmetry_cell_setting 'monoclinic'
loop_
_space_group_symop_operation_xyz
x,y,z
-x,y,-z
-x,-y,-z
x,-y,z
1/2+x,1/2+y,z
1/2-x,1/2+y,-z
1/2-x,1/2-y,-z
1/2+x,1/2-y,z
loop_
_atom_site_type_symbol
_atom_site_label
_atom_site_fract_x
_atom_site_fract_y
_atom_site_fract_z
Si Si1 0.519853 0.409045 0.273836
Si Si2 0.320128 0.500000 0.250791
Si Si3 0.640054 0.500000 0.938697
Si Si4 0.940741 0.744819 0.240622
Si Si5 0.328518 0.353533 0.007910
Si Si6 0.449861 0.759968 0.728543
Si Si7 0.193177 0.587803 0.597972
Si Si8 0.306924 0.860692 0.538921
O O1 0.553343 0.500000 0.266173
O O2 0.571300 0.336045 0.268724
O O3 0.356483 0.397718 0.433666
O O4 0.596219 0.400704 0.127131
O O5 0.316379 0.500000 0.179083
O O6 0.242435 0.419421 0.354144
O O7 0.475007 0.500000 0.118670
O O8 0.704891 0.419152 0.903226
O O9 0.895744 0.652982 0.269323
O O10 0.809343 0.799552 0.364059
O O11 0.985331 0.746581 0.268085
O O12 0.070223 0.782527 0.067895
O O13 0.191286 0.309597 0.125161
O O14 0.561606 0.808468 0.570273
O O15 0.153352 0.500000 0.667256
O O16 0.148954 0.588706 0.569110
#
# Coordination Sequence:
#
# PCOD8078195 Si02
#       8
#     8   4   4   8   8   8   8   8
#     4  10  16  27  47  69  97 131 162 193 241 300
#     4  11  22  35  57  75  91 135 187 221 242 284
#     4  11  22  37  53  75  95 133 189 215 246 296
#     4  10  17  30  48  68  95 130 166 196 243 300
#     4  11  20  33  47  64 103 134 162 207 252 292
#     4  10  20  30  44  73  96 133 167 192 251 318
#     4  10  16  25  46  73  99 123 165 198 239 294
#     4  11  17  32  49  68  97 130 168 210 241 281
#
# _framework density 16.770340999999998
#
# number of rings (size 3 to 8) (size 9 to 14) (size 15 to 20)
#    0.000    1.571    7.143    2.571    0.000    0.571 
#    1.286    2.143    0.000    0.000    0.000    0.000 
#    0.000    6.857    0.000    0.000    0.000    0.000 
#
# Total GULP energy -346865.777469 kJ/mol
# GULP energy per Si atom -12388.063481 kJ/mol
# Density = 1.673217 g / cm^3
# Si number density = 16.770341 Si / 1000 Ang^3
#
#
#
# Elastic Constant Matrix: (Units=GPa)
#
#
# Indices 1 2 3 4 5 6 
#
# 1 28.5199 37.3381 23.8348 -0.0001 -1.5221 0.0003
# 2 37.3381 169.1003 57.7689 0.0013 -7.4516 -0.0017
# 3 23.8348 57.7689 66.7477 0.0002 -17.0807 -0.0013
# 4 -0.0001 0.0013 0.0002 30.7929 -0.0006 -3.0781
# 5 -1.5221 -7.4516 -17.0807 -0.0006 17.1021 0.0009
# 6 0.0003 -0.0017 -0.0013 -3.0781 0.0009 18.4257
#
#
#
# Elastic Compliance Matrix: (Units=1/GPa)
#
#
# Indices 1 2 3 4 5 6 
#
# 1 0.060100 -0.007363 -0.019533 0.000000 -0.017367 -0.000002
# 2 -0.007363 0.009607 -0.006424 0.000000 -0.002885 0.000001
# 3 -0.019533 -0.006424 0.035404 0.000001 0.030822 0.000001
# 4 0.000000 0.000000 0.000001 0.033027 0.000001 0.005517
# 5 -0.017367 -0.002885 0.030822 0.000001 0.086452 -0.000002
# 6 -0.000002 0.000001 0.000001 0.005517 -0.000002 0.055194
#
#
# Mechanical properties :
#
#
# Convention : Reuss Voigt Hill
#
# Bulk Modulus (GPa) = 25.99328 55.80573 40.89951
# Shear Modulus (GPa) = 13.91809 22.95921 18.43865
#
# Velocity S-wave (km/s) = 2.88396 3.70406 3.31944
# Velocity P-wave (km/s) = 5.15974 7.18625 6.25560
#
# Compressibility (1/GPa) = 0.03847148
#
# Stress axis : x y z
#
# Youngs Moduli (GPa) = 16.63905 104.09433 28.24579
#
# Poissons Ratio (x) = 0.76641 0.55172
# Poissons Ratio (y) = 0.12251 0.18144
# Poissons Ratio (z) = 0.32501 0.66866
#
# Static dielectric constant tensor:
#      x y z
#    x 2.604760 0.000000 -0.217800 
#    y 0.000000 3.877850 0.000010 
#    z -0.217800 0.000010 3.202360 
# 
# 
# High freq. dielectric constant tensor:
#      x y z
#    x 1.571870 0.000000 -0.032440 
#    y 0.000000 1.674770 0.000000 
#    z -0.032440 0.000000 1.636890 
# 
# From -- ./inp_files/326006.got.cif
#   From: 2010.06.25/outbox.cif.g09.slc.cpg/sg12_164_cif.got.tgz:326006.got - 2010.06.28 00:19:55.
