data_PCOD8078766
_publ_section_title
;
Structure prediction by ZEFSAII (Michael W. Deem and Ramdas Pophale) SiO2 
 PCOD8078766
Probable space group: C 2/M
;
_chemical_formula_sum "Si O2"
_cell_formula_units_Z 48
_cell_length_a 24.421062
_cell_length_b 15.066144
_cell_length_c 21.198992
_cell_angle_alpha 90.000000
_cell_angle_beta 20.770131
_cell_angle_gamma 90.000000
_cell_volume 2765.951622
_symmetry_space_group_name_H-M "C 2/M"
_symmetry_group_IT_number 12
_symmetry_cell_setting 'monoclinic'
loop_
_space_group_symop_operation_xyz
x,y,z
-x,y,-z
-x,-y,-z
x,-y,z
1/2+x,1/2+y,z
1/2-x,1/2+y,-z
1/2-x,1/2-y,-z
1/2+x,1/2-y,z
loop_
_atom_site_type_symbol
_atom_site_label
_atom_site_fract_x
_atom_site_fract_y
_atom_site_fract_z
Si Si1 0.724275 0.853507 0.456220
Si Si2 0.182204 0.226101 0.966889
Si Si3 0.188386 0.097907 0.145090
Si Si4 0.492859 0.397760 0.081605
Si Si5 0.889526 0.593316 0.806029
Si Si6 0.563385 0.319656 0.665592
O O1 0.571985 0.911654 0.620176
O O2 0.676806 0.749888 0.509414
O O3 0.831770 0.879624 0.400694
O O4 0.819833 0.874683 0.290141
O O5 0.243784 0.324971 0.881414
O O6 0.338920 0.175698 0.818113
O O7 0.109840 0.172944 0.986721
O O8 0.064636 0.230682 0.153031
O O9 0.019419 0.121022 0.298438
O O10 0.178920 0.000000 0.188214
O O11 0.309924 0.095934 0.958752
O O12 0.535265 0.500000 0.053520
O O13 0.500000 0.382480 0.000000
O O14 0.842226 0.500000 0.823709
#
# Coordination Sequence:
#
# PCOD8078766 Si02
#       6
#     8   8   8   8   8   8
#     4  10  17  29  49  71 103 131 164 201 236 286
#     4  10  17  33  50  69 102 134 161 201 245 293
#     4  10  18  29  47  74 105 132 160 193 244 306
#     4  10  22  37  52  71  97 133 170 201 244 298
#     4  10  17  26  46  76 103 132 160 192 243 299
#     4   9  17  29  47  73 104 136 160 193 247 300
#
# _framework density 17.353883
#
# number of rings (size 3 to 8) (size 9 to 14) (size 15 to 20)
#    0.000    2.167    3.333    2.000    0.000    4.667 
#    0.000    0.833    0.000    3.500    0.000    1.167 
#    0.000    0.000    0.000    0.000    0.000    0.000 
#
# Total GULP energy -297338.317858 kJ/mol
# GULP energy per Si atom -12389.096577 kJ/mol
# Density = 1.731438 g / cm^3
# Si number density = 17.353883 Si / 1000 Ang^3
#
#
#
# Elastic Constant Matrix: (Units=GPa)
#
#
# Indices 1 2 3 4 5 6 
#
# 1 52.2515 44.5065 33.9129 -0.0521 -10.0099 0.0117
# 2 44.5065 141.3268 26.3588 -0.0563 -10.2153 0.0093
# 3 33.9129 26.3588 73.6474 -0.0154 -19.0936 -0.0049
# 4 -0.0521 -0.0563 -0.0154 -521.0684 0.0258 146.9840
# 5 -10.0099 -10.2153 -19.0936 0.0258 26.0204 -0.0040
# 6 0.0117 0.0093 -0.0049 146.9840 -0.0040 -21.9072
#
#
#
# Elastic Compliance Matrix: (Units=1/GPa)
#
#
# Indices 1 2 3 4 5 6 
#
# 1 0.034862 -0.008539 -0.012830 -0.000003 0.000644 -0.000004
# 2 -0.008539 0.009705 0.000735 0.000000 0.001064 0.000002
# 3 -0.012830 0.000735 0.022252 0.000003 0.011681 0.000007
# 4 -0.000003 0.000000 0.000003 0.002150 0.000001 0.014426
# 5 0.000644 0.001064 0.011681 0.000001 0.047668 -0.000002
# 6 -0.000004 0.000002 0.000007 0.014426 -0.000002 0.051140
#
#
# Mechanical properties :
#
#
# Convention : Reuss Voigt Hill
#
# Bulk Modulus (GPa) = 39.14001 52.97580 46.05790
# Shear Modulus (GPa) = 22.98191 -92.56120 -34.78964
#
# Velocity S-wave (km/s) = 3.64305 -7.31117 -4.48227
# Velocity P-wave (km/s) = 6.34813 6.37793 0.43541
#
# Compressibility (1/GPa) = 0.02554931
#
# Stress axis : x y z
#
# Youngs Moduli (GPa) = 28.68429 103.04077 44.94076
#
# Poissons Ratio (x) = 0.87990 0.57659
# Poissons Ratio (y) = 0.24494 -0.03301
# Poissons Ratio (z) = 0.36802 -0.07569
#
# Static dielectric constant tensor:
#      x y z
#    x 2.889890 0.000000 -0.341960 
#    y 0.000000 3.656060 0.000000 
#    z -0.341960 0.000000 3.246280 
# 
# 
# High freq. dielectric constant tensor:
#      x y z
#    x 1.621270 0.000000 -0.039690 
#    y 0.000000 1.682450 0.000000 
#    z -0.039690 0.000000 1.661650 
# 
# From -- ./inp_files/103745.got.cif
#   From: 2010.06.25/outbox.cif.g09.slc.cpg/sg12_52_cif.got.tgz:103745.got - 2010.06.28 00:19:55.
