data_PCOD8078696
_publ_section_title
;
Structure prediction by ZEFSAII (Michael W. Deem and Ramdas Pophale) SiO2 
 PCOD8078696
Probable space group: C 2/M
;
_chemical_formula_sum "Si O2"
_cell_formula_units_Z 48
_cell_length_a 28.681696
_cell_length_b 8.626058
_cell_length_c 12.203895
_cell_angle_alpha 90.000000
_cell_angle_beta 110.133168
_cell_angle_gamma 90.000000
_cell_volume 2834.867479
_symmetry_space_group_name_H-M "C 2/M"
_symmetry_group_IT_number 12
_symmetry_cell_setting 'monoclinic'
loop_
_space_group_symop_operation_xyz
x,y,z
-x,y,-z
-x,-y,-z
x,-y,z
1/2+x,1/2+y,z
1/2-x,1/2+y,-z
1/2-x,1/2-y,-z
1/2+x,1/2-y,z
loop_
_atom_site_type_symbol
_atom_site_label
_atom_site_fract_x
_atom_site_fract_y
_atom_site_fract_z
Si Si1 0.574218 0.319121 0.557669
Si Si2 0.001363 0.681150 0.337671
Si Si3 0.865270 0.180637 0.053411
Si Si4 0.763579 0.820131 0.896607
Si Si5 0.476050 0.318559 0.093737
Si Si6 0.837105 0.681296 0.260564
O O1 0.569050 0.500000 0.530397
O O2 0.553520 0.227054 0.435802
O O3 0.543190 0.275136 0.641085
O O4 0.631612 0.274634 0.623396
O O5 0.991541 0.500000 0.345502
O O6 0.003276 0.725174 0.212016
O O7 0.917707 0.222690 0.041733
O O8 0.857164 0.282069 0.155052
O O9 0.862982 0.000000 0.086117
O O10 0.822266 0.217000 0.925720
O O11 0.721403 0.764454 0.774941
O O12 0.754378 0.000000 0.900034
O O13 0.750000 0.750000 0.000000
O O14 0.485114 0.500000 0.120515
O O15 0.500000 0.261869 0.000000
O O16 0.844537 0.500000 0.289252
#
# Coordination Sequence:
#
# PCOD8078696 Si02
#       6
#     8   8   8   8   8   8
#     4  11  20  31  48  68  94 125 154 186 234 289
#     4  11  21  33  48  68  93 121 157 196 235 274
#     4   9  16  28  44  62  90 126 158 189 227 273
#     4   8  15  25  39  61  89 120 152 185 225 274
#     4  10  20  33  49  69  95 128 163 194 227 271
#     4  10  17  26  42  67  95 121 151 188 231 276
#
# _framework density 16.932008
#
# number of rings (size 3 to 8) (size 9 to 14) (size 15 to 20)
#    0.000    2.167    1.667    4.500    0.000    1.000 
#    0.000    0.000    0.000    0.000    0.000    1.167 
#    0.000    0.000    0.000    0.000    0.000    0.000 
#
# Total GULP energy -297376.230534 kJ/mol
# GULP energy per Si atom -12390.676272 kJ/mol
# Density = 1.689347 g / cm^3
# Si number density = 16.932008 Si / 1000 Ang^3
#
#
#
# Elastic Constant Matrix: (Units=GPa)
#
#
# Indices 1 2 3 4 5 6 
#
# 1 81.2377 14.8870 55.2302 0.0000 24.7722 0.0000
# 2 14.8870 50.1174 22.1095 0.0000 5.5746 0.0000
# 3 55.2302 22.1095 98.9572 0.0000 23.6980 0.0000
# 4 0.0000 0.0000 0.0000 20.9126 0.0000 5.9155
# 5 24.7722 5.5746 23.6980 0.0000 34.5486 0.0000
# 6 0.0000 0.0000 0.0000 5.9155 0.0000 15.6888
#
#
#
# Elastic Compliance Matrix: (Units=1/GPa)
#
#
# Indices 1 2 3 4 5 6 
#
# 1 0.021899 -0.001181 -0.009864 0.000000 -0.008745 0.000000
# 2 -0.001181 0.022200 -0.004363 0.000000 0.000257 0.000000
# 3 -0.009864 -0.004363 0.017617 0.000000 -0.004307 0.000000
# 4 0.000000 0.000000 0.000000 0.053527 0.000000 -0.020183
# 5 -0.008745 0.000257 -0.004307 0.000000 0.038129 0.000000
# 6 0.000000 0.000000 0.000000 -0.020183 0.000000 0.071350
#
#
# Mechanical properties :
#
#
# Convention : Reuss Voigt Hill
#
# Bulk Modulus (GPa) = 32.36129 46.08507 39.22318
# Shear Modulus (GPa) = 18.80857 23.43570 21.12214
#
# Velocity S-wave (km/s) = 3.33653 3.72439 3.53578
# Velocity P-wave (km/s) = 5.83071 6.76547 6.31541
#
# Compressibility (1/GPa) = 0.03090112
#
# Stress axis : x y z
#
# Youngs Moduli (GPa) = 45.66425 45.04538 56.76338
#
# Poissons Ratio (x) = 0.05318 0.55993
# Poissons Ratio (y) = 0.05391 0.24764
# Poissons Ratio (z) = 0.45044 0.19652
#
# Static dielectric constant tensor:
#      x y z
#    x 3.427560 0.000000 0.648580 
#    y 0.000000 3.405990 0.000000 
#    z 0.648580 0.000000 3.204540 
# 
# 
# High freq. dielectric constant tensor:
#      x y z
#    x 1.629260 0.000000 0.054060 
#    y 0.000000 1.659080 0.000000 
#    z 0.054060 0.000000 1.629810 
# 
# From -- ./inp_files/185948.got.cif
#   From: 2010.06.25/outbox.cif.g09.slc.cpg/sg12_93_cif.got.tgz:185948.got - 2010.06.28 00:19:55.
