data_PCOD8078887
_publ_section_title
;
Structure prediction by ZEFSAII (Michael W. Deem and Ramdas Pophale) SiO2 
 PCOD8078887
Probable space group: C 2/M
;
_chemical_formula_sum "Si O2"
_cell_formula_units_Z 48
_cell_length_a 24.383846
_cell_length_b 7.864009
_cell_length_c 15.378826
_cell_angle_alpha 90.000000
_cell_angle_beta 106.721072
_cell_angle_gamma 90.000000
_cell_volume 2824.271692
_symmetry_space_group_name_H-M "C 2/M"
_symmetry_group_IT_number 12
_symmetry_cell_setting 'monoclinic'
loop_
_space_group_symop_operation_xyz
x,y,z
-x,y,-z
-x,-y,-z
x,-y,z
1/2+x,1/2+y,z
1/2-x,1/2+y,-z
1/2-x,1/2-y,-z
1/2+x,1/2-y,z
loop_
_atom_site_type_symbol
_atom_site_label
_atom_site_fract_x
_atom_site_fract_y
_atom_site_fract_z
Si Si1 0.216921 0.805851 0.353610
Si Si2 0.048244 0.699424 0.456835
Si Si3 0.976584 0.694854 0.751562
Si Si4 0.907781 0.000000 0.934415
Si Si5 0.021032 0.000000 0.871357
Si Si6 0.633546 0.811209 0.181794
Si Si7 0.326022 0.304987 0.482433
O O1 0.193953 0.704128 0.259453
O O2 0.285773 0.788672 0.393131
O O3 0.187229 0.730230 0.427480
O O4 0.198642 0.000000 0.331288
O O5 0.056203 0.500000 0.470597
O O6 0.030534 0.748838 0.351504
O O7 0.107893 0.783945 0.511757
O O8 0.000000 0.769996 0.500000
O O9 0.999136 0.500000 0.771536
O O10 0.021569 0.827548 0.813979
O O11 0.915490 0.717298 0.769013
O O12 0.871690 0.170364 0.896269
O O13 0.921975 0.000000 0.043472
O O14 0.965773 0.000000 0.906718
O O15 0.629094 0.000000 0.138000
O O16 0.307833 0.500000 0.472559
#
# Coordination Sequence:
#
# PCOD8078887 Si02
#       7
#     8   8   8   4   4   8   8
#     4  10  18  29  45  65  95 128 160 196 235 282
#     4  10  20  33  47  65  94 131 166 202 239 276
#     4   9  18  30  46  65  90 127 163 195 233 282
#     4   9  18  30  42  68  92 122 153 196 244 285
#     4   9  18  30  47  62  92 122 159 198 236 288
#     4  10  17  27  46  66  93 126 157 190 235 290
#     4  10  20  29  44  67  92 125 165 200 232 276
#
# _framework density 16.995532999999998
#
# number of rings (size 3 to 8) (size 9 to 14) (size 15 to 20)
#    0.000    2.333    2.500    1.000    1.167    2.333 
#    0.000    3.333    0.000    0.000    0.000    0.000 
#    0.000    1.333    0.667    0.000    0.000    0.000 
#
# Total GULP energy -297567.772132 kJ/mol
# GULP energy per Si atom -12398.657172 kJ/mol
# Density = 1.695685 g / cm^3
# Si number density = 16.995533 Si / 1000 Ang^3
#
#
#
# Elastic Constant Matrix: (Units=GPa)
#
#
# Indices 1 2 3 4 5 6 
#
# 1 67.9809 22.0121 37.1917 0.0000 12.1636 0.0000
# 2 22.0121 98.3827 51.7560 0.0000 15.7416 0.0000
# 3 37.1917 51.7560 100.2132 0.0000 28.8137 0.0000
# 4 0.0000 0.0000 0.0000 25.1302 0.0000 6.4693
# 5 12.1636 15.7416 28.8137 0.0000 22.2796 0.0000
# 6 0.0000 0.0000 0.0000 6.4693 0.0000 16.4207
#
#
#
# Elastic Compliance Matrix: (Units=1/GPa)
#
#
# Indices 1 2 3 4 5 6 
#
# 1 0.018546 -0.000703 -0.005972 0.000000 -0.001905 0.000000
# 2 -0.000703 0.013993 -0.006740 0.000000 -0.000787 0.000000
# 3 -0.005972 -0.006740 0.021284 0.000000 -0.019503 0.000000
# 4 0.000000 0.000000 0.000000 0.044284 0.000000 -0.017447
# 5 -0.001905 -0.000787 -0.019503 0.000000 0.071703 0.000000
# 6 0.000000 0.000000 0.000000 -0.017447 0.000000 0.067772
#
#
# Mechanical properties :
#
#
# Convention : Reuss Voigt Hill
#
# Bulk Modulus (GPa) = 37.04693 54.27738 45.66216
# Shear Modulus (GPa) = 18.28763 23.14056 20.71410
#
# Velocity S-wave (km/s) = 3.28384 3.69395 3.49491
# Velocity P-wave (km/s) = 6.01860 7.08514 6.57354
#
# Compressibility (1/GPa) = 0.02699279
#
# Stress axis : x y z
#
# Youngs Moduli (GPa) = 53.92083 71.46364 46.98452
#
# Poissons Ratio (x) = 0.05023 0.28059
# Poissons Ratio (y) = 0.03790 0.31667
# Poissons Ratio (z) = 0.32202 0.48166
#
# Static dielectric constant tensor:
#      x y z
#    x 2.816020 0.000000 0.194980 
#    y 0.000000 3.285840 0.000000 
#    z 0.194980 0.000000 3.138750 
# 
# 
# High freq. dielectric constant tensor:
#      x y z
#    x 1.603630 0.000000 0.031430 
#    y 0.000000 1.670860 0.000000 
#    z 0.031430 0.000000 1.633980 
# 
# From -- ./inp_files/173132.got.cif
#   From: 2010.06.25/outbox.cif.g09.slc.cpg/sg12_87_cif.got.tgz:173132.got - 2010.06.28 00:19:55.
