data_PCOD8078397
_publ_section_title
;
Structure prediction by ZEFSAII (Michael W. Deem and Ramdas Pophale) SiO2 
 PCOD8078397
Probable space group: C 2/M
;
_chemical_formula_sum "Si O2"
_cell_formula_units_Z 56
_cell_length_a 8.991956
_cell_length_b 18.898920
_cell_length_c 28.616972
_cell_angle_alpha 90.000000
_cell_angle_beta 140.915089
_cell_angle_gamma 90.000000
_cell_volume 3066.057088
_symmetry_space_group_name_H-M "C 2/M"
_symmetry_group_IT_number 12
_symmetry_cell_setting 'monoclinic'
loop_
_space_group_symop_operation_xyz
x,y,z
-x,y,-z
-x,-y,-z
x,-y,z
1/2+x,1/2+y,z
1/2-x,1/2+y,-z
1/2-x,1/2-y,-z
1/2+x,1/2-y,z
loop_
_atom_site_type_symbol
_atom_site_label
_atom_site_fract_x
_atom_site_fract_y
_atom_site_fract_z
Si Si1 0.927693 0.298898 0.837733
Si Si2 0.725944 0.848140 0.577979
Si Si3 0.388602 0.579732 0.264883
Si Si4 0.897056 0.760940 0.374440
Si Si5 0.036291 0.079898 0.194310
Si Si6 0.177657 0.694984 0.085761
Si Si7 0.412660 0.187115 0.279476
O O1 0.840765 0.368886 0.788007
O O2 0.971575 0.314597 0.903215
O O3 0.714325 0.243352 0.784931
O O4 0.166663 0.267126 0.874250
O O5 0.500000 0.889116 0.500000
O O6 0.605490 0.790345 0.582069
O O7 0.903789 0.899320 0.648644
O O8 0.867920 0.808300 0.571195
O O9 0.306535 0.500000 0.256349
O O10 0.494471 0.585412 0.239194
O O11 0.681127 0.816398 0.327843
O O12 0.873054 0.714419 0.322287
O O13 0.846581 0.127105 0.120216
O O14 0.297897 0.109429 0.247258
O O15 0.018359 0.000000 0.171444
O O16 0.000000 0.698576 0.000000
#
# Coordination Sequence:
#
# PCOD8078397 Si02
#       7
#     8   8   8   8   8   8   8
#     4  10  18  32  55  74 100 132 171 217 248 300
#     4  11  21  33  51  79 108 136 166 213 266 307
#     4  10  19  33  53  74  98 137 181 212 252 307
#     4  10  18  31  52  76 103 129 168 218 254 302
#     4   9  18  32  52  76 102 136 174 213 254 301
#     4  10  20  32  52  80 105 134 167 208 263 309
#     4  10  16  31  55  75  97 130 174 215 255 289
#
# _framework density 18.264499000000001
#
# number of rings (size 3 to 8) (size 9 to 14) (size 15 to 20)
#    0.000    2.000    4.286    2.571    0.000    0.571 
#    0.000    0.714    0.000    0.429    0.000    2.000 
#    0.000    0.000    0.000    0.000    0.000    0.000 
#
# Total GULP energy -347036.966170 kJ/mol
# GULP energy per Si atom -12394.177363 kJ/mol
# Density = 1.822293 g / cm^3
# Si number density = 18.264499 Si / 1000 Ang^3
#
#
#
# Elastic Constant Matrix: (Units=GPa)
#
#
# Indices 1 2 3 4 5 6 
#
# 1 69.0923 21.3636 23.0131 -0.0005 10.1744 0.0000
# 2 21.3636 120.5233 41.8449 0.0003 15.8359 -0.0001
# 3 23.0131 41.8449 105.3263 0.0011 10.4443 -0.0011
# 4 -0.0005 0.0003 0.0011 10.4295 -0.0006 2.5463
# 5 10.1744 15.8359 10.4443 -0.0006 12.7926 -0.0008
# 6 0.0000 -0.0001 -0.0011 2.5463 -0.0008 21.2196
#
#
#
# Elastic Compliance Matrix: (Units=1/GPa)
#
#
# Indices 1 2 3 4 5 6 
#
# 1 0.017077 -0.000810 -0.002353 0.000001 -0.010659 -0.000001
# 2 -0.000810 0.010875 -0.003125 -0.000001 -0.010266 0.000000
# 3 -0.002353 -0.003125 0.011622 -0.000002 -0.003748 0.000001
# 4 0.000001 -0.000001 -0.000002 0.098776 0.000005 -0.011853
# 5 -0.010659 -0.010266 -0.003748 0.000005 0.102416 0.000003
# 6 -0.000001 0.000000 0.000001 -0.011853 0.000003 0.048548
#
#
# Mechanical properties :
#
#
# Convention : Reuss Voigt Hill
#
# Bulk Modulus (GPa) = 37.04002 51.93169 44.48586
# Shear Modulus (GPa) = 16.08293 22.80301 19.44297
#
# Velocity S-wave (km/s) = 2.97064 3.53723 3.26624
# Velocity P-wave (km/s) = 5.66481 6.72142 6.21561
#
# Compressibility (1/GPa) = 0.02699783
#
# Stress axis : x y z
#
# Youngs Moduli (GPa) = 58.55852 91.95656 86.04564
#
# Poissons Ratio (x) = 0.07446 0.20243
# Poissons Ratio (y) = 0.04742 0.26893
# Poissons Ratio (z) = 0.13776 0.28741
#
# Static dielectric constant tensor:
#      x y z
#    x 3.314840 0.000000 0.012820 
#    y 0.000000 3.376060 0.000000 
#    z 0.012820 0.000000 3.309250 
# 
# 
# High freq. dielectric constant tensor:
#      x y z
#    x 1.703830 0.000000 -0.003180 
#    y 0.000000 1.682840 0.000000 
#    z -0.003180 0.000000 1.704160 
# 
# From -- ./inp_files/257594.got.cif
#   From: 2010.06.25/outbox.cif.g09.slc.cpg/sg12_129_cif.got.tgz:257594.got - 2010.06.28 00:19:55.
