data_PCOD8078063
_publ_section_title
;
Structure prediction by ZEFSAII (Michael W. Deem and Ramdas Pophale) SiO2 
 PCOD8078063
Probable space group: C 2/M
;
_chemical_formula_sum "Si O2"
_cell_formula_units_Z 56
_cell_length_a 17.958707
_cell_length_b 22.765276
_cell_length_c 16.888341
_cell_angle_alpha 90.000000
_cell_angle_beta 31.054655
_cell_angle_gamma 90.000000
_cell_volume 3561.746778
_symmetry_space_group_name_H-M "C 2/M"
_symmetry_group_IT_number 12
_symmetry_cell_setting 'monoclinic'
loop_
_space_group_symop_operation_xyz
x,y,z
-x,y,-z
-x,-y,-z
x,-y,z
1/2+x,1/2+y,z
1/2-x,1/2+y,-z
1/2-x,1/2-y,-z
1/2+x,1/2-y,z
loop_
_atom_site_type_symbol
_atom_site_label
_atom_site_fract_x
_atom_site_fract_y
_atom_site_fract_z
Si Si1 0.565800 0.305044 0.230202
Si Si2 0.403439 0.227687 0.202975
Si Si3 0.247385 0.159660 0.919182
Si Si4 0.217304 0.271007 0.849884
Si Si5 0.019391 0.068025 0.074602
Si Si6 0.157253 0.147866 0.664110
Si Si7 0.554972 0.177756 0.675181
O O1 0.662387 0.314791 0.221161
O O2 0.442681 0.354354 0.325280
O O3 0.481788 0.243816 0.317353
O O4 0.675339 0.303403 0.055956
O O5 0.281826 0.219735 0.245823
O O6 0.395802 0.294314 0.240901
O O7 0.379637 0.180688 0.295309
O O8 0.559983 0.214092 0.025676
O O9 0.255439 0.203290 0.836362
O O10 0.408526 0.139810 0.799492
O O11 0.161630 0.100936 0.975932
O O12 0.877146 0.091769 0.249839
O O13 0.038475 0.000000 0.076790
O O14 0.000000 0.079976 0.000000
O O15 0.325729 0.149024 0.490674
#
# Coordination Sequence:
#
# PCOD8078063 Si02
#       7
#     8   8   8   8   8   8   8
#     4   9  15  27  42  64  92 128 157 178 207 262
#     4  10  16  24  41  66  97 123 149 177 214 259
#     4  10  16  29  47  64  91 124 160 181 217 263
#     4  10  15  23  42  66  92 125 153 181 205 250
#     4  10  20  35  52  67  82 110 157 201 228 261
#     4  10  19  29  46  62  92 124 150 184 226 271
#     4  10  17  29  41  66  92 123 150 179 223 271
#
# _framework density 15.722621999999999
#
# number of rings (size 3 to 8) (size 9 to 14) (size 15 to 20)
#    0.000    2.143    5.714    3.429    0.000    0.000 
#    0.000   10.714    0.000    1.714    0.000    0.000 
#    0.000   18.286    0.000    0.000    0.000    0.000 
#
# Total GULP energy -346919.162327 kJ/mol
# GULP energy per Si atom -12389.970083 kJ/mol
# Density = 1.568684 g / cm^3
# Si number density = 15.722622 Si / 1000 Ang^3
#
#
#
# Elastic Constant Matrix: (Units=GPa)
#
#
# Indices 1 2 3 4 5 6 
#
# 1 120.4928 30.8014 35.9604 -0.0065 -7.5864 0.0036
# 2 30.8014 58.1954 29.2397 -0.0153 0.5266 0.0077
# 3 35.9604 29.2397 87.1894 -0.0194 -11.4881 0.0108
# 4 -0.0065 -0.0153 -0.0194 11.4937 0.0041 3.1706
# 5 -7.5864 0.5266 -11.4881 0.0041 18.4818 -0.0029
# 6 0.0036 0.0077 0.0108 3.1706 -0.0029 16.4935
#
#
#
# Elastic Compliance Matrix: (Units=1/GPa)
#
#
# Indices 1 2 3 4 5 6 
#
# 1 0.010293 -0.004242 -0.002451 -0.000006 0.002823 0.000003
# 2 -0.004242 0.022908 -0.006806 0.000022 -0.006624 -0.000011
# 3 -0.002451 -0.006806 0.015963 0.000015 0.009110 -0.000008
# 4 -0.000006 0.000022 0.000015 0.091877 -0.000017 -0.017662
# 5 0.002823 -0.006624 0.009110 -0.000017 0.061117 0.000010
# 6 0.000003 -0.000011 -0.000008 -0.017662 0.000010 0.064025
#
#
# Mechanical properties :
#
#
# Convention : Reuss Voigt Hill
#
# Bulk Modulus (GPa) = 45.11218 50.87563 47.99390
# Shear Modulus (GPa) = 16.63515 20.61886 18.62701
#
# Velocity S-wave (km/s) = 3.25628 3.62527 3.44572
# Velocity P-wave (km/s) = 6.54925 7.06767 6.81339
#
# Compressibility (1/GPa) = 0.02216696
#
# Stress axis : x y z
#
# Youngs Moduli (GPa) = 97.15625 43.65290 62.64589
#
# Poissons Ratio (x) = 0.18517 0.15352
# Poissons Ratio (y) = 0.41213 0.42635
# Poissons Ratio (z) = 0.23810 0.29709
#
# Static dielectric constant tensor:
#      x y z
#    x 3.490910 -0.000010 -0.163720 
#    y -0.000010 2.501710 0.000020 
#    z -0.163720 0.000020 2.946360 
# 
# 
# High freq. dielectric constant tensor:
#      x y z
#    x 1.617200 0.000000 -0.012800 
#    y 0.000000 1.532810 0.000000 
#    z -0.012800 0.000000 1.599040 
# 
# From -- ./inp_files/89070.got.cif
#   From: 2010.06.25/outbox.cif.g09.slc.cpg/sg12_45_cif.got.tgz:89070.got - 2010.06.28 00:19:55.
