data_PCOD8078329
_publ_section_title
;
Structure prediction by ZEFSAII (Michael W. Deem and Ramdas Pophale) SiO2 
 PCOD8078329
Probable space group: C 2/M
;
_chemical_formula_sum "Si O2"
_cell_formula_units_Z 48
_cell_length_a 23.670581
_cell_length_b 22.618652
_cell_length_c 10.261239
_cell_angle_alpha 90.000000
_cell_angle_beta 146.453662
_cell_angle_gamma 90.000000
_cell_volume 3035.953607
_symmetry_space_group_name_H-M "C 2/M"
_symmetry_group_IT_number 12
_symmetry_cell_setting 'monoclinic'
loop_
_space_group_symop_operation_xyz
x,y,z
-x,y,-z
-x,-y,-z
x,-y,z
1/2+x,1/2+y,z
1/2-x,1/2+y,-z
1/2-x,1/2-y,-z
1/2+x,1/2-y,z
loop_
_atom_site_type_symbol
_atom_site_label
_atom_site_fract_x
_atom_site_fract_y
_atom_site_fract_z
Si Si1 0.543587 0.857351 0.447644
Si Si2 0.084114 0.734329 0.949507
Si Si3 0.917773 0.567129 0.727432
Si Si4 0.200822 0.668808 0.395341
Si Si5 0.377776 0.722231 0.607237
Si Si6 0.221846 0.727869 0.805592
O O1 0.500000 0.883985 0.500000
O O2 0.471319 0.801960 0.271597
O O3 0.540050 0.906825 0.327826
O O4 0.659667 0.833857 0.691264
O O5 0.000014 0.776190 0.860973
O O6 0.129592 0.686299 0.136488
O O7 0.169837 0.779018 0.061749
O O8 0.883811 0.500000 0.637045
O O9 0.819666 0.603132 0.591829
O O10 0.000000 0.571562 0.000000
O O11 0.321564 0.673083 0.588354
O O12 0.172161 0.713510 0.455604
O O13 0.344797 0.719179 0.391603
O O14 0.250000 0.750000 0.000000
#
# Coordination Sequence:
#
# PCOD8078329 Si02
#       6
#     8   8   8   8   8   8
#     4  11  20  32  47  67 101 131 155 199 238 282
#     4  10  17  28  44  70 100 124 153 192 235 296
#     4  11  21  34  51  68  92 130 170 202 235 279
#     4  10  16  30  45  69  93 119 157 193 241 281
#     4   9  18  25  45  66  95 122 148 193 242 289
#     4  10  18  26  42  68  93 132 156 180 240 292
#
# _framework density 15.810518
#
# number of rings (size 3 to 8) (size 9 to 14) (size 15 to 20)
#    0.000    1.833    6.667    0.500    0.000    0.333 
#    0.000    0.000    0.000    0.000    0.000    2.333 
#    0.000    0.000    0.000   12.333    0.000    0.000 
#
# Total GULP energy -297347.313046 kJ/mol
# GULP energy per Si atom -12389.471377 kJ/mol
# Density = 1.577453 g / cm^3
# Si number density = 15.810518 Si / 1000 Ang^3
#
#
#
# Elastic Constant Matrix: (Units=GPa)
#
#
# Indices 1 2 3 4 5 6 
#
# 1 117.5620 47.6860 43.2201 0.0000 8.9177 0.0000
# 2 47.6860 83.1185 26.8012 0.0000 7.7718 0.0000
# 3 43.2201 26.8012 58.8614 0.0000 8.9893 0.0000
# 4 0.0000 0.0000 0.0000 15.2102 0.0000 1.6307
# 5 8.9177 7.7718 8.9893 0.0000 36.9413 0.0000
# 6 0.0000 0.0000 0.0000 1.6307 0.0000 15.0124
#
#
#
# Elastic Compliance Matrix: (Units=1/GPa)
#
#
# Indices 1 2 3 4 5 6 
#
# 1 0.013379 -0.005267 -0.007376 0.000000 -0.000327 0.000000
# 2 -0.005267 0.016251 -0.003328 0.000000 -0.001338 0.000000
# 3 -0.007376 -0.003328 0.024450 0.000000 -0.003469 0.000000
# 4 0.000000 0.000000 0.000000 0.066520 0.000000 -0.007226
# 5 -0.000327 -0.001338 -0.003469 0.000000 0.028274 0.000000
# 6 0.000000 0.000000 0.000000 -0.007226 0.000000 0.067397
#
#
# Mechanical properties :
#
#
# Convention : Reuss Voigt Hill
#
# Bulk Modulus (GPa) = 45.16959 54.99518 50.08239
# Shear Modulus (GPa) = 19.56254 22.88843 21.22548
#
# Velocity S-wave (km/s) = 3.52136 3.80895 3.66798
# Velocity P-wave (km/s) = 6.72047 7.36231 7.04870
#
# Compressibility (1/GPa) = 0.02213879
#
# Stress axis : x y z
#
# Youngs Moduli (GPa) = 74.74499 61.53561 40.90009
#
# Poissons Ratio (x) = 0.32409 0.30166
# Poissons Ratio (y) = 0.39366 0.13611
# Poissons Ratio (z) = 0.55129 0.20478
#
# Static dielectric constant tensor:
#      x y z
#    x 3.347110 0.000000 -0.019160 
#    y 0.000000 2.647540 0.000000 
#    z -0.019160 0.000000 3.208840 
# 
# 
# High freq. dielectric constant tensor:
#      x y z
#    x 1.626970 0.000000 -0.010560 
#    y 0.000000 1.537240 0.000000 
#    z -0.010560 0.000000 1.615240 
# 
# From -- ./inp_files/99459.got.cif
#   From: 2010.06.25/outbox.cif.g09.slc.cpg/sg12_50_cif.got.tgz:99459.got - 2010.06.28 00:19:55.
