data_PCOD8078261
_publ_section_title
;
Structure prediction by ZEFSAII (Michael W. Deem and Ramdas Pophale) SiO2 
 PCOD8078261
Probable space group: C 2/M
;
_chemical_formula_sum "Si O2"
_cell_formula_units_Z 56
_cell_length_a 22.990255
_cell_length_b 15.114728
_cell_length_c 13.780974
_cell_angle_alpha 90.000000
_cell_angle_beta 36.908897
_cell_angle_gamma 90.000000
_cell_volume 2875.869372
_symmetry_space_group_name_H-M "C 2/M"
_symmetry_group_IT_number 12
_symmetry_cell_setting 'monoclinic'
loop_
_space_group_symop_operation_xyz
x,y,z
-x,y,-z
-x,-y,-z
x,-y,z
1/2+x,1/2+y,z
1/2-x,1/2+y,-z
1/2-x,1/2-y,-z
1/2+x,1/2-y,z
loop_
_atom_site_type_symbol
_atom_site_label
_atom_site_fract_x
_atom_site_fract_y
_atom_site_fract_z
Si Si1 0.407553 0.222875 0.253318
Si Si2 0.578935 0.100477 0.043497
Si Si3 0.704008 0.906458 0.465184
Si Si4 0.559230 0.103621 0.293234
Si Si5 0.620881 0.403929 0.636417
Si Si6 0.744892 0.174622 0.700964
Si Si7 0.643310 0.167988 0.365484
O O1 0.500949 0.166238 0.097316
O O2 0.356779 0.174939 0.411738
O O3 0.444014 0.318505 0.247157
O O4 0.328115 0.230159 0.272687
O O5 0.591086 0.122576 0.140970
O O6 0.543986 0.000000 0.074077
O O7 0.681935 0.112827 0.854941
O O8 0.811070 0.911516 0.361619
O O9 0.710982 0.896342 0.339589
O O10 0.649904 0.000000 0.561587
O O11 0.644514 0.138303 0.251327
O O12 0.464629 0.160455 0.445664
O O13 0.539435 0.000000 0.338408
O O14 0.566151 0.500000 0.697460
O O15 0.685295 0.387930 0.455018
O O16 0.812251 0.234332 0.680223
#
# Coordination Sequence:
#
# PCOD8078261 Si02
#       7
#     8   8   8   8   8   8   8
#     4  11  19  35  52  81 111 146 188 226 270 331
#     4  11  23  37  55  82 119 149 177 229 286 333
#     4  10  16  27  52  79 106 134 173 227 277 313
#     4  10  21  35  56  86 110 141 191 234 275 328
#     4  10  19  32  53  79 107 143 184 226 270 324
#     4  11  21  34  52  82 115 146 184 221 278 344
#     4  11  18  33  55  79 112 142 183 231 274 313
#
# _framework density 19.472373000000001
#
# number of rings (size 3 to 8) (size 9 to 14) (size 15 to 20)
#    0.000    1.429    4.286    3.857    0.000    2.857 
#    0.000    0.000    0.000    4.286    0.000   23.000 
#    0.000    0.000    0.000    0.000    0.000    0.000 
#
# Total GULP energy -346876.509674 kJ/mol
# GULP energy per Si atom -12388.446774 kJ/mol
# Density = 1.942805 g / cm^3
# Si number density = 19.472373 Si / 1000 Ang^3
#
#
#
# Elastic Constant Matrix: (Units=GPa)
#
#
# Indices 1 2 3 4 5 6 
#
# 1 89.7572 26.0331 18.6826 0.0000 8.2713 0.0000
# 2 26.0331 143.1020 27.4626 0.0000 -2.7814 0.0000
# 3 18.6826 27.4626 54.2391 0.0000 7.6495 0.0000
# 4 0.0000 0.0000 0.0000 24.0157 0.0000 0.4751
# 5 8.2713 -2.7814 7.6495 0.0000 21.3049 0.0000
# 6 0.0000 0.0000 0.0000 0.4751 0.0000 14.7019
#
#
#
# Elastic Compliance Matrix: (Units=1/GPa)
#
#
# Indices 1 2 3 4 5 6 
#
# 1 0.012646 -0.001835 -0.002845 0.000000 -0.004128 0.000000
# 2 -0.001835 0.008140 -0.003939 0.000000 0.003189 0.000000
# 3 -0.002845 -0.003939 0.022466 0.000000 -0.007476 0.000000
# 4 0.000000 0.000000 0.000000 0.041666 0.000000 -0.001346
# 5 -0.004128 0.003189 -0.007476 0.000000 0.051641 0.000000
# 6 0.000000 0.000000 0.000000 -0.001346 0.000000 0.068062
#
#
# Mechanical properties :
#
#
# Convention : Reuss Voigt Hill
#
# Bulk Modulus (GPa) = 38.44109 47.93944 43.19027
# Shear Modulus (GPa) = 21.68927 26.33249 24.01088
#
# Velocity S-wave (km/s) = 3.34106 3.68135 3.51532
# Velocity P-wave (km/s) = 5.88793 6.53777 6.22134
#
# Compressibility (1/GPa) = 0.02601383
#
# Stress axis : x y z
#
# Youngs Moduli (GPa) = 79.07748 122.85366 44.51247
#
# Poissons Ratio (x) = 0.22542 0.12662
# Poissons Ratio (y) = 0.14509 0.17534
# Poissons Ratio (z) = 0.22495 0.48394
#
# Static dielectric constant tensor:
#      x y z
#    x 3.815420 0.000000 0.210820 
#    y 0.000000 3.945630 0.000000 
#    z 0.210820 0.000000 3.237510 
# 
# 
# High freq. dielectric constant tensor:
#      x y z
#    x 1.749360 0.000000 0.025830 
#    y 0.000000 1.764520 0.000000 
#    z 0.025830 0.000000 1.716440 
# 
# From -- ./inp_files/240401.got.cif
#   From: 2010.06.25/outbox.cif.g09.slc.cpg/sg12_121_cif.got.tgz:240401.got - 2010.06.28 00:19:55.
