data_PCOD8078472
_publ_section_title
;
Structure prediction by ZEFSAII (Michael W. Deem and Ramdas Pophale) SiO2 
 PCOD8078472
Probable space group: C 2/M
;
_chemical_formula_sum "Si O2"
_cell_formula_units_Z 64
_cell_length_a 23.739243
_cell_length_b 8.954774
_cell_length_c 18.956217
_cell_angle_alpha 90.000000
_cell_angle_beta 80.317810
_cell_angle_gamma 90.000000
_cell_volume 3972.304262
_symmetry_space_group_name_H-M "C 2/M"
_symmetry_group_IT_number 12
_symmetry_cell_setting 'monoclinic'
loop_
_space_group_symop_operation_xyz
x,y,z
-x,y,-z
-x,-y,-z
x,-y,z
1/2+x,1/2+y,z
1/2-x,1/2+y,-z
1/2-x,1/2-y,-z
1/2+x,1/2-y,z
loop_
_atom_site_type_symbol
_atom_site_label
_atom_site_fract_x
_atom_site_fract_y
_atom_site_fract_z
Si Si1 0.453997 0.827458 0.949363
Si Si2 0.901754 0.173784 0.619891
Si Si3 0.464811 0.677316 0.801727
Si Si4 0.655662 0.326591 0.233234
Si Si5 0.162437 0.829626 0.992169
Si Si6 0.558954 0.666390 0.530836
Si Si7 0.009254 0.674467 0.662789
Si Si8 0.744203 0.671110 0.107947
O O1 0.476580 0.737462 0.877042
O O2 0.393968 0.767879 0.990087
O O3 0.447140 0.000000 0.930339
O O4 0.500000 0.802216 0.000000
O O5 0.845923 0.202317 0.681281
O O6 0.891683 0.206269 0.538352
O O7 0.950437 0.283036 0.637498
O O8 0.921612 0.000000 0.625610
O O9 0.469366 0.500000 0.800183
O O10 0.402422 0.736044 0.789779
O O11 0.512422 0.743335 0.737892
O O12 0.657465 0.500000 0.214121
O O13 0.712955 0.260997 0.184822
O O14 0.197998 0.813984 0.055977
O O15 0.145279 0.000000 0.980867
O O16 0.200083 0.769775 0.918836
O O17 0.500000 0.677954 0.500000
O O18 0.568299 0.500000 0.558121
O O19 0.560209 0.774493 0.598598
O O20 0.014309 0.500000 0.674488
O O21 0.764174 0.500000 0.112859
#
# Coordination Sequence:
#
# PCOD8078472 Si02
#       8
#     8   8   8   8   8   8   8   8
#     4  11  23  36  49  66  88 112 140 180 226 266
#     4   8  14  23  35  50  73 106 142 175 206 247
#     4  10  18  31  46  60  79 106 143 179 212 257
#     4   8  13  24  41  60  80 106 140 177 213 249
#     4  10  19  31  46  66  86 112 146 178 216 261
#     4   8  13  22  33  47  69 102 140 173 206 244
#     4  10  17  23  34  53  75 102 135 174 215 249
#     4   9  16  28  45  65  88 113 142 181 221 255
#
# _framework density 16.111554999999999
#
# number of rings (size 3 to 8) (size 9 to 14) (size 15 to 20)
#    0.000    2.750    1.250    3.750    0.000    3.750 
#    0.000    0.625    0.000    0.000    0.000    0.000 
#    0.000    0.000    0.000    1.125    0.000   12.375 
#
# Total GULP energy -396459.590056 kJ/mol
# GULP energy per Si atom -12389.362189 kJ/mol
# Density = 1.607488 g / cm^3
# Si number density = 16.111555 Si / 1000 Ang^3
#
#
#
# Elastic Constant Matrix: (Units=GPa)
#
#
# Indices 1 2 3 4 5 6 
#
# 1 25.3872 22.0539 35.8424 0.0000 -6.8197 0.0000
# 2 22.0539 86.7617 55.2754 0.0000 -6.2197 0.0000
# 3 35.8424 55.2754 154.1577 0.0000 -37.2703 0.0000
# 4 0.0000 0.0000 0.0000 25.4786 0.0000 -3.2361
# 5 -6.8197 -6.2197 -37.2703 0.0000 18.6217 0.0000
# 6 0.0000 0.0000 0.0000 -3.2361 0.0000 13.5059
#
#
#
# Elastic Compliance Matrix: (Units=1/GPa)
#
#
# Indices 1 2 3 4 5 6 
#
# 1 0.063676 -0.008090 -0.013407 0.000000 -0.006216 0.000000
# 2 -0.008090 0.017253 -0.007030 0.000000 -0.011271 0.000000
# 3 -0.013407 -0.007030 0.020093 0.000000 0.032956 0.000000
# 4 0.000000 0.000000 0.000000 0.040481 0.000000 0.009699
# 5 -0.006216 -0.011271 0.032956 0.000000 0.113620 0.000000
# 6 0.000000 0.000000 0.000000 0.009699 0.000000 0.076366
#
#
# Mechanical properties :
#
#
# Convention : Reuss Voigt Hill
#
# Bulk Modulus (GPa) = 22.74411 54.73890 38.74151
# Shear Modulus (GPa) = 12.40082 21.73022 17.06552
#
# Velocity S-wave (km/s) = 2.77733 3.67650 3.25808
# Velocity P-wave (km/s) = 4.94288 7.21601 6.18478
#
# Compressibility (1/GPa) = 0.04396742
#
# Stress axis : x y z
#
# Youngs Moduli (GPa) = 15.70444 57.95998 49.76933
#
# Poissons Ratio (x) = 0.46889 0.66726
# Poissons Ratio (y) = 0.12705 0.34990
# Poissons Ratio (z) = 0.21055 0.40749
#
# Static dielectric constant tensor:
#      x y z
#    x 2.564060 0.000000 -0.456380 
#    y 0.000000 2.997100 0.000000 
#    z -0.456380 0.000000 3.642210 
# 
# 
# High freq. dielectric constant tensor:
#      x y z
#    x 1.539400 0.000000 -0.039770 
#    y 0.000000 1.615140 0.000000 
#    z -0.039770 0.000000 1.638160 
# 
# From -- ./inp_files/323372.got.cif
#   From: 2010.06.25/outbox.cif.g09.slc.cpg/sg12_162_cif.got.tgz:323372.got - 2010.06.28 00:19:55.
