data_PCOD8078344
_publ_section_title
;
Structure prediction by ZEFSAII (Michael W. Deem and Ramdas Pophale) SiO2 
 PCOD8078344
Probable space group: C 2/M
;
_chemical_formula_sum "Si O2"
_cell_formula_units_Z 56
_cell_length_a 5.271801
_cell_length_b 18.803846
_cell_length_c 27.805512
_cell_angle_alpha 90.000000
_cell_angle_beta 76.413225
_cell_angle_gamma 90.000000
_cell_volume 2679.227974
_symmetry_space_group_name_H-M "C 2/M"
_symmetry_group_IT_number 12
_symmetry_cell_setting 'monoclinic'
loop_
_space_group_symop_operation_xyz
x,y,z
-x,y,-z
-x,-y,-z
x,-y,z
1/2+x,1/2+y,z
1/2-x,1/2+y,-z
1/2-x,1/2-y,-z
1/2+x,1/2-y,z
loop_
_atom_site_type_symbol
_atom_site_label
_atom_site_fract_x
_atom_site_fract_y
_atom_site_fract_z
Si Si1 0.994058 0.918770 0.785589
Si Si2 0.915958 0.203424 0.865039
Si Si3 0.776441 0.170841 0.978662
Si Si4 0.285407 0.224877 0.559001
Si Si5 0.208678 0.923074 0.532336
Si Si6 0.071935 0.419894 0.722691
Si Si7 0.703926 0.216202 0.667232
O O1 0.965655 0.865382 0.830775
O O2 0.754123 0.904940 0.760349
O O3 0.270943 0.904820 0.747928
O O4 0.984014 0.000000 0.805274
O O5 0.675851 0.248881 0.854961
O O6 0.849423 0.172139 0.919908
O O7 0.500000 0.130994 0.000000
O O8 0.750000 0.250000 0.000000
O O9 0.000000 0.131000 0.000000
O O10 0.594845 0.230850 0.530735
O O11 0.194053 0.142960 0.569978
O O12 0.301006 0.266163 0.609241
O O13 0.500000 0.925097 0.500000
O O14 0.000000 0.908439 0.500000
O O15 0.147131 0.000000 0.559767
O O16 0.111220 0.500000 0.701905
O O17 0.158975 0.367851 0.675644
O O18 0.434741 0.257111 0.692355
#
# Coordination Sequence:
#
# PCOD8078344 Si02
#       7
#     8   8   8   8   8   8   8
#     4  10  23  39  55  80 116 147 176 225 286 338
#     4  12  21  32  55  86 106 140 188 228 273 320
#     4  10  16  30  48  73 105 141 174 225 264 313
#     4  10  21  37  55  85 117 148 187 236 287 323
#     4  10  21  37  58  84 116 157 197 230 272 335
#     4  10  21  40  60  78 107 151 186 218 277 347
#     4  10  21  37  58  84 115 144 182 236 284 324
#
# _framework density 20.901543
#
# number of rings (size 3 to 8) (size 9 to 14) (size 15 to 20)
#    0.000    1.714    2.857    2.571    0.000    5.143 
#    0.000    5.714    0.000    0.857    0.000    0.000 
#    0.000    0.000    0.000    0.000    0.000    0.000 
#
# Total GULP energy -347023.423421 kJ/mol
# GULP energy per Si atom -12393.693694 kJ/mol
# Density = 2.085397 g / cm^3
# Si number density = 20.901543 Si / 1000 Ang^3
#
#
#
# Elastic Constant Matrix: (Units=GPa)
#
#
# Indices 1 2 3 4 5 6 
#
# 1 173.6353 39.0679 15.3395 0.0000 -10.8374 0.0000
# 2 39.0679 136.0145 49.2454 0.0000 -2.9077 0.0000
# 3 15.3395 49.2454 58.7927 0.0000 -2.4684 0.0000
# 4 0.0000 0.0000 0.0000 15.2976 0.0000 2.6458
# 5 -10.8374 -2.9077 -2.4684 0.0000 17.2905 0.0000
# 6 0.0000 0.0000 0.0000 2.6458 0.0000 24.3564
#
#
#
# Elastic Compliance Matrix: (Units=1/GPa)
#
#
# Indices 1 2 3 4 5 6 
#
# 1 0.006386 -0.001734 -0.000058 0.000000 0.003702 0.000000
# 2 -0.001734 0.011028 -0.008805 0.000000 -0.000489 0.000000
# 3 -0.000058 -0.008805 0.024482 0.000000 0.001978 0.000000
# 4 0.000000 0.000000 0.000000 0.066621 0.000000 -0.007237
# 5 0.003702 -0.000489 0.001978 0.000000 0.060356 0.000000
# 6 0.000000 0.000000 0.000000 -0.007237 0.000000 0.041843
#
#
# Mechanical properties :
#
#
# Convention : Reuss Voigt Hill
#
# Bulk Modulus (GPa) = 48.30645 63.97199 56.13922
# Shear Modulus (GPa) = 20.93707 29.04156 24.98932
#
# Velocity S-wave (km/s) = 3.16840 3.73157 3.46146
# Velocity P-wave (km/s) = 6.04538 7.01705 6.54926
#
# Compressibility (1/GPa) = 0.02070117
#
# Stress axis : x y z
#
# Youngs Moduli (GPa) = 156.60329 90.68092 40.84577
#
# Poissons Ratio (x) = 0.15723 0.00238
# Poissons Ratio (y) = 0.27153 0.35965
# Poissons Ratio (z) = 0.00912 0.79845
#
# Static dielectric constant tensor:
#      x y z
#    x 3.887370 0.000000 -0.105870 
#    y 0.000000 3.921560 0.000000 
#    z -0.105870 0.000000 3.488420 
# 
# 
# High freq. dielectric constant tensor:
#      x y z
#    x 1.869300 0.000000 -0.005090 
#    y 0.000000 1.803330 0.000000 
#    z -0.005090 0.000000 1.790500 
# 
# From -- ./inp_files/354936.got.cif
#   From: 2010.06.25/outbox.cif.g09.slc.cpg/sg12_178_cif.got.tgz:354936.got - 2010.06.28 00:19:55.
