data_PCOD8078422
_publ_section_title
;
Structure prediction by ZEFSAII (Michael W. Deem and Ramdas Pophale) SiO2 
 PCOD8078422
Probable space group: C 2/M
;
_chemical_formula_sum "Si O2"
_cell_formula_units_Z 44
_cell_length_a 25.216486
_cell_length_b 9.064770
_cell_length_c 12.658209
_cell_angle_alpha 90.000000
_cell_angle_beta 129.863136
_cell_angle_gamma 90.000000
_cell_volume 2220.935605
_symmetry_space_group_name_H-M "C 2/M"
_symmetry_group_IT_number 12
_symmetry_cell_setting 'monoclinic'
loop_
_space_group_symop_operation_xyz
x,y,z
-x,y,-z
-x,-y,-z
x,-y,z
1/2+x,1/2+y,z
1/2-x,1/2+y,-z
1/2-x,1/2-y,-z
1/2+x,1/2-y,z
loop_
_atom_site_type_symbol
_atom_site_label
_atom_site_fract_x
_atom_site_fract_y
_atom_site_fract_z
Si Si1 0.856457 0.661786 0.886925
Si Si2 0.500000 0.246230 0.000000
Si Si3 0.547671 0.337671 0.274845
Si Si4 0.954662 0.175349 0.339501
Si Si5 0.687047 0.675239 0.364852
Si Si6 0.824818 0.324637 0.084234
O O1 0.821881 0.500000 0.832725
O O2 0.815774 0.777029 0.761304
O O3 0.934924 0.644970 0.946339
O O4 0.852553 0.715216 0.002781
O O5 0.488384 0.351236 0.884956
O O6 0.560225 0.500000 0.337431
O O7 0.499669 0.257073 0.299451
O O8 0.621918 0.262212 0.349352
O O9 0.879772 0.256002 0.238965
O O10 0.000000 0.216113 0.500000
O O11 0.941129 0.000000 0.314366
O O12 0.691311 0.500000 0.374066
O O13 0.750000 0.750000 0.500000
O O14 0.819188 0.500000 0.096220
O O15 0.750000 0.250000 0.000000
#
# Coordination Sequence:
#
# PCOD8078422 Si02
#       6
#     8   4   8   8   8   8
#     4  10  21  36  58  86 116 149 192 247 304 358
#     4  10  16  32  58  86 113 144 183 244 295 342
#     4   9  18  32  54  84 114 148 191 238 295 357
#     4  10  21  39  62  88 120 161 206 255 310 371
#     4  10  21  36  55  83 120 159 198 244 300 364
#     4  11  24  42  62  89 122 163 209 260 312 372
#
# _framework density 19.811471000000001
#
# number of rings (size 3 to 8) (size 9 to 14) (size 15 to 20)
#    0.000    2.000    1.818    1.636    0.000    4.000 
#    0.000    4.545    0.000    0.000    0.000    0.000 
#    0.000    0.000    0.000    0.000    0.000    0.000 
#
# Total GULP energy -272599.768136 kJ/mol
# GULP energy per Si atom -12390.898552 kJ/mol
# Density = 1.976638 g / cm^3
# Si number density = 19.811471 Si / 1000 Ang^3
#
#
#
# Elastic Constant Matrix: (Units=GPa)
#
#
# Indices 1 2 3 4 5 6 
#
# 1 105.9949 37.4828 74.0209 0.0000 0.0016 0.0000
# 2 37.4828 85.2398 49.7035 0.0000 10.0716 0.0000
# 3 74.0209 49.7035 152.1203 0.0000 16.5835 0.0000
# 4 0.0000 0.0000 0.0000 32.6186 0.0000 1.2735
# 5 0.0016 10.0716 16.5835 0.0000 33.0099 0.0000
# 6 0.0000 0.0000 0.0000 1.2735 0.0000 23.0805
#
#
#
# Elastic Compliance Matrix: (Units=1/GPa)
#
#
# Indices 1 2 3 4 5 6 
#
# 1 0.015429 -0.003275 -0.006926 0.000000 0.004478 0.000000
# 2 -0.003275 0.015335 -0.003075 0.000000 -0.003134 0.000000
# 3 -0.006926 -0.003075 0.011475 0.000000 -0.004826 0.000000
# 4 0.000000 0.000000 0.000000 0.030724 0.000000 -0.001695
# 5 0.004478 -0.003134 -0.004826 0.000000 0.033674 0.000000
# 6 0.000000 0.000000 0.000000 -0.001695 0.000000 0.043420
#
#
# Mechanical properties :
#
#
# Convention : Reuss Voigt Hill
#
# Bulk Modulus (GPa) = 63.74903 73.97438 68.86171
# Shear Modulus (GPa) = 27.49690 29.88498 28.69094
#
# Velocity S-wave (km/s) = 3.72953 3.88811 3.80965
# Velocity P-wave (km/s) = 7.12696 7.58794 7.36106
#
# Compressibility (1/GPa) = 0.01568651
#
# Stress axis : x y z
#
# Youngs Moduli (GPa) = 64.81243 65.20881 87.14863
#
# Poissons Ratio (x) = 0.21359 0.60356
# Poissons Ratio (y) = 0.21229 0.26800
# Poissons Ratio (z) = 0.44887 0.20053
#
# Static dielectric constant tensor:
#      x y z
#    x 3.788500 0.000000 0.002720 
#    y 0.000000 3.422070 0.000000 
#    z 0.002720 0.000000 3.622060 
# 
# 
# High freq. dielectric constant tensor:
#      x y z
#    x 1.776140 0.000000 0.002000 
#    y 0.000000 1.754760 0.000000 
#    z 0.002000 0.000000 1.772780 
# 
# From -- ./inp_files/181304.got.cif
#   From: 2010.06.25/outbox.cif.g09.slc.cpg/sg12_91_cif.got.tgz:181304.got - 2010.06.28 00:19:55.
