data_PCOD8078258
_publ_section_title
;
Structure prediction by ZEFSAII (Michael W. Deem and Ramdas Pophale) SiO2 
 PCOD8078258
Probable space group: C 2/M
;
_chemical_formula_sum "Si O2"
_cell_formula_units_Z 52
_cell_length_a 19.265942
_cell_length_b 13.722470
_cell_length_c 11.940206
_cell_angle_alpha 90.000000
_cell_angle_beta 111.827115
_cell_angle_gamma 90.000000
_cell_volume 2930.403167
_symmetry_space_group_name_H-M "C 2/M"
_symmetry_group_IT_number 12
_symmetry_cell_setting 'monoclinic'
loop_
_space_group_symop_operation_xyz
x,y,z
-x,y,-z
-x,-y,-z
x,-y,z
1/2+x,1/2+y,z
1/2-x,1/2+y,-z
1/2-x,1/2-y,-z
1/2+x,1/2-y,z
loop_
_atom_site_type_symbol
_atom_site_label
_atom_site_fract_x
_atom_site_fract_y
_atom_site_fract_z
Si Si1 0.500000 0.248706 0.000000
Si Si2 0.028222 0.893809 0.391579
Si Si3 0.690957 0.890778 0.449658
Si Si4 0.707634 0.386807 0.795690
Si Si5 0.835696 0.204585 0.446940
Si Si6 0.579400 0.612161 0.872596
Si Si7 0.372977 0.111613 0.827348
O O1 0.550682 0.316564 0.951490
O O2 0.441390 0.181079 0.900164
O O3 0.094026 0.815955 0.431190
O O4 0.000000 0.898833 0.500000
O O5 0.965090 0.861858 0.267007
O O6 0.058989 0.000000 0.374610
O O7 0.772273 0.866044 0.454521
O O8 0.675371 0.820098 0.544966
O O9 0.635350 0.877633 0.311261
O O10 0.687394 0.000000 0.494965
O O11 0.699382 0.500000 0.754088
O O12 0.658837 0.320489 0.680810
O O13 0.667711 0.371002 0.893301
O O14 0.795716 0.357782 0.846057
O O15 0.567486 0.500000 0.903698
O O16 0.392475 0.000000 0.871019
#
# Coordination Sequence:
#
# PCOD8078258 Si02
#       7
#     4   8   8   8   8   8   8
#     4  12  22  34  52  74 102 134 170 214 264 302
#     4  10  17  27  48  77 100 121 158 203 240 288
#     4   9  18  30  47  73 103 131 161 202 250 301
#     4   9  17  33  54  76 100 131 172 210 246 297
#     4  10  16  27  50  75 100 130 163 198 246 300
#     4  10  21  34  50  76 108 136 163 205 257 306
#     4   9  19  35  54  72  94 130 179 220 246 285
#
# _framework density 17.744999
#
# number of rings (size 3 to 8) (size 9 to 14) (size 15 to 20)
#    0.000    2.308    1.538    3.692    0.000    0.615 
#    0.000    0.000    0.000    6.000    0.000    0.000 
#    0.000    0.000    0.000    0.000    0.000    0.000 
#
# Total GULP energy -322109.055868 kJ/mol
# GULP energy per Si atom -12388.809841 kJ/mol
# Density = 1.770461 g / cm^3
# Si number density = 17.744999 Si / 1000 Ang^3
#
#
#
# Elastic Constant Matrix: (Units=GPa)
#
#
# Indices 1 2 3 4 5 6 
#
# 1 62.4365 47.4891 23.2001 0.0000 0.8333 0.0000
# 2 47.4891 89.2889 35.7032 0.0000 -5.4421 0.0000
# 3 23.2001 35.7032 42.4844 0.0000 -2.6767 0.0000
# 4 0.0000 0.0000 0.0000 25.2637 0.0000 -2.8418
# 5 0.8333 -5.4421 -2.6767 0.0000 24.9376 0.0000
# 6 0.0000 0.0000 0.0000 -2.8418 0.0000 22.2071
#
#
#
# Elastic Compliance Matrix: (Units=1/GPa)
#
#
# Indices 1 2 3 4 5 6 
#
# 1 0.027807 -0.013361 -0.004227 0.000000 -0.004299 0.000000
# 2 -0.013361 0.023406 -0.012105 0.000000 0.004255 0.000000
# 3 -0.004227 -0.012105 0.036106 0.000000 0.001375 0.000000
# 4 0.000000 0.000000 0.000000 0.040161 0.000000 0.005139
# 5 -0.004299 0.004255 0.001375 0.000000 0.041320 0.000000
# 6 0.000000 0.000000 0.000000 0.005139 0.000000 0.045688
#
#
# Mechanical properties :
#
#
# Convention : Reuss Voigt Hill
#
# Bulk Modulus (GPa) = 35.80211 45.22163 40.51187
# Shear Modulus (GPa) = 17.65628 20.33616 18.99622
#
# Velocity S-wave (km/s) = 3.15778 3.38897 3.27542
# Velocity P-wave (km/s) = 5.78923 6.39163 6.09787
#
# Compressibility (1/GPa) = 0.02793131
#
# Stress axis : x y z
#
# Youngs Moduli (GPa) = 35.96246 42.72496 27.69589
#
# Poissons Ratio (x) = 0.57084 0.11708
# Poissons Ratio (y) = 0.48049 0.33527
# Poissons Ratio (z) = 0.15203 0.51720
#
# Static dielectric constant tensor:
#      x y z
#    x 3.421180 0.000000 0.149570 
#    y 0.000000 3.284130 0.000000 
#    z 0.149570 0.000000 3.285760 
# 
# 
# High freq. dielectric constant tensor:
#      x y z
#    x 1.685670 0.000000 0.007790 
#    y 0.000000 1.680490 0.000000 
#    z 0.007790 0.000000 1.659720 
# 
# From -- ./inp_files/165121.got.cif
#   From: 2010.06.25/outbox.cif.g09.slc.cpg/sg12_83_cif.got.tgz:165121.got - 2010.06.28 00:19:55.
