data_PCOD8078831
_publ_section_title
;
Structure prediction by ZEFSAII (Michael W. Deem and Ramdas Pophale) SiO2 
 PCOD8078831
Probable space group: C 2/M
;
_chemical_formula_sum "Si O2"
_cell_formula_units_Z 56
_cell_length_a 22.506048
_cell_length_b 8.398019
_cell_length_c 25.787200
_cell_angle_alpha 90.000000
_cell_angle_beta 140.999004
_cell_angle_gamma 90.000000
_cell_volume 3067.336403
_symmetry_space_group_name_H-M "C 2/M"
_symmetry_group_IT_number 12
_symmetry_cell_setting 'monoclinic'
loop_
_space_group_symop_operation_xyz
x,y,z
-x,y,-z
-x,-y,-z
x,-y,z
1/2+x,1/2+y,z
1/2-x,1/2+y,-z
1/2-x,1/2-y,-z
1/2+x,1/2-y,z
loop_
_atom_site_type_symbol
_atom_site_label
_atom_site_fract_x
_atom_site_fract_y
_atom_site_fract_z
Si Si1 0.736051 0.314778 0.240414
Si Si2 0.619897 0.316604 0.955081
Si Si3 0.386354 0.685322 0.262747
Si Si4 0.018120 0.314692 0.432551
Si Si5 0.037138 0.316398 0.080930
Si Si6 0.863835 0.186913 0.404896
Si Si7 0.332317 0.815774 0.118463
O O1 0.761201 0.500000 0.256232
O O2 0.797012 0.227459 0.237807
O O3 0.626170 0.290950 0.155915
O O4 0.760847 0.240179 0.314235
O O5 0.596547 0.500000 0.950714
O O6 0.543890 0.206849 0.931692
O O7 0.615813 0.285733 0.890763
O O8 0.722216 0.267424 0.046778
O O9 0.384497 0.500000 0.248943
O O10 0.485880 0.731642 0.357234
O O11 0.381568 0.781719 0.206268
O O12 0.034245 0.500000 0.433566
O O13 0.935870 0.285472 0.418192
O O14 0.115429 0.237015 0.521250
O O15 0.068179 0.500000 0.100666
O O16 0.000000 0.259243 0.000000
O O17 0.879921 0.000000 0.408200
O O18 0.342165 0.000000 0.110480
#
# Coordination Sequence:
#
# PCOD8078831 Si02
#       7
#     8   8   8   8   8   8   8
#     4  11  21  33  49  71 100 134 170 206 248 298
#     4  10  21  36  54  75  99 130 167 206 249 295
#     4  11  20  31  48  73 103 133 167 206 250 297
#     4  10  17  27  43  66  96 129 164 201 245 294
#     4  11  23  37  53  74 101 133 168 206 248 294
#     4  10  17  28  44  65  95 129 164 201 245 295
#     4  10  20  35  54  75 100 130 165 206 250 295
#
# _framework density 18.256882000000001
#
# number of rings (size 3 to 8) (size 9 to 14) (size 15 to 20)
#    0.000    1.571    0.000    9.857    0.000    5.143 
#    0.000    0.000    0.000    0.000    0.000    1.000 
#    0.000    0.000    0.000    0.000    0.000    0.000 
#
# Total GULP energy -347228.765263 kJ/mol
# GULP energy per Si atom -12401.027331 kJ/mol
# Density = 1.821533 g / cm^3
# Si number density = 18.256882 Si / 1000 Ang^3
#
#
#
# Elastic Constant Matrix: (Units=GPa)
#
#
# Indices 1 2 3 4 5 6 
#
# 1 48.8051 8.2643 35.0276 0.0000 -5.0985 0.0000
# 2 8.2643 75.3938 19.1068 0.0001 4.5159 0.0004
# 3 35.0276 19.1068 145.1064 0.0000 -12.9471 0.0001
# 4 0.0000 0.0001 0.0000 29.4286 0.0000 -1.2457
# 5 -5.0985 4.5159 -12.9471 0.0000 19.6966 0.0000
# 6 0.0000 0.0004 0.0001 -1.2457 0.0000 22.2554
#
#
#
# Elastic Compliance Matrix: (Units=1/GPa)
#
#
# Indices 1 2 3 4 5 6 
#
# 1 0.025077 -0.001528 -0.005568 0.000000 0.003181 0.000000
# 2 -0.001528 0.014219 -0.001944 0.000000 -0.004933 0.000000
# 3 -0.005568 -0.001944 0.008926 0.000000 0.004872 0.000000
# 4 0.000000 0.000000 0.000000 0.034061 0.000000 0.001906
# 5 0.003181 -0.004933 0.004872 0.000000 0.055927 0.000000
# 6 0.000000 0.000000 0.000000 0.001906 0.000000 0.045040
#
#
# Mechanical properties :
#
#
# Convention : Reuss Voigt Hill
#
# Bulk Modulus (GPa) = 33.17591 43.78920 38.48255
# Shear Modulus (GPa) = 23.65426 28.06990 25.86208
#
# Velocity S-wave (km/s) = 3.60340 3.92535 3.76781
# Velocity P-wave (km/s) = 5.96019 6.67694 6.32872
#
# Compressibility (1/GPa) = 0.03014235
#
# Stress axis : x y z
#
# Youngs Moduli (GPa) = 39.87686 70.32718 112.02913
#
# Poissons Ratio (x) = 0.10748 0.62382
# Poissons Ratio (y) = 0.06094 0.21774
# Poissons Ratio (z) = 0.22205 0.13669
#
# Static dielectric constant tensor:
#      x y z
#    x 2.846930 0.000000 -0.110340 
#    y 0.000000 3.367140 0.000000 
#    z -0.110340 0.000000 4.088350 
# 
# 
# High freq. dielectric constant tensor:
#      x y z
#    x 1.644310 0.000000 -0.012250 
#    y 0.000000 1.727040 0.000000 
#    z -0.012250 0.000000 1.727540 
# 
# From -- ./inp_files/348625.got.cif
#   From: 2010.06.25/outbox.cif.g09.slc.cpg/sg12_175_cif.got.tgz:348625.got - 2010.06.28 00:19:55.
