data_PCOD8078649
_publ_section_title
;
Structure prediction by ZEFSAII (Michael W. Deem and Ramdas Pophale) SiO2 
 PCOD8078649
Probable space group: C 2/M
;
_chemical_formula_sum "Si O2"
_cell_formula_units_Z 64
_cell_length_a 24.166874
_cell_length_b 9.134365
_cell_length_c 23.892939
_cell_angle_alpha 90.000000
_cell_angle_beta 49.306245
_cell_angle_gamma 90.000000
_cell_volume 3999.035793
_symmetry_space_group_name_H-M "C 2/M"
_symmetry_group_IT_number 12
_symmetry_cell_setting 'monoclinic'
loop_
_space_group_symop_operation_xyz
x,y,z
-x,y,-z
-x,-y,-z
x,-y,z
1/2+x,1/2+y,z
1/2-x,1/2+y,-z
1/2-x,1/2-y,-z
1/2+x,1/2-y,z
loop_
_atom_site_type_symbol
_atom_site_label
_atom_site_fract_x
_atom_site_fract_y
_atom_site_fract_z
Si Si1 0.213419 0.329592 0.751778
Si Si2 0.547083 0.334440 0.525118
Si Si3 0.333721 0.834227 0.612203
Si Si4 0.919409 0.168575 0.119182
Si Si5 0.307107 0.669023 0.798820
Si Si6 0.281475 0.827399 0.033202
Si Si7 0.585131 0.331117 0.006855
Si Si8 0.428055 0.165113 0.662002
O O1 0.211752 0.500000 0.738445
O O2 0.257628 0.248269 0.673514
O O3 0.131366 0.267790 0.807956
O O4 0.250089 0.296758 0.787298
O O5 0.500000 0.333590 0.500000
O O6 0.564460 0.500000 0.532219
O O7 0.622917 0.249035 0.465561
O O8 0.502696 0.254903 0.603974
O O9 0.381900 0.831730 0.635938
O O10 0.317894 0.000000 0.603463
O O11 0.909440 0.215645 0.061370
O O12 0.896685 0.000000 0.141694
O O13 0.002802 0.193278 0.082886
O O14 0.329882 0.500000 0.783018
O O15 0.270298 0.715789 0.880989
O O16 0.380856 0.762223 0.742617
O O17 0.362997 0.770603 0.990461
O O18 0.284343 0.000000 0.021905
O O19 0.250000 0.750000 0.000000
O O20 0.608124 0.500000 0.999071
O O21 0.447966 0.000000 0.666153
#
# Coordination Sequence:
#
# PCOD8078649 Si02
#       8
#     8   8   8   8   8   8   8   8
#     4  10  17  26  40  60  84 111 143 179 217 257
#     4   9  15  23  34  49  72 103 136 171 209 248
#     4   9  16  24  34  51  76 106 140 174 208 250
#     4   9  17  29  46  66  88 113 142 179 222 264
#     4   9  18  30  41  57  81 107 140 179 218 260
#     4  11  22  35  49  66  87 115 148 186 228 270
#     4   9  18  32  48  66  87 112 143 180 222 268
#     4   9  16  24  37  54  72 100 137 175 211 249
#
# _framework density 16.003858000000001
#
# number of rings (size 3 to 8) (size 9 to 14) (size 15 to 20)
#    0.000    2.625    1.250    2.625    0.000    6.500 
#    0.000    1.250    0.000    0.000    0.000    0.000 
#    0.000    0.000    0.000    1.125    0.000   14.875 
#
# Total GULP energy -396798.513960 kJ/mol
# GULP energy per Si atom -12399.953561 kJ/mol
# Density = 1.596743 g / cm^3
# Si number density = 16.003858 Si / 1000 Ang^3
#
#
#
# Elastic Constant Matrix: (Units=GPa)
#
#
# Indices 1 2 3 4 5 6 
#
# 1 49.0231 34.2153 33.1118 0.0001 -8.9630 -0.0001
# 2 34.2153 119.0792 68.3411 0.0009 -20.5903 -0.0007
# 3 33.1118 68.3411 111.0104 0.0003 -31.6120 -0.0002
# 4 0.0001 0.0009 0.0003 33.9322 -0.0002 -8.1271
# 5 -8.9630 -20.5903 -31.6120 -0.0002 19.5358 -0.0001
# 6 -0.0001 -0.0007 -0.0002 -8.1271 -0.0001 18.6751
#
#
#
# Elastic Compliance Matrix: (Units=1/GPa)
#
#
# Indices 1 2 3 4 5 6 
#
# 1 0.027308 -0.004930 -0.005605 0.000000 -0.001737 0.000000
# 2 -0.004930 0.013896 -0.006598 0.000000 0.001708 0.000000
# 3 -0.005605 -0.006598 0.022309 0.000000 0.026574 0.000000
# 4 0.000000 0.000000 0.000000 0.032900 0.000000 0.014318
# 5 -0.001737 0.001708 0.026574 0.000000 0.095193 0.000001
# 6 0.000000 0.000000 0.000000 0.014318 0.000001 0.059778
#
#
# Mechanical properties :
#
#
# Convention : Reuss Voigt Hill
#
# Bulk Modulus (GPa) = 34.19107 61.16101 47.67604
# Shear Modulus (GPa) = 16.92626 23.99158 20.45892
#
# Velocity S-wave (km/s) = 3.25566 3.87604 3.57932
# Velocity P-wave (km/s) = 5.96180 7.63747 6.85106
#
# Compressibility (1/GPa) = 0.02924741
#
# Stress axis : x y z
#
# Youngs Moduli (GPa) = 36.61996 71.96104 44.82399
#
# Poissons Ratio (x) = 0.35477 0.25123
# Poissons Ratio (y) = 0.18054 0.29576
# Poissons Ratio (z) = 0.20525 0.47481
#
# Static dielectric constant tensor:
#      x y z
#    x 2.500960 0.000000 -0.253080 
#    y 0.000000 3.148340 0.000000 
#    z -0.253080 0.000000 3.104330 
# 
# 
# High freq. dielectric constant tensor:
#      x y z
#    x 1.543460 0.000000 -0.033620 
#    y 0.000000 1.629620 0.000000 
#    z -0.033620 0.000000 1.617670 
# 
# From -- ./inp_files/320133.got.cif
#   From: 2010.06.25/outbox.cif.g09.slc.cpg/sg12_161_cif.got.tgz:320133.got - 2010.06.28 00:19:55.
