data_PCOD8078787
_publ_section_title
;
Structure prediction by ZEFSAII (Michael W. Deem and Ramdas Pophale) SiO2 
 PCOD8078787
Probable space group: C 2/M
;
_chemical_formula_sum "Si O2"
_cell_formula_units_Z 64
_cell_length_a 18.887468
_cell_length_b 25.026758
_cell_length_c 10.567147
_cell_angle_alpha 90.000000
_cell_angle_beta 132.042782
_cell_angle_gamma 90.000000
_cell_volume 3709.516769
_symmetry_space_group_name_H-M "C 2/M"
_symmetry_group_IT_number 12
_symmetry_cell_setting 'monoclinic'
loop_
_space_group_symop_operation_xyz
x,y,z
-x,y,-z
-x,-y,-z
x,-y,z
1/2+x,1/2+y,z
1/2-x,1/2+y,-z
1/2-x,1/2-y,-z
1/2+x,1/2-y,z
loop_
_atom_site_type_symbol
_atom_site_label
_atom_site_fract_x
_atom_site_fract_y
_atom_site_fract_z
Si Si1 0.573068 0.061126 0.697107
Si Si2 0.514772 0.895674 0.158973
Si Si3 0.104792 0.744507 0.636844
Si Si4 0.220678 0.652564 0.878664
Si Si5 0.589103 0.302158 0.881482
Si Si6 0.680568 0.176518 0.359970
Si Si7 0.637310 0.807757 0.032677
Si Si8 0.120603 0.211973 0.388326
O O1 0.500000 0.079373 0.500000
O O2 0.524531 0.066191 0.777755
O O3 0.670140 0.095336 0.802162
O O4 0.603311 0.000000 0.713624
O O5 0.624187 0.878760 0.323692
O O6 0.500000 0.922026 0.000000
O O7 0.461381 0.839268 0.095054
O O8 0.178028 0.695001 0.727513
O O9 0.108000 0.781266 0.763508
O O10 0.127981 0.782769 0.548127
O O11 0.000000 0.718189 0.500000
O O12 0.336309 0.649337 0.999266
O O13 0.204687 0.676428 0.998158
O O14 0.477875 0.318541 0.767350
O O15 0.613527 0.254775 0.007593
O O16 0.694296 0.177845 0.226097
O O17 0.787488 0.177427 0.548395
O O18 0.621270 0.228278 0.333260
#
# Coordination Sequence:
#
# PCOD8078787 Si02
#       8
#     8   8   8   8   8   8   8   8
#     4  10  22  37  53  74  95 114 153 211 258 291
#     4   9  18  32  52  70  96 130 158 191 236 291
#     4   9  17  27  42  65  92 124 159 187 219 274
#     4  10  18  28  48  65  87 121 155 192 239 283
#     4  10  17  27  41  63  91 124 160 191 218 273
#     4  10  18  28  40  59  94 134 158 184 221 263
#     4   9  16  29  41  62  92 125 159 184 221 271
#     4  10  19  26  38  63  96 131 160 187 213 259
#
# _framework density 17.252921000000001
#
# number of rings (size 3 to 8) (size 9 to 14) (size 15 to 20)
#    0.000    2.375    1.250    3.375    3.500    0.250 
#    0.000    0.000    0.000    0.000    0.000    0.875 
#    0.000   23.500    0.000    0.000    0.000    0.125 
#
# Total GULP energy -396487.694729 kJ/mol
# GULP energy per Si atom -12390.240460 kJ/mol
# Density = 1.721365 g / cm^3
# Si number density = 17.252921 Si / 1000 Ang^3
#
#
#
# Elastic Constant Matrix: (Units=GPa)
#
#
# Indices 1 2 3 4 5 6 
#
# 1 52.6258 16.0885 37.9743 0.0000 20.6524 0.0000
# 2 16.0885 44.0181 31.6720 0.0000 15.9645 0.0000
# 3 37.9743 31.6720 83.1273 0.0000 30.3753 0.0000
# 4 0.0000 0.0000 0.0000 4.5928 0.0000 2.4253
# 5 20.6524 15.9645 30.3753 0.0000 37.4825 0.0000
# 6 0.0000 0.0000 0.0000 2.4253 0.0000 13.5645
#
#
#
# Elastic Compliance Matrix: (Units=1/GPa)
#
#
# Indices 1 2 3 4 5 6 
#
# 1 0.029824 -0.000470 -0.010675 0.000000 -0.007582 0.000000
# 2 -0.000470 0.032038 -0.010088 0.000000 -0.005212 0.000000
# 3 -0.010675 -0.010088 0.024195 0.000000 -0.009429 0.000000
# 4 0.000000 0.000000 0.000000 0.240431 0.000000 -0.042988
# 5 -0.007582 -0.005212 -0.009429 0.000000 0.040718 0.000000
# 6 0.000000 0.000000 0.000000 -0.042988 0.000000 0.081408
#
#
# Mechanical properties :
#
#
# Convention : Reuss Voigt Hill
#
# Bulk Modulus (GPa) = 22.93969 39.02675 30.98322
# Shear Modulus (GPa) = 9.88906 17.39706 13.64306
#
# Velocity S-wave (km/s) = 2.39672 3.17890 2.81511
# Velocity P-wave (km/s) = 4.58083 6.01194 5.34450
#
# Compressibility (1/GPa) = 0.04359257
#
# Stress axis : x y z
#
# Youngs Moduli (GPa) = 33.53018 31.21272 41.33077
#
# Poissons Ratio (x) = 0.01468 0.44119
# Poissons Ratio (y) = 0.01577 0.41692
# Poissons Ratio (z) = 0.35792 0.31486
#
# Static dielectric constant tensor:
#      x y z
#    x 3.451320 0.000000 0.013680 
#    y 0.000000 2.643800 0.000000 
#    z 0.013680 0.000000 3.505060 
# 
# 
# High freq. dielectric constant tensor:
#      x y z
#    x 1.672990 0.000000 -0.001910 
#    y 0.000000 1.588090 0.000000 
#    z -0.001910 0.000000 1.679820 
# 
# From -- ./inp_files/170186.got.cif
#   From: 2010.06.25/outbox.cif.g09.slc.cpg/sg12_86_cif.got.tgz:170186.got - 2010.06.28 00:19:55.
