data_PCOD8078971
_publ_section_title
;
Structure prediction by ZEFSAII (Michael W. Deem and Ramdas Pophale) SiO2 
 PCOD8078971
Probable space group: C 2/M
;
_chemical_formula_sum "Si O2"
_cell_formula_units_Z 56
_cell_length_a 29.211426
_cell_length_b 8.403959
_cell_length_c 13.776530
_cell_angle_alpha 90.000000
_cell_angle_beta 104.058327
_cell_angle_gamma 90.000000
_cell_volume 3280.727615
_symmetry_space_group_name_H-M "C 2/M"
_symmetry_group_IT_number 12
_symmetry_cell_setting 'monoclinic'
loop_
_space_group_symop_operation_xyz
x,y,z
-x,y,-z
-x,-y,-z
x,-y,z
1/2+x,1/2+y,z
1/2-x,1/2+y,-z
1/2-x,1/2-y,-z
1/2+x,1/2-y,z
loop_
_atom_site_type_symbol
_atom_site_label
_atom_site_fract_x
_atom_site_fract_y
_atom_site_fract_z
Si Si1 0.355926 0.188814 0.626494
Si Si2 0.269071 0.184956 0.109914
Si Si3 0.799192 0.684905 0.414212
Si Si4 0.215945 0.683904 0.259497
Si Si5 0.647804 0.315664 0.733446
Si Si6 0.050220 0.311187 0.415414
Si Si7 0.446243 0.188222 0.361486
O O1 0.320942 0.252809 0.524858
O O2 0.335046 0.236408 0.721747
O O3 0.408965 0.256409 0.635909
O O4 0.357134 0.000000 0.616972
O O5 0.229533 0.213125 0.172722
O O6 0.318381 0.273030 0.158632
O O7 0.279472 0.000000 0.106602
O O8 0.250000 0.250000 0.000000
O O9 0.785093 0.500000 0.412766
O O10 0.753626 0.790356 0.365131
O O11 0.837883 0.706205 0.349897
O O12 0.215627 0.500000 0.228335
O O13 0.654500 0.500000 0.712244
O O14 0.592888 0.274748 0.726129
O O15 0.050566 0.500000 0.416214
O O16 0.060385 0.254870 0.530489
O O17 0.998395 0.254549 0.353261
O O18 0.440793 0.000000 0.347756
#
# Coordination Sequence:
#
# PCOD8078971 Si02
#       7
#     8   8   8   8   8   8   8
#     4   9  16  26  43  66  94 128 165 198 228 268
#     4  11  22  38  56  73  93 117 151 194 239 289
#     4  10  17  28  44  62  90 128 167 198 226 267
#     4  10  19  30  45  68  96 124 155 192 235 282
#     4  11  20  30  46  70  99 127 157 195 239 285
#     4   8  14  25  44  67  91 127 171 206 231 263
#     4   9  15  27  47  66  90 127 170 205 234 270
#
# _framework density 17.069383999999999
#
# number of rings (size 3 to 8) (size 9 to 14) (size 15 to 20)
#    0.000    2.286    1.429    6.429    0.000    0.000 
#    0.000    3.571    0.000    0.000    0.000    1.000 
#    0.000    8.000    0.000    0.000    0.000    0.000 
#
# Total GULP energy -347002.789238 kJ/mol
# GULP energy per Si atom -12392.956759 kJ/mol
# Density = 1.703053 g / cm^3
# Si number density = 17.069384 Si / 1000 Ang^3
#
#
#
# Elastic Constant Matrix: (Units=GPa)
#
#
# Indices 1 2 3 4 5 6 
#
# 1 139.4295 15.3483 53.1328 0.0000 -1.3438 0.0000
# 2 15.3483 47.0942 12.2243 0.0000 2.8977 0.0000
# 3 53.1328 12.2243 74.1185 0.0000 7.9266 0.0000
# 4 0.0000 0.0000 0.0000 18.6735 0.0000 1.9570
# 5 -1.3438 2.8977 7.9266 0.0000 16.2860 0.0000
# 6 0.0000 0.0000 0.0000 1.9570 0.0000 19.8861
#
#
#
# Elastic Compliance Matrix: (Units=1/GPa)
#
#
# Indices 1 2 3 4 5 6 
#
# 1 0.010314 -0.001678 -0.007638 0.000000 0.004867 0.000000
# 2 -0.001678 0.022538 -0.002184 0.000000 -0.003086 0.000000
# 3 -0.007638 -0.002184 0.020416 0.000000 -0.010178 0.000000
# 4 0.000000 0.000000 0.000000 0.054110 0.000000 -0.005325
# 5 0.004867 -0.003086 -0.010178 0.000000 0.067307 0.000000
# 6 0.000000 0.000000 0.000000 -0.005325 0.000000 0.050810
#
#
# Mechanical properties :
#
#
# Convention : Reuss Voigt Hill
#
# Bulk Modulus (GPa) = 33.03841 46.89481 39.96661
# Shear Modulus (GPa) = 19.33608 22.96490 21.15049
#
# Velocity S-wave (km/s) = 3.36935 3.67193 3.52389
# Velocity P-wave (km/s) = 5.87657 6.74612 6.32630
#
# Compressibility (1/GPa) = 0.03026780
#
# Stress axis : x y z
#
# Youngs Moduli (GPa) = 96.95359 44.36993 48.98197
#
# Poissons Ratio (x) = 0.07447 0.37410
# Poissons Ratio (y) = 0.16273 0.10697
# Poissons Ratio (z) = 0.74049 0.09690
#
# Static dielectric constant tensor:
#      x y z
#    x 3.693490 0.000000 -0.008270 
#    y 0.000000 2.949160 0.000000 
#    z -0.008270 0.000000 2.875680 
# 
# 
# High freq. dielectric constant tensor:
#      x y z
#    x 1.666250 0.000000 0.002000 
#    y 0.000000 1.644270 0.000000 
#    z 0.002000 0.000000 1.607080 
# 
# From -- ./inp_files/247894.got.cif
#   From: 2010.06.25/outbox.cif.g09.slc.cpg/sg12_124_cif.got.tgz:247894.got - 2010.06.28 00:19:55.
