data_PCOD8078175
_publ_section_title
;
Structure prediction by ZEFSAII (Michael W. Deem and Ramdas Pophale) SiO2 
 PCOD8078175
Probable space group: C 2/M
;
_chemical_formula_sum "Si O2"
_cell_formula_units_Z 40
_cell_length_a 5.327397
_cell_length_b 14.951774
_cell_length_c 21.929063
_cell_angle_alpha 90.000000
_cell_angle_beta 96.976834
_cell_angle_gamma 90.000000
_cell_volume 1733.804378
_symmetry_space_group_name_H-M "C 2/M"
_symmetry_group_IT_number 12
_symmetry_cell_setting 'monoclinic'
loop_
_space_group_symop_operation_xyz
x,y,z
-x,y,-z
-x,-y,-z
x,-y,z
1/2+x,1/2+y,z
1/2-x,1/2+y,-z
1/2-x,1/2-y,-z
1/2+x,1/2-y,z
loop_
_atom_site_type_symbol
_atom_site_label
_atom_site_fract_x
_atom_site_fract_y
_atom_site_fract_z
Si Si1 0.138696 0.650326 0.277393
Si Si2 0.762825 0.149786 0.525649
Si Si3 0.930658 0.393590 0.861301
Si Si4 0.164401 0.149771 0.328803
Si Si5 0.034495 0.106227 0.069002
O O1 0.102126 0.653841 0.204248
O O2 0.152233 0.749497 0.304471
O O3 0.401993 0.600519 0.302531
O O4 0.900536 0.600519 0.302530
O O5 0.500000 0.100568 0.500000
O O6 0.750000 0.250000 0.500000
O O7 0.799212 0.148148 0.598426
O O8 0.000000 0.100568 0.500000
O O9 0.926382 0.500000 0.852741
O O10 0.700291 0.360142 0.897017
O O11 0.196746 0.360139 0.897014
O O12 0.033482 0.000000 0.066957
O O13 0.000000 0.145121 0.000000
#
# Coordination Sequence:
#
# PCOD8078175 Si02
#       5
#     8   8   8   8   8
#     4  10  18  30  44  64  94 122 148 180 212 266
#     4  10  16  25  41  63  91 110 136 186 232 266
#     4  10  19  30  47  71  94 117 146 180 222 268
#     4  10  19  30  45  67  92 121 152 178 220 270
#     4   9  17  30  47  68  92 114 142 185 232 268
#
# _framework density 23.070653
#
# number of rings (size 3 to 8) (size 9 to 14) (size 15 to 20)
#    0.000    2.200    0.000    7.800    0.000    2.400 
#    0.000    0.000    0.000    0.000    0.000   56.000 
#    0.000   59.200    0.000    0.000    0.000    0.000 
#
# Total GULP energy -247882.683875 kJ/mol
# GULP energy per Si atom -12394.134194 kJ/mol
# Density = 2.301814 g / cm^3
# Si number density = 23.070653 Si / 1000 Ang^3
#
#
#
# Elastic Constant Matrix: (Units=GPa)
#
#
# Indices 1 2 3 4 5 6 
#
# 1 309.5090 -0.3335 131.8450 0.0000 0.2039 0.0000
# 2 -0.3335 16.2764 6.5814 0.0000 -0.0208 0.0000
# 3 131.8450 6.5814 269.2640 0.0000 -0.0783 0.0000
# 4 0.0000 0.0000 0.0000 -22.7924 0.0000 0.0531
# 5 0.2039 -0.0208 -0.0783 0.0000 55.0912 0.0000
# 6 0.0000 0.0000 0.0000 0.0531 0.0000 -4.7754
#
#
#
# Elastic Compliance Matrix: (Units=1/GPa)
#
#
# Indices 1 2 3 4 5 6 
#
# 1 0.004096 0.000904 -0.002027 0.000000 -0.000018 0.000000
# 2 0.000904 0.062251 -0.001964 0.000000 0.000017 0.000000
# 3 -0.002027 -0.001964 0.004755 0.000000 0.000014 0.000000
# 4 0.000000 0.000000 0.000000 -0.043875 0.000000 -0.000488
# 5 -0.000018 0.000017 0.000014 0.000000 0.018152 0.000000
# 6 0.000000 0.000000 0.000000 -0.000488 0.000000 -0.209411
#
#
# Mechanical properties :
#
#
# Convention : Reuss Voigt Hill
#
# Bulk Modulus (GPa) = 15.40218 96.80389 56.10303
# Shear Modulus (GPa) = -36.70667 35.96844 -0.36911
#
# Velocity S-wave (km/s) = -3.99313 3.95277 -0.40043
# Velocity P-wave (km/s) = 3.81700 7.92990 4.91497
#
# Compressibility (1/GPa) = 0.06492586
#
# Stress axis : x y z
#
# Youngs Moduli (GPa) = 244.16539 16.06391 210.32268
#
# Poissons Ratio (x) = -0.01452 0.42643
# Poissons Ratio (y) = -0.22066 0.41308
# Poissons Ratio (z) = 0.49504 0.03155
#
# Static dielectric constant tensor:
#      x y z
#    x -5.532030 0.000000 -0.028760 
#    y 0.000000 3.199770 0.000000 
#    z -0.028760 0.000000 4.131590 
# 
# 
# High freq. dielectric constant tensor:
#      x y z
#    x 1.954550 0.000000 0.000090 
#    y 0.000000 1.842550 0.000000 
#    z 0.000090 0.000000 1.923870 
# 
# From -- ./inp_files/191465.got.cif
#   From: 2010.06.25/outbox.cif.g09.slc.cpg/sg12_96_cif.got.tgz:191465.got - 2010.06.28 00:19:55.
