data_PCOD8078792
_publ_section_title
;
Structure prediction by ZEFSAII (Michael W. Deem and Ramdas Pophale) SiO2 
 PCOD8078792
Probable space group: C 2/M
;
_chemical_formula_sum "Si O2"
_cell_formula_units_Z 64
_cell_length_a 28.275003
_cell_length_b 9.078903
_cell_length_c 16.333750
_cell_angle_alpha 90.000000
_cell_angle_beta 97.344580
_cell_angle_gamma 90.000000
_cell_volume 4158.569614
_symmetry_space_group_name_H-M "C 2/M"
_symmetry_group_IT_number 12
_symmetry_cell_setting 'monoclinic'
loop_
_space_group_symop_operation_xyz
x,y,z
-x,y,-z
-x,-y,-z
x,-y,z
1/2+x,1/2+y,z
1/2-x,1/2+y,-z
1/2-x,1/2-y,-z
1/2+x,1/2-y,z
loop_
_atom_site_type_symbol
_atom_site_label
_atom_site_fract_x
_atom_site_fract_y
_atom_site_fract_z
Si Si1 0.107297 0.828879 0.517484
Si Si2 0.026496 0.333521 0.419742
Si Si3 0.278797 0.166273 0.276832
Si Si4 0.783843 0.172932 0.443270
Si Si5 0.126108 0.670734 0.805293
Si Si6 0.943406 0.172741 0.324998
Si Si7 0.677016 0.668040 0.948101
Si Si8 0.236247 0.832238 0.104816
O O1 0.078529 0.738818 0.442188
O O2 0.162169 0.782056 0.523392
O O3 0.089266 0.788824 0.604151
O O4 0.099180 0.000000 0.497639
O O5 0.032567 0.500000 0.389753
O O6 0.000000 0.326899 0.500000
O O7 0.995877 0.242507 0.346990
O O8 0.270676 0.277256 0.349037
O O9 0.327765 0.202814 0.240225
O O10 0.234569 0.186518 0.203196
O O11 0.280328 0.000000 0.311878
O O12 0.750000 0.250000 0.500000
O O13 0.776285 0.000000 0.446908
O O14 0.113331 0.500000 0.806792
O O15 0.080881 0.756614 0.759723
O O16 0.135906 0.729826 0.899857
O O17 0.949149 0.000000 0.313026
O O18 0.664667 0.500000 0.923140
O O19 0.728043 0.709729 0.921469
O O20 0.684456 0.688553 0.048774
O O21 0.255204 0.000000 0.090754
#
# Coordination Sequence:
#
# PCOD8078792 Si02
#       8
#     8   8   8   8   8   8   8   8
#     4   9  18  31  44  58  78 103 135 173 210 249
#     4   9  17  27  41  61  81 103 133 165 204 248
#     4   9  17  29  43  57  76 104 136 173 213 248
#     4  11  22  34  46  62  81 105 140 179 219 255
#     4  10  18  26  38  57  83 110 139 171 205 242
#     4  10  17  27  42  60  82 108 139 171 205 243
#     4   9  15  23  36  54  77 104 135 166 199 239
#     4   8  15  26  38  54  75 101 133 168 203 242
#
# _framework density 15.389908
#
# number of rings (size 3 to 8) (size 9 to 14) (size 15 to 20)
#    0.000    2.625    1.250    2.625    0.000    5.500 
#    0.000    0.000    0.000    0.000    0.000    0.000 
#    0.000    0.000    0.000    1.125    0.000   22.500 
#
# Total GULP energy -396618.430356 kJ/mol
# GULP energy per Si atom -12394.325949 kJ/mol
# Density = 1.535488 g / cm^3
# Si number density = 15.389908 Si / 1000 Ang^3
#
#
#
# Elastic Constant Matrix: (Units=GPa)
#
#
# Indices 1 2 3 4 5 6 
#
# 1 51.6979 35.0949 46.3791 0.0000 17.3066 0.0000
# 2 35.0949 87.2942 55.9495 0.0000 19.9343 0.0000
# 3 46.3791 55.9495 107.8057 0.0000 35.6005 0.0000
# 4 0.0000 0.0000 0.0000 27.0856 0.0000 7.6878
# 5 17.3066 19.9343 35.6005 0.0000 24.6716 0.0000
# 6 0.0000 0.0000 0.0000 7.6878 0.0000 19.6154
#
#
#
# Elastic Compliance Matrix: (Units=1/GPa)
#
#
# Indices 1 2 3 4 5 6 
#
# 1 0.033978 -0.006317 -0.009845 0.000000 -0.004525 0.000000
# 2 -0.006317 0.018388 -0.006462 0.000000 -0.001102 0.000000
# 3 -0.009845 -0.006462 0.024566 0.000000 -0.023322 0.000000
# 4 0.000000 0.000000 0.000000 0.041541 0.000000 -0.016281
# 5 -0.004525 -0.001102 -0.023322 0.000000 0.078250 0.000000
# 6 0.000000 0.000000 0.000000 -0.016281 0.000000 0.057361
#
#
# Mechanical properties :
#
#
# Convention : Reuss Voigt Hill
#
# Bulk Modulus (GPa) = 31.56026 57.96052 44.76039
# Shear Modulus (GPa) = 16.13452 21.56614 18.85033
#
# Velocity S-wave (km/s) = 3.24139 3.74748 3.50358
# Velocity P-wave (km/s) = 5.87881 7.51452 6.74642
#
# Compressibility (1/GPa) = 0.03168542
#
# Stress axis : x y z
#
# Youngs Moduli (GPa) = 29.43040 54.38251 40.70599
#
# Poissons Ratio (x) = 0.34353 0.40076
# Poissons Ratio (y) = 0.18591 0.26302
# Poissons Ratio (z) = 0.28975 0.35140
#
# Static dielectric constant tensor:
#      x y z
#    x 2.559560 0.000000 0.376980 
#    y 0.000000 3.066200 0.000000 
#    z 0.376980 0.000000 3.145340 
# 
# 
# High freq. dielectric constant tensor:
#      x y z
#    x 1.525300 0.000000 0.046110 
#    y 0.000000 1.606400 0.000000 
#    z 0.046110 0.000000 1.585930 
# 
# From -- ./inp_files/287697.got.cif
#   From: 2010.06.25/outbox.cif.g09.slc.cpg/sg12_144_cif.got.tgz:287697.got - 2010.06.28 00:19:55.
