data_PCOD8078364
_publ_section_title
;
Structure prediction by ZEFSAII (Michael W. Deem and Ramdas Pophale) SiO2 
 PCOD8078364
Probable space group: C 2/M
;
_chemical_formula_sum "Si O2"
_cell_formula_units_Z 52
_cell_length_a 18.058700
_cell_length_b 18.166973
_cell_length_c 9.820465
_cell_angle_alpha 90.000000
_cell_angle_beta 74.108278
_cell_angle_gamma 90.000000
_cell_volume 3098.683686
_symmetry_space_group_name_H-M "C 2/M"
_symmetry_group_IT_number 12
_symmetry_cell_setting 'monoclinic'
loop_
_space_group_symop_operation_xyz
x,y,z
-x,y,-z
-x,-y,-z
x,-y,z
1/2+x,1/2+y,z
1/2-x,1/2+y,-z
1/2-x,1/2-y,-z
1/2+x,1/2-y,z
loop_
_atom_site_type_symbol
_atom_site_label
_atom_site_fract_x
_atom_site_fract_y
_atom_site_fract_z
Si Si1 0.253101 0.655102 0.593554
Si Si2 0.782041 0.000000 0.216524
Si Si3 0.271930 0.500000 0.521572
Si Si4 0.838120 0.789441 0.804519
Si Si5 0.845993 0.216594 0.310715
Si Si6 0.427673 0.500000 0.312809
Si Si7 0.501806 0.345932 0.662067
Si Si8 0.263495 0.343191 0.105346
O O1 0.239849 0.568849 0.622888
O O2 0.315295 0.687427 0.664799
O O3 0.172808 0.697834 0.650896
O O4 0.288109 0.663964 0.424603
O O5 0.738606 0.000000 0.384255
O O6 0.754416 0.071168 0.146224
O O7 0.875473 0.000000 0.199635
O O8 0.366334 0.500000 0.469878
O O9 0.927556 0.809780 0.770421
O O10 0.816988 0.702499 0.835121
O O11 0.789997 0.837845 0.936053
O O12 0.830756 0.195178 0.161810
O O13 0.932511 0.206217 0.312091
O O14 0.483038 0.429120 0.293566
O O15 0.500000 0.343557 0.500000
#
# Coordination Sequence:
#
# PCOD8078364 Si02
#       8
#     8   4   4   8   8   4   8   8
#     4  10  18  32  53  72  99 139 178 217 246 312
#     4  10  18  33  59  73 103 141 178 222 251 317
#     4  10  16  30  51  78  99 134 179 212 254 306
#     4  10  23  34  53  76 109 139 175 223 257 317
#     4  10  18  33  52  72 101 137 181 208 256 319
#     4  10  19  31  46  80 109 138 162 213 271 320
#     4  12  20  32  50  80 110 137 172 220 271 310
#     4  10  20  39  52  76 102 143 186 209 261 318
#
# _framework density 16.781319
#
# number of rings (size 3 to 8) (size 9 to 14) (size 15 to 20)
#    0.462    1.231    6.154    0.231    0.000    2.462 
#    0.000    0.769    0.000    0.923    0.000    2.154 
#    0.000    7.385    0.000    0.000    0.000    0.000 
#
# Total GULP energy -322251.491552 kJ/mol
# GULP energy per Si atom -12394.288137 kJ/mol
# Density = 1.674312 g / cm^3
# Si number density = 16.781319 Si / 1000 Ang^3
#
#
#
# Elastic Constant Matrix: (Units=GPa)
#
#
# Indices 1 2 3 4 5 6 
#
# 1 92.5089 67.5864 12.7020 0.0000 -4.3054 0.0000
# 2 67.5864 146.3051 19.1991 0.0000 -16.2491 0.0000
# 3 12.7020 19.1991 38.8388 0.0000 -3.1917 0.0000
# 4 0.0000 0.0000 0.0000 20.1353 0.0000 4.2382
# 5 -4.3054 -16.2491 -3.1917 0.0000 15.2965 0.0000
# 6 0.0000 0.0000 0.0000 4.2382 0.0000 28.2197
#
#
#
# Elastic Compliance Matrix: (Units=1/GPa)
#
#
# Indices 1 2 3 4 5 6 
#
# 1 0.016648 -0.007899 -0.001876 0.000000 -0.004097 0.000000
# 2 -0.007899 0.011912 -0.002490 0.000000 0.009911 0.000000
# 3 -0.001876 -0.002490 0.027808 0.000000 0.002629 0.000000
# 4 0.000000 0.000000 0.000000 0.051285 0.000000 -0.007702
# 5 -0.004097 0.009911 0.002629 0.000000 0.075297 0.000000
# 6 0.000000 0.000000 0.000000 -0.007702 0.000000 0.036593
#
#
# Mechanical properties :
#
#
# Convention : Reuss Voigt Hill
#
# Bulk Modulus (GPa) = 31.41157 52.95866 42.18512
# Shear Modulus (GPa) = 19.63187 24.60800 22.11994
#
# Velocity S-wave (km/s) = 3.42404 3.83350 3.63454
# Velocity P-wave (km/s) = 5.86437 7.15688 6.54262
#
# Compressibility (1/GPa) = 0.03183540
#
# Stress axis : x y z
#
# Youngs Moduli (GPa) = 60.06724 83.95093 35.96061
#
# Poissons Ratio (x) = 0.66317 0.06748
# Poissons Ratio (y) = 0.47450 0.08956
# Poissons Ratio (z) = 0.11271 0.20907
#
# Static dielectric constant tensor:
#      x y z
#    x 2.994760 0.000000 0.126460 
#    y 0.000000 3.237600 0.000000 
#    z 0.126460 0.000000 3.097850 
# 
# 
# High freq. dielectric constant tensor:
#      x y z
#    x 1.614780 0.000000 0.018270 
#    y 0.000000 1.648950 0.000000 
#    z 0.018270 0.000000 1.642170 
# 
# From -- ./inp_files/75259.got.cif
#   From: 2010.06.25/outbox.cif.g09.slc.cpg/sg12_38_cif.got.tgz:75259.got - 2010.06.28 00:19:55.
