data_PCOD8078814
_publ_section_title
;
Structure prediction by ZEFSAII (Michael W. Deem and Ramdas Pophale) SiO2 
 PCOD8078814
Probable space group: C 2/M
;
_chemical_formula_sum "Si O2"
_cell_formula_units_Z 48
_cell_length_a 25.378785
_cell_length_b 13.126069
_cell_length_c 21.515841
_cell_angle_alpha 90.000000
_cell_angle_beta 24.246972
_cell_angle_gamma 90.000000
_cell_volume 2943.455802
_symmetry_space_group_name_H-M "C 2/M"
_symmetry_group_IT_number 12
_symmetry_cell_setting 'monoclinic'
loop_
_space_group_symop_operation_xyz
x,y,z
-x,y,-z
-x,-y,-z
x,-y,z
1/2+x,1/2+y,z
1/2-x,1/2+y,-z
1/2-x,1/2-y,-z
1/2+x,1/2-y,z
loop_
_atom_site_type_symbol
_atom_site_label
_atom_site_fract_x
_atom_site_fract_y
_atom_site_fract_z
Si Si1 0.162035 0.382207 0.969485
Si Si2 0.257807 0.115086 0.503902
Si Si3 0.181298 0.115481 0.444010
Si Si4 0.528450 0.747845 0.753926
Si Si5 0.913970 0.119993 0.775264
Si Si6 0.358330 0.119153 0.148282
O O1 0.120867 0.500000 0.023400
O O2 0.283597 0.353985 0.880542
O O3 0.199866 0.361543 0.857499
O O4 0.042325 0.311231 0.116327
O O5 0.245110 0.124084 0.442957
O O6 0.389978 0.174021 0.378199
O O7 0.133566 0.168450 0.669300
O O8 0.266001 0.000000 0.519122
O O9 0.266266 0.171715 0.299419
O O10 0.034916 0.156103 0.603218
O O11 0.172667 0.000000 0.431395
O O12 0.421021 0.685932 0.830827
O O13 0.925144 0.000000 0.780017
O O14 0.371594 0.000000 0.148900
O O15 0.500000 0.168738 0.000000
#
# Coordination Sequence:
#
# PCOD8078814 Si02
#       6
#     8   8   8   8   8   8
#     4  10  19  28  40  61  89 118 144 169 200 244
#     4   9  17  28  44  65  86 110 138 172 213 251
#     4   8  14  26  41  57  82 112 139 167 203 249
#     4  10  17  27  43  60  85 115 142 173 208 246
#     4   9  18  30  42  59  85 116 146 175 206 240
#     4   9  16  25  39  59  83 112 141 168 202 246
#
# _framework density 16.307362000000001
#
# number of rings (size 3 to 8) (size 9 to 14) (size 15 to 20)
#    0.000    2.833    0.000    3.500    0.000    3.333 
#    0.000    3.333    0.000    0.000    0.000    0.000 
#    0.000   82.667    0.000   77.667    0.000    6.667 
#
# Total GULP energy -297356.008570 kJ/mol
# GULP energy per Si atom -12389.833690 kJ/mol
# Density = 1.627025 g / cm^3
# Si number density = 16.307362 Si / 1000 Ang^3
#
#
#
# Elastic Constant Matrix: (Units=GPa)
#
#
# Indices 1 2 3 4 5 6 
#
# 1 39.1031 10.9527 13.2501 0.0000 -2.8303 0.0000
# 2 10.9527 64.1082 19.2946 0.0001 -4.0107 -0.0001
# 3 13.2501 19.2946 76.5761 0.0001 7.3373 -0.0001
# 4 0.0000 0.0001 0.0001 25.1726 -0.0001 -4.4381
# 5 -2.8303 -4.0107 7.3373 -0.0001 22.5038 0.0000
# 6 0.0000 -0.0001 -0.0001 -4.4381 0.0000 11.3186
#
#
#
# Elastic Compliance Matrix: (Units=1/GPa)
#
#
# Indices 1 2 3 4 5 6 
#
# 1 0.028325 -0.003198 -0.004523 0.000000 0.004467 0.000000
# 2 -0.003198 0.017701 -0.004305 0.000000 0.004156 0.000000
# 3 -0.004523 -0.004305 0.015540 0.000000 -0.006403 0.000000
# 4 0.000000 0.000000 0.000000 0.042676 0.000000 0.016733
# 5 0.004467 0.004156 -0.006403 0.000000 0.047827 0.000000
# 6 0.000000 0.000000 0.000000 0.016733 0.000000 0.094911
#
#
# Mechanical properties :
#
#
# Convention : Reuss Voigt Hill
#
# Bulk Modulus (GPa) = 26.65760 29.64245 28.15002
# Shear Modulus (GPa) = 17.63436 20.88501 19.25969
#
# Velocity S-wave (km/s) = 3.29199 3.58258 3.44036
# Velocity P-wave (km/s) = 5.55266 5.94391 5.75161
#
# Compressibility (1/GPa) = 0.03751276
#
# Stress axis : x y z
#
# Youngs Moduli (GPa) = 35.30400 56.49502 64.35121
#
# Poissons Ratio (x) = 0.18070 0.29108
# Poissons Ratio (y) = 0.11292 0.27702
# Poissons Ratio (z) = 0.15969 0.24320
#
# Static dielectric constant tensor:
#      x y z
#    x 2.884870 0.000000 -0.068690 
#    y 0.000000 2.985180 0.000000 
#    z -0.068690 0.000000 3.280090 
# 
# 
# High freq. dielectric constant tensor:
#      x y z
#    x 1.599680 0.000000 -0.016370 
#    y 0.000000 1.594560 0.000000 
#    z -0.016370 0.000000 1.635520 
# 
# From -- ./inp_files/173429.got.cif
#   From: 2010.06.25/outbox.cif.g09.slc.cpg/sg12_87_cif.got.tgz:173429.got - 2010.06.28 00:19:55.
