data_PCOD8078511
_publ_section_title
;
Structure prediction by ZEFSAII (Michael W. Deem and Ramdas Pophale) SiO2 
 PCOD8078511
Probable space group: C 2/M
;
_chemical_formula_sum "Si O2"
_cell_formula_units_Z 56
_cell_length_a 21.840080
_cell_length_b 18.106378
_cell_length_c 18.692392
_cell_angle_alpha 90.000000
_cell_angle_beta 151.456972
_cell_angle_gamma 90.000000
_cell_volume 3531.943431
_symmetry_space_group_name_H-M "C 2/M"
_symmetry_group_IT_number 12
_symmetry_cell_setting 'monoclinic'
loop_
_space_group_symop_operation_xyz
x,y,z
-x,y,-z
-x,-y,-z
x,-y,z
1/2+x,1/2+y,z
1/2-x,1/2+y,-z
1/2-x,1/2-y,-z
1/2+x,1/2-y,z
loop_
_atom_site_type_symbol
_atom_site_label
_atom_site_fract_x
_atom_site_fract_y
_atom_site_fract_z
Si Si1 0.429195 0.808045 0.860423
Si Si2 0.670032 0.415387 0.816998
Si Si3 0.549675 0.916210 0.880914
Si Si4 0.408300 0.639968 0.556798
Si Si5 0.294696 0.083872 0.534645
Si Si6 0.741410 0.225981 0.572944
Si Si7 0.214550 0.085190 0.700328
O O1 0.533821 0.857165 0.927264
O O2 0.370579 0.744758 0.749280
O O3 0.500000 0.768942 0.000000
O O4 0.676302 0.864983 0.221789
O O5 0.627519 0.500000 0.777013
O O6 0.554228 0.369049 0.734972
O O7 0.684932 0.389260 0.750099
O O8 0.804339 0.403051 0.997636
O O9 0.441711 0.904376 0.710174
O O10 0.540711 0.000000 0.902365
O O11 0.303048 0.603764 0.501801
O O12 0.377325 0.727564 0.515678
O O13 0.405270 0.598345 0.476601
O O14 0.277137 0.137189 0.447315
O O15 0.270731 0.000000 0.485308
O O16 0.750000 0.250000 0.500000
O O17 0.257361 0.000000 0.743244
#
# Coordination Sequence:
#
# PCOD8078511 Si02
#       7
#     8   8   8   8   8   8   8
#     4  11  18  27  45  66  93 124 153 187 226 261
#     4  10  19  26  36  62 100 127 148 178 212 260
#     4  10  18  27  43  66  93 123 154 180 211 261
#     4  10  18  28  42  63  91 123 151 181 219 264
#     4  10  18  32  53  66  81 117 159 192 223 265
#     4   9  18  32  48  65  89 116 156 193 220 266
#     4  10  17  24  38  60  91 130 159 173 200 261
#
# _framework density 15.855294000000001
#
# number of rings (size 3 to 8) (size 9 to 14) (size 15 to 20)
#    0.000    2.000    5.714    2.143    0.000    1.714 
#    0.000    0.714    0.000    0.429    0.000    0.000 
#    0.000    9.143    0.000    0.000    0.000    0.000 
#
# Total GULP energy -346908.318223 kJ/mol
# GULP energy per Si atom -12389.582794 kJ/mol
# Density = 1.581921 g / cm^3
# Si number density = 15.855294 Si / 1000 Ang^3
#
#
#
# Elastic Constant Matrix: (Units=GPa)
#
#
# Indices 1 2 3 4 5 6 
#
# 1 29.6199 25.2231 33.8970 0.0003 5.3365 0.0003
# 2 25.2231 94.1400 45.8803 0.0010 -4.4557 0.0006
# 3 33.8970 45.8803 115.0056 0.0032 7.7534 0.0022
# 4 0.0003 0.0010 0.0032 15.6898 0.0012 -3.6451
# 5 5.3365 -4.4557 7.7534 0.0012 29.0880 0.0008
# 6 0.0003 0.0006 0.0022 -3.6451 0.0008 17.7556
#
#
#
# Elastic Compliance Matrix: (Units=1/GPa)
#
#
# Indices 1 2 3 4 5 6 
#
# 1 0.058191 -0.009856 -0.012625 0.000003 -0.008820 0.000002
# 2 -0.009856 0.015212 -0.003506 -0.000001 0.005073 0.000000
# 3 -0.012625 -0.003506 0.013945 -0.000003 -0.001938 -0.000002
# 4 0.000003 -0.000001 -0.000003 0.066928 -0.000003 0.013740
# 5 -0.008820 0.005073 -0.001938 -0.000003 0.037290 -0.000002
# 6 0.000002 0.000000 -0.000002 0.013740 -0.000002 0.059141
#
#
# Mechanical properties :
#
#
# Convention : Reuss Voigt Hill
#
# Bulk Modulus (GPa) = 28.26810 49.86292 39.06551
# Shear Modulus (GPa) = 15.89971 21.42434 18.66202
#
# Velocity S-wave (km/s) = 3.17014 3.67991 3.43450
# Velocity P-wave (km/s) = 5.59171 7.04079 6.35767
#
# Compressibility (1/GPa) = 0.03537557
#
# Stress axis : x y z
#
# Youngs Moduli (GPa) = 17.18491 65.73849 71.70793
#
# Poissons Ratio (x) = 0.64790 0.90529
# Poissons Ratio (y) = 0.16937 0.25138
# Poissons Ratio (z) = 0.21695 0.23046
#
# Static dielectric constant tensor:
#      x y z
#    x 2.796860 0.000000 0.041100 
#    y 0.000000 3.249630 0.000000 
#    z 0.041100 0.000000 3.305840 
# 
# 
# High freq. dielectric constant tensor:
#      x y z
#    x 1.566240 0.000000 0.016770 
#    y 0.000000 1.585830 0.000000 
#    z 0.016770 0.000000 1.617450 
# 
# From -- ./inp_files/285028.got.cif
#   From: 2010.06.25/outbox.cif.g09.slc.cpg/sg12_143_cif.got.tgz:285028.got - 2010.06.28 00:19:55.
