data_PCOD8078008
_publ_section_title
;
Structure prediction by ZEFSAII (Michael W. Deem and Ramdas Pophale) SiO2 
 PCOD8078008
Probable space group: P 21/M
;
_chemical_formula_sum "Si O2"
_cell_formula_units_Z 32
_cell_length_a 30.000000
_cell_length_b 9.000000
_cell_length_c 12.000000
_cell_angle_alpha 90.000000
_cell_angle_beta 30.000000
_cell_angle_gamma 90.000000
_cell_volume 1620.000000
_symmetry_space_group_name_H-M "P 21/M"
_symmetry_group_IT_number 11
_symmetry_cell_setting 'monoclinic'
loop_
_space_group_symop_operation_xyz
x,y,z
-x,1/2+y,-z
-x,-y,-z
x,1/2-y,z
loop_
_atom_site_type_symbol
_atom_site_label
_atom_site_fract_x
_atom_site_fract_y
_atom_site_fract_z
Si Si1 0.274624 0.416344 0.872955
Si Si2 0.122918 0.078613 0.710824
Si Si3 0.072082 0.072007 0.260292
Si Si4 0.528954 0.084813 0.043516
Si Si5 0.041314 0.924358 0.088715
Si Si6 0.448159 0.580543 0.423900
Si Si7 0.285295 0.913376 0.275099
Si Si8 0.633500 0.914495 0.093072
O O1 0.277119 0.250000 0.819061
O O2 0.351628 0.508303 0.646405
O O3 0.302203 0.419876 0.940997
O O4 0.173420 0.478009 0.074516
O O5 0.115866 0.250000 0.760926
O O6 0.053513 0.040101 0.762886
O O7 0.218155 0.042106 0.454242
O O8 0.113394 0.979468 0.842458
O O9 0.062461 0.250000 0.286729
O O10 0.050679 0.014983 0.182561
O O11 0.000000 0.000000 0.500000
O O12 0.487509 0.250000 0.139670
O O13 0.635862 0.093420 0.806064
O O14 0.500000 0.000000 0.000000
O O15 0.495979 0.987129 0.215378
O O16 0.054502 0.750000 0.084562
O O17 0.424561 0.750000 0.455071
O O18 0.526386 0.560612 0.349911
O O19 0.239518 0.750000 0.364535
O O20 0.329108 0.953757 0.062737
O O21 0.642537 0.750000 0.017950
#
# Coordination Sequence:
#
# PCOD8078008 Si02
#       8
#     4   4   4   4   4   4   4   4
#     4  10  22  39  59  83 114 155 195 235 290 346
#     4  10  21  38  63  90 116 151 193 243 301 356
#     4  11  25  43  62  87 121 160 202 247 298 355
#     4  10  21  37  56  80 114 152 189 231 282 340
#     4  10  22  41  63  87 117 151 194 247 300 354
#     4  10  20  35  58  86 115 148 190 238 287 342
#     4  10  21  35  55  86 117 148 190 238 288 345
#     4   9  19  36  57  84 118 153 192 239 288 344
#
# _framework density 19.753086
#
# number of rings (size 3 to 8) (size 9 to 14) (size 15 to 20)
#    0.000    2.000    0.000    2.625    1.750    6.000 
#    0.000    0.000    0.000    0.000    0.000    0.000 
#    0.000    0.000    0.000    0.000    0.000    0.000 
#
# Total GULP energy -396501.177728 kJ/mol
# GULP energy per Si atom -12390.661804 kJ/mol
# Density = 1.970813 g / cm^3
# Si number density = 19.753086 Si / 1000 Ang^3
#
#
#
# Elastic Constant Matrix: (Units=GPa)
#
#
# Indices 1 2 3 4 5 6 
#
# 1 108.9839 46.9063 47.7870 0.0000 -7.7537 0.0000
# 2 46.9063 61.7224 48.1612 0.0000 -4.9281 0.0000
# 3 47.7870 48.1612 121.6965 0.0000 -21.7025 0.0000
# 4 0.0000 0.0000 0.0000 35.9203 0.0000 3.6074
# 5 -7.7537 -4.9281 -21.7025 0.0000 19.3705 0.0000
# 6 0.0000 0.0000 0.0000 3.6074 0.0000 28.4837
#
#
#
# Elastic Compliance Matrix: (Units=1/GPa)
#
#
# Indices 1 2 3 4 5 6 
#
# 1 0.013952 -0.009284 -0.001537 0.000000 0.001501 0.000000
# 2 -0.009284 0.030102 -0.009453 0.000000 -0.006649 0.000000
# 3 -0.001537 -0.009453 0.015025 0.000000 0.013814 0.000000
# 4 0.000000 0.000000 0.000000 0.028198 0.000000 -0.003571
# 5 0.001501 -0.006649 0.013814 0.000000 0.066011 0.000000
# 6 0.000000 0.000000 0.000000 -0.003571 0.000000 0.035560
#
#
# Mechanical properties :
#
#
# Convention : Reuss Voigt Hill
#
# Bulk Modulus (GPa) = 53.96145 64.23464 59.09805
# Shear Modulus (GPa) = 21.22479 26.72479 23.97479
#
# Velocity S-wave (km/s) = 3.28152 3.68223 3.48763
# Velocity P-wave (km/s) = 6.46027 7.11813 6.79717
#
# Compressibility (1/GPa) = 0.01853175
#
# Stress axis : x y z
#
# Youngs Moduli (GPa) = 71.67374 33.22018 66.55517
#
# Poissons Ratio (x) = 0.30842 0.10228
# Poissons Ratio (y) = 0.66542 0.62915
# Poissons Ratio (z) = 0.11015 0.31403
#
# Static dielectric constant tensor:
#      x y z
#    x 3.253490 0.000000 -0.281890 
#    y 0.000000 4.057090 0.000000 
#    z -0.281890 0.000000 3.582740 
# 
# 
# High freq. dielectric constant tensor:
#      x y z
#    x 1.767930 0.000000 -0.013740 
#    y 0.000000 1.784140 0.000000 
#    z -0.013740 0.000000 1.766140 
# 
# From -- ./inp_files/45221.got.cif
#   From: 2010.06.25/outbox.ucp.g09.slc.cvg/sg11_23_cif.got.tgz:45221.got - 2010.06.28 13:43:20.
