data_PCOD8078657
_publ_section_title
;
Structure prediction by ZEFSAII (Michael W. Deem and Ramdas Pophale) SiO2 
 PCOD8078657
Probable space group: C 2/M
;
_chemical_formula_sum "Si O2"
_cell_formula_units_Z 64
_cell_length_a 28.600014
_cell_length_b 8.971269
_cell_length_c 22.872221
_cell_angle_alpha 90.000000
_cell_angle_beta 135.289798
_cell_angle_gamma 90.000000
_cell_volume 4128.627365
_symmetry_space_group_name_H-M "C 2/M"
_symmetry_group_IT_number 12
_symmetry_cell_setting 'monoclinic'
loop_
_space_group_symop_operation_xyz
x,y,z
-x,y,-z
-x,-y,-z
x,-y,z
1/2+x,1/2+y,z
1/2-x,1/2+y,-z
1/2-x,1/2-y,-z
1/2+x,1/2-y,z
loop_
_atom_site_type_symbol
_atom_site_label
_atom_site_fract_x
_atom_site_fract_y
_atom_site_fract_z
Si Si1 0.763188 0.329454 0.571172
Si Si2 0.595087 0.175507 0.324759
Si Si3 0.536672 0.326757 0.812692
Si Si4 0.839025 0.668122 0.034352
Si Si5 0.282952 0.831872 0.114678
Si Si6 0.489487 0.827683 0.558821
Si Si7 0.377149 0.324220 0.525953
Si Si8 0.408096 0.673550 0.266734
O O1 0.758628 0.500000 0.550418
O O2 0.750000 0.250000 0.500000
O O3 0.839272 0.293102 0.658066
O O4 0.701340 0.291725 0.559580
O O5 0.533030 0.246504 0.235729
O O6 0.602948 0.253398 0.394454
O O7 0.583114 0.000000 0.323667
O O8 0.531035 0.500000 0.822356
O O9 0.591545 0.256142 0.904233
O O10 0.555240 0.298109 0.761897
O O11 0.850766 0.500000 0.022669
O O12 0.808654 0.668028 0.071658
O O13 0.788168 0.749785 0.945198
O O14 0.334798 0.744679 0.201572
O O15 0.274858 0.000000 0.130838
O O16 0.500000 0.805611 0.500000
O O17 0.419880 0.750341 0.513026
O O18 0.550249 0.750570 0.645656
O O19 0.486966 0.000000 0.574760
O O20 0.392988 0.500000 0.542842
O O21 0.400851 0.500000 0.273931
#
# Coordination Sequence:
#
# PCOD8078657 Si02
#       8
#     8   8   8   8   8   8   8   8
#     4   8  16  27  40  59  80 103 133 167 204 246
#     4  10  17  26  41  60  83 110 138 169 205 247
#     4  10  18  26  38  58  83 110 140 173 206 243
#     4   9  16  25  37  55  78 106 138 169 202 241
#     4   9  16  26  40  56  77 103 134 170 205 244
#     4  11  23  35  46  61  81 106 140 181 222 259
#     4  10  18  30  45  60  79 104 136 174 212 252
#     4  10  19  30  44  59  77 104 138 175 212 251
#
# _framework density 15.501521
#
# number of rings (size 3 to 8) (size 9 to 14) (size 15 to 20)
#    0.000    2.375    1.250    2.625    0.000    6.000 
#    0.000    0.000    0.000    0.000    0.000    0.000 
#    0.000    0.000    0.000    1.125    0.000   21.750 
#
# Total GULP energy -396588.680173 kJ/mol
# GULP energy per Si atom -12393.396255 kJ/mol
# Density = 1.546624 g / cm^3
# Si number density = 15.501521 Si / 1000 Ang^3
#
#
#
# Elastic Constant Matrix: (Units=GPa)
#
#
# Indices 1 2 3 4 5 6 
#
# 1 69.9815 49.2781 52.2880 0.0000 30.3182 0.0000
# 2 49.2781 124.5089 59.7486 0.0000 25.1983 0.0000
# 3 52.2880 59.7486 87.1894 0.0000 36.6333 0.0000
# 4 0.0000 0.0000 0.0000 26.3025 0.0000 8.1651
# 5 30.3182 25.1983 36.6333 0.0000 28.6269 0.0000
# 6 0.0000 0.0000 0.0000 8.1651 0.0000 17.9596
#
#
#
# Elastic Compliance Matrix: (Units=1/GPa)
#
#
# Indices 1 2 3 4 5 6 
#
# 1 0.032038 -0.005133 -0.007220 0.000000 -0.020174 0.000000
# 2 -0.005133 0.012789 -0.007008 0.000000 0.003146 0.000000
# 3 -0.007220 -0.007008 0.032005 0.000000 -0.027141 0.000000
# 4 0.000000 0.000000 0.000000 0.044267 0.000000 -0.020125
# 5 -0.020174 0.003146 -0.027141 0.000000 0.088260 0.000000
# 6 0.000000 0.000000 0.000000 -0.020125 0.000000 0.064830
#
#
# Mechanical properties :
#
#
# Convention : Reuss Voigt Hill
#
# Bulk Modulus (GPa) = 26.23915 67.14549 46.69232
# Shear Modulus (GPa) = 15.35560 22.60213 18.97886
#
# Velocity S-wave (km/s) = 3.15077 3.82260 3.50283
# Velocity P-wave (km/s) = 5.49546 7.93048 6.82248
#
# Compressibility (1/GPa) = 0.03811099
#
# Stress axis : x y z
#
# Youngs Moduli (GPa) = 31.21272 78.19163 31.24501
#
# Poissons Ratio (x) = 0.40132 0.22559
# Poissons Ratio (y) = 0.16020 0.21897
# Poissons Ratio (z) = 0.22536 0.54797
#
# Static dielectric constant tensor:
#      x y z
#    x 2.985970 0.000000 0.581590 
#    y 0.000000 3.139130 0.000000 
#    z 0.581590 0.000000 2.882900 
# 
# 
# High freq. dielectric constant tensor:
#      x y z
#    x 1.553670 0.000000 0.054180 
#    y 0.000000 1.618380 0.000000 
#    z 0.054180 0.000000 1.568700 
# 
# From -- ./inp_files/326958.got.cif
#   From: 2010.06.25/outbox.cif.g09.slc.cpg/sg12_164_cif.got.tgz:326958.got - 2010.06.28 00:19:55.
