data_PCOD8078068
_publ_section_title
;
Structure prediction by ZEFSAII (Michael W. Deem and Ramdas Pophale) SiO2 
 PCOD8078068
Probable space group: C 2/M
;
_chemical_formula_sum "Si O2"
_cell_formula_units_Z 64
_cell_length_a 17.501865
_cell_length_b 20.798958
_cell_length_c 20.635480
_cell_angle_alpha 90.000000
_cell_angle_beta 148.977652
_cell_angle_gamma 90.000000
_cell_volume 3871.342675
_symmetry_space_group_name_H-M "C 2/M"
_symmetry_group_IT_number 12
_symmetry_cell_setting 'monoclinic'
loop_
_space_group_symop_operation_xyz
x,y,z
-x,y,-z
-x,-y,-z
x,-y,z
1/2+x,1/2+y,z
1/2-x,1/2+y,-z
1/2-x,1/2-y,-z
1/2+x,1/2-y,z
loop_
_atom_site_type_symbol
_atom_site_label
_atom_site_fract_x
_atom_site_fract_y
_atom_site_fract_z
Si Si1 0.183105 0.848046 0.373732
Si Si2 0.443175 0.182355 0.655507
Si Si3 0.704916 0.166755 0.765571
Si Si4 0.894623 0.278222 0.755937
Si Si5 0.391017 0.238507 0.975318
Si Si6 0.827286 0.575027 0.369069
Si Si7 0.370420 0.701112 0.356415
Si Si8 0.579829 0.320117 0.742563
O O1 0.287497 0.839045 0.512195
O O2 0.187636 0.783836 0.333441
O O3 0.241817 0.906394 0.372678
O O4 0.015471 0.865839 0.278336
O O5 0.575532 0.140779 0.719446
O O6 0.444569 0.173655 0.734709
O O7 0.475553 0.257055 0.665310
O O8 0.841985 0.192419 0.908976
O O9 0.748851 0.110339 0.747996
O O10 0.642503 0.226046 0.678134
O O11 0.782651 0.318168 0.720007
O O12 0.030266 0.252662 0.898405
O O13 0.247105 0.194929 0.887487
O O14 0.500000 0.206532 0.000000
O O15 0.808476 0.500000 0.343627
O O16 0.000000 0.595045 0.500000
O O17 0.500000 0.692973 0.500000
O O18 0.404234 0.654191 0.319731
#
# Coordination Sequence:
#
# PCOD8078068 Si02
#       8
#     8   8   8   8   8   8   8   8
#     4  11  18  31  44  66  98 118 160 209 246 273
#     4   9  18  27  41  65  92 120 158 197 231 289
#     4  10  18  30  44  62  94 128 160 201 238 271
#     4  11  17  26  46  66  94 135 159 185 228 290
#     4  10  17  30  42  66  98 135 163 180 223 286
#     4  11  21  33  53  72  89 126 175 213 249 286
#     4  10  15  24  42  64  92 127 153 180 233 291
#     4   9  19  25  40  64  92 130 152 189 226 285
#
# _framework density 16.531732000000002
#
# number of rings (size 3 to 8) (size 9 to 14) (size 15 to 20)
#    0.000    2.125    5.000    4.125    0.000    4.500 
#    0.000    0.000    0.000    3.375    0.000    0.000 
#    0.000    6.000    0.000    0.000    0.000    0.500 
#
# Total GULP energy -396417.929879 kJ/mol
# GULP energy per Si atom -12388.060309 kJ/mol
# Density = 1.649411 g / cm^3
# Si number density = 16.531732 Si / 1000 Ang^3
#
#
#
# Elastic Constant Matrix: (Units=GPa)
#
#
# Indices 1 2 3 4 5 6 
#
# 1 156.4906 23.5221 50.7022 -0.0003 5.3730 -0.0004
# 2 23.5221 27.3870 17.5715 0.0000 -2.5177 -0.0012
# 3 50.7022 17.5715 116.2226 -0.0027 -8.5574 -0.0048
# 4 -0.0003 0.0000 -0.0027 8.8161 -0.0023 -0.1919
# 5 5.3730 -2.5177 -8.5574 -0.0023 35.8143 -0.0022
# 6 -0.0004 -0.0012 -0.0048 -0.1919 -0.0022 13.6174
#
#
#
# Elastic Compliance Matrix: (Units=1/GPa)
#
#
# Indices 1 2 3 4 5 6 
#
# 1 0.008236 -0.005395 -0.002948 -0.000001 -0.002319 -0.000002
# 2 -0.005395 0.044040 -0.004089 -0.000001 0.002928 0.000003
# 3 -0.002948 -0.004089 0.010708 0.000004 0.002713 0.000004
# 4 -0.000001 -0.000001 0.000004 0.113463 0.000008 0.001599
# 5 -0.002319 0.002928 0.002713 0.000008 0.029124 0.000006
# 6 -0.000002 0.000003 0.000004 0.001599 0.000006 0.073458
#
#
# Mechanical properties :
#
#
# Convention : Reuss Voigt Hill
#
# Bulk Modulus (GPa) = 26.23314 53.74351 39.98833
# Shear Modulus (GPa) = 15.79274 25.53653 20.66464
#
# Velocity S-wave (km/s) = 3.09414 3.93453 3.53937
# Velocity P-wave (km/s) = 5.35423 7.29524 6.39876
#
# Compressibility (1/GPa) = 0.03811972
#
# Stress axis : x y z
#
# Youngs Moduli (GPa) = 121.41962 22.70644 93.38624
#
# Poissons Ratio (x) = 0.12251 0.27530
# Poissons Ratio (y) = 0.65511 0.38186
# Poissons Ratio (z) = 0.35794 0.09285
#
# Static dielectric constant tensor:
#      x y z
#    x 4.058900 0.000000 0.027120 
#    y 0.000000 2.425690 -0.000010 
#    z 0.027120 -0.000010 3.162450 
# 
# 
# High freq. dielectric constant tensor:
#      x y z
#    x 1.671560 0.000000 0.002650 
#    y 0.000000 1.533850 0.000000 
#    z 0.002650 0.000000 1.641100 
# 
# From -- ./inp_files/318177.got.cif
#   From: 2010.06.25/outbox.cif.g09.slc.cpg/sg12_160_cif.got.tgz:318177.got - 2010.06.28 00:19:55.
