data_PCOD8078382
_publ_section_title
;
Structure prediction by ZEFSAII (Michael W. Deem and Ramdas Pophale) SiO2 
 PCOD8078382
Probable space group: C 2/M
;
_chemical_formula_sum "Si O2"
_cell_formula_units_Z 36
_cell_length_a 8.934046
_cell_length_b 20.543586
_cell_length_c 10.843825
_cell_angle_alpha 90.000000
_cell_angle_beta 65.977453
_cell_angle_gamma 90.000000
_cell_volume 1817.862246
_symmetry_space_group_name_H-M "C 2/M"
_symmetry_group_IT_number 12
_symmetry_cell_setting 'monoclinic'
loop_
_space_group_symop_operation_xyz
x,y,z
-x,y,-z
-x,-y,-z
x,-y,z
1/2+x,1/2+y,z
1/2-x,1/2+y,-z
1/2-x,1/2-y,-z
1/2+x,1/2-y,z
loop_
_atom_site_type_symbol
_atom_site_label
_atom_site_fract_x
_atom_site_fract_y
_atom_site_fract_z
Si Si1 0.000000 0.239148 0.500000
Si Si2 0.248993 0.926617 0.339265
Si Si3 0.983376 0.324050 0.144170
Si Si4 0.406318 0.621852 0.376549
Si Si5 0.754759 0.199474 0.237159
O O1 0.098899 0.193862 0.561677
O O2 0.120380 0.284590 0.384467
O O3 0.394441 0.878069 0.256700
O O4 0.209755 0.923115 0.499180
O O5 0.089014 0.907203 0.313122
O O6 0.301490 0.000000 0.289187
O O7 0.885925 0.256381 0.175189
O O8 0.165768 0.313918 0.137298
O O9 0.000000 0.350545 0.000000
O O10 0.343038 0.633015 0.257748
#
# Coordination Sequence:
#
# PCOD8078382 Si02
#       5
#     4   8   8   8   8
#     4  10  16  30  57  82 117 132 166 222 292 336
#     4  10  21  40  59  81 113 149 188 227 274 330
#     4  12  24  37  55  81 116 156 188 225 271 329
#     4  10  18  34  61  87 109 138 176 231 294 333
#     4  12  20  36  57  88 116 139 181 233 290 340
#
# _framework density 19.803481999999999
#
# number of rings (size 3 to 8) (size 9 to 14) (size 15 to 20)
#    0.000    1.333    6.667    4.000    0.000    0.444 
#    0.000    3.333    0.000    1.333    0.000    0.000 
#    0.000    0.000    0.000    0.000    0.000    0.000 
#
# Total GULP energy -223171.069213 kJ/mol
# GULP energy per Si atom -12398.392734 kJ/mol
# Density = 1.975841 g / cm^3
# Si number density = 19.803482 Si / 1000 Ang^3
#
#
#
# Elastic Constant Matrix: (Units=GPa)
#
#
# Indices 1 2 3 4 5 6 
#
# 1 108.6580 37.7312 25.2750 0.0000 33.3499 0.0000
# 2 37.7312 88.3943 7.7983 0.0000 8.0729 0.0000
# 3 25.2750 7.7983 37.4513 0.0000 5.9228 0.0000
# 4 0.0000 0.0000 0.0000 7.0558 0.0000 3.3354
# 5 33.3499 8.0729 5.9228 0.0000 23.1213 0.0000
# 6 0.0000 0.0000 0.0000 3.3354 0.0000 9.8689
#
#
#
# Elastic Compliance Matrix: (Units=1/GPa)
#
#
# Indices 1 2 3 4 5 6 
#
# 1 0.021605 -0.005976 -0.009107 0.000000 -0.026743 0.000000
# 2 -0.005976 0.013465 0.000636 0.000000 0.003756 0.000000
# 3 -0.009107 0.000636 0.031968 0.000000 0.004725 0.000000
# 4 0.000000 0.000000 0.000000 0.168674 0.000000 -0.057007
# 5 -0.026743 0.003756 0.004725 0.000000 0.079303 0.000000
# 6 0.000000 0.000000 0.000000 -0.057007 0.000000 0.120595
#
#
# Mechanical properties :
#
#
# Convention : Reuss Voigt Hill
#
# Bulk Modulus (GPa) = 26.21757 41.79030 34.00393
# Shear Modulus (GPa) = 10.47736 18.92247 14.69992
#
# Velocity S-wave (km/s) = 2.30264 3.09449 2.72745
# Velocity P-wave (km/s) = 4.50967 5.82376 5.20832
#
# Compressibility (1/GPa) = 0.03814236
#
# Stress axis : x y z
#
# Youngs Moduli (GPa) = 46.28550 74.26758 31.28146
#
# Poissons Ratio (x) = 0.44384 0.28488
# Poissons Ratio (y) = 0.27661 -0.01988
# Poissons Ratio (z) = 0.42152 -0.04720
#
# Static dielectric constant tensor:
#      x y z
#    x 3.890200 0.000000 0.103100 
#    y 0.000000 3.372730 0.000000 
#    z 0.103100 0.000000 3.487960 
# 
# 
# High freq. dielectric constant tensor:
#      x y z
#    x 1.775860 0.000000 -0.001040 
#    y 0.000000 1.745520 0.000000 
#    z -0.001040 0.000000 1.749810 
# 
# From -- ./inp_files/119659.got.cif
#   From: 2010.06.25/outbox.cif.g09.slc.cpg/sg12_60_cif.got.tgz:119659.got - 2010.06.28 00:19:55.
