data_PCOD8078969
_publ_section_title
;
Structure prediction by ZEFSAII (Michael W. Deem and Ramdas Pophale) SiO2 
 PCOD8078969
Probable space group: C 2/M
;
_chemical_formula_sum "Si O2"
_cell_formula_units_Z 56
_cell_length_a 28.797223
_cell_length_b 9.294249
_cell_length_c 17.043023
_cell_angle_alpha 90.000000
_cell_angle_beta 129.534227
_cell_angle_gamma 90.000000
_cell_volume 3518.062945
_symmetry_space_group_name_H-M "C 2/M"
_symmetry_group_IT_number 12
_symmetry_cell_setting 'monoclinic'
loop_
_space_group_symop_operation_xyz
x,y,z
-x,y,-z
-x,-y,-z
x,-y,z
1/2+x,1/2+y,z
1/2-x,1/2+y,-z
1/2-x,1/2-y,-z
1/2+x,1/2-y,z
loop_
_atom_site_type_symbol
_atom_site_label
_atom_site_fract_x
_atom_site_fract_y
_atom_site_fract_z
Si Si1 0.032019 0.167371 0.274990
Si Si2 0.715087 0.166138 0.641096
Si Si3 0.593186 0.169902 0.583426
Si Si4 0.015929 0.330369 0.641812
Si Si5 0.450580 0.332969 0.883525
Si Si6 0.350009 0.161808 0.586593
Si Si7 0.670049 0.834288 0.257254
O O1 0.980938 0.247953 0.271533
O O2 0.021320 0.200232 0.171720
O O3 0.097063 0.225336 0.370612
O O4 0.028925 0.000000 0.290472
O O5 0.659568 0.228228 0.633503
O O6 0.700467 0.185605 0.533365
O O7 0.773975 0.258150 0.725668
O O8 0.728331 0.000000 0.675347
O O9 0.543719 0.224786 0.467954
O O10 0.573973 0.213155 0.651308
O O11 0.593626 0.000000 0.575245
O O12 0.014914 0.500000 0.656282
O O13 0.432461 0.500000 0.870914
O O14 0.391579 0.239427 0.836617
O O15 0.500000 0.287772 0.000000
O O16 0.320253 0.184776 0.639284
O O17 0.377089 0.000000 0.608797
O O18 0.667996 0.000000 0.229568
#
# Coordination Sequence:
#
# PCOD8078969 Si02
#       7
#     8   8   8   8   8   8   8
#     4  10  18  27  44  69  92 114 145 187 231 268
#     4  10  17  28  44  62  87 124 161 183 207 251
#     4   8  15  26  44  63  84 122 165 190 205 246
#     4   9  15  28  45  62  87 121 158 189 217 254
#     4   9  19  36  53  67  86 115 150 185 223 273
#     4   9  17  29  43  59  86 124 158 182 208 255
#     4  10  20  30  43  67  93 116 145 184 230 269
#
# _framework density 15.917851000000001
#
# number of rings (size 3 to 8) (size 9 to 14) (size 15 to 20)
#    0.000    2.714    1.429    2.143    0.000    2.000 
#    0.000    2.143    0.000    0.000    0.000    1.000 
#    0.000    0.000    0.000    0.000    0.000    0.000 
#
# Total GULP energy -347096.754966 kJ/mol
# GULP energy per Si atom -12396.312677 kJ/mol
# Density = 1.588162 g / cm^3
# Si number density = 15.917851 Si / 1000 Ang^3
#
#
#
# Elastic Constant Matrix: (Units=GPa)
#
#
# Indices 1 2 3 4 5 6 
#
# 1 129.5931 55.7544 49.0807 0.0000 5.3257 0.0000
# 2 55.7544 72.7462 40.1902 0.0000 4.5052 0.0000
# 3 49.0807 40.1902 65.0861 0.0000 5.3290 0.0000
# 4 0.0000 0.0000 0.0000 18.2828 0.0000 -0.3276
# 5 5.3257 4.5052 5.3290 0.0000 15.4631 0.0000
# 6 0.0000 0.0000 0.0000 -0.3276 0.0000 26.0078
#
#
#
# Elastic Compliance Matrix: (Units=1/GPa)
#
#
# Indices 1 2 3 4 5 6 
#
# 1 0.012652 -0.006703 -0.005356 0.000000 -0.000559 0.000000
# 2 -0.006703 0.024458 -0.009934 0.000000 -0.001394 0.000000
# 3 -0.005356 -0.009934 0.025879 0.000000 -0.004180 0.000000
# 4 0.000000 0.000000 0.000000 0.054709 0.000000 0.000689
# 5 -0.000559 -0.001394 -0.004180 0.000000 0.066709 0.000000
# 6 0.000000 0.000000 0.000000 0.000689 0.000000 0.038459
#
#
# Mechanical properties :
#
#
# Convention : Reuss Voigt Hill
#
# Bulk Modulus (GPa) = 52.62082 61.94178 57.28130
# Shear Modulus (GPa) = 18.30257 20.11074 19.20665
#
# Velocity S-wave (km/s) = 3.39457 3.55830 3.47740
# Velocity P-wave (km/s) = 6.96374 7.47529 7.22404
#
# Compressibility (1/GPa) = 0.01900389
#
# Stress axis : x y z
#
# Youngs Moduli (GPa) = 79.04160 40.88577 38.64095
#
# Poissons Ratio (x) = 0.27406 0.20694
# Poissons Ratio (y) = 0.52982 0.38386
# Poissons Ratio (z) = 0.42331 0.40616
#
# Static dielectric constant tensor:
#      x y z
#    x 3.243210 0.000000 -0.148210 
#    y 0.000000 2.944440 0.000000 
#    z -0.148210 0.000000 2.694270 
# 
# 
# High freq. dielectric constant tensor:
#      x y z
#    x 1.614350 0.000000 -0.008570 
#    y 0.000000 1.603390 0.000000 
#    z -0.008570 0.000000 1.564270 
# 
# From -- ./inp_files/249267.got.cif
#   From: 2010.06.25/outbox.cif.g09.slc.cpg/sg12_125_cif.got.tgz:249267.got - 2010.06.28 00:19:55.
