data_PCOD8078904
_publ_section_title
;
Structure prediction by ZEFSAII (Michael W. Deem and Ramdas Pophale) SiO2 
 PCOD8078904
Probable space group: C 2/M
;
_chemical_formula_sum "Si O2"
_cell_formula_units_Z 64
_cell_length_a 19.380606
_cell_length_b 8.657672
_cell_length_c 26.586817
_cell_angle_alpha 90.000000
_cell_angle_beta 48.045189
_cell_angle_gamma 90.000000
_cell_volume 3317.542180
_symmetry_space_group_name_H-M "C 2/M"
_symmetry_group_IT_number 12
_symmetry_cell_setting 'monoclinic'
loop_
_space_group_symop_operation_xyz
x,y,z
-x,y,-z
-x,-y,-z
x,-y,z
1/2+x,1/2+y,z
1/2-x,1/2+y,-z
1/2-x,1/2-y,-z
1/2+x,1/2-y,z
loop_
_atom_site_type_symbol
_atom_site_label
_atom_site_fract_x
_atom_site_fract_y
_atom_site_fract_z
Si Si1 0.249947 0.181252 0.055336
Si Si2 0.449141 0.180319 0.163063
Si Si3 0.076442 0.321410 0.194842
Si Si4 0.560890 0.321482 0.018601
Si Si5 0.869145 0.181313 0.574102
Si Si6 0.463295 0.817920 0.443777
Si Si7 0.436028 0.682023 0.691924
Si Si8 0.256383 0.318501 0.720812
O O1 0.173015 0.263252 0.125931
O O2 0.230474 0.000000 0.062877
O O3 0.250000 0.250000 0.000000
O O4 0.349029 0.215121 0.031898
O O5 0.494027 0.206254 0.195666
O O6 0.505392 0.279249 0.095668
O O7 0.344347 0.248351 0.215503
O O8 0.452997 0.000000 0.146150
O O9 0.086678 0.500000 0.204052
O O10 0.052089 0.225839 0.256181
O O11 0.590571 0.500000 0.007479
O O12 0.500000 0.285718 0.000000
O O13 0.869298 0.256628 0.517883
O O14 0.776869 0.219108 0.651710
O O15 0.952137 0.253501 0.565349
O O16 0.884689 0.000000 0.561314
O O17 0.476286 0.754613 0.380866
O O18 0.461494 0.000000 0.443544
O O19 0.439935 0.500000 0.682974
O O20 0.337740 0.747247 0.717612
O O21 0.251807 0.500000 0.730695
#
# Coordination Sequence:
#
# PCOD8078904 Si02
#       8
#     8   8   8   8   8   8   8   8
#     4  12  24  41  64  86 112 149 191 235 279 337
#     4  10  21  39  60  81 110 150 189 225 277 342
#     4  11  23  38  58  84 114 148 185 231 280 332
#     4  11  25  42  60  87 118 147 186 237 286 334
#     4   9  15  27  48  74 107 144 182 226 275 332
#     4  10  17  27  46  75 110 142 180 228 277 331
#     4  10  20  35  55  81 111 146 187 232 278 331
#     4   8  17  33  54  81 108 141 186 228 273 332
#
# _framework density 19.291388999999999
#
# number of rings (size 3 to 8) (size 9 to 14) (size 15 to 20)
#    0.000    1.875    1.250    5.250    1.750    1.500 
#    0.000    3.125    0.000    0.750    0.000    0.000 
#    0.000    0.000    0.000    0.000    0.000    0.000 
#
# Total GULP energy -396699.512057 kJ/mol
# GULP energy per Si atom -12396.859752 kJ/mol
# Density = 1.924748 g / cm^3
# Si number density = 19.291389 Si / 1000 Ang^3
#
#
#
# Elastic Constant Matrix: (Units=GPa)
#
#
# Indices 1 2 3 4 5 6 
#
# 1 56.8992 18.2821 9.8816 -0.0001 8.0292 0.0003
# 2 18.2821 74.7681 16.2129 -0.0012 4.6179 -0.0018
# 3 9.8816 16.2129 67.2722 0.0002 23.1665 0.0002
# 4 -0.0001 -0.0012 0.0002 27.3644 -0.0001 7.9764
# 5 8.0292 4.6179 23.1665 -0.0001 24.9388 -0.0002
# 6 0.0003 -0.0018 0.0002 7.9764 -0.0002 19.1893
#
#
#
# Elastic Compliance Matrix: (Units=1/GPa)
#
#
# Indices 1 2 3 4 5 6 
#
# 1 0.019804 -0.004521 0.000129 0.000000 -0.005659 -0.000001
# 2 -0.004521 0.015155 -0.003710 0.000000 0.002096 0.000001
# 3 0.000129 -0.003710 0.022817 0.000000 -0.020550 -0.000001
# 4 0.000000 0.000000 0.000000 0.041582 0.000000 -0.017284
# 5 -0.005659 0.002096 -0.020550 0.000000 0.060622 0.000001
# 6 -0.000001 0.000001 -0.000001 -0.017284 0.000001 0.059297
#
#
# Mechanical properties :
#
#
# Convention : Reuss Voigt Hill
#
# Bulk Modulus (GPa) = 24.05430 31.96584 28.01007
# Shear Modulus (GPa) = 20.05317 24.60271 22.32794
#
# Velocity S-wave (km/s) = 3.22761 3.57504 3.40576
# Velocity P-wave (km/s) = 5.13672 5.80062 5.47874
#
# Compressibility (1/GPa) = 0.04157261
#
# Stress axis : x y z
#
# Youngs Moduli (GPa) = 50.49587 65.98399 43.82699
#
# Poissons Ratio (x) = 0.29830 -0.00567
# Poissons Ratio (y) = 0.22829 0.16260
# Poissons Ratio (z) = -0.00653 0.24481
#
# Static dielectric constant tensor:
#      x y z
#    x 3.343150 0.000000 -0.220560 
#    y 0.000000 3.328420 0.000000 
#    z -0.220560 0.000000 4.235730 
# 
# 
# High freq. dielectric constant tensor:
#      x y z
#    x 1.716500 0.000000 0.006170 
#    y 0.000000 1.750160 0.000000 
#    z 0.006170 0.000000 1.771810 
# 
# From -- ./inp_files/365200.got.cif
#   From: 2010.06.25/outbox.cif.g09.slc.cpg/sg12_183_cif.got.tgz:365200.got - 2010.06.28 00:19:55.
