data_PCOD8078318
_publ_section_title
;
Structure prediction by ZEFSAII (Michael W. Deem and Ramdas Pophale) SiO2 
 PCOD8078318
Probable space group: C 2/M
;
_chemical_formula_sum "Si O2"
_cell_formula_units_Z 40
_cell_length_a 14.077035
_cell_length_b 17.808501
_cell_length_c 7.283784
_cell_angle_alpha 90.000000
_cell_angle_beta 109.506294
_cell_angle_gamma 90.000000
_cell_volume 1721.175947
_symmetry_space_group_name_H-M "C 2/M"
_symmetry_group_IT_number 12
_symmetry_cell_setting 'monoclinic'
loop_
_space_group_symop_operation_xyz
x,y,z
-x,y,-z
-x,-y,-z
x,-y,z
1/2+x,1/2+y,z
1/2-x,1/2+y,-z
1/2-x,1/2-y,-z
1/2+x,1/2-y,z
loop_
_atom_site_type_symbol
_atom_site_label
_atom_site_fract_x
_atom_site_fract_y
_atom_site_fract_z
Si Si1 0.947976 0.234986 0.145305
Si Si2 0.388212 0.795258 0.525065
Si Si3 0.038160 0.082723 0.319669
Si Si4 0.229050 0.275835 0.201398
Si Si5 0.261190 0.914802 0.583993
O O1 0.991135 0.284010 0.350861
O O2 0.979236 0.147340 0.171413
O O3 0.000000 0.272730 0.000000
O O4 0.826674 0.243765 0.020616
O O5 0.344499 0.755493 0.310291
O O6 0.336614 0.748227 0.663128
O O7 0.351402 0.881858 0.512079
O O8 0.158564 0.094168 0.402082
O O9 0.000000 0.086847 0.500000
O O10 0.012545 0.000000 0.219396
O O11 0.239397 0.366989 0.224192
O O12 0.284739 0.000000 0.652213
#
# Coordination Sequence:
#
# PCOD8078318 Si02
#       5
#     8   8   8   8   8
#     4  10  16  29  51  68  92 124 152 194 232 270
#     4   8  14  27  43  65  96 120 149 190 236 266
#     4  10  20  32  46  68  98 125 151 189 235 281
#     4   8  14  25  43  66  89 120 150 188 226 269
#     4   9  15  27  45  65  91 124 150 183 236 272
#
# _framework density 23.239924999999999
#
# number of rings (size 3 to 8) (size 9 to 14) (size 15 to 20)
#    1.200    1.800    2.000    1.200    0.000    0.400 
#    0.000    4.000    0.000    0.000    0.000    0.000 
#    0.000    1.600    0.000    0.000    0.000    0.000 
#
# Total GULP energy -247803.453365 kJ/mol
# GULP energy per Si atom -12390.172668 kJ/mol
# Density = 2.318703 g / cm^3
# Si number density = 23.239925 Si / 1000 Ang^3
#
#
#
# Elastic Constant Matrix: (Units=GPa)
#
#
# Indices 1 2 3 4 5 6 
#
# 1 109.3890 31.9235 78.9836 0.0000 31.8670 0.0000
# 2 31.9235 198.5553 86.2011 0.0000 22.3764 0.0000
# 3 78.9836 86.2011 209.0652 0.0000 14.2165 0.0000
# 4 0.0000 0.0000 0.0000 44.9809 0.0000 -13.9990
# 5 31.8670 22.3764 14.2165 0.0000 48.6595 0.0000
# 6 0.0000 0.0000 0.0000 -13.9990 0.0000 64.7879
#
#
#
# Elastic Compliance Matrix: (Units=1/GPa)
#
#
# Indices 1 2 3 4 5 6 
#
# 1 0.015572 0.000972 -0.005673 0.000000 -0.008988 0.000000
# 2 0.000972 0.006418 -0.002826 0.000000 -0.002762 0.000000
# 3 -0.005673 -0.002826 0.007907 0.000000 0.002704 0.000000
# 4 0.000000 0.000000 0.000000 0.023834 0.000000 0.005150
# 5 -0.008988 -0.002762 0.002704 0.000000 0.026917 0.000000
# 6 0.000000 0.000000 0.000000 0.005150 0.000000 0.016548
#
#
# Mechanical properties :
#
#
# Convention : Reuss Voigt Hill
#
# Bulk Modulus (GPa) = 67.36218 101.24733 84.30476
# Shear Modulus (GPa) = 42.66259 53.01242 47.83750
#
# Velocity S-wave (km/s) = 4.28921 4.78126 4.54190
# Velocity P-wave (km/s) = 7.31971 8.61053 7.99123
#
# Compressibility (1/GPa) = 0.01484512
#
# Stress axis : x y z
#
# Youngs Moduli (GPa) = 64.21663 155.80778 126.46235
#
# Poissons Ratio (x) = -0.15144 0.71738
# Poissons Ratio (y) = -0.06242 0.35734
# Poissons Ratio (z) = 0.36428 0.44026
#
# Static dielectric constant tensor:
#      x y z
#    x 4.828570 0.000000 0.578420 
#    y 0.000000 4.003450 0.000000 
#    z 0.578420 0.000000 5.177410 
# 
# 
# High freq. dielectric constant tensor:
#      x y z
#    x 1.977990 0.000000 0.007330 
#    y 0.000000 1.873630 0.000000 
#    z 0.007330 0.000000 1.943840 
# 
# From -- ./inp_files/168225.got.cif
#   From: 2010.06.25/outbox.cif.g09.slc.cpg/sg12_85_cif.got.tgz:168225.got - 2010.06.28 00:19:55.
