data_PCOD8078381
_publ_section_title
;
Structure prediction by ZEFSAII (Michael W. Deem and Ramdas Pophale) SiO2 
 PCOD8078381
Probable space group: C 2/M
;
_chemical_formula_sum "Si O2"
_cell_formula_units_Z 36
_cell_length_a 15.561990
_cell_length_b 10.147958
_cell_length_c 12.094200
_cell_angle_alpha 90.000000
_cell_angle_beta 119.363554
_cell_angle_gamma 90.000000
_cell_volume 1664.566834
_symmetry_space_group_name_H-M "C 2/M"
_symmetry_group_IT_number 12
_symmetry_cell_setting 'monoclinic'
loop_
_space_group_symop_operation_xyz
x,y,z
-x,y,-z
-x,-y,-z
x,-y,z
1/2+x,1/2+y,z
1/2-x,1/2+y,-z
1/2-x,1/2-y,-z
1/2+x,1/2-y,z
loop_
_atom_site_type_symbol
_atom_site_label
_atom_site_fract_x
_atom_site_fract_y
_atom_site_fract_z
Si Si1 0.211770 0.212340 0.267328
Si Si2 0.439350 0.746166 0.351813
Si Si3 0.384348 0.500000 0.943182
Si Si4 0.767951 0.000000 0.543389
Si Si5 0.271450 0.000000 0.715462
Si Si6 0.114660 0.000000 0.801006
Si Si7 0.465763 0.000000 0.604989
O O1 0.327404 0.222782 0.314970
O O2 0.159709 0.133221 0.136312
O O3 0.166753 0.361684 0.250455
O O4 0.195733 0.131472 0.371145
O O5 0.500000 0.711078 0.500000
O O6 0.449193 0.627559 0.270941
O O7 0.486059 0.868630 0.313404
O O8 0.500000 0.500000 0.000000
O O9 0.356006 0.500000 0.053261
O O10 0.804778 0.000000 0.438775
O O11 0.650277 0.000000 0.455241
O O12 0.214700 0.000000 0.794568
O O13 0.500000 0.000000 0.500000
#
# Coordination Sequence:
#
# PCOD8078381 Si02
#       7
#     8   8   4   4   4   4   4
#     4  10  21  41  64  87 126 165 202 251 301 366
#     4  10  18  36  62  96 127 154 197 247 315 365
#     4  11  26  48  64  81 116 173 220 247 298 358
#     4  11  18  35  60  91 132 160 189 243 310 372
#     4  10  23  36  60 100 120 155 202 252 316 358
#     4  10  24  41  59  89 126 167 206 251 297 364
#     4  10  16  30  56  89 127 154 192 233 305 373
#
# _framework density 21.627248000000002
#
# number of rings (size 3 to 8) (size 9 to 14) (size 15 to 20)
#    0.000    1.778    4.444    1.667    0.000    5.333 
#   16.000    1.667    0.000    0.000    0.000    0.000 
#    0.000    0.000    0.000    0.000    0.000    0.000 
#
# Total GULP energy -223069.995410 kJ/mol
# GULP energy per Si atom -12392.777523 kJ/mol
# Density = 2.157802 g / cm^3
# Si number density = 21.627248 Si / 1000 Ang^3
#
#
#
# Elastic Constant Matrix: (Units=GPa)
#
#
# Indices 1 2 3 4 5 6 
#
# 1 51.3521 5.4735 33.5452 0.0000 -4.7813 0.0000
# 2 5.4735 229.3871 74.6259 0.0000 -10.6321 0.0000
# 3 33.5452 74.6259 150.1590 0.0000 -19.5070 0.0000
# 4 0.0000 0.0000 0.0000 20.0927 0.0000 6.0323
# 5 -4.7813 -10.6321 -19.5070 0.0000 41.5017 0.0000
# 6 0.0000 0.0000 0.0000 6.0323 0.0000 3.6217
#
#
#
# Elastic Compliance Matrix: (Units=1/GPa)
#
#
# Indices 1 2 3 4 5 6 
#
# 1 0.023148 0.001349 -0.005805 0.000000 0.000284 0.000000
# 2 0.001349 0.005279 -0.002907 0.000000 0.000142 0.000000
# 3 -0.005805 -0.002907 0.009817 0.000000 0.003201 0.000000
# 4 0.000000 0.000000 0.000000 0.099546 0.000000 -0.165800
# 5 0.000284 0.000142 0.003201 0.000000 0.025669 0.000000
# 6 0.000000 0.000000 0.000000 -0.165800 0.000000 0.552261
#
#
# Mechanical properties :
#
#
# Convention : Reuss Voigt Hill
#
# Bulk Modulus (GPa) = 42.51790 73.13194 57.82492
# Shear Modulus (GPa) = 6.77245 34.19346 20.48296
#
# Velocity S-wave (km/s) = 1.77151 3.98054 3.08082
# Velocity P-wave (km/s) = 4.88737 7.41717 6.28095
#
# Compressibility (1/GPa) = 0.02351951
#
# Stress axis : x y z
#
# Youngs Moduli (GPa) = 43.20027 189.41250 101.86563
#
# Poissons Ratio (x) = -0.25558 0.59132
# Poissons Ratio (y) = -0.05829 0.29611
# Poissons Ratio (z) = 0.25077 0.55059
#
# Static dielectric constant tensor:
#      x y z
#    x 3.915310 0.000000 -0.126850 
#    y 0.000000 5.187250 0.000000 
#    z -0.126850 0.000000 4.143290 
# 
# 
# High freq. dielectric constant tensor:
#      x y z
#    x 1.831860 0.000000 -0.008010 
#    y 0.000000 1.882280 0.000000 
#    z -0.008010 0.000000 1.816690 
# 
# From -- ./inp_files/153996.got.cif
#   From: 2010.06.25/outbox.cif.g09.slc.cpg/sg12_77_cif.got.tgz:153996.got - 2010.06.28 00:19:55.
