data_PCOD8078744
_publ_section_title
;
Structure prediction by ZEFSAII (Michael W. Deem and Ramdas Pophale) SiO2 
 PCOD8078744
Probable space group: C 2/M
;
_chemical_formula_sum "Si O2"
_cell_formula_units_Z 48
_cell_length_a 19.535509
_cell_length_b 8.763901
_cell_length_c 15.230191
_cell_angle_alpha 90.000000
_cell_angle_beta 91.740956
_cell_angle_gamma 90.000000
_cell_volume 2606.315741
_symmetry_space_group_name_H-M "C 2/M"
_symmetry_group_IT_number 12
_symmetry_cell_setting 'monoclinic'
loop_
_space_group_symop_operation_xyz
x,y,z
-x,y,-z
-x,-y,-z
x,-y,z
1/2+x,1/2+y,z
1/2-x,1/2+y,-z
1/2-x,1/2-y,-z
1/2+x,1/2-y,z
loop_
_atom_site_type_symbol
_atom_site_label
_atom_site_fract_x
_atom_site_fract_y
_atom_site_fract_z
Si Si1 0.926042 0.321066 0.404217
Si Si2 0.933424 0.821895 0.227138
Si Si3 0.306390 0.823260 0.892432
Si Si4 0.166085 0.322655 0.908258
Si Si5 0.092376 0.825718 0.234207
Si Si6 0.926836 0.176594 0.574570
O O1 0.914034 0.500000 0.410297
O O2 0.898294 0.261378 0.309525
O O3 0.887465 0.239707 0.486125
O O4 0.005446 0.277691 0.412752
O O5 0.895471 0.770153 0.137785
O O6 0.013109 0.778985 0.220387
O O7 0.924510 0.000000 0.242263
O O8 0.238638 0.725994 0.869612
O O9 0.363451 0.786794 0.822931
O O10 0.286378 0.000000 0.887032
O O11 0.336073 0.781008 0.989051
O O12 0.154453 0.500000 0.890142
O O13 0.116110 0.804602 0.337012
O O14 0.103930 0.000000 0.204203
O O15 0.947431 0.000000 0.563022
#
# Coordination Sequence:
#
# PCOD8078744 Si02
#       6
#     8   8   8   8   8   8
#     4  10  17  26  44  71 101 133 168 207 250 295
#     4  10  20  34  52  76 105 136 170 209 255 301
#     4  10  21  36  55  76 100 133 170 209 253 304
#     4  10  21  37  55  75 100 132 171 211 252 303
#     4   9  19  33  51  76 105 136 169 209 252 296
#     4   9  16  28  45  68 100 136 170 204 247 297
#
# _framework density 18.416801
#
# number of rings (size 3 to 8) (size 9 to 14) (size 15 to 20)
#    0.000    2.333    0.000    5.500    0.000    6.667 
#    0.000    3.333    0.000    1.000    0.000    0.000 
#    0.000    0.000    0.000    0.000    0.000    0.000 
#
# Total GULP energy -297530.162600 kJ/mol
# GULP energy per Si atom -12397.090108 kJ/mol
# Density = 1.837488 g / cm^3
# Si number density = 18.416801 Si / 1000 Ang^3
#
#
#
# Elastic Constant Matrix: (Units=GPa)
#
#
# Indices 1 2 3 4 5 6 
#
# 1 42.3811 21.1910 33.2695 0.0000 -14.8103 0.0000
# 2 21.1910 74.5515 35.1196 0.0000 -11.2895 0.0000
# 3 33.2695 35.1196 97.1814 0.0000 -23.9035 0.0000
# 4 0.0000 0.0000 0.0000 36.7242 0.0000 0.1463
# 5 -14.8103 -11.2895 -23.9035 0.0000 10.5597 0.0000
# 6 0.0000 0.0000 0.0000 0.1463 0.0000 26.1288
#
#
#
# Elastic Compliance Matrix: (Units=1/GPa)
#
#
# Indices 1 2 3 4 5 6 
#
# 1 0.047344 -0.004247 0.001224 0.000000 0.064632 0.000000
# 2 -0.004247 0.016949 -0.003789 0.000000 0.003588 0.000000
# 3 0.001224 -0.003789 0.024065 0.000000 0.052142 0.000000
# 4 0.000000 0.000000 0.000000 0.027231 0.000000 -0.000152
# 5 0.064632 0.003588 0.052142 0.000000 0.307216 0.000000
# 6 0.000000 0.000000 0.000000 -0.000152 0.000000 0.038273
#
#
# Mechanical properties :
#
#
# Convention : Reuss Voigt Hill
#
# Bulk Modulus (GPa) = 13.38048 43.69715 28.53882
# Shear Modulus (GPa) = 10.00778 22.98481 16.49630
#
# Velocity S-wave (km/s) = 2.33363 3.53659 2.99611
# Velocity P-wave (km/s) = 3.81343 6.36042 5.24391
#
# Compressibility (1/GPa) = 0.07473573
#
# Stress axis : x y z
#
# Youngs Moduli (GPa) = 21.12217 59.00153 41.55331
#
# Poissons Ratio (x) = 0.25056 -0.05087
# Poissons Ratio (y) = 0.08970 0.15743
# Poissons Ratio (z) = -0.02586 0.22354
#
# Static dielectric constant tensor:
#      x y z
#    x 2.924170 0.000000 0.032730 
#    y 0.000000 3.373560 0.000000 
#    z 0.032730 0.000000 3.939600 
# 
# 
# High freq. dielectric constant tensor:
#      x y z
#    x 1.659060 0.000000 -0.001600 
#    y 0.000000 1.726370 0.000000 
#    z -0.001600 0.000000 1.733380 
# 
# From -- ./inp_files/229271.got.cif
#   From: 2010.06.25/outbox.cif.g09.slc.cpg/sg12_115_cif.got.tgz:229271.got - 2010.06.28 00:19:55.
