data_PCOD8078427
_publ_section_title
;
Structure prediction by ZEFSAII (Michael W. Deem and Ramdas Pophale) SiO2 
 PCOD8078427
Probable space group: C 2/M
;
_chemical_formula_sum "Si O2"
_cell_formula_units_Z 36
_cell_length_a 5.180297
_cell_length_b 13.563664
_cell_length_c 25.385545
_cell_angle_alpha 90.000000
_cell_angle_beta 72.420972
_cell_angle_gamma 90.000000
_cell_volume 1700.389250
_symmetry_space_group_name_H-M "C 2/M"
_symmetry_group_IT_number 12
_symmetry_cell_setting 'monoclinic'
loop_
_space_group_symop_operation_xyz
x,y,z
-x,y,-z
-x,-y,-z
x,-y,z
1/2+x,1/2+y,z
1/2-x,1/2+y,-z
1/2-x,1/2-y,-z
1/2+x,1/2-y,z
loop_
_atom_site_type_symbol
_atom_site_label
_atom_site_fract_x
_atom_site_fract_y
_atom_site_fract_z
Si Si1 0.672324 0.500000 0.699924
Si Si2 0.714114 0.859326 0.024223
Si Si3 0.933037 0.500000 0.228833
Si Si4 0.311453 0.817845 0.619781
Si Si5 0.540789 0.184998 0.150660
Si Si6 0.000000 0.684614 0.500000
O O1 0.348127 0.500000 0.722355
O O2 0.768489 0.402285 0.664639
O O3 0.809300 0.500000 0.748641
O O4 0.614390 0.861244 0.089967
O O5 0.500000 0.915350 0.000000
O O6 0.750000 0.750000 0.000000
O O7 0.000000 0.915366 0.000000
O O8 0.940453 0.597365 0.193313
O O9 0.534698 0.741802 0.627601
O O10 0.411128 0.872516 0.558931
O O11 0.302379 0.264370 0.160127
O O12 0.250000 0.750000 0.500000
#
# Coordination Sequence:
#
# PCOD8078427 Si02
#       6
#     4   8   4   8   8   4
#     4  12  26  45  62  87 128 166 220 267 282 369
#     4  10  16  32  61  90 115 146 187 235 302 384
#     4  12  30  44  58  96 122 158 232 255 286 373
#     4  10  21  39  67  94 127 166 206 254 323 360
#     4  12  23  42  68  87 124 164 191 256 321 356
#     4   8  16  33  58  97 128 152 200 259 302 383
#
# _framework density 21.171621999999999
#
# number of rings (size 3 to 8) (size 9 to 14) (size 15 to 20)
#    0.000    1.333    4.444    2.667    0.000    5.778 
#    0.000    1.111    0.000    9.333    0.000    0.000 
#    0.000    0.000    0.000    0.000    0.000    0.000 
#
# Total GULP energy -223059.561164 kJ/mol
# GULP energy per Si atom -12392.197842 kJ/mol
# Density = 2.112343 g / cm^3
# Si number density = 21.171622 Si / 1000 Ang^3
#
#
#
# Elastic Constant Matrix: (Units=GPa)
#
#
# Indices 1 2 3 4 5 6 
#
# 1 146.8108 7.3260 17.3049 0.0000 -2.7086 0.0000
# 2 7.3260 76.2616 45.8345 0.0000 -3.0339 0.0000
# 3 17.3049 45.8345 125.4674 0.0000 -2.2963 0.0000
# 4 0.0000 0.0000 0.0000 -87.1517 0.0000 -130.6106
# 5 -2.7086 -3.0339 -2.2963 0.0000 38.2873 0.0000
# 6 0.0000 0.0000 0.0000 -130.6106 0.0000 -51.3357
#
#
#
# Elastic Compliance Matrix: (Units=1/GPa)
#
#
# Indices 1 2 3 4 5 6 
#
# 1 0.006932 -0.000101 -0.000911 0.000000 0.000428 0.000000
# 2 -0.000101 0.016839 -0.006120 0.000000 0.000960 0.000000
# 3 -0.000911 -0.006120 0.010333 0.000000 0.000070 0.000000
# 4 0.000000 0.000000 0.000000 0.004079 0.000000 -0.010378
# 5 0.000428 0.000960 0.000070 0.000000 0.026229 0.000000
# 6 0.000000 0.000000 0.000000 -0.010378 0.000000 0.006925
#
#
# Mechanical properties :
#
#
# Convention : Reuss Voigt Hill
#
# Bulk Modulus (GPa) = 50.40622 54.38563 52.39593
# Shear Modulus (GPa) = 54.22170 -1.50173 26.35998
#
# Velocity S-wave (km/s) = 5.06618 -0.84312 3.53237
# Velocity P-wave (km/s) = 7.62113 4.97955 6.43730
#
# Compressibility (1/GPa) = 0.01983882
#
# Stress axis : x y z
#
# Youngs Moduli (GPa) = 144.26176 59.38658 96.77896
#
# Poissons Ratio (x) = 0.00601 0.08819
# Poissons Ratio (y) = 0.01460 0.59227
# Poissons Ratio (z) = 0.13146 0.36344
#
# Static dielectric constant tensor:
#      x y z
#    x 3.568060 0.000000 0.057320 
#    y 0.000000 3.443480 0.000000 
#    z 0.057320 0.000000 4.280410 
# 
# 
# High freq. dielectric constant tensor:
#      x y z
#    x 1.862630 0.000000 -0.000350 
#    y 0.000000 1.808400 0.000000 
#    z -0.000350 0.000000 1.845140 
# 
# From -- ./inp_files/330817.got.cif
#   From: 2010.06.25/outbox.cif.g09.slc.cpg/sg12_166_cif.got.tgz:330817.got - 2010.06.28 00:19:55.
