data_PCOD8078962
_publ_section_title
;
Structure prediction by ZEFSAII (Michael W. Deem and Ramdas Pophale) SiO2 
 PCOD8078962
Probable space group: C 2/M
;
_chemical_formula_sum "Si O2"
_cell_formula_units_Z 64
_cell_length_a 25.223123
_cell_length_b 14.611322
_cell_length_c 10.057439
_cell_angle_alpha 90.000000
_cell_angle_beta 91.548332
_cell_angle_gamma 90.000000
_cell_volume 3705.247146
_symmetry_space_group_name_H-M "C 2/M"
_symmetry_group_IT_number 12
_symmetry_cell_setting 'monoclinic'
loop_
_space_group_symop_operation_xyz
x,y,z
-x,y,-z
-x,-y,-z
x,-y,z
1/2+x,1/2+y,z
1/2-x,1/2+y,-z
1/2-x,1/2-y,-z
1/2+x,1/2-y,z
loop_
_atom_site_type_symbol
_atom_site_label
_atom_site_fract_x
_atom_site_fract_y
_atom_site_fract_z
Si Si1 0.353216 0.389747 0.993622
Si Si2 0.876416 0.792640 0.250096
Si Si3 0.938320 0.106881 0.471592
Si Si4 0.742004 0.371269 0.384554
Si Si5 0.664127 0.897629 0.804156
Si Si6 0.872590 0.900596 0.708650
Si Si7 0.236314 0.393470 0.044335
Si Si8 0.257731 0.332319 0.327697
O O1 0.355926 0.500000 0.008605
O O2 0.387597 0.340445 0.109231
O O3 0.292683 0.352603 0.001349
O O4 0.375979 0.353560 0.854008
O O5 0.922954 0.828961 0.347271
O O6 0.878046 0.680970 0.240845
O O7 0.820219 0.826617 0.303090
O O8 0.906298 0.149439 0.596006
O O9 0.000000 0.118667 0.500000
O O10 0.923288 0.000000 0.443687
O O11 0.791034 0.409565 0.304848
O O12 0.688273 0.418261 0.334557
O O13 0.751195 0.394410 0.541775
O O14 0.732492 0.264573 0.359686
O O15 0.638353 0.000000 0.820168
O O16 0.689995 0.857827 0.943052
O O17 0.899500 0.000000 0.725331
O O18 0.238499 0.500000 0.021699
O O19 0.225805 0.371493 0.198612
#
# Coordination Sequence:
#
# PCOD8078962 Si02
#       8
#     8   8   8   8   8   8   8   8
#     4   9  17  28  45  72  98 127 163 192 229 282
#     4  10  19  32  50  69  96 130 160 202 240 281
#     4  10  21  37  55  74  95 120 154 198 249 300
#     4  10  17  28  43  66  98 130 165 199 228 275
#     4  10  20  31  45  69 101 135 168 197 230 274
#     4  10  18  29  47  69  96 127 155 190 235 285
#     4   9  17  28  40  62  98 134 165 193 223 268
#     4   9  19  27  42  69  95 129 169 198 229 272
#
# _framework density 17.272803
#
# number of rings (size 3 to 8) (size 9 to 14) (size 15 to 20)
#    0.000    2.375    2.500    0.750    1.750    3.000 
#    0.000    0.625    0.000    3.375    0.000    0.000 
#    0.000    1.000    0.000    0.000    0.000    0.000 
#
# Total GULP energy -396542.025005 kJ/mol
# GULP energy per Si atom -12391.938281 kJ/mol
# Density = 1.723349 g / cm^3
# Si number density = 17.272803 Si / 1000 Ang^3
#
#
#
# Elastic Constant Matrix: (Units=GPa)
#
#
# Indices 1 2 3 4 5 6 
#
# 1 40.0169 24.8625 30.8908 0.0000 7.8685 0.0000
# 2 24.8625 64.9661 38.8675 0.0000 10.6428 0.0000
# 3 30.8908 38.8675 152.0317 0.0000 1.5818 0.0000
# 4 0.0000 0.0000 0.0000 20.1256 0.0000 3.6558
# 5 7.8685 10.6428 1.5818 0.0000 16.8137 0.0000
# 6 0.0000 0.0000 0.0000 3.6558 0.0000 14.8826
#
#
#
# Elastic Compliance Matrix: (Units=1/GPa)
#
#
# Indices 1 2 3 4 5 6 
#
# 1 0.036744 -0.009312 -0.004972 0.000000 -0.010833 0.000000
# 2 -0.009312 0.022857 -0.003850 0.000000 -0.009748 0.000000
# 3 -0.004972 -0.003850 0.008531 0.000000 0.003961 0.000000
# 4 0.000000 0.000000 0.000000 0.052009 0.000000 -0.012776
# 5 -0.010833 -0.009748 0.003961 0.000000 0.070342 0.000000
# 6 0.000000 0.000000 0.000000 -0.012776 0.000000 0.070331
#
#
# Mechanical properties :
#
#
# Convention : Reuss Voigt Hill
#
# Bulk Modulus (GPa) = 31.38521 49.58402 40.48462
# Shear Modulus (GPa) = 16.24945 21.19062 18.72004
#
# Velocity S-wave (km/s) = 3.07050 3.50640 3.29566
# Velocity P-wave (km/s) = 5.54801 6.72026 6.16207
#
# Compressibility (1/GPa) = 0.03186214
#
# Stress axis : x y z
#
# Youngs Moduli (GPa) = 27.21560 43.75111 117.22081
#
# Poissons Ratio (x) = 0.40742 0.58287
# Poissons Ratio (y) = 0.25344 0.45128
# Poissons Ratio (z) = 0.13533 0.16843
#
# Static dielectric constant tensor:
#      x y z
#    x 2.686440 0.000000 -0.091030 
#    y 0.000000 3.144690 0.000000 
#    z -0.091030 0.000000 3.621330 
# 
# 
# High freq. dielectric constant tensor:
#      x y z
#    x 1.595560 0.000000 -0.007910 
#    y 0.000000 1.656720 0.000000 
#    z -0.007910 0.000000 1.690560 
# 
# From -- ./inp_files/97768.got.cif
#   From: 2010.06.25/outbox.cif.g09.slc.cpg/sg12_49_cif.got.tgz:97768.got - 2010.06.28 00:19:55.
