data_PCOD8078781
_publ_section_title
;
Structure prediction by ZEFSAII (Michael W. Deem and Ramdas Pophale) SiO2 
 PCOD8078781
Probable space group: C 2/M
;
_chemical_formula_sum "Si O2"
_cell_formula_units_Z 56
_cell_length_a 27.747187
_cell_length_b 9.332942
_cell_length_c 27.885826
_cell_angle_alpha 90.000000
_cell_angle_beta 29.837636
_cell_angle_gamma 90.000000
_cell_volume 3592.960282
_symmetry_space_group_name_H-M "C 2/M"
_symmetry_group_IT_number 12
_symmetry_cell_setting 'monoclinic'
loop_
_space_group_symop_operation_xyz
x,y,z
-x,y,-z
-x,-y,-z
x,-y,z
1/2+x,1/2+y,z
1/2-x,1/2+y,-z
1/2-x,1/2-y,-z
1/2+x,1/2-y,z
loop_
_atom_site_type_symbol
_atom_site_label
_atom_site_fract_x
_atom_site_fract_y
_atom_site_fract_z
Si Si1 0.893698 0.667813 0.288497
Si Si2 0.606851 0.834547 0.604389
Si Si3 0.799600 0.834512 0.886604
Si Si4 0.588639 0.834836 0.280772
Si Si5 0.216352 0.329789 0.418336
Si Si6 0.526883 0.829587 0.528718
Si Si7 0.111131 0.335974 0.104120
O O1 0.870592 0.500000 0.305284
O O2 0.879652 0.731691 0.354527
O O3 0.818671 0.752751 0.318977
O O4 0.003804 0.699643 0.176994
O O5 0.496466 0.812810 0.684069
O O6 0.679170 0.769826 0.502107
O O7 0.631091 0.000000 0.586602
O O8 0.821441 0.757953 0.816795
O O9 0.862319 0.766564 0.875087
O O10 0.828562 0.000000 0.857702
O O11 0.685585 0.814225 0.995971
O O12 0.551898 0.776150 0.364134
O O13 0.620667 0.000000 0.256947
O O14 0.230266 0.500000 0.405799
O O15 0.136084 0.282653 0.448357
O O16 0.500000 0.764879 0.500000
O O17 0.522668 0.000000 0.532326
O O18 0.114596 0.500000 0.120361
#
# Coordination Sequence:
#
# PCOD8078781 Si02
#       7
#     8   8   8   8   8   8   8
#     4  10  17  27  41  56  82 118 147 166 200 252
#     4   8  14  25  39  55  80 115 142 163 196 244
#     4  10  18  27  41  63  86 111 147 185 214 243
#     4   9  15  27  46  63  85 115 144 173 210 258
#     4   9  17  27  41  62  85 106 138 178 209 243
#     4   8  15  29  49  69  86 109 141 175 215 263
#     4   9  18  30  42  56  83 121 152 177 207 247
#
# _framework density 15.586034
#
# number of rings (size 3 to 8) (size 9 to 14) (size 15 to 20)
#    0.000    3.000    1.429    2.571    0.000    1.143 
#    0.000    2.857    0.000    1.714    0.000    1.000 
#    0.000    8.000    0.000    0.000    0.000    0.000 
#
# Total GULP energy -346977.234993 kJ/mol
# GULP energy per Si atom -12392.044107 kJ/mol
# Density = 1.555056 g / cm^3
# Si number density = 15.586034 Si / 1000 Ang^3
#
#
#
# Elastic Constant Matrix: (Units=GPa)
#
#
# Indices 1 2 3 4 5 6 
#
# 1 83.1025 29.7884 56.8397 0.0012 -1.9160 -0.0001
# 2 29.7884 52.4812 46.6290 0.0147 -2.4988 -0.0057
# 3 56.8397 46.6290 109.6697 0.0044 -10.1472 -0.0023
# 4 0.0012 0.0147 0.0044 25.5726 -0.0025 -3.4557
# 5 -1.9160 -2.4988 -10.1472 -0.0025 19.3984 0.0003
# 6 -0.0001 -0.0057 -0.0023 -3.4557 0.0003 13.4219
#
#
#
# Elastic Compliance Matrix: (Units=1/GPa)
#
#
# Indices 1 2 3 4 5 6 
#
# 1 0.019166 -0.003123 -0.008898 0.000002 -0.003164 -0.000002
# 2 -0.003123 0.031300 -0.011922 -0.000015 -0.002513 0.000007
# 3 -0.008898 -0.011922 0.019520 0.000005 0.007796 -0.000001
# 4 0.000002 -0.000015 0.000005 0.040514 0.000006 0.010431
# 5 -0.003164 -0.002513 0.007796 0.000006 0.054993 0.000001
# 6 -0.000002 0.000007 -0.000001 0.010431 0.000001 0.077191
#
#
# Mechanical properties :
#
#
# Convention : Reuss Voigt Hill
#
# Bulk Modulus (GPa) = 45.24946 56.86308 51.05627
# Shear Modulus (GPa) = 16.78208 19.14499 17.96353
#
# Velocity S-wave (km/s) = 3.28493 3.50857 3.39859
# Velocity P-wave (km/s) = 6.59415 7.27846 6.94474
#
# Compressibility (1/GPa) = 0.02209971
#
# Stress axis : x y z
#
# Youngs Moduli (GPa) = 52.17567 31.94891 51.22901
#
# Poissons Ratio (x) = 0.09979 0.45584
# Poissons Ratio (y) = 0.16297 0.61074
# Poissons Ratio (z) = 0.46426 0.38089
#
# Static dielectric constant tensor:
#      x y z
#    x 2.861710 0.000000 0.033720 
#    y 0.000000 2.723260 0.000000 
#    z 0.033720 0.000000 3.185310 
# 
# 
# High freq. dielectric constant tensor:
#      x y z
#    x 1.556000 0.000000 -0.007740 
#    y 0.000000 1.574890 0.000000 
#    z -0.007740 0.000000 1.601350 
# 
# From -- ./inp_files/247782.got.cif
#   From: 2010.06.25/outbox.cif.g09.slc.cpg/sg12_124_cif.got.tgz:247782.got - 2010.06.28 00:19:55.
