data_PCOD8078804
_publ_section_title
;
Structure prediction by ZEFSAII (Michael W. Deem and Ramdas Pophale) SiO2 
 PCOD8078804
Probable space group: C 2/M
;
_chemical_formula_sum "Si O2"
_cell_formula_units_Z 64
_cell_length_a 26.992913
_cell_length_b 8.953137
_cell_length_c 19.636446
_cell_angle_alpha 90.000000
_cell_angle_beta 120.851799
_cell_angle_gamma 90.000000
_cell_volume 4074.051042
_symmetry_space_group_name_H-M "C 2/M"
_symmetry_group_IT_number 12
_symmetry_cell_setting 'monoclinic'
loop_
_space_group_symop_operation_xyz
x,y,z
-x,y,-z
-x,-y,-z
x,-y,z
1/2+x,1/2+y,z
1/2-x,1/2+y,-z
1/2-x,1/2-y,-z
1/2+x,1/2-y,z
loop_
_atom_site_type_symbol
_atom_site_label
_atom_site_fract_x
_atom_site_fract_y
_atom_site_fract_z
Si Si1 0.132266 0.823981 0.326497
Si Si2 0.698150 0.329120 0.498689
Si Si3 0.578125 0.676566 0.942415
Si Si4 0.790170 0.173793 0.973852
Si Si5 0.527420 0.829287 0.183531
Si Si6 0.592605 0.171281 0.090772
Si Si7 0.241695 0.675845 0.330099
Si Si8 0.288337 0.323245 0.819564
O O1 0.140227 0.793683 0.414364
O O2 0.071203 0.752846 0.264932
O O3 0.183868 0.747050 0.321159
O O4 0.132134 0.000000 0.309595
O O5 0.713474 0.500000 0.501295
O O6 0.750000 0.250000 0.500000
O O7 0.701658 0.289873 0.582135
O O8 0.569321 0.500000 0.942073
O O9 0.534412 0.745869 0.856044
O O10 0.643281 0.717469 0.966106
O O11 0.564573 0.749832 0.005813
O O12 0.771165 0.223595 0.884273
O O13 0.781255 0.000000 0.976198
O O14 0.750000 0.250000 0.000000
O O15 0.547588 0.819704 0.120039
O O16 0.520565 0.000000 0.202662
O O17 0.648993 0.259541 0.154504
O O18 0.607991 0.000000 0.083882
O O19 0.230880 0.500000 0.312992
O O20 0.255258 0.750587 0.266253
O O21 0.289647 0.500000 0.812537
#
# Coordination Sequence:
#
# PCOD8078804 Si02
#       8
#     8   8   8   8   8   8   8   8
#     4  10  18  28  42  59  85 123 157 188 225 258
#     4   8  16  27  39  57  82 115 154 189 222 258
#     4  10  21  34  47  65  87 113 148 183 221 267
#     4   9  20  36  52  69  88 112 143 182 225 271
#     4  11  21  30  42  63  90 119 155 189 217 257
#     4  10  19  30  43  61  88 118 150 186 220 253
#     4  10  17  27  42  62  88 117 153 192 223 259
#     4  10  19  30  45  67  91 117 152 185 222 268
#
# _framework density 15.70918
#
# number of rings (size 3 to 8) (size 9 to 14) (size 15 to 20)
#    0.000    2.250    1.250    3.375    0.000    7.000 
#    0.000    0.000    0.000    0.000    0.000    0.000 
#    0.000    1.000    0.000   11.250    0.000    5.625 
#
# Total GULP energy -396531.814232 kJ/mol
# GULP energy per Si atom -12391.619195 kJ/mol
# Density = 1.567343 g / cm^3
# Si number density = 15.709180 Si / 1000 Ang^3
#
#
#
# Elastic Constant Matrix: (Units=GPa)
#
#
# Indices 1 2 3 4 5 6 
#
# 1 54.9805 33.1390 49.1639 0.0000 -4.5905 0.0000
# 2 33.1390 91.5770 63.3257 0.0000 -2.1483 0.0000
# 3 49.1639 63.3257 143.8955 0.0000 0.1431 0.0000
# 4 0.0000 0.0000 0.0000 26.5518 0.0000 -0.9464
# 5 -4.5905 -2.1483 0.1431 0.0000 12.6280 0.0000
# 6 0.0000 0.0000 0.0000 -0.9464 0.0000 19.6211
#
#
#
# Elastic Compliance Matrix: (Units=1/GPa)
#
#
# Indices 1 2 3 4 5 6 
#
# 1 0.028840 -0.004869 -0.007721 0.000000 0.009743 0.000000
# 2 -0.004869 0.016615 -0.005649 0.000000 0.001120 0.000000
# 3 -0.007721 -0.005649 0.012077 0.000000 -0.003905 0.000000
# 4 0.000000 0.000000 0.000000 0.037727 0.000000 0.001820
# 5 0.009743 0.001120 -0.003905 0.000000 0.082966 0.000000
# 6 0.000000 0.000000 0.000000 0.001820 0.000000 0.051053
#
#
# Mechanical properties :
#
#
# Convention : Reuss Voigt Hill
#
# Bulk Modulus (GPa) = 47.49622 64.63449 56.06535
# Shear Modulus (GPa) = 18.33017 21.41513 19.87265
#
# Velocity S-wave (km/s) = 3.41962 3.69619 3.56059
# Velocity P-wave (km/s) = 6.77437 7.71035 7.25746
#
# Compressibility (1/GPa) = 0.02105431
#
# Stress axis : x y z
#
# Youngs Moduli (GPa) = 34.67365 60.18835 82.79965
#
# Poissons Ratio (x) = 0.29306 0.63926
# Poissons Ratio (y) = 0.16883 0.46776
# Poissons Ratio (z) = 0.26770 0.34002
#
# Static dielectric constant tensor:
#      x y z
#    x 2.533990 0.000000 -0.083790 
#    y 0.000000 3.129940 0.000000 
#    z -0.083790 0.000000 3.705280 
# 
# 
# High freq. dielectric constant tensor:
#      x y z
#    x 1.533490 0.000000 -0.001160 
#    y 0.000000 1.622380 0.000000 
#    z -0.001160 0.000000 1.619200 
# 
# From -- ./inp_files/326957.got.cif
#   From: 2010.06.25/outbox.cif.g09.slc.cpg/sg12_164_cif.got.tgz:326957.got - 2010.06.28 00:19:55.
