data_PCOD8078041
_publ_section_title
;
Structure prediction by ZEFSAII (Michael W. Deem and Ramdas Pophale) SiO2 
 PCOD8078041
Probable space group: C 2/M
;
_chemical_formula_sum "Si O2"
_cell_formula_units_Z 40
_cell_length_a 5.265083
_cell_length_b 17.441697
_cell_length_c 23.558914
_cell_angle_alpha 90.000000
_cell_angle_beta 83.282426
_cell_angle_gamma 90.000000
_cell_volume 2148.609214
_symmetry_space_group_name_H-M "C 2/M"
_symmetry_group_IT_number 12
_symmetry_cell_setting 'monoclinic'
loop_
_space_group_symop_operation_xyz
x,y,z
-x,y,-z
-x,-y,-z
x,-y,z
1/2+x,1/2+y,z
1/2-x,1/2+y,-z
1/2-x,1/2-y,-z
1/2+x,1/2-y,z
loop_
_atom_site_type_symbol
_atom_site_label
_atom_site_fract_x
_atom_site_fract_y
_atom_site_fract_z
Si Si1 0.267757 0.409947 0.965582
Si Si2 0.037884 0.670628 0.433207
Si Si3 0.917993 0.797670 0.735379
Si Si4 0.201204 0.200123 0.138351
Si Si5 0.937172 0.158807 0.614490
O O1 0.272130 0.500000 0.954148
O O2 0.303152 0.370092 0.904459
O O3 0.500000 0.384362 0.000000
O O4 0.000000 0.383746 0.000000
O O5 0.054545 0.750109 0.398488
O O6 0.297332 0.622356 0.415215
O O7 0.000000 0.688786 0.500000
O O8 0.799671 0.622137 0.414052
O O9 0.709593 0.731375 0.729833
O O10 0.848623 0.836060 0.797714
O O11 0.902513 0.856545 0.682855
O O12 0.478081 0.240033 0.128570
#
# Coordination Sequence:
#
# PCOD8078041 Si02
#       5
#     8   8   8   8   8
#     4  10  21  37  55  74  99 129 157 188 237 291
#     4  10  16  20  29  45  65  96 142 180 206 252
#     4  10  16  27  38  54  79 109 143 180 220 264
#     4  10  21  32  50  75  98 123 159 201 230 278
#     4  10  14  22  31  42  65  99 133 177 209 255
#
# _framework density 18.616693000000001
#
# number of rings (size 3 to 8) (size 9 to 14) (size 15 to 20)
#    0.000    2.000    4.000    4.200    0.000    2.400 
#    0.000    0.000    0.000    0.000    0.000    0.000 
#    0.000    0.000    0.000    0.000    0.000   11.000 
#
# Total GULP energy -247824.411967 kJ/mol
# GULP energy per Si atom -12391.220598 kJ/mol
# Density = 1.857432 g / cm^3
# Si number density = 18.616693 Si / 1000 Ang^3
#
#
#
# Elastic Constant Matrix: (Units=GPa)
#
#
# Indices 1 2 3 4 5 6 
#
# 1 168.9900 9.3898 52.1525 0.0000 3.7863 0.0000
# 2 9.3898 12.3086 28.6351 0.0000 1.1365 0.0000
# 3 52.1525 28.6351 170.8699 0.0000 5.1247 0.0000
# 4 0.0000 0.0000 0.0000 1.1278 0.0000 -0.5715
# 5 3.7863 1.1365 5.1247 0.0000 31.9195 0.0000
# 6 0.0000 0.0000 0.0000 -0.5715 0.0000 4.4785
#
#
#
# Elastic Compliance Matrix: (Units=1/GPa)
#
#
# Indices 1 2 3 4 5 6 
#
# 1 0.006542 -0.000549 -0.001891 0.000000 -0.000453 0.000000
# 2 -0.000549 0.133249 -0.022129 0.000000 -0.001126 0.000000
# 3 -0.001891 -0.022129 0.010157 0.000000 -0.000618 0.000000
# 4 0.000000 0.000000 0.000000 0.948014 0.000000 0.120984
# 5 -0.000453 -0.001126 -0.000618 0.000000 0.031522 0.000000
# 6 0.000000 0.000000 0.000000 0.120984 0.000000 0.238727
#
#
# Mechanical properties :
#
#
# Convention : Reuss Voigt Hill
#
# Bulk Modulus (GPa) = 9.91980 59.16924 34.54452
# Shear Modulus (GPa) = 3.44601 24.97123 14.20862
#
# Velocity S-wave (km/s) = 1.36200 3.66640 2.76564
# Velocity P-wave (km/s) = 2.79525 7.05515 5.36603
#
# Compressibility (1/GPa) = 0.10080846
#
# Stress axis : x y z
#
# Youngs Moduli (GPa) = 152.86370 7.50477 98.45833
#
# Poissons Ratio (x) = 0.00412 0.18619
# Poissons Ratio (y) = 0.08398 2.17877
# Poissons Ratio (z) = 0.28907 0.16607
#
# Static dielectric constant tensor:
#      x y z
#    x 5.545850 0.000000 -0.029170 
#    y 0.000000 2.484410 0.000000 
#    z -0.029170 0.000000 3.704210 
# 
# 
# High freq. dielectric constant tensor:
#      x y z
#    x 1.766290 0.000000 0.000980 
#    y 0.000000 1.611970 0.000000 
#    z 0.000980 0.000000 1.746380 
# 
# From -- ./inp_files/297565.got.cif
#   From: 2010.06.25/outbox.cif.g09.slc.cpg/sg12_149_cif.got.tgz:297565.got - 2010.06.28 00:19:55.
