data_PCOD8078019
_publ_section_title
;
Structure prediction by ZEFSAII (Michael W. Deem and Ramdas Pophale) SiO2 
 PCOD8078019
Probable space group: P 21/M
;
_chemical_formula_sum "Si O2"
_cell_formula_units_Z 28
_cell_length_a 30.000000
_cell_length_b 9.000000
_cell_length_c 30.000000
_cell_angle_alpha 90.000000
_cell_angle_beta 170.000000
_cell_angle_gamma 90.000000
_cell_volume 1406.550239
_symmetry_space_group_name_H-M "P 21/M"
_symmetry_group_IT_number 11
_symmetry_cell_setting 'monoclinic'
loop_
_space_group_symop_operation_xyz
x,y,z
-x,1/2+y,-z
-x,-y,-z
x,1/2-y,z
loop_
_atom_site_type_symbol
_atom_site_label
_atom_site_fract_x
_atom_site_fract_y
_atom_site_fract_z
Si Si1 0.868345 0.928937 0.703879
Si Si2 0.856953 0.080125 0.600551
Si Si3 0.020211 0.931051 0.471295
Si Si4 0.542196 0.428668 0.948565
Si Si5 0.738710 0.068171 0.761827
Si Si6 0.385927 0.080173 0.071834
Si Si7 0.343803 0.068315 0.223195
O O1 0.868737 0.750000 0.712735
O O2 0.856864 0.961800 0.640189
O O3 0.624054 0.008026 0.485942
O O4 0.128441 0.006810 0.977468
O O5 0.859075 0.250000 0.620900
O O6 0.104343 0.050676 0.813909
O O7 0.599278 0.050122 0.319193
O O8 0.021152 0.750000 0.472781
O O9 0.000000 0.000000 0.500000
O O10 0.777877 0.992492 0.205520
O O11 0.280110 0.994331 0.706136
O O12 0.538742 0.250000 0.953517
O O13 0.571054 0.461835 0.924817
O O14 0.738807 0.250000 0.760286
O O15 0.500000 0.000000 0.500000
O O16 0.722150 0.005853 0.795003
O O17 0.000000 0.000000 0.000000
O O18 0.407958 0.250000 0.075709
O O19 0.342705 0.250000 0.223571
#
# Coordination Sequence:
#
# PCOD8078019 Si02
#       7
#     4   4   4   4   4   4   4
#     4  12  25  42  65  96 130 165 209 264 319 372
#     4  10  21  38  61  89 123 164 208 254 309 374
#     4  12  25  44  67  93 127 167 211 258 313 374
#     4  12  25  42  65  96 130 165 209 260 315 372
#     4  12  25  44  67  96 130 167 211 260 315 374
#     4  10  21  38  61  89 123 164 208 254 309 370
#     4  12  25  44  67  93 127 170 214 258 313 376
#
# _framework density 19.906860999999999
#
# number of rings (size 3 to 8) (size 9 to 14) (size 15 to 20)
#    0.000    0.571    0.000    9.429    0.000    3.429 
#    0.000    0.000    0.000    0.000    0.000    0.000 
#    0.000    0.000    0.000    0.000    0.000    0.000 
#
# Total GULP energy -347195.773049 kJ/mol
# GULP energy per Si atom -12399.849037 kJ/mol
# Density = 1.986155 g / cm^3
# Si number density = 19.906861 Si / 1000 Ang^3
#
#
#
# Elastic Constant Matrix: (Units=GPa)
#
#
# Indices 1 2 3 4 5 6 
#
# 1 92.6005 42.6458 14.8860 0.0000 2.4053 0.0000
# 2 42.6458 212.3761 45.6314 0.0000 2.0284 0.0000
# 3 14.8860 45.6314 131.2038 0.0000 5.3627 0.0000
# 4 0.0000 0.0000 0.0000 41.6646 0.0000 -1.6832
# 5 2.4053 2.0284 5.3627 0.0000 40.8984 0.0000
# 6 0.0000 0.0000 0.0000 -1.6832 0.0000 49.5113
#
#
#
# Elastic Compliance Matrix: (Units=1/GPa)
#
#
# Indices 1 2 3 4 5 6 
#
# 1 0.011949 -0.002278 -0.000542 0.000000 -0.000519 0.000000
# 2 -0.002278 0.005523 -0.001666 0.000000 0.000078 0.000000
# 3 -0.000542 -0.001666 0.008302 0.000000 -0.000974 0.000000
# 4 0.000000 0.000000 0.000000 0.024034 0.000000 0.000817
# 5 -0.000519 0.000078 -0.000974 0.000000 0.024605 0.000000
# 6 0.000000 0.000000 0.000000 0.000817 0.000000 0.020225
#
#
# Mechanical properties :
#
#
# Convention : Reuss Voigt Hill
#
# Bulk Modulus (GPa) = 59.51423 71.38964 65.45194
# Shear Modulus (GPa) = 45.78276 48.61600 47.19938
#
# Velocity S-wave (km/s) = 4.80088 4.94720 4.87459
# Velocity P-wave (km/s) = 7.79054 8.28086 8.03944
#
# Compressibility (1/GPa) = 0.01680270
#
# Stress axis : x y z
#
# Youngs Moduli (GPa) = 83.69064 181.05530 120.44753
#
# Poissons Ratio (x) = 0.41242 0.06531
# Poissons Ratio (y) = 0.19064 0.20063
# Poissons Ratio (z) = 0.04538 0.30158
#
# Static dielectric constant tensor:
#      x y z
#    x 3.827800 0.000000 0.033770 
#    y 0.000000 4.279720 0.000000 
#    z 0.033770 0.000000 4.148730 
# 
# 
# High freq. dielectric constant tensor:
#      x y z
#    x 1.797270 0.000000 0.002010 
#    y 0.000000 1.813820 0.000000 
#    z 0.002010 0.000000 1.820430 
# 
# From -- ./inp_files/73878.got.cif
#   From: 2010.06.25/outbox.ucp.g09.slc.cvg/sg11_37_cif.got.tgz:73878.got - 2010.06.28 13:43:20.
