data_PCOD8078023
_publ_section_title
;
Structure prediction by ZEFSAII (Michael W. Deem and Ramdas Pophale) SiO2 
 PCOD8078023
Probable space group: P 21/M
;
_chemical_formula_sum "Si O2"
_cell_formula_units_Z 32
_cell_length_a 18.000000
_cell_length_b 9.000000
_cell_length_c 24.000000
_cell_angle_alpha 90.000000
_cell_angle_beta 30.000000
_cell_angle_gamma 90.000000
_cell_volume 1944.000000
_symmetry_space_group_name_H-M "P 21/M"
_symmetry_group_IT_number 11
_symmetry_cell_setting 'monoclinic'
loop_
_space_group_symop_operation_xyz
x,y,z
-x,1/2+y,-z
-x,-y,-z
x,1/2-y,z
loop_
_atom_site_type_symbol
_atom_site_label
_atom_site_fract_x
_atom_site_fract_y
_atom_site_fract_z
Si Si1 0.783859 0.915843 0.618607
Si Si2 0.828205 0.581958 0.012207
Si Si3 0.333459 0.927350 0.409706
Si Si4 0.941818 0.925457 0.353353
Si Si5 0.998478 0.925478 0.188531
Si Si6 0.104767 0.585762 0.355051
Si Si7 0.641893 0.072374 0.226859
Si Si8 0.155000 0.583271 0.803575
O O1 0.715131 0.750000 0.665058
O O2 0.948221 0.909938 0.487806
O O3 0.685828 0.019018 0.641762
O O4 0.785737 0.978498 0.681009
O O5 0.766730 0.750000 0.043768
O O6 0.854816 0.503754 0.934021
O O7 0.989135 0.586252 0.938230
O O8 0.715095 0.487633 0.122621
O O9 0.341969 0.750000 0.405015
O O10 0.202083 0.981768 0.535338
O O11 0.481752 0.999234 0.338215
O O12 0.905197 0.750000 0.382017
O O13 0.986714 0.970140 0.261292
O O14 0.076132 0.966141 0.309432
O O15 0.012318 0.750000 0.172714
O O16 0.852524 0.982385 0.248197
O O17 0.176236 0.750000 0.308771
O O18 0.632092 0.250000 0.229661
O O19 0.734166 0.020043 0.221493
O O20 0.203390 0.750000 0.754641
#
# Coordination Sequence:
#
# PCOD8078023 Si02
#       8
#     4   4   4   4   4   4   4   4
#     4   9  16  28  43  64  92 121 153 187 227 274
#     4   9  18  32  49  72  96 118 151 196 239 278
#     4  11  22  32  46  68  96 128 157 191 234 280
#     4   9  18  33  49  69  96 127 160 192 228 274
#     4   9  17  30  50  71  93 122 156 195 235 272
#     4   8  14  25  44  66  90 118 151 191 228 265
#     4  11  20  33  50  69  93 124 158 192 237 283
#     4   8  18  32  48  70  94 119 151 197 240 276
#
# _framework density 16.460905
#
# number of rings (size 3 to 8) (size 9 to 14) (size 15 to 20)
#    0.750    2.000    0.000    3.375    0.000    5.000 
#    0.000    0.625    0.000    0.000    0.000    0.875 
#    0.000    0.000    0.000    0.000    0.000    0.000 
#
# Total GULP energy -396485.408236 kJ/mol
# GULP energy per Si atom -12390.169007 kJ/mol
# Density = 1.642344 g / cm^3
# Si number density = 16.460905 Si / 1000 Ang^3
#
#
#
# Elastic Constant Matrix: (Units=GPa)
#
#
# Indices 1 2 3 4 5 6 
#
# 1 98.4487 39.7829 31.7119 0.0000 31.1354 0.0000
# 2 39.7829 104.7066 23.5097 0.0000 14.2494 0.0000
# 3 31.7119 23.5097 34.4080 0.0000 17.5403 0.0000
# 4 0.0000 0.0000 0.0000 23.3721 0.0000 1.9136
# 5 31.1354 14.2494 17.5403 0.0000 25.2895 0.0000
# 6 0.0000 0.0000 0.0000 1.9136 0.0000 30.3518
#
#
#
# Elastic Compliance Matrix: (Units=1/GPa)
#
#
# Indices 1 2 3 4 5 6 
#
# 1 0.019011 -0.003453 -0.006532 0.000000 -0.016930 0.000000
# 2 -0.003453 0.011948 -0.005750 0.000000 0.001506 0.000000
# 3 -0.006532 -0.005750 0.051453 0.000000 -0.024405 0.000000
# 4 0.000000 0.000000 0.000000 0.043008 0.000000 -0.002712
# 5 -0.016930 0.001506 -0.024405 0.000000 0.076464 0.000000
# 6 0.000000 0.000000 0.000000 -0.002712 0.000000 0.033118
#
#
# Mechanical properties :
#
#
# Convention : Reuss Voigt Hill
#
# Bulk Modulus (GPa) = 19.62945 47.50802 33.56873
# Shear Modulus (GPa) = 17.63970 25.30659 21.47315
#
# Velocity S-wave (km/s) = 3.27710 3.92519 3.61570
# Velocity P-wave (km/s) = 5.12542 7.03325 6.15372
#
# Compressibility (1/GPa) = 0.05094386
#
# Stress axis : x y z
#
# Youngs Moduli (GPa) = 52.60110 83.69413 19.43528
#
# Poissons Ratio (x) = 0.28896 0.12695
# Poissons Ratio (y) = 0.18161 0.11174
# Poissons Ratio (z) = 0.34359 0.48121
#
# Static dielectric constant tensor:
#      x y z
#    x 3.312780 0.000000 0.096680 
#    y 0.000000 3.255000 0.000000 
#    z 0.096680 0.000000 2.716740 
# 
# 
# High freq. dielectric constant tensor:
#      x y z
#    x 1.639360 0.000000 0.010520 
#    y 0.000000 1.649170 0.000000 
#    z 0.010520 0.000000 1.586080 
# 
# From -- ./inp_files/69427.got.cif
#   From: 2010.06.25/outbox.ucp.g09.slc.cvg/sg11_35_cif.got.tgz:69427.got - 2010.06.28 13:43:20.
