data_PCOD8078879
_publ_section_title
;
Structure prediction by ZEFSAII (Michael W. Deem and Ramdas Pophale) SiO2 
 PCOD8078879
Probable space group: C 2/M
;
_chemical_formula_sum "Si O2"
_cell_formula_units_Z 64
_cell_length_a 22.584220
_cell_length_b 14.193959
_cell_length_c 12.669966
_cell_angle_alpha 90.000000
_cell_angle_beta 69.225216
_cell_angle_gamma 90.000000
_cell_volume 3797.408174
_symmetry_space_group_name_H-M "C 2/M"
_symmetry_group_IT_number 12
_symmetry_cell_setting 'monoclinic'
loop_
_space_group_symop_operation_xyz
x,y,z
-x,y,-z
-x,-y,-z
x,-y,z
1/2+x,1/2+y,z
1/2-x,1/2+y,-z
1/2-x,1/2-y,-z
1/2+x,1/2-y,z
loop_
_atom_site_type_symbol
_atom_site_label
_atom_site_fract_x
_atom_site_fract_y
_atom_site_fract_z
Si Si1 0.034077 0.277603 0.874448
Si Si2 0.427633 0.105618 0.837942
Si Si3 0.144142 0.607368 0.909174
Si Si4 0.755853 0.265312 0.256329
Si Si5 0.298205 0.606629 0.537584
Si Si6 0.664256 0.107551 0.286287
Si Si7 0.132720 0.783809 0.669346
Si Si8 0.339236 0.104502 0.467181
O O1 0.084342 0.356246 0.879595
O O2 0.071303 0.197418 0.782949
O O3 0.983253 0.322358 0.827940
O O4 0.000000 0.233525 0.000000
O O5 0.398779 0.127925 0.741476
O O6 0.455555 0.000000 0.824787
O O7 0.370635 0.115262 0.957934
O O8 0.157361 0.500000 0.865847
O O9 0.207143 0.668043 0.848815
O O10 0.707348 0.328677 0.355475
O O11 0.717613 0.183591 0.218883
O O12 0.804645 0.211516 0.300289
O O13 0.310438 0.500000 0.565774
O O14 0.358506 0.640195 0.429370
O O15 0.235461 0.616855 0.506259
O O16 0.646701 0.122705 0.419325
O O17 0.688348 0.000000 0.251053
O O18 0.122654 0.679171 0.626974
O O19 0.361624 0.000000 0.419419
#
# Coordination Sequence:
#
# PCOD8078879 Si02
#       8
#     8   8   8   8   8   8   8   8
#     4   9  18  31  48  66  89 119 153 193 227 260
#     4   9  18  31  45  65  92 126 160 183 219 272
#     4   9  17  29  47  70  95 121 151 191 227 259
#     4  10  17  28  45  70  96 119 150 184 228 274
#     4  10  17  27  45  70  93 116 147 186 231 273
#     4  10  18  29  45  64  97 131 150 178 222 274
#     4  10  17  28  46  69  91 117 152 187 226 272
#     4   9  16  27  43  66  98 123 142 179 228 272
#
# _framework density 16.853601000000001
#
# number of rings (size 3 to 8) (size 9 to 14) (size 15 to 20)
#    0.000    2.500    2.500    1.500    0.000    5.500 
#    0.000    0.625    0.000    2.625    0.000    5.250 
#    0.000    0.000    0.000    0.000    0.000    0.000 
#
# Total GULP energy -396639.623873 kJ/mol
# GULP energy per Si atom -12394.988246 kJ/mol
# Density = 1.681524 g / cm^3
# Si number density = 16.853601 Si / 1000 Ang^3
#
#
#
# Elastic Constant Matrix: (Units=GPa)
#
#
# Indices 1 2 3 4 5 6 
#
# 1 51.2637 31.1162 26.4430 0.0000 1.4996 0.0000
# 2 31.1162 61.5443 26.1964 0.0000 -8.8857 0.0000
# 3 26.4430 26.1964 63.1080 0.0000 -12.5062 0.0000
# 4 0.0000 0.0000 0.0000 22.9734 0.0000 1.1687
# 5 1.4996 -8.8857 -12.5062 0.0000 30.3770 0.0000
# 6 0.0000 0.0000 0.0000 1.1687 0.0000 12.8920
#
#
#
# Elastic Compliance Matrix: (Units=1/GPa)
#
#
# Indices 1 2 3 4 5 6 
#
# 1 0.033624 -0.014093 -0.010218 0.000000 -0.009989 0.000000
# 2 -0.014093 0.025835 -0.003466 0.000000 0.006826 0.000000
# 3 -0.010218 -0.003466 0.023372 0.000000 0.009113 0.000000
# 4 0.000000 0.000000 0.000000 0.043730 0.000000 -0.003964
# 5 -0.009989 0.006826 0.009113 0.000000 0.039161 0.000000
# 6 0.000000 0.000000 0.000000 -0.003964 0.000000 0.077927
#
#
# Mechanical properties :
#
#
# Convention : Reuss Voigt Hill
#
# Bulk Modulus (GPa) = 36.66258 38.15859 37.41059
# Shear Modulus (GPa) = 16.21814 19.39249 17.80531
#
# Velocity S-wave (km/s) = 3.10545 3.39579 3.25386
# Velocity P-wave (km/s) = 5.88721 6.16973 6.03013
#
# Compressibility (1/GPa) = 0.02727576
#
# Stress axis : x y z
#
# Youngs Moduli (GPa) = 29.74048 38.70780 42.78568
#
# Poissons Ratio (x) = 0.54550 0.43721
# Poissons Ratio (y) = 0.41913 0.14831
# Poissons Ratio (z) = 0.30390 0.13418
#
# Static dielectric constant tensor:
#      x y z
#    x 2.854260 0.000000 -0.027670 
#    y 0.000000 3.097930 0.000000 
#    z -0.027670 0.000000 3.286890 
# 
# 
# High freq. dielectric constant tensor:
#      x y z
#    x 1.611530 0.000000 0.001280 
#    y 0.000000 1.630490 0.000000 
#    z 0.001280 0.000000 1.655300 
# 
# From -- ./inp_files/167217.got.cif
#   From: 2010.06.25/outbox.cif.g09.slc.cpg/sg12_84_cif.got.tgz:167217.got - 2010.06.28 00:19:55.
