data_PCOD8078517
_publ_section_title
;
Structure prediction by ZEFSAII (Michael W. Deem and Ramdas Pophale) SiO2 
 PCOD8078517
Probable space group: C 2/M
;
_chemical_formula_sum "Si O2"
_cell_formula_units_Z 40
_cell_length_a 19.105438
_cell_length_b 8.578137
_cell_length_c 14.077282
_cell_angle_alpha 90.000000
_cell_angle_beta 70.380941
_cell_angle_gamma 90.000000
_cell_volume 2173.175039
_symmetry_space_group_name_H-M "C 2/M"
_symmetry_group_IT_number 12
_symmetry_cell_setting 'monoclinic'
loop_
_space_group_symop_operation_xyz
x,y,z
-x,y,-z
-x,-y,-z
x,-y,z
1/2+x,1/2+y,z
1/2-x,1/2+y,-z
1/2-x,1/2-y,-z
1/2+x,1/2-y,z
loop_
_atom_site_type_symbol
_atom_site_label
_atom_site_fract_x
_atom_site_fract_y
_atom_site_fract_z
Si Si1 0.081356 0.322756 0.006845
Si Si2 0.867169 0.318173 0.211566
Si Si3 0.977354 0.683932 0.405731
Si Si4 0.019796 0.819194 0.204467
Si Si5 0.679363 0.682853 0.584668
O O1 0.097516 0.500000 0.028314
O O2 0.087581 0.218715 0.100296
O O3 0.139614 0.269365 0.897336
O O4 0.000000 0.302747 0.000000
O O5 0.849317 0.500000 0.231678
O O6 0.951231 0.288539 0.205697
O O7 0.813014 0.220248 0.305490
O O8 0.985087 0.500000 0.390288
O O9 0.035177 0.769286 0.306565
O O10 0.893026 0.734915 0.424957
O O11 0.000000 0.739165 0.500000
O O12 0.998793 0.000000 0.208254
O O13 0.673615 0.500000 0.571178
O O14 0.750000 0.750000 0.500000
#
# Coordination Sequence:
#
# PCOD8078517 Si02
#       5
#     8   8   8   8   8
#     4   8  14  24  38  57  85 119 150 185 230 278
#     4   9  16  27  42  61  88 120 154 191 233 278
#     4  10  20  34  51  70  95 127 162 199 239 283
#     4  10  17  24  39  63  91 120 151 190 233 279
#     4  11  21  33  50  71  98 128 160 198 237 282
#
# _framework density 18.406248000000001
#
# number of rings (size 3 to 8) (size 9 to 14) (size 15 to 20)
#    0.000    2.400    0.000    8.400    0.000    6.000 
#    0.000    0.000    0.000    0.000    0.000    1.400 
#    0.000    0.000    0.000    0.000    0.000    0.000 
#
# Total GULP energy -247774.647857 kJ/mol
# GULP energy per Si atom -12388.732393 kJ/mol
# Density = 1.836435 g / cm^3
# Si number density = 18.406248 Si / 1000 Ang^3
#
#
#
# Elastic Constant Matrix: (Units=GPa)
#
#
# Indices 1 2 3 4 5 6 
#
# 1 25.0692 9.2818 36.0405 0.0000 -5.8712 0.0000
# 2 9.2818 53.7345 45.0864 0.0000 -2.5131 0.0000
# 3 36.0405 45.0864 202.1071 0.0000 -14.4706 0.0000
# 4 0.0000 0.0000 0.0000 32.6918 0.0000 -6.8061
# 5 -5.8712 -2.5131 -14.4706 0.0000 20.5028 0.0000
# 6 0.0000 0.0000 0.0000 -6.8061 0.0000 13.1005
#
#
#
# Elastic Compliance Matrix: (Units=1/GPa)
#
#
# Indices 1 2 3 4 5 6 
#
# 1 0.055422 -0.001730 -0.008822 0.000000 0.009432 0.000000
# 2 -0.001730 0.022963 -0.004896 0.000000 -0.001136 0.000000
# 3 -0.008822 -0.004896 0.007783 0.000000 0.002367 0.000000
# 4 0.000000 0.000000 0.000000 0.034299 0.000000 0.017819
# 5 0.009432 -0.001136 0.002367 0.000000 0.053006 0.000000
# 6 0.000000 0.000000 0.000000 0.017819 0.000000 0.085591
#
#
# Mechanical properties :
#
#
# Convention : Reuss Voigt Hill
#
# Bulk Modulus (GPa) = 18.09205 51.30314 34.69760
# Shear Modulus (GPa) = 16.21367 25.95915 21.08641
#
# Velocity S-wave (km/s) = 2.97118 3.75953 3.38836
# Velocity P-wave (km/s) = 4.64986 6.83949 5.84807
#
# Compressibility (1/GPa) = 0.05527289
#
# Stress axis : x y z
#
# Youngs Moduli (GPa) = 18.04348 43.54762 128.49278
#
# Poissons Ratio (x) = 0.07534 1.13353
# Poissons Ratio (y) = 0.03122 0.62904
# Poissons Ratio (z) = 0.15917 0.21319
#
# Static dielectric constant tensor:
#      x y z
#    x 2.636390 0.000000 -0.224000 
#    y 0.000000 3.357120 0.000000 
#    z -0.224000 0.000000 4.659650 
# 
# 
# High freq. dielectric constant tensor:
#      x y z
#    x 1.616960 0.000000 -0.017950 
#    y 0.000000 1.722020 0.000000 
#    z -0.017950 0.000000 1.753520 
# 
# From -- ./inp_files/162507.got.cif
#   From: 2010.06.25/outbox.cif.g09.slc.cpg/sg12_82_cif.got.tgz:162507.got - 2010.06.28 00:19:55.
