data_PCOD8078270
_publ_section_title
;
Structure prediction by ZEFSAII (Michael W. Deem and Ramdas Pophale) SiO2 
 PCOD8078270
Probable space group: C 2/M
;
_chemical_formula_sum "Si O2"
_cell_formula_units_Z 48
_cell_length_a 10.176745
_cell_length_b 29.840919
_cell_length_c 16.403200
_cell_angle_alpha 90.000000
_cell_angle_beta 31.967799
_cell_angle_gamma 90.000000
_cell_volume 2637.354572
_symmetry_space_group_name_H-M "C 2/M"
_symmetry_group_IT_number 12
_symmetry_cell_setting 'monoclinic'
loop_
_space_group_symop_operation_xyz
x,y,z
-x,y,-z
-x,-y,-z
x,-y,z
1/2+x,1/2+y,z
1/2-x,1/2+y,-z
1/2-x,1/2-y,-z
1/2+x,1/2-y,z
loop_
_atom_site_type_symbol
_atom_site_label
_atom_site_fract_x
_atom_site_fract_y
_atom_site_fract_z
Si Si1 0.225488 0.627636 0.440963
Si Si2 0.452432 0.723463 0.340111
Si Si3 0.595237 0.551511 0.206421
Si Si4 0.988869 0.449014 0.138098
Si Si5 0.789780 0.381769 0.363696
Si Si6 0.766841 0.285852 0.316794
O O1 0.393309 0.671718 0.355976
O O2 0.365282 0.585082 0.329295
O O3 0.141296 0.617120 0.577342
O O4 0.000000 0.638546 0.500000
O O5 0.250000 0.750000 0.500000
O O6 0.719207 0.723794 0.245801
O O7 0.462988 0.749359 0.248079
O O8 0.501716 0.500000 0.259265
O O9 0.768800 0.562446 0.191658
O O10 0.747030 0.559914 0.043458
O O11 0.969929 0.500000 0.176834
O O12 0.961348 0.419288 0.232807
O O13 0.500000 0.391752 0.500000
O O14 0.872061 0.335124 0.278994
O O15 0.500000 0.281610 0.500000
#
# Coordination Sequence:
#
# PCOD8078270 Si02
#       6
#     8   8   8   8   8   8
#     4  12  22  32  51  80 109 138 171 216 261 302
#     4  10  16  28  45  73 104 136 166 207 257 306
#     4   9  19  36  54  77 106 135 172 212 261 316
#     4   9  18  34  58  78  99 136 174 214 260 312
#     4  11  18  32  51  81 106 129 175 222 255 294
#     4   9  16  26  44  71 105 131 164 210 251 301
#
# _framework density 18.200054999999999
#
# number of rings (size 3 to 8) (size 9 to 14) (size 15 to 20)
#    0.000    2.000    6.667    2.500    0.000    1.333 
#    0.000    0.833    0.000    3.000    0.000    0.000 
#    0.000    0.000    0.000    0.000    0.000    0.000 
#
# Total GULP energy -297486.208603 kJ/mol
# GULP energy per Si atom -12395.258692 kJ/mol
# Density = 1.815863 g / cm^3
# Si number density = 18.200055 Si / 1000 Ang^3
#
#
#
# Elastic Constant Matrix: (Units=GPa)
#
#
# Indices 1 2 3 4 5 6 
#
# 1 136.0720 47.2749 28.1734 0.0000 19.1528 0.0000
# 2 47.2749 122.1583 41.2100 0.0000 15.2027 0.0000
# 3 28.1734 41.2100 33.2476 0.0000 12.4251 0.0000
# 4 0.0000 0.0000 0.0000 1.9325 0.0000 6.9998
# 5 19.1528 15.2027 12.4251 0.0000 14.7295 0.0000
# 6 0.0000 0.0000 0.0000 6.9998 0.0000 28.8647
#
#
#
# Elastic Compliance Matrix: (Units=1/GPa)
#
#
# Indices 1 2 3 4 5 6 
#
# 1 0.009745 -0.001717 -0.003003 0.000000 -0.008366 0.000000
# 2 -0.001717 0.014372 -0.017013 -0.000001 0.001750 0.000000
# 3 -0.003003 -0.017013 0.066722 0.000005 -0.034819 -0.000001
# 4 0.000000 -0.000001 0.000005 4.255276 -0.000005 -1.031927
# 5 -0.008366 0.001750 -0.034819 -0.000005 0.106334 0.000001
# 6 0.000000 0.000000 -0.000001 -1.031927 0.000001 0.284892
#
#
# Mechanical properties :
#
#
# Convention : Reuss Voigt Hill
#
# Bulk Modulus (GPa) = 21.10923 58.31050 39.70986
# Shear Modulus (GPa) = 1.04241 20.75998 10.90119
#
# Velocity S-wave (km/s) = 0.75762 3.38102 2.45003
# Velocity P-wave (km/s) = 3.51979 6.88113 5.46529
#
# Compressibility (1/GPa) = 0.04737264
#
# Stress axis : x y z
#
# Youngs Moduli (GPa) = 102.61786 69.57896 14.98756
#
# Poissons Ratio (x) = 0.11947 0.04501
# Poissons Ratio (y) = 0.17620 0.25499
# Poissons Ratio (z) = 0.30815 1.18376
#
# Static dielectric constant tensor:
#      x y z
#    x 3.965880 0.000000 0.215640 
#    y 0.000000 3.519190 0.000000 
#    z 0.215640 0.000000 2.879040 
# 
# 
# High freq. dielectric constant tensor:
#      x y z
#    x 1.702550 0.000000 0.017570 
#    y 0.000000 1.721720 0.000000 
#    z 0.017570 0.000000 1.646320 
# 
# From -- ./inp_files/200791.got.cif
#   From: 2010.06.25/outbox.cif.g09.slc.cpg/sg12_101_cif.got.tgz:200791.got - 2010.06.28 00:19:55.
