data_PCOD8078159
_publ_section_title
;
Structure prediction by ZEFSAII (Michael W. Deem and Ramdas Pophale) SiO2 
 PCOD8078159
Probable space group: C 2/M
;
_chemical_formula_sum "Si O2"
_cell_formula_units_Z 64
_cell_length_a 5.348864
_cell_length_b 26.873584
_cell_length_c 27.754159
_cell_angle_alpha 90.000000
_cell_angle_beta 84.470274
_cell_angle_gamma 90.000000
_cell_volume 3970.904484
_symmetry_space_group_name_H-M "C 2/M"
_symmetry_group_IT_number 12
_symmetry_cell_setting 'monoclinic'
loop_
_space_group_symop_operation_xyz
x,y,z
-x,y,-z
-x,-y,-z
x,-y,z
1/2+x,1/2+y,z
1/2-x,1/2+y,-z
1/2-x,1/2-y,-z
1/2+x,1/2-y,z
loop_
_atom_site_type_symbol
_atom_site_label
_atom_site_fract_x
_atom_site_fract_y
_atom_site_fract_z
Si Si1 0.337338 0.302769 0.325340
Si Si2 0.027061 0.058903 0.945876
Si Si3 0.317231 0.193053 0.365554
Si Si4 0.760068 0.693784 0.479863
Si Si5 0.945231 0.558886 0.109539
Si Si6 0.563065 0.763824 0.873882
Si Si7 0.607668 0.685931 0.784678
Si Si8 0.591075 0.141253 0.817863
O O1 0.323464 0.250965 0.353113
O O2 0.579666 0.332316 0.342225
O O3 0.365796 0.290531 0.268406
O O4 0.078129 0.332316 0.342227
O O5 0.789091 0.076745 0.918870
O O6 0.292036 0.076745 0.918869
O O7 0.025512 0.000000 0.948976
O O8 0.000000 0.081558 0.000000
O O9 0.288645 0.188741 0.422708
O O10 0.500000 0.666846 0.500000
O O11 0.750000 0.750000 0.500000
O O12 0.000000 0.666846 0.500000
O O13 0.940883 0.500000 0.118235
O O14 0.919021 0.585100 0.161955
O O15 0.798063 0.750000 0.903886
O O16 0.588208 0.731028 0.823598
O O17 0.567967 0.822093 0.864077
O O18 0.852236 0.651256 0.788143
O O19 0.359639 0.651255 0.788145
#
# Coordination Sequence:
#
# PCOD8078159 Si02
#       8
#     8   8   8   8   8   8   8   8
#     4  10  18  25  36  50  74  93 126 166 216 253
#     4   9  17  30  49  70  90 112 134 158 202 250
#     4  10  19  24  35  53  67  93 134 164 213 267
#     4  10  16  25  35  43  63  89 121 168 215 238
#     4  10  19  31  47  67  94 117 134 167 198 230
#     4   8  16  25  39  54  77 100 136 161 203 236
#     4  10  19  28  42  57  81 110 136 176 215 247
#     4  10  19  29  41  61  84 110 144 159 199 253
#
# _framework density 16.117234
#
# number of rings (size 3 to 8) (size 9 to 14) (size 15 to 20)
#    0.000    2.375    0.000    5.625   10.500    1.500 
#    0.000    0.000    0.000    0.000    0.000    0.000 
#    0.000   90.000    0.000    0.000    0.000    0.000 
#
# Total GULP energy -396440.556563 kJ/mol
# GULP energy per Si atom -12388.767393 kJ/mol
# Density = 1.608055 g / cm^3
# Si number density = 16.117234 Si / 1000 Ang^3
#
#
#
# Elastic Constant Matrix: (Units=GPa)
#
#
# Indices 1 2 3 4 5 6 
#
# 1 182.6979 15.5839 25.1746 0.0000 -2.2739 0.0000
# 2 15.5839 26.8750 17.6061 0.0000 0.0437 0.0000
# 3 25.1746 17.6061 57.8358 0.0000 -0.3914 0.0000
# 4 0.0000 0.0000 0.0000 2.0412 0.0000 -0.1565
# 5 -2.2739 0.0437 -0.3914 0.0000 25.5625 0.0000
# 6 0.0000 0.0000 0.0000 -0.1565 0.0000 9.3697
#
#
#
# Elastic Compliance Matrix: (Units=1/GPa)
#
#
# Indices 1 2 3 4 5 6 
#
# 1 0.005930 -0.002187 -0.001912 0.000000 0.000502 0.000000
# 2 -0.002187 0.047287 -0.013446 0.000000 -0.000481 0.000000
# 3 -0.001912 -0.013446 0.022217 0.000000 0.000193 0.000000
# 4 0.000000 0.000000 0.000000 0.490543 0.000000 0.008194
# 5 0.000502 -0.000481 0.000193 0.000000 0.039168 0.000000
# 6 0.000000 0.000000 0.000000 0.008194 0.000000 0.106864
#
#
# Mechanical properties :
#
#
# Convention : Reuss Voigt Hill
#
# Bulk Modulus (GPa) = 24.78699 42.68200 33.73450
# Shear Modulus (GPa) = 6.57422 21.33094 13.95258
#
# Velocity S-wave (km/s) = 2.02184 3.64192 2.94546
# Velocity P-wave (km/s) = 4.56761 6.65015 5.70471
#
# Compressibility (1/GPa) = 0.04034374
#
# Stress axis : x y z
#
# Youngs Moduli (GPa) = 168.64120 21.14751 45.01021
#
# Poissons Ratio (x) = 0.04624 0.08606
# Poissons Ratio (y) = 0.36877 0.60522
# Poissons Ratio (z) = 0.32245 0.28436
#
# Static dielectric constant tensor:
#      x y z
#    x 21.066400 0.000000 -0.390050 
#    y 0.000000 2.421390 0.000000 
#    z -0.390050 0.000000 2.848100 
# 
# 
# High freq. dielectric constant tensor:
#      x y z
#    x 1.669270 0.000000 -0.001540 
#    y 0.000000 1.532220 0.000000 
#    z -0.001540 0.000000 1.597180 
# 
# From -- ./inp_files/331533.got.cif
#   From: 2010.06.25/outbox.cif.g09.slc.cpg/sg12_166_cif.got.tgz:331533.got - 2010.06.28 00:19:55.
