data_PCOD8078654
_publ_section_title
;
Structure prediction by ZEFSAII (Michael W. Deem and Ramdas Pophale) SiO2 
 PCOD8078654
Probable space group: C 2/M
;
_chemical_formula_sum "Si O2"
_cell_formula_units_Z 64
_cell_length_a 28.560393
_cell_length_b 9.110989
_cell_length_c 16.128329
_cell_angle_alpha 90.000000
_cell_angle_beta 83.356591
_cell_angle_gamma 90.000000
_cell_volume 4168.627870
_symmetry_space_group_name_H-M "C 2/M"
_symmetry_group_IT_number 12
_symmetry_cell_setting 'monoclinic'
loop_
_space_group_symop_operation_xyz
x,y,z
-x,y,-z
-x,-y,-z
x,-y,z
1/2+x,1/2+y,z
1/2-x,1/2+y,-z
1/2-x,1/2-y,-z
1/2+x,1/2-y,z
loop_
_atom_site_type_symbol
_atom_site_label
_atom_site_fract_x
_atom_site_fract_y
_atom_site_fract_z
Si Si1 0.925255 0.335274 0.542423
Si Si2 0.181885 0.672407 0.174078
Si Si3 0.621455 0.331848 0.311287
Si Si4 0.041313 0.329779 0.056383
Si Si5 0.478904 0.164916 0.375343
Si Si6 0.135881 0.827065 0.024908
Si Si7 0.228124 0.167035 0.929342
Si Si8 0.474143 0.668580 0.770984
O O1 0.904383 0.500000 0.545815
O O2 0.888089 0.226864 0.593696
O O3 0.936653 0.283512 0.445666
O O4 0.973074 0.333711 0.583858
O O5 0.169609 0.500000 0.172530
O O6 0.164412 0.739056 0.264206
O O7 0.155477 0.754693 0.104786
O O8 0.239168 0.700088 0.157988
O O9 0.636760 0.500000 0.314772
O O10 0.575956 0.310774 0.262930
O O11 0.053524 0.500000 0.066445
O O12 0.086740 0.246436 0.010620
O O13 0.025211 0.263428 0.146610
O O14 0.000000 0.305333 0.000000
O O15 0.483492 0.274312 0.296638
O O16 0.468855 0.000000 0.345105
O O17 0.128328 0.000000 0.043198
O O18 0.171901 0.797682 0.939324
O O19 0.234333 0.000000 0.952979
O O20 0.250000 0.250000 0.000000
O O21 0.484021 0.500000 0.790690
#
# Coordination Sequence:
#
# PCOD8078654 Si02
#       8
#     8   8   8   8   8   8   8   8
#     4   8  14  24  37  54  75 104 136 165 197 235
#     4  10  17  26  41  59  81 110 138 165 198 241
#     4  10  18  25  36  57  83 109 137 171 203 235
#     4  11  23  35  46  60  78 104 140 178 214 251
#     4   8  14  25  40  55  74 100 134 168 198 238
#     4  10  18  30  45  60  79 101 131 172 212 248
#     4   8  16  27  40  59  79 101 131 164 200 242
#     4  10  19  29  42  58  77 103 134 171 212 246
#
# _framework density 15.352772999999999
#
# number of rings (size 3 to 8) (size 9 to 14) (size 15 to 20)
#    0.000    2.625    1.250    2.625    0.000    3.500 
#    0.000    2.500    0.000    0.000    0.000    0.000 
#    0.000    0.000    0.000    1.125    0.000   13.500 
#
# Total GULP energy -396475.550263 kJ/mol
# GULP energy per Si atom -12389.860946 kJ/mol
# Density = 1.531783 g / cm^3
# Si number density = 15.352773 Si / 1000 Ang^3
#
#
#
# Elastic Constant Matrix: (Units=GPa)
#
#
# Indices 1 2 3 4 5 6 
#
# 1 72.6506 52.0476 50.7203 0.0000 -30.0183 0.0000
# 2 52.0476 103.9828 49.0915 0.0000 -23.4495 0.0000
# 3 50.7203 49.0915 69.2923 0.0000 -32.3049 0.0000
# 4 0.0000 0.0000 0.0000 21.4752 0.0000 -7.8618
# 5 -30.0183 -23.4495 -32.3049 0.0000 27.7036 0.0000
# 6 0.0000 0.0000 0.0000 -7.8618 0.0000 18.2290
#
#
#
# Elastic Compliance Matrix: (Units=1/GPa)
#
#
# Indices 1 2 3 4 5 6 
#
# 1 0.034855 -0.007976 -0.011838 0.000000 0.017212 0.000000
# 2 -0.007976 0.016281 -0.007233 0.000000 -0.003296 0.000000
# 3 -0.011838 -0.007233 0.042481 0.000000 0.030588 0.000000
# 4 0.000000 0.000000 0.000000 0.055296 0.000000 0.023848
# 5 0.017212 -0.003296 0.030588 0.000000 0.087626 0.000000
# 6 0.000000 0.000000 0.000000 0.023848 0.000000 0.065143
#
#
# Mechanical properties :
#
#
# Convention : Reuss Voigt Hill
#
# Bulk Modulus (GPa) = 25.30100 61.07159 43.18630
# Shear Modulus (GPa) = 13.55206 19.75265 16.65236
#
# Velocity S-wave (km/s) = 2.97427 3.59079 3.29697
# Velocity P-wave (km/s) = 5.32077 7.55360 6.53328
#
# Compressibility (1/GPa) = 0.03952412
#
# Stress axis : x y z
#
# Youngs Moduli (GPa) = 28.69066 61.42260 23.53984
#
# Poissons Ratio (x) = 0.48990 0.27866
# Poissons Ratio (y) = 0.22884 0.17025
# Poissons Ratio (z) = 0.33963 0.44424
#
# Static dielectric constant tensor:
#      x y z
#    x 3.018800 0.000000 -0.631270 
#    y 0.000000 3.074600 0.000000 
#    z -0.631270 0.000000 2.966840 
# 
# 
# High freq. dielectric constant tensor:
#      x y z
#    x 1.549900 0.000000 -0.053900 
#    y 0.000000 1.604540 0.000000 
#    z -0.053900 0.000000 1.561520 
# 
# From -- ./inp_files/248383.got.cif
#   From: 2010.06.25/outbox.cif.g09.slc.cpg/sg12_125_cif.got.tgz:248383.got - 2010.06.28 00:19:55.
