data_PCOD8078690
_publ_section_title
;
Structure prediction by ZEFSAII (Michael W. Deem and Ramdas Pophale) SiO2 
 PCOD8078690
Probable space group: C 2/M
;
_chemical_formula_sum "Si O2"
_cell_formula_units_Z 48
_cell_length_a 28.540980
_cell_length_b 9.029081
_cell_length_c 12.231369
_cell_angle_alpha 90.000000
_cell_angle_beta 69.164845
_cell_angle_gamma 90.000000
_cell_volume 2945.891959
_symmetry_space_group_name_H-M "C 2/M"
_symmetry_group_IT_number 12
_symmetry_cell_setting 'monoclinic'
loop_
_space_group_symop_operation_xyz
x,y,z
-x,y,-z
-x,-y,-z
x,-y,z
1/2+x,1/2+y,z
1/2-x,1/2+y,-z
1/2-x,1/2-y,-z
1/2+x,1/2-y,z
loop_
_atom_site_type_symbol
_atom_site_label
_atom_site_fract_x
_atom_site_fract_y
_atom_site_fract_z
Si Si1 0.080820 0.327932 0.426272
Si Si2 0.004037 0.672032 0.673021
Si Si3 0.134428 0.827429 0.046889
Si Si4 0.974647 0.176123 0.910846
Si Si5 0.739340 0.326055 0.894321
Si Si6 0.330436 0.675197 0.745859
O O1 0.094222 0.500000 0.403414
O O2 0.043326 0.278492 0.360716
O O3 0.131603 0.231908 0.378733
O O4 0.055003 0.295976 0.564153
O O5 0.999734 0.500000 0.705944
O O6 0.006156 0.766365 0.781585
O O7 0.082263 0.758816 0.046914
O O8 0.148405 0.765287 0.155338
O O9 0.125918 0.000000 0.070076
O O10 0.179705 0.798016 0.922332
O O11 0.975631 0.000000 0.908494
O O12 0.000000 0.237633 0.000000
O O13 0.751045 0.500000 0.891090
O O14 0.775204 0.248996 0.774162
O O15 0.750000 0.250000 0.000000
O O16 0.324453 0.500000 0.744165
#
# Coordination Sequence:
#
# PCOD8078690 Si02
#       6
#     8   8   8   8   8   8
#     4   9  17  29  45  65  90 120 148 180 225 271
#     4   9  18  31  45  64  90 118 151 186 222 267
#     4   8  15  27  40  59  87 117 147 180 216 258
#     4  10  19  31  47  66  90 121 155 186 218 258
#     4   9  16  26  40  59  87 117 148 182 220 267
#     4  10  17  26  42  65  91 117 147 179 220 274
#
# _framework density 16.293876999999998
#
# number of rings (size 3 to 8) (size 9 to 14) (size 15 to 20)
#    0.000    2.833    1.667    3.000    0.000    1.000 
#    0.000    2.500    0.000    0.000    0.000    1.167 
#    0.000    0.000    0.000    0.000    0.000    0.000 
#
# Total GULP energy -297422.066498 kJ/mol
# GULP energy per Si atom -12392.586104 kJ/mol
# Density = 1.625679 g / cm^3
# Si number density = 16.293877 Si / 1000 Ang^3
#
#
#
# Elastic Constant Matrix: (Units=GPa)
#
#
# Indices 1 2 3 4 5 6 
#
# 1 75.9883 30.1479 50.9087 0.0000 -21.5770 0.0000
# 2 30.1479 58.0297 36.1172 0.0000 -14.4805 0.0000
# 3 50.9087 36.1172 91.0253 0.0000 -17.9825 0.0000
# 4 0.0000 0.0000 0.0000 26.9374 0.0000 -8.4309
# 5 -21.5770 -14.4805 -17.9825 0.0000 33.3714 0.0000
# 6 0.0000 0.0000 0.0000 -8.4309 0.0000 17.8654
#
#
#
# Elastic Compliance Matrix: (Units=1/GPa)
#
#
# Indices 1 2 3 4 5 6 
#
# 1 0.023890 -0.004055 -0.010126 0.000000 0.008230 0.000000
# 2 -0.004055 0.024561 -0.006591 0.000000 0.004483 0.000000
# 3 -0.010126 -0.006591 0.019480 0.000000 0.001090 0.000000
# 4 0.000000 0.000000 0.000000 0.043556 0.000000 0.020555
# 5 0.008230 0.004483 0.001090 0.000000 0.037820 0.000000
# 6 0.000000 0.000000 0.000000 0.020555 0.000000 0.065674
#
#
# Mechanical properties :
#
#
# Convention : Reuss Voigt Hill
#
# Bulk Modulus (GPa) = 37.90075 51.04345 44.47210
# Shear Modulus (GPa) = 18.84508 22.82615 20.83561
#
# Velocity S-wave (km/s) = 3.40453 3.74692 3.57983
# Velocity P-wave (km/s) = 6.22621 7.07913 6.66632
#
# Compressibility (1/GPa) = 0.02638470
#
# Stress axis : x y z
#
# Youngs Moduli (GPa) = 41.85871 40.71563 51.33484
#
# Poissons Ratio (x) = 0.16511 0.51983
# Poissons Ratio (y) = 0.16975 0.33837
# Poissons Ratio (z) = 0.42387 0.26838
#
# Static dielectric constant tensor:
#      x y z
#    x 3.328780 0.000000 -0.433650 
#    y 0.000000 2.935160 0.000000 
#    z -0.433650 0.000000 3.022840 
# 
# 
# High freq. dielectric constant tensor:
#      x y z
#    x 1.605940 0.000000 -0.044250 
#    y 0.000000 1.619030 0.000000 
#    z -0.044250 0.000000 1.601580 
# 
# From -- ./inp_files/179193.got.cif
#   From: 2010.06.25/outbox.cif.g09.slc.cpg/sg12_90_cif.got.tgz:179193.got - 2010.06.28 00:19:55.
