data_PCOD8078420
_publ_section_title
;
Structure prediction by ZEFSAII (Michael W. Deem and Ramdas Pophale) SiO2 
 PCOD8078420
Probable space group: C 2/M
;
_chemical_formula_sum "Si O2"
_cell_formula_units_Z 44
_cell_length_a 17.707889
_cell_length_b 14.396353
_cell_length_c 19.377232
_cell_angle_alpha 90.000000
_cell_angle_beta 150.879013
_cell_angle_gamma 90.000000
_cell_volume 2403.989504
_symmetry_space_group_name_H-M "C 2/M"
_symmetry_group_IT_number 12
_symmetry_cell_setting 'monoclinic'
loop_
_space_group_symop_operation_xyz
x,y,z
-x,y,-z
-x,-y,-z
x,-y,z
1/2+x,1/2+y,z
1/2-x,1/2+y,-z
1/2-x,1/2-y,-z
1/2+x,1/2-y,z
loop_
_atom_site_type_symbol
_atom_site_label
_atom_site_fract_x
_atom_site_fract_y
_atom_site_fract_z
Si Si1 0.763154 0.678631 0.614090
Si Si2 0.450403 0.687248 0.681580
Si Si3 0.000000 0.252047 0.500000
Si Si4 0.663503 0.000000 0.489273
Si Si5 0.078538 0.500000 0.273342
Si Si6 0.007477 0.000000 0.789265
Si Si7 0.082800 0.653829 0.696970
Si Si8 0.762366 0.500000 0.101610
O O1 0.687123 0.655572 0.479066
O O2 0.873803 0.768249 0.689964
O O3 0.625061 0.691277 0.558409
O O4 0.872466 0.593664 0.728248
O O5 0.548544 0.594828 0.780363
O O6 0.562760 0.761515 0.734617
O O7 0.891820 0.310032 0.360509
O O8 0.688709 0.000000 0.427878
O O9 0.824056 0.000000 0.659076
O O10 0.572795 0.906293 0.435498
O O11 0.897953 0.500000 0.151487
O O12 0.097125 0.000000 0.933337
O O13 0.223026 0.590656 0.837640
#
# Coordination Sequence:
#
# PCOD8078420 Si02
#       8
#     8   8   4   4   4   4   8   4
#     4  10  17  31  55  81 104 132 172 219 264 305
#     4  10  17  31  54  75 107 133 174 219 258 308
#     4  10  20  28  54  86 102 136 176 214 256 312
#     4  10  16  32  58  76 102 138 166 218 264 305
#     4  10  16  35  53  77 104 139 162 222 262 303
#     4  12  20  28  51  89 102 134 178 217 259 299
#     4   9  19  37  53  77 108 138 169 215 270 303
#     4  10  22  34  52  81 107 135 177 221 253 308
#
# _framework density 18.302909
#
# number of rings (size 3 to 8) (size 9 to 14) (size 15 to 20)
#    0.000    2.182    5.455    2.182    0.000    2.545 
#    0.000    2.727    0.000    8.727    0.000    5.091 
#    0.000    0.000    0.000    0.000    0.000    0.000 
#
# Total GULP energy -272538.309544 kJ/mol
# GULP energy per Si atom -12388.104979 kJ/mol
# Density = 1.826125 g / cm^3
# Si number density = 18.302909 Si / 1000 Ang^3
#
#
#
# Elastic Constant Matrix: (Units=GPa)
#
#
# Indices 1 2 3 4 5 6 
#
# 1 82.4406 28.7097 10.1167 0.0025 -5.9096 0.0010
# 2 28.7097 113.8689 26.4532 0.0027 -4.3542 0.0014
# 3 10.1167 26.4532 96.5017 0.0007 -4.1983 0.0019
# 4 0.0025 0.0027 0.0007 13.8798 0.0007 -0.4842
# 5 -5.9096 -4.3542 -4.1983 0.0007 11.1116 0.0023
# 6 0.0010 0.0014 0.0019 -0.4842 0.0023 7.6074
#
#
#
# Elastic Compliance Matrix: (Units=1/GPa)
#
#
# Indices 1 2 3 4 5 6 
#
# 1 0.013691 -0.003153 -0.000313 -0.000002 0.005928 -0.000003
# 2 -0.003153 0.010189 -0.002401 -0.000001 0.001409 -0.000001
# 3 -0.000313 -0.002401 0.011189 0.000000 0.003120 -0.000003
# 4 -0.000002 -0.000001 0.000000 0.072208 -0.000007 0.004596
# 5 0.005928 0.001409 0.003120 -0.000007 0.094880 -0.000031
# 6 -0.000003 -0.000001 -0.000003 0.004596 -0.000031 0.131744
#
#
# Mechanical properties :
#
#
# Convention : Reuss Voigt Hill
#
# Bulk Modulus (GPa) = 42.85362 47.04114 44.94738
# Shear Modulus (GPa) = 14.14778 21.68852 17.91815
#
# Velocity S-wave (km/s) = 2.78327 3.44608 3.13226
# Velocity P-wave (km/s) = 5.81319 6.44913 6.13940
#
# Compressibility (1/GPa) = 0.02333525
#
# Stress axis : x y z
#
# Youngs Moduli (GPa) = 73.03981 98.14941 89.37119
#
# Poissons Ratio (x) = 0.30942 0.02800
# Poissons Ratio (y) = 0.23026 0.21459
# Poissons Ratio (z) = 0.02288 0.23567
#
# Static dielectric constant tensor:
#      x y z
#    x 3.063990 0.000000 -0.075400 
#    y 0.000000 3.759820 0.000000 
#    z -0.075400 0.000000 2.966500 
# 
# 
# High freq. dielectric constant tensor:
#      x y z
#    x 1.674890 0.000000 0.000090 
#    y 0.000000 1.733900 0.000000 
#    z 0.000090 0.000000 1.663510 
# 
# From -- ./inp_files/277988.got.cif
#   From: 2010.06.25/outbox.cif.g09.slc.cpg/sg12_139_cif.got.tgz:277988.got - 2010.06.28 00:19:55.
