data_PCOD8078809
_publ_section_title
;
Structure prediction by ZEFSAII (Michael W. Deem and Ramdas Pophale) SiO2 
 PCOD8078809
Probable space group: C 2/M
;
_chemical_formula_sum "Si O2"
_cell_formula_units_Z 64
_cell_length_a 25.278599
_cell_length_b 9.042750
_cell_length_c 24.043782
_cell_angle_alpha 90.000000
_cell_angle_beta 134.030018
_cell_angle_gamma 90.000000
_cell_volume 3951.577972
_symmetry_space_group_name_H-M "C 2/M"
_symmetry_group_IT_number 12
_symmetry_cell_setting 'monoclinic'
loop_
_space_group_symop_operation_xyz
x,y,z
-x,y,-z
-x,-y,-z
x,-y,z
1/2+x,1/2+y,z
1/2-x,1/2+y,-z
1/2-x,1/2-y,-z
1/2+x,1/2-y,z
loop_
_atom_site_type_symbol
_atom_site_label
_atom_site_fract_x
_atom_site_fract_y
_atom_site_fract_z
Si Si1 0.220907 0.176012 0.087759
Si Si2 0.904251 0.323810 0.072661
Si Si3 0.884000 0.325474 0.181325
Si Si4 0.473965 0.826222 0.921994
Si Si5 0.839417 0.827818 0.340690
Si Si6 0.451955 0.825852 0.343006
Si Si7 0.058398 0.836054 0.493050
Si Si8 0.811454 0.328507 0.821298
O O1 0.302562 0.236463 0.134306
O O2 0.198138 0.227350 0.132235
O O3 0.214856 0.000000 0.079933
O O4 0.168608 0.248739 0.004010
O O5 0.895282 0.500000 0.061735
O O6 0.913723 0.270906 0.143402
O O7 0.975428 0.264133 0.090898
O O8 0.878028 0.500000 0.177642
O O9 0.940863 0.274247 0.270989
O O10 0.388686 0.786518 0.848459
O O11 0.486173 0.000000 0.933351
O O12 0.500000 0.757099 0.000000
O O13 0.883100 0.735204 0.327002
O O14 0.864710 0.782728 0.422143
O O15 0.752696 0.797175 0.270451
O O16 0.859105 0.000000 0.345496
O O17 0.530832 0.768090 0.422936
O O18 0.451530 0.000000 0.349088
O O19 0.000000 0.833114 0.500000
O O20 0.066733 0.000000 0.474080
O O21 0.811572 0.500000 0.840415
#
# Coordination Sequence:
#
# PCOD8078809 Si02
#       8
#     8   8   8   8   8   8   8   8
#     4  11  20  31  44  65  93 117 146 183 218 263
#     4  10  19  34  50  62  84 119 152 187 224 255
#     4   9  19  31  44  64  91 119 148 182 218 258
#     4   9  16  28  48  70  84 104 150 196 220 253
#     4   9  17  28  43  63  89 116 144 177 215 260
#     4  10  17  27  42  63  90 117 145 174 211 262
#     4   8  15  27  40  60  88 116 144 174 211 257
#     4  10  18  30  48  68  87 116 151 181 221 264
#
# _framework density 16.196062000000001
#
# number of rings (size 3 to 8) (size 9 to 14) (size 15 to 20)
#    0.000    2.500    2.500    1.875    0.000    2.250 
#    0.000    3.125    0.000    0.000    0.000    0.875 
#    0.000    0.000    0.000    0.000    0.000    0.000 
#
# Total GULP energy -396613.980934 kJ/mol
# GULP energy per Si atom -12394.186904 kJ/mol
# Density = 1.615920 g / cm^3
# Si number density = 16.196062 Si / 1000 Ang^3
#
#
#
# Elastic Constant Matrix: (Units=GPa)
#
#
# Indices 1 2 3 4 5 6 
#
# 1 84.3716 21.2124 59.8375 0.0000 -9.6130 0.0000
# 2 21.2124 42.5275 39.6702 0.0000 -3.7091 0.0000
# 3 59.8375 39.6702 168.0198 0.0000 -3.5298 0.0000
# 4 0.0000 0.0000 0.0000 22.3485 0.0000 -0.2939
# 5 -9.6130 -3.7091 -3.5298 0.0000 18.5013 0.0000
# 6 0.0000 0.0000 0.0000 -0.2939 0.0000 11.1494
#
#
#
# Elastic Compliance Matrix: (Units=1/GPa)
#
#
# Indices 1 2 3 4 5 6 
#
# 1 0.017167 -0.003034 -0.005244 0.000000 0.007311 0.000000
# 2 -0.003034 0.031105 -0.006191 0.000000 0.003479 0.000000
# 3 -0.005244 -0.006191 0.009235 0.000000 -0.002204 0.000000
# 4 0.000000 0.000000 0.000000 0.044761 0.000000 0.001180
# 5 0.007311 0.003479 -0.002204 0.000000 0.058126 0.000000
# 6 0.000000 0.000000 0.000000 0.001180 0.000000 0.089722
#
#
# Mechanical properties :
#
#
# Convention : Reuss Voigt Hill
#
# Bulk Modulus (GPa) = 35.00085 59.59545 47.29815
# Shear Modulus (GPa) = 17.32645 22.01310 19.66978
#
# Velocity S-wave (km/s) = 3.27432 3.69068 3.48872
# Velocity P-wave (km/s) = 5.99604 7.41874 6.74501
#
# Compressibility (1/GPa) = 0.02857073
#
# Stress axis : x y z
#
# Youngs Moduli (GPa) = 58.25097 32.14871 108.28864
#
# Poissons Ratio (x) = 0.09752 0.56786
# Poissons Ratio (y) = 0.17671 0.67038
# Poissons Ratio (z) = 0.30547 0.19902
#
# Static dielectric constant tensor:
#      x y z
#    x 2.972780 0.000000 0.019770 
#    y 0.000000 2.887480 0.000000 
#    z 0.019770 0.000000 3.583710 
# 
# 
# High freq. dielectric constant tensor:
#      x y z
#    x 1.584640 0.000000 0.004630 
#    y 0.000000 1.603170 0.000000 
#    z 0.004630 0.000000 1.636010 
# 
# From -- ./inp_files/348585.got.cif
#   From: 2010.06.25/outbox.cif.g09.slc.cpg/sg12_175_cif.got.tgz:348585.got - 2010.06.28 00:19:55.
