data_PCOD8078851
_publ_section_title
;
Structure prediction by ZEFSAII (Michael W. Deem and Ramdas Pophale) SiO2 
 PCOD8078851
Probable space group: C 2/M
;
_chemical_formula_sum "Si O2"
_cell_formula_units_Z 56
_cell_length_a 14.069289
_cell_length_b 19.064014
_cell_length_c 12.477652
_cell_angle_alpha 90.000000
_cell_angle_beta 80.384957
_cell_angle_gamma 90.000000
_cell_volume 3299.705923
_symmetry_space_group_name_H-M "C 2/M"
_symmetry_group_IT_number 12
_symmetry_cell_setting 'monoclinic'
loop_
_space_group_symop_operation_xyz
x,y,z
-x,y,-z
-x,-y,-z
x,-y,z
1/2+x,1/2+y,z
1/2-x,1/2+y,-z
1/2-x,1/2-y,-z
1/2+x,1/2-y,z
loop_
_atom_site_type_symbol
_atom_site_label
_atom_site_fract_x
_atom_site_fract_y
_atom_site_fract_z
Si Si1 0.849099 0.851859 0.716625
Si Si2 0.886852 0.077006 0.500123
Si Si3 0.723916 0.920642 0.919917
Si Si4 0.206335 0.921948 0.862246
Si Si5 0.045479 0.919444 0.732200
Si Si6 0.222102 0.278805 0.171258
Si Si7 0.887457 0.287888 0.021205
O O1 0.835606 0.871191 0.593967
O O2 0.777456 0.897408 0.802553
O O3 0.822443 0.769202 0.726359
O O4 0.956180 0.866665 0.740742
O O5 0.876360 0.099240 0.376949
O O6 0.000000 0.076048 0.500000
O O7 0.841908 0.000000 0.527241
O O8 0.631785 0.870955 0.957592
O O9 0.686548 0.000000 0.914135
O O10 0.796821 0.913720 0.008053
O O11 0.098558 0.911408 0.836298
O O12 0.276720 0.861696 0.799474
O O13 0.245028 0.000000 0.823484
O O14 0.008875 0.000000 0.722806
O O15 0.332555 0.256121 0.124083
O O16 0.154323 0.261877 0.083469
O O17 0.000000 0.271890 0.000000
#
# Coordination Sequence:
#
# PCOD8078851 Si02
#       7
#     8   8   8   8   8   8   8
#     4  10  17  27  44  68  94 122 146 190 234 269
#     4   8  14  26  43  64  93 121 150 182 223 279
#     4   9  17  29  44  66  94 120 152 190 221 264
#     4   9  18  32  45  62  94 121 150 189 225 273
#     4   9  17  28  46  70  92 123 153 181 231 282
#     4   9  19  31  43  68  90 120 158 186 228 272
#     4   9  18  31  45  61  91 128 154 183 227 273
#
# _framework density 16.971209000000002
#
# number of rings (size 3 to 8) (size 9 to 14) (size 15 to 20)
#    0.000    3.000    0.000    3.000    2.000    0.857 
#    0.000    2.857    0.000    0.000    0.000    0.000 
#    0.000    5.143    0.000   22.429    0.000    0.000 
#
# Total GULP energy -346913.820415 kJ/mol
# GULP energy per Si atom -12389.779301 kJ/mol
# Density = 1.693258 g / cm^3
# Si number density = 16.971209 Si / 1000 Ang^3
#
#
#
# Elastic Constant Matrix: (Units=GPa)
#
#
# Indices 1 2 3 4 5 6 
#
# 1 66.0588 19.1448 18.6290 0.0000 -7.6276 0.0000
# 2 19.1448 111.7600 24.9067 0.0000 -14.3956 0.0000
# 3 18.6290 24.9067 54.5948 0.0000 -14.6284 0.0000
# 4 0.0000 0.0000 0.0000 21.7089 0.0000 -1.6364
# 5 -7.6276 -14.3956 -14.6284 0.0000 15.2328 0.0000
# 6 0.0000 0.0000 0.0000 -1.6364 0.0000 16.1747
#
#
#
# Elastic Compliance Matrix: (Units=1/GPa)
#
#
# Indices 1 2 3 4 5 6 
#
# 1 0.017163 -0.001596 -0.004349 0.000000 0.002910 0.000000
# 2 -0.001596 0.010661 -0.002469 0.000000 0.006905 0.000000
# 3 -0.004349 -0.002469 0.026550 0.000000 0.020986 0.000000
# 4 0.000000 0.000000 0.000000 0.046418 0.000000 0.004696
# 5 0.002910 0.006905 0.020986 0.000000 0.093783 0.000000
# 6 0.000000 0.000000 0.000000 0.004696 0.000000 0.062300
#
#
# Mechanical properties :
#
#
# Convention : Reuss Voigt Hill
#
# Bulk Modulus (GPa) = 26.63365 39.75273 33.19319
# Shear Modulus (GPa) = 17.46924 21.93882 19.70403
#
# Velocity S-wave (km/s) = 3.21182 3.59933 3.41108
# Velocity P-wave (km/s) = 5.42972 6.38342 5.92579
#
# Compressibility (1/GPa) = 0.03754649
#
# Stress axis : x y z
#
# Youngs Moduli (GPa) = 58.26522 93.80200 37.66493
#
# Poissons Ratio (x) = 0.14972 0.16379
# Poissons Ratio (y) = 0.09300 0.09299
# Poissons Ratio (z) = 0.25337 0.23158
#
# Static dielectric constant tensor:
#      x y z
#    x 2.786770 0.000000 0.129310 
#    y 0.000000 3.381370 0.000000 
#    z 0.129310 0.000000 3.310650 
# 
# 
# High freq. dielectric constant tensor:
#      x y z
#    x 1.609640 0.000000 0.011180 
#    y 0.000000 1.661790 0.000000 
#    z 0.011180 0.000000 1.639010 
# 
# From -- ./inp_files/147048.got.cif
#   From: 2010.06.25/outbox.cif.g09.slc.cpg/sg12_74_cif.got.tgz:147048.got - 2010.06.28 00:19:55.
