data_PCOD8078928
_publ_section_title
;
Structure prediction by ZEFSAII (Michael W. Deem and Ramdas Pophale) SiO2 
 PCOD8078928
Probable space group: C 2/M
;
_chemical_formula_sum "Si O2"
_cell_formula_units_Z 64
_cell_length_a 29.424063
_cell_length_b 16.679025
_cell_length_c 13.749346
_cell_angle_alpha 90.000000
_cell_angle_beta 33.793538
_cell_angle_gamma 90.000000
_cell_volume 3753.079841
_symmetry_space_group_name_H-M "C 2/M"
_symmetry_group_IT_number 12
_symmetry_cell_setting 'monoclinic'
loop_
_space_group_symop_operation_xyz
x,y,z
-x,y,-z
-x,-y,-z
x,-y,z
1/2+x,1/2+y,z
1/2-x,1/2+y,-z
1/2-x,1/2-y,-z
1/2+x,1/2-y,z
loop_
_atom_site_type_symbol
_atom_site_label
_atom_site_fract_x
_atom_site_fract_y
_atom_site_fract_z
Si Si1 0.648817 0.344026 0.595951
Si Si2 0.059292 0.199143 0.309141
Si Si3 0.404842 0.796928 0.179822
Si Si4 0.296418 0.781305 0.012273
Si Si5 0.822459 0.911412 0.784266
Si Si6 0.949216 0.912758 0.390122
Si Si7 0.774546 0.764070 0.266141
Si Si8 0.277004 0.906646 0.509908
O O1 0.599036 0.283879 0.751893
O O2 0.581436 0.398697 0.664117
O O3 0.699955 0.293408 0.426793
O O4 0.707211 0.402497 0.552474
O O5 0.125478 0.135331 0.228154
O O6 0.000000 0.228733 0.500000
O O7 0.011102 0.157231 0.308002
O O8 0.106438 0.276509 0.182358
O O9 0.357926 0.775362 0.162002
O O10 0.359951 0.869676 0.316523
O O11 0.500000 0.821442 0.000000
O O12 0.266036 0.872181 0.080588
O O13 0.278695 0.729998 0.141635
O O14 0.250000 0.750000 0.000000
O O15 0.870986 0.912260 0.598112
O O16 0.806524 0.000000 0.853066
O O17 0.992437 0.000000 0.319584
O O18 0.754413 0.853292 0.342775
O O19 0.290852 0.000000 0.515454
#
# Coordination Sequence:
#
# PCOD8078928 Si02
#       8
#     8   8   8   8   8   8   8   8
#     4   9  17  31  51  72 101 133 170 202 246 307
#     4   9  19  31  46  73 103 135 166 204 254 306
#     4   9  19  32  51  75 101 135 167 209 252 295
#     4  10  19  33  52  74 101 135 176 207 244 306
#     4   9  17  31  50  72  98 125 166 218 253 285
#     4  10  17  27  48  75 100 125 159 207 262 300
#     4   9  18  34  51  74  98 134 175 204 249 300
#     4   9  18  34  54  75 102 131 167 211 250 301
#
# _framework density 17.052662000000002
#
# number of rings (size 3 to 8) (size 9 to 14) (size 15 to 20)
#    0.000    2.750    1.250    2.250    1.750    1.750 
#    0.000    3.125    0.000    2.250    0.000    0.000 
#    0.000    0.000    0.000    0.000    0.000    0.000 
#
# Total GULP energy -396505.491587 kJ/mol
# GULP energy per Si atom -12390.796612 kJ/mol
# Density = 1.701385 g / cm^3
# Si number density = 17.052662 Si / 1000 Ang^3
#
#
#
# Elastic Constant Matrix: (Units=GPa)
#
#
# Indices 1 2 3 4 5 6 
#
# 1 89.1711 16.3777 36.0077 0.0000 7.0463 0.0000
# 2 16.3777 80.1749 39.7092 0.0000 -6.6518 0.0000
# 3 36.0077 39.7092 95.7524 0.0000 -9.8049 0.0000
# 4 0.0000 0.0000 0.0000 33.8450 0.0000 -34.0938
# 5 7.0463 -6.6518 -9.8049 0.0000 25.3839 0.0000
# 6 0.0000 0.0000 0.0000 -34.0938 0.0000 92.9558
#
#
#
# Elastic Compliance Matrix: (Units=1/GPa)
#
#
# Indices 1 2 3 4 5 6 
#
# 1 0.014124 -0.000575 -0.005716 0.000000 -0.006279 0.000000
# 2 -0.000575 0.015788 -0.006134 0.000000 0.001928 0.000000
# 3 -0.005716 -0.006134 0.015758 0.000000 0.006066 0.000000
# 4 0.000000 0.000000 0.000000 0.046860 0.000000 0.017187
# 5 -0.006279 0.001928 0.006066 0.000000 0.043986 0.000000
# 6 0.000000 0.000000 0.000000 0.017187 0.000000 0.017062
#
#
# Mechanical properties :
#
#
# Convention : Reuss Voigt Hill
#
# Bulk Modulus (GPa) = 48.02929 49.92086 48.97507
# Shear Modulus (GPa) = 26.97336 41.97052 34.47194
#
# Velocity S-wave (km/s) = 3.98146 4.96646 4.50099
# Velocity P-wave (km/s) = 7.02584 7.88833 7.46954
#
# Compressibility (1/GPa) = 0.02082063
#
# Stress axis : x y z
#
# Youngs Moduli (GPa) = 70.79975 63.33888 63.46007
#
# Poissons Ratio (x) = 0.03643 0.36273
# Poissons Ratio (y) = 0.04073 0.38925
# Poissons Ratio (z) = 0.40468 0.38850
#
# Static dielectric constant tensor:
#      x y z
#    x 3.182040 0.000000 -0.048000 
#    y 0.000000 3.229490 0.000000 
#    z -0.048000 0.000000 3.285200 
# 
# 
# High freq. dielectric constant tensor:
#      x y z
#    x 1.659750 0.000000 -0.000650 
#    y 0.000000 1.639060 0.000000 
#    z -0.000650 0.000000 1.644260 
# 
# From -- ./inp_files/251645.got.cif
#   From: 2010.06.25/outbox.cif.g09.slc.cpg/sg12_126_cif.got.tgz:251645.got - 2010.06.28 00:19:55.
