data_PCOD8078899
_publ_section_title
;
Structure prediction by ZEFSAII (Michael W. Deem and Ramdas Pophale) SiO2 
 PCOD8078899
Probable space group: C 2/M
;
_chemical_formula_sum "Si O2"
_cell_formula_units_Z 64
_cell_length_a 19.709139
_cell_length_b 8.658918
_cell_length_c 20.067777
_cell_angle_alpha 90.000000
_cell_angle_beta 95.142575
_cell_angle_gamma 90.000000
_cell_volume 3410.977602
_symmetry_space_group_name_H-M "C 2/M"
_symmetry_group_IT_number 12
_symmetry_cell_setting 'monoclinic'
loop_
_space_group_symop_operation_xyz
x,y,z
-x,y,-z
-x,-y,-z
x,-y,z
1/2+x,1/2+y,z
1/2-x,1/2+y,-z
1/2-x,1/2-y,-z
1/2+x,1/2-y,z
loop_
_atom_site_type_symbol
_atom_site_label
_atom_site_fract_x
_atom_site_fract_y
_atom_site_fract_z
Si Si1 0.695517 0.679888 0.945691
Si Si2 0.623276 0.684315 0.172587
Si Si3 0.940331 0.819256 0.569418
Si Si4 0.278017 0.181933 0.192456
Si Si5 0.117565 0.817625 0.695678
Si Si6 0.911126 0.317892 0.439490
Si Si7 0.928602 0.820557 0.972024
Si Si8 0.532723 0.318844 0.284145
O O1 0.711043 0.500000 0.934200
O O2 0.695112 0.774549 0.877837
O O3 0.750000 0.750000 0.000000
O O4 0.622043 0.704998 0.971453
O O5 0.621965 0.500000 0.171620
O O6 0.700237 0.738663 0.193793
O O7 0.599828 0.753386 0.099115
O O8 0.572976 0.753457 0.224885
O O9 0.887985 0.740597 0.511696
O O10 0.922293 0.784402 0.645182
O O11 0.014455 0.749348 0.565269
O O12 0.942249 0.000000 0.555395
O O13 0.322495 0.271236 0.250076
O O14 0.285653 0.000000 0.203962
O O15 0.135600 0.746176 0.624596
O O16 0.044466 0.752565 0.716310
O O17 0.113837 0.000000 0.687734
O O18 0.910458 0.500000 0.437971
O O19 0.940254 0.000000 0.958203
O O20 0.000000 0.742748 0.000000
O O21 0.526314 0.500000 0.272142
#
# Coordination Sequence:
#
# PCOD8078899 Si02
#       8
#     8   8   8   8   8   8   8   8
#     4  11  21  36  57  80 103 135 174 216 258 306
#     4   9  17  32  51  74 104 136 174 214 255 306
#     4   9  15  26  45  73 105 137 174 217 261 305
#     4  11  22  36  54  77 106 140 173 212 258 311
#     4  10  20  34  53  79 105 134 173 219 263 305
#     4  10  17  27  46  73 105 139 172 211 260 312
#     4   9  18  31  52  80 104 131 173 219 257 299
#     4   8  16  29  50  77 103 133 173 219 259 300
#
# _framework density 18.762948999999999
#
# number of rings (size 3 to 8) (size 9 to 14) (size 15 to 20)
#    0.000    2.375    1.250    4.125    1.750    0.000 
#    0.000    0.000    0.000   12.750    0.000    0.000 
#    0.000    0.000    0.000    0.000    0.000    0.000 
#
# Total GULP energy -396597.134482 kJ/mol
# GULP energy per Si atom -12393.660453 kJ/mol
# Density = 1.872024 g / cm^3
# Si number density = 18.762949 Si / 1000 Ang^3
#
#
#
# Elastic Constant Matrix: (Units=GPa)
#
#
# Indices 1 2 3 4 5 6 
#
# 1 90.7128 18.0469 50.0346 0.0000 10.0771 0.0000
# 2 18.0469 66.6355 24.3123 0.0000 3.8829 0.0000
# 3 50.0346 24.3123 137.9383 0.0000 18.3573 0.0000
# 4 0.0000 0.0000 0.0000 30.0369 0.0000 6.3917
# 5 10.0771 3.8829 18.3573 0.0000 24.0728 0.0000
# 6 0.0000 0.0000 0.0000 6.3917 0.0000 14.0566
#
#
#
# Elastic Compliance Matrix: (Units=1/GPa)
#
#
# Indices 1 2 3 4 5 6 
#
# 1 0.014147 -0.002071 -0.004477 0.000000 -0.002174 0.000000
# 2 -0.002071 0.016347 -0.002108 0.000000 -0.000162 0.000000
# 3 -0.004477 -0.002108 0.009961 0.000000 -0.005382 0.000000
# 4 0.000000 0.000000 0.000000 0.036859 0.000000 -0.016760
# 5 -0.002174 -0.000162 -0.005382 0.000000 0.046581 0.000000
# 6 0.000000 0.000000 0.000000 -0.016760 0.000000 0.078762
#
#
# Mechanical properties :
#
#
# Convention : Reuss Voigt Hill
#
# Bulk Modulus (GPa) = 43.21234 53.34158 48.27696
# Shear Modulus (GPa) = 21.96025 27.15945 24.55985
#
# Velocity S-wave (km/s) = 3.42483 3.80874 3.62187
# Velocity P-wave (km/s) = 6.22254 6.91613 6.57848
#
# Compressibility (1/GPa) = 0.02314154
#
# Stress axis : x y z
#
# Youngs Moduli (GPa) = 70.68737 61.17472 100.38657
#
# Poissons Ratio (x) = 0.12671 0.44944
# Poissons Ratio (y) = 0.14641 0.21165
# Poissons Ratio (z) = 0.31648 0.12898
#
# Static dielectric constant tensor:
#      x y z
#    x 3.653130 0.000000 -0.527810 
#    y 0.000000 3.248840 0.000000 
#    z -0.527810 0.000000 4.912240 
# 
# 
# High freq. dielectric constant tensor:
#      x y z
#    x 1.694880 0.000000 0.004230 
#    y 0.000000 1.702600 0.000000 
#    z 0.004230 0.000000 1.753520 
# 
# From -- ./inp_files/341997.got.cif
#   From: 2010.06.25/outbox.cif.g09.slc.cpg/sg12_171_cif.got.tgz:341997.got - 2010.06.28 00:19:55.
