data_PCOD8078421
_publ_section_title
;
Structure prediction by ZEFSAII (Michael W. Deem and Ramdas Pophale) SiO2 
 PCOD8078421
Probable space group: C 2/M
;
_chemical_formula_sum "Si O2"
_cell_formula_units_Z 24
_cell_length_a 20.441529
_cell_length_b 7.821608
_cell_length_c 10.486075
_cell_angle_alpha 90.000000
_cell_angle_beta 127.833816
_cell_angle_gamma 90.000000
_cell_volume 1324.145591
_symmetry_space_group_name_H-M "C 2/M"
_symmetry_group_IT_number 12
_symmetry_cell_setting 'monoclinic'
loop_
_space_group_symop_operation_xyz
x,y,z
-x,y,-z
-x,-y,-z
x,-y,z
1/2+x,1/2+y,z
1/2-x,1/2+y,-z
1/2-x,1/2-y,-z
1/2+x,1/2-y,z
loop_
_atom_site_type_symbol
_atom_site_label
_atom_site_fract_x
_atom_site_fract_y
_atom_site_fract_z
Si Si1 0.547885 0.000000 0.188219
Si Si2 0.155970 0.800731 0.407774
Si Si3 0.598145 0.682785 0.621225
Si Si4 0.437527 0.000000 0.303706
O O1 0.601852 0.826424 0.256070
O O2 0.482098 0.000000 0.223133
O O3 0.500000 0.000000 0.000000
O O4 0.250000 0.750000 0.500000
O O5 0.132537 0.763124 0.525296
O O6 0.139505 0.000000 0.351875
O O7 0.500000 0.661467 0.500000
O O8 0.637394 0.500000 0.710075
O O9 0.620024 0.830493 0.750477
O O10 0.500000 0.000000 0.500000
#
# Coordination Sequence:
#
# PCOD8078421 Si02
#       4
#     4   8   8   4
#     4  12  24  38  56  92 124 148 185 248 297 336
#     4  11  21  35  59  90 115 151 195 243 284 344
#     4   9  16  28  52  84 104 135 201 241 259 324
#     4  10  16  32  58  78 104 150 197 227 265 343
#
# _framework density 18.124896
#
# number of rings (size 3 to 8) (size 9 to 14) (size 15 to 20)
#    0.000    1.667    8.333    0.000    0.000    0.667 
#    0.000    0.000    0.000    2.000    0.000    0.000 
#    0.000    0.000    0.000    0.000    0.000    0.000 
#
# Total GULP energy -148663.472347 kJ/mol
# GULP energy per Si atom -12388.622696 kJ/mol
# Density = 1.808364 g / cm^3
# Si number density = 18.124896 Si / 1000 Ang^3
#
#
#
# Elastic Constant Matrix: (Units=GPa)
#
#
# Indices 1 2 3 4 5 6 
#
# 1 135.6314 46.7316 54.2594 0.0000 -14.1996 0.0000
# 2 46.7316 193.3906 63.3837 0.0000 -3.6333 0.0000
# 3 54.2594 63.3837 77.9603 0.0000 -12.6481 0.0000
# 4 0.0000 0.0000 0.0000 16.3200 0.0000 -1.8709
# 5 -14.1996 -3.6333 -12.6481 0.0000 16.1530 0.0000
# 6 0.0000 0.0000 0.0000 -1.8709 0.0000 30.6724
#
#
#
# Elastic Compliance Matrix: (Units=1/GPa)
#
#
# Indices 1 2 3 4 5 6 
#
# 1 0.010459 -0.000389 -0.006284 0.000000 0.004186 0.000000
# 2 -0.000389 0.007223 -0.006179 0.000000 -0.003555 0.000000
# 3 -0.006284 -0.006179 0.024173 0.000000 0.012014 0.000000
# 4 0.000000 0.000000 0.000000 0.061706 0.000000 0.003764
# 5 0.004186 -0.003555 0.012014 0.000000 0.074196 0.000000
# 6 0.000000 0.000000 0.000000 0.003764 0.000000 0.032832
#
#
# Mechanical properties :
#
#
# Convention : Reuss Voigt Hill
#
# Bulk Modulus (GPa) = 61.91116 81.74797 71.82957
# Shear Modulus (GPa) = 20.68883 28.80293 24.74588
#
# Velocity S-wave (km/s) = 3.38221 3.99072 3.69900
# Velocity P-wave (km/s) = 7.03454 8.15077 7.61314
#
# Compressibility (1/GPa) = 0.01615218
#
# Stress axis : x y z
#
# Youngs Moduli (GPa) = 95.61001 138.44376 41.36850
#
# Poissons Ratio (x) = 0.05389 0.25995
# Poissons Ratio (y) = 0.03721 0.25560
# Poissons Ratio (z) = 0.60079 0.85538
#
# Static dielectric constant tensor:
#      x y z
#    x 3.364410 0.000000 -0.140630 
#    y 0.000000 7.685430 0.000000 
#    z -0.140630 0.000000 2.690790 
# 
# 
# High freq. dielectric constant tensor:
#      x y z
#    x 1.718050 0.000000 -0.022670 
#    y 0.000000 1.747320 0.000000 
#    z -0.022670 0.000000 1.614390 
# 
# From -- ./inp_files/69324.got.cif
#   From: 2010.06.25/outbox.cif.g09.slc.cpg/sg12_35_cif.got.tgz:69324.got - 2010.06.28 00:19:55.
