data_PCOD8078053
_publ_section_title
;
Structure prediction by ZEFSAII (Michael W. Deem and Ramdas Pophale) SiO2 
 PCOD8078053
Probable space group: C 2/M
;
_chemical_formula_sum "Si O2"
_cell_formula_units_Z 36
_cell_length_a 30.969514
_cell_length_b 14.172397
_cell_length_c 9.352594
_cell_angle_alpha 90.000000
_cell_angle_beta 148.970130
_cell_angle_gamma 90.000000
_cell_volume 2116.048929
_symmetry_space_group_name_H-M "C 2/M"
_symmetry_group_IT_number 12
_symmetry_cell_setting 'monoclinic'
loop_
_space_group_symop_operation_xyz
x,y,z
-x,y,-z
-x,-y,-z
x,-y,z
1/2+x,1/2+y,z
1/2-x,1/2+y,-z
1/2-x,1/2-y,-z
1/2+x,1/2-y,z
loop_
_atom_site_type_symbol
_atom_site_label
_atom_site_fract_x
_atom_site_fract_y
_atom_site_fract_z
Si Si1 0.978288 0.796706 0.281496
Si Si2 0.274601 0.000000 0.545342
Si Si3 0.846982 0.000000 0.561347
Si Si4 0.836405 0.703450 0.697892
Si Si5 0.908456 0.000000 0.036349
Si Si6 0.584524 0.313368 0.324261
O O1 0.000000 0.758327 0.500000
O O2 0.060649 0.780732 0.416325
O O3 0.953218 0.906829 0.222851
O O4 0.903360 0.734856 0.005567
O O5 0.245467 0.000000 0.629323
O O6 0.331154 0.090903 0.675623
O O7 0.191273 0.000000 0.207521
O O8 0.859276 0.092676 0.500785
O O9 0.916212 0.000000 0.885885
O O10 0.750000 0.750000 0.500000
O O11 0.862402 0.735916 0.612293
O O12 0.500000 0.337099 0.000000
#
# Coordination Sequence:
#
# PCOD8078053 Si02
#       6
#     8   4   4   8   4   8
#     4  11  22  34  52  82 113 137 169 221 273 305
#     4  10  18  31  57  85  97 134 181 220 246 305
#     4  10  14  27  56  82 104 123 179 221 255 308
#     4  11  18  35  58  77 105 137 181 212 253 317
#     4  10  16  31  57  81 109 127 168 230 270 303
#     4  10  17  30  53  78 104 139 175 213 257 309
#
# _framework density 17.012837999999999
#
# number of rings (size 3 to 8) (size 9 to 14) (size 15 to 20)
#    0.667    0.889    8.889    1.333    0.000    0.000 
#    0.000    6.667    0.000    0.000    0.000    0.000 
#    0.000    0.000    0.000    0.000    0.000    0.000 
#
# Total GULP energy -223099.857616 kJ/mol
# GULP energy per Si atom -12394.436534 kJ/mol
# Density = 1.697412 g / cm^3
# Si number density = 17.012838 Si / 1000 Ang^3
#
#
#
# Elastic Constant Matrix: (Units=GPa)
#
#
# Indices 1 2 3 4 5 6 
#
# 1 145.9242 61.0660 52.6603 0.0000 2.1390 0.0000
# 2 61.0660 136.9919 33.6343 0.0000 15.7448 0.0000
# 3 52.6603 33.6343 51.8748 0.0000 -0.9100 0.0000
# 4 0.0000 0.0000 0.0000 21.5412 0.0000 12.6344
# 5 2.1390 15.7448 -0.9100 0.0000 27.1808 0.0000
# 6 0.0000 0.0000 0.0000 12.6344 0.0000 25.8338
#
#
#
# Elastic Compliance Matrix: (Units=1/GPa)
#
#
# Indices 1 2 3 4 5 6 
#
# 1 0.011608 -0.002763 -0.009986 0.000000 0.000353 0.000000
# 2 -0.002763 0.010149 -0.003877 0.000000 -0.005791 0.000000
# 3 -0.009986 -0.003877 0.032000 0.000000 0.004103 0.000000
# 4 0.000000 0.000000 0.000000 0.065095 0.000000 -0.031836
# 5 0.000353 -0.005791 0.004103 0.000000 0.040255 0.000000
# 6 0.000000 0.000000 0.000000 -0.031836 0.000000 0.054279
#
#
# Mechanical properties :
#
#
# Convention : Reuss Voigt Hill
#
# Bulk Modulus (GPa) = 48.76897 69.94577 59.35737
# Shear Modulus (GPa) = 19.72617 27.40653 23.56635
#
# Velocity S-wave (km/s) = 3.40882 4.01800 3.72588
# Velocity P-wave (km/s) = 6.64993 7.92013 7.31266
#
# Compressibility (1/GPa) = 0.02050484
#
# Stress axis : x y z
#
# Youngs Moduli (GPa) = 86.15095 98.53346 31.25036
#
# Poissons Ratio (x) = 0.27226 0.31205
# Poissons Ratio (y) = 0.23804 0.12115
# Poissons Ratio (z) = 0.86027 0.38200
#
# Static dielectric constant tensor:
#      x y z
#    x 3.423940 0.000000 0.180430 
#    y 0.000000 3.131820 0.000000 
#    z 0.180430 0.000000 2.798250 
# 
# 
# High freq. dielectric constant tensor:
#      x y z
#    x 1.658290 0.000000 0.019470 
#    y 0.000000 1.649210 0.000000 
#    z 0.019470 0.000000 1.612220 
# 
# From -- ./inp_files/111822.got.cif
#   From: 2010.06.25/outbox.cif.g09.slc.cpg/sg12_56_cif.got.tgz:111822.got - 2010.06.28 00:19:55.
