data_PCOD8078709
_publ_section_title
;
Structure prediction by ZEFSAII (Michael W. Deem and Ramdas Pophale) SiO2 
 PCOD8078709
Probable space group: C 2/M
;
_chemical_formula_sum "Si O2"
_cell_formula_units_Z 64
_cell_length_a 20.941266
_cell_length_b 17.057042
_cell_length_c 9.482464
_cell_angle_alpha 90.000000
_cell_angle_beta 88.538794
_cell_angle_gamma 90.000000
_cell_volume 3385.997303
_symmetry_space_group_name_H-M "C 2/M"
_symmetry_group_IT_number 12
_symmetry_cell_setting 'monoclinic'
loop_
_space_group_symop_operation_xyz
x,y,z
-x,y,-z
-x,-y,-z
x,-y,z
1/2+x,1/2+y,z
1/2-x,1/2+y,-z
1/2-x,1/2-y,-z
1/2+x,1/2-y,z
loop_
_atom_site_type_symbol
_atom_site_label
_atom_site_fract_x
_atom_site_fract_y
_atom_site_fract_z
Si Si1 0.038761 0.091011 0.754489
Si Si2 0.374800 0.669132 0.455797
Si Si3 0.436246 0.831091 0.421426
Si Si4 0.504396 0.906720 0.163351
Si Si5 0.392341 0.407945 0.742327
Si Si6 0.124695 0.409986 0.326425
Si Si7 0.734311 0.408034 0.713314
Si Si8 0.857882 0.909333 0.040786
O O1 0.062771 0.124310 0.604367
O O2 0.082558 0.129152 0.876243
O O3 0.965258 0.110239 0.780996
O O4 0.052840 0.000000 0.747182
O O5 0.385390 0.760620 0.422674
O O6 0.369441 0.649433 0.620934
O O7 0.309148 0.641136 0.390335
O O8 0.500000 0.803741 0.500000
O O9 0.451052 0.862897 0.262749
O O10 0.402331 0.899283 0.514169
O O11 0.573744 0.878201 0.214804
O O12 0.494881 0.000000 0.182449
O O13 0.500000 0.881543 0.000000
O O14 0.382626 0.500000 0.703054
O O15 0.352024 0.378826 0.880859
O O16 0.135141 0.500000 0.295278
O O17 0.194516 0.371575 0.300145
O O18 0.730698 0.500000 0.671541
O O19 0.708650 0.395498 0.874123
O O20 0.875290 0.000000 0.024482
#
# Coordination Sequence:
#
# PCOD8078709 Si02
#       8
#     8   8   8   8   8   8   8   8
#     4   9  16  27  42  61  89 130 179 221 258 298
#     4  11  20  30  45  69 104 139 172 208 246 291
#     4  10  20  34  52  78 109 136 166 204 257 315
#     4   9  18  36  63  89 105 119 154 214 271 312
#     4  10  17  26  43  66  92 128 177 226 260 282
#     4   9  18  35  59  79  99 132 168 206 256 315
#     4   9  18  34  52  71 100 142 184 210 242 298
#     4   8  15  27  43  63  89 124 170 222 263 294
#
# _framework density 18.901375000000002
#
# number of rings (size 3 to 8) (size 9 to 14) (size 15 to 20)
#    0.000    2.625    0.000    3.750    0.000    4.500 
#    0.000    8.750    0.000    6.000    0.000    0.000 
#    0.000    0.000    0.000    0.000    0.000    0.000 
#
# Total GULP energy -396589.924076 kJ/mol
# GULP energy per Si atom -12393.435127 kJ/mol
# Density = 1.885835 g / cm^3
# Si number density = 18.901375 Si / 1000 Ang^3
#
#
#
# Elastic Constant Matrix: (Units=GPa)
#
#
# Indices 1 2 3 4 5 6 
#
# 1 55.4752 39.2398 36.3230 0.0000 -13.0342 0.0000
# 2 39.2398 36.4083 38.2538 0.0000 5.4885 0.0000
# 3 36.3230 38.2538 155.4309 0.0000 -13.5756 0.0000
# 4 0.0000 0.0000 0.0000 7.8431 0.0000 0.3981
# 5 -13.0342 5.4885 -13.5756 0.0000 15.8584 0.0000
# 6 0.0000 0.0000 0.0000 0.3981 0.0000 15.2534
#
#
#
# Elastic Compliance Matrix: (Units=1/GPa)
#
#
# Indices 1 2 3 4 5 6 
#
# 1 -0.049501 0.082733 -0.016048 0.000000 -0.083057 0.000000
# 2 0.082733 -0.092149 0.013045 0.000000 0.111058 0.000000
# 3 -0.016048 0.013045 0.005866 0.000000 -0.012684 0.000000
# 4 0.000000 0.000000 0.000000 0.127669 0.000000 -0.003332
# 5 -0.083057 0.111058 -0.012684 0.000000 -0.054501 0.000000
# 6 0.000000 0.000000 0.000000 -0.003332 0.000000 0.065646
#
#
# Mechanical properties :
#
#
# Convention : Reuss Voigt Hill
#
# Bulk Modulus (GPa) = 42.23760 52.77195 47.50477
# Shear Modulus (GPa) = -33.66126 16.69086 -8.48520
#
# Velocity S-wave (km/s) = -4.22464 2.97484 -2.12107
# Velocity P-wave (km/s) = 1.18403 6.30712 4.38052
#
# Compressibility (1/GPa) = 0.02367559
#
# Stress axis : x y z
#
# Youngs Moduli (GPa) = -20.20159 -10.85200 170.48532
#
# Poissons Ratio (x) = 0.89782 2.73595
# Poissons Ratio (y) = 1.67133 -2.22401
# Poissons Ratio (z) = -0.32420 0.14157
#
# Static dielectric constant tensor:
#      x y z
#    x 3.471340 0.000000 -0.089290 
#    y 0.000000 3.136030 0.000000 
#    z -0.089290 0.000000 3.675700 
# 
# 
# High freq. dielectric constant tensor:
#      x y z
#    x 1.720950 0.000000 -0.011330 
#    y 0.000000 1.700890 0.000000 
#    z -0.011330 0.000000 1.737820 
# 
# From -- ./inp_files/89175.got.cif
#   From: 2010.06.25/outbox.cif.g09.slc.cpg/sg12_45_cif.got.tgz:89175.got - 2010.06.28 00:19:55.
