data_PCOD8078369
_publ_section_title
;
Structure prediction by ZEFSAII (Michael W. Deem and Ramdas Pophale) SiO2 
 PCOD8078369
Probable space group: C 2/M
;
_chemical_formula_sum "Si O2"
_cell_formula_units_Z 60
_cell_length_a 12.051030
_cell_length_b 19.096994
_cell_length_c 15.815122
_cell_angle_alpha 90.000000
_cell_angle_beta 72.769528
_cell_angle_gamma 90.000000
_cell_volume 3476.322832
_symmetry_space_group_name_H-M "C 2/M"
_symmetry_group_IT_number 12
_symmetry_cell_setting 'monoclinic'
loop_
_space_group_symop_operation_xyz
x,y,z
-x,y,-z
-x,-y,-z
x,-y,z
1/2+x,1/2+y,z
1/2-x,1/2+y,-z
1/2-x,1/2-y,-z
1/2+x,1/2-y,z
loop_
_atom_site_type_symbol
_atom_site_label
_atom_site_fract_x
_atom_site_fract_y
_atom_site_fract_z
Si Si1 0.696093 0.186337 0.279005
Si Si2 0.744540 0.711933 0.413212
Si Si3 0.000000 0.777483 0.000000
Si Si4 0.314928 0.797603 0.140243
Si Si5 0.118369 0.081061 0.702702
Si Si6 0.874153 0.922468 0.492226
Si Si7 0.935734 0.836847 0.838742
Si Si8 0.535299 0.803968 0.742546
O O1 0.672319 0.240906 0.362036
O O2 0.770952 0.225719 0.191462
O O3 0.768888 0.119300 0.287676
O O4 0.576208 0.154171 0.267814
O O5 0.750000 0.750000 0.500000
O O6 0.693137 0.634106 0.435565
O O7 0.875902 0.703829 0.353550
O O8 0.032736 0.828110 0.070003
O O9 0.890997 0.725709 0.042458
O O10 0.204651 0.845499 0.139295
O O11 0.399770 0.836997 0.189566
O O12 0.109788 0.103991 0.607179
O O13 0.000597 0.097264 0.782082
O O14 0.142443 0.000000 0.707085
O O15 0.000000 0.931068 0.500000
O O16 0.812980 0.000000 0.510086
O O17 0.982383 0.771303 0.776238
#
# Coordination Sequence:
#
# PCOD8078369 Si02
#       8
#     8   8   4   8   8   8   8   8
#     4  10  19  34  51  77 105 137 184 218 258 318
#     4  11  19  30  52  75 102 137 177 222 261 311
#     4  10  16  30  51  86 111 134 166 218 276 316
#     4   9  18  30  53  78 111 133 164 223 272 311
#     4  11  21  38  54  72 109 146 177 220 269 315
#     4  10  23  36  51  77 108 138 175 223 273 317
#     4  10  18  33  51  81 110 138 175 218 264 315
#     4   9  19  31  50  76 104 134 174 220 258 309
#
# _framework density 17.259618
#
# number of rings (size 3 to 8) (size 9 to 14) (size 15 to 20)
#    0.000    2.000    5.333    0.400    7.467    0.000 
#    0.000    1.000    0.000    2.400    0.000    0.467 
#    0.000    0.000    0.000    0.000    0.000    0.000 
#
# Total GULP energy -371775.599818 kJ/mol
# GULP energy per Si atom -12392.519994 kJ/mol
# Density = 1.722033 g / cm^3
# Si number density = 17.259618 Si / 1000 Ang^3
#
#
#
# Elastic Constant Matrix: (Units=GPa)
#
#
# Indices 1 2 3 4 5 6 
#
# 1 131.8879 28.6638 42.1865 0.0000 12.7988 0.0000
# 2 28.6638 60.0294 25.8411 0.0000 0.1494 0.0000
# 3 42.1865 25.8411 96.4412 0.0000 -6.8596 0.0000
# 4 0.0000 0.0000 0.0000 22.8138 0.0000 -1.6395
# 5 12.7988 0.1494 -6.8596 0.0000 23.4261 0.0000
# 6 0.0000 0.0000 0.0000 -1.6395 0.0000 23.0585
#
#
#
# Elastic Compliance Matrix: (Units=1/GPa)
#
#
# Indices 1 2 3 4 5 6 
#
# 1 0.010233 -0.003091 -0.004130 0.000000 -0.006781 0.000000
# 2 -0.003091 0.019826 -0.003931 0.000000 0.000412 0.000000
# 3 -0.004130 -0.003931 0.013676 0.000000 0.006286 0.000000
# 4 0.000000 0.000000 0.000000 0.044058 0.000000 0.003133
# 5 -0.006781 0.000412 0.006286 0.000000 0.048230 0.000000
# 6 0.000000 0.000000 0.000000 0.003133 0.000000 0.043591
#
#
# Mechanical properties :
#
#
# Convention : Reuss Voigt Hill
#
# Bulk Modulus (GPa) = 46.66315 53.52680 50.09498
# Shear Modulus (GPa) = 23.91633 26.63748 25.27690
#
# Velocity S-wave (km/s) = 3.72651 3.93280 3.83105
# Velocity P-wave (km/s) = 6.75356 7.19045 6.97543
#
# Compressibility (1/GPa) = 0.02143019
#
# Stress axis : x y z
#
# Youngs Moduli (GPa) = 97.72088 50.43963 73.12046
#
# Poissons Ratio (x) = 0.15593 0.30201
# Poissons Ratio (y) = 0.30210 0.28741
# Poissons Ratio (z) = 0.40362 0.19826
#
# Static dielectric constant tensor:
#      x y z
#    x 3.800900 0.000000 0.131690 
#    y 0.000000 3.078030 0.000000 
#    z 0.131690 0.000000 4.395530 
# 
# 
# High freq. dielectric constant tensor:
#      x y z
#    x 1.678210 0.000000 0.004540 
#    y 0.000000 1.617820 0.000000 
#    z 0.004540 0.000000 1.676170 
# 
# From -- ./inp_files/206144.got.cif
#   From: 2010.06.25/outbox.cif.g09.slc.cpg/sg12_104_cif.got.tgz:206144.got - 2010.06.28 00:19:55.
