data_PCOD8078695
_publ_section_title
;
Structure prediction by ZEFSAII (Michael W. Deem and Ramdas Pophale) SiO2 
 PCOD8078695
Probable space group: C 2/M
;
_chemical_formula_sum "Si O2"
_cell_formula_units_Z 48
_cell_length_a 24.133316
_cell_length_b 9.331607
_cell_length_c 14.299037
_cell_angle_alpha 90.000000
_cell_angle_beta 111.623075
_cell_angle_gamma 90.000000
_cell_volume 2993.570550
_symmetry_space_group_name_H-M "C 2/M"
_symmetry_group_IT_number 12
_symmetry_cell_setting 'monoclinic'
loop_
_space_group_symop_operation_xyz
x,y,z
-x,y,-z
-x,-y,-z
x,-y,z
1/2+x,1/2+y,z
1/2-x,1/2+y,-z
1/2-x,1/2-y,-z
1/2+x,1/2-y,z
loop_
_atom_site_type_symbol
_atom_site_label
_atom_site_fract_x
_atom_site_fract_y
_atom_site_fract_z
Si Si1 0.224080 0.836994 0.355585
Si Si2 0.560736 0.841406 0.979482
Si Si3 0.477417 0.166506 0.772971
Si Si4 0.832192 0.832668 0.482277
Si Si5 0.547461 0.166396 0.451933
Si Si6 0.884141 0.834691 0.835683
O O1 0.183310 0.798926 0.419779
O O2 0.280551 0.732502 0.384170
O O3 0.184464 0.815905 0.238014
O O4 0.247149 0.000000 0.378551
O O5 0.541299 0.796141 0.861840
O O6 0.589390 0.000000 0.998061
O O7 0.500000 0.838914 0.000000
O O8 0.607824 0.733007 0.055783
O O9 0.482479 0.200501 0.666720
O O10 0.424766 0.259502 0.783696
O O11 0.461973 0.000000 0.782465
O O12 0.894044 0.759303 0.494851
O O13 0.837347 0.000000 0.464601
O O14 0.500000 0.212119 0.500000
O O15 0.565063 0.000000 0.471143
O O16 0.902760 0.000000 0.851726
#
# Coordination Sequence:
#
# PCOD8078695 Si02
#       6
#     8   8   8   8   8   8
#     4   9  18  30  44  65  93 121 148 181 224 274
#     4   8  15  26  39  59  87 118 148 177 217 268
#     4   9  17  29  43  60  88 121 151 184 219 263
#     4  10  19  31  46  66  90 119 153 187 226 268
#     4  10  20  33  49  67  89 122 159 190 224 265
#     4  10  17  26  42  66  92 117 146 180 222 268
#
# _framework density 16.034364
#
# number of rings (size 3 to 8) (size 9 to 14) (size 15 to 20)
#    0.000    2.667    1.667    2.000    0.000    5.333 
#    0.000    0.000    0.000    0.000    0.000    1.167 
#    0.000    0.000    0.000    0.000    0.000    0.000 
#
# Total GULP energy -297528.844866 kJ/mol
# GULP energy per Si atom -12397.035203 kJ/mol
# Density = 1.599787 g / cm^3
# Si number density = 16.034364 Si / 1000 Ang^3
#
#
#
# Elastic Constant Matrix: (Units=GPa)
#
#
# Indices 1 2 3 4 5 6 
#
# 1 77.0746 53.2931 51.5065 0.0000 10.2393 0.0000
# 2 53.2931 95.2183 58.9534 0.0000 14.5131 0.0000
# 3 51.5065 58.9534 115.0630 0.0000 17.4400 0.0000
# 4 0.0000 0.0000 0.0000 24.4701 0.0000 8.5187
# 5 10.2393 14.5131 17.4400 0.0000 19.9618 0.0000
# 6 0.0000 0.0000 0.0000 8.5187 0.0000 22.7133
#
#
#
# Elastic Compliance Matrix: (Units=1/GPa)
#
#
# Indices 1 2 3 4 5 6 
#
# 1 0.023318 -0.009635 -0.005476 0.000000 -0.000172 0.000000
# 2 -0.009635 0.019800 -0.005070 0.000000 -0.005023 0.000000
# 3 -0.005476 -0.005070 0.014702 0.000000 -0.006350 0.000000
# 4 0.000000 0.000000 0.000000 0.047003 0.000000 -0.017629
# 5 -0.000172 -0.005023 -0.006350 0.000000 0.059384 0.000000
# 6 0.000000 0.000000 0.000000 -0.017629 0.000000 0.050639
#
#
# Mechanical properties :
#
#
# Convention : Reuss Voigt Hill
#
# Bulk Modulus (GPa) = 57.27706 68.31798 62.79752
# Shear Modulus (GPa) = 19.15511 21.66924 20.41217
#
# Velocity S-wave (km/s) = 3.46009 3.68016 3.57182
# Velocity P-wave (km/s) = 7.19458 7.79473 7.50066
#
# Compressibility (1/GPa) = 0.01745900
#
# Stress axis : x y z
#
# Youngs Moduli (GPa) = 42.88448 50.50630 68.01711
#
# Poissons Ratio (x) = 0.48662 0.37244
# Poissons Ratio (y) = 0.41318 0.34486
# Poissons Ratio (z) = 0.23482 0.25608
#
# Static dielectric constant tensor:
#      x y z
#    x 2.597060 0.000000 0.202310 
#    y 0.000000 3.099040 0.000000 
#    z 0.202310 0.000000 3.414020 
# 
# 
# High freq. dielectric constant tensor:
#      x y z
#    x 1.561000 0.000000 0.026630 
#    y 0.000000 1.623430 0.000000 
#    z 0.026630 0.000000 1.621840 
# 
# From -- ./inp_files/179334.got.cif
#   From: 2010.06.25/outbox.cif.g09.slc.cpg/sg12_90_cif.got.tgz:179334.got - 2010.06.28 00:19:55.
