data_PCOD8078494
_publ_section_title
;
Structure prediction by ZEFSAII (Michael W. Deem and Ramdas Pophale) SiO2 
 PCOD8078494
Probable space group: C 2/M
;
_chemical_formula_sum "Si O2"
_cell_formula_units_Z 40
_cell_length_a 25.709375
_cell_length_b 14.669126
_cell_length_c 8.539921
_cell_angle_alpha 90.000000
_cell_angle_beta 130.557083
_cell_angle_gamma 90.000000
_cell_volume 2446.950638
_symmetry_space_group_name_H-M "C 2/M"
_symmetry_group_IT_number 12
_symmetry_cell_setting 'monoclinic'
loop_
_space_group_symop_operation_xyz
x,y,z
-x,y,-z
-x,-y,-z
x,-y,z
1/2+x,1/2+y,z
1/2-x,1/2+y,-z
1/2-x,1/2-y,-z
1/2+x,1/2-y,z
loop_
_atom_site_type_symbol
_atom_site_label
_atom_site_fract_x
_atom_site_fract_y
_atom_site_fract_z
Si Si1 0.719632 0.399927 0.163248
Si Si2 0.866126 0.602190 0.616840
Si Si3 0.070998 0.608447 0.573764
Si Si4 0.806815 0.273796 0.735914
Si Si5 0.207205 0.605859 0.006478
O O1 0.684934 0.500000 0.112393
O O2 0.791421 0.400574 0.393992
O O3 0.669704 0.321851 0.137145
O O4 0.734511 0.378255 0.010206
O O5 0.885570 0.500000 0.713102
O O6 0.919293 0.637691 0.589011
O O7 0.868375 0.671849 0.769191
O O8 0.071145 0.500000 0.580284
O O9 0.000000 0.649758 0.500000
O O10 0.133712 0.643574 0.802675
O O11 0.750000 0.250000 0.500000
O O12 0.772319 0.338116 0.799488
O O13 0.202533 0.500000 0.042266
#
# Coordination Sequence:
#
# PCOD8078494 Si02
#       5
#     8   8   8   8   8
#     4   8  15  26  38  53  76 106 135 161 189 225
#     4   8  14  24  37  56  81 105 130 159 192 229
#     4   8  14  26  42  57  78 109 137 160 187 223
#     4  10  17  24  37  56  80 108 132 157 195 234
#     4   9  16  26  40  58  80 107 136 159 185 229
#
# _framework density 16.346876999999999
#
# number of rings (size 3 to 8) (size 9 to 14) (size 15 to 20)
#    0.000    3.400    0.000    3.600    0.000    0.800 
#    0.000    1.000    0.000    4.800    0.000    0.000 
#    0.000    4.800    0.000    0.000    0.000    0.000 
#
# Total GULP energy -247774.055883 kJ/mol
# GULP energy per Si atom -12388.702794 kJ/mol
# Density = 1.630967 g / cm^3
# Si number density = 16.346877 Si / 1000 Ang^3
#
#
#
# Elastic Constant Matrix: (Units=GPa)
#
#
# Indices 1 2 3 4 5 6 
#
# 1 99.1866 66.4337 26.6392 0.0000 -27.7497 0.0000
# 2 66.4337 102.5665 32.9681 0.0000 -27.3860 0.0000
# 3 26.6392 32.9681 40.1134 0.0000 -19.7371 0.0000
# 4 0.0000 0.0000 0.0000 21.1132 0.0000 -15.6710
# 5 -27.7497 -27.3860 -19.7371 0.0000 25.4114 0.0000
# 6 0.0000 0.0000 0.0000 -15.6710 0.0000 23.6895
#
#
#
# Elastic Compliance Matrix: (Units=1/GPa)
#
#
# Indices 1 2 3 4 5 6 
#
# 1 0.019765 -0.009988 0.000658 0.000000 0.011331 0.000000
# 2 -0.009988 0.019856 -0.007322 0.000000 0.004804 0.000000
# 3 0.000658 -0.007322 0.043670 0.000000 0.026747 0.000000
# 4 0.000000 0.000000 0.000000 0.093054 0.000000 0.061557
# 5 0.011331 0.004804 0.026747 0.000000 0.077678 0.000000
# 6 0.000000 0.000000 0.000000 0.061557 0.000000 0.082934
#
#
# Mechanical properties :
#
#
# Convention : Reuss Voigt Hill
#
# Bulk Modulus (GPa) = 20.00516 54.88318 37.44417
# Shear Modulus (GPa) = 12.92251 21.76452 17.34351
#
# Velocity S-wave (km/s) = 2.81467 3.65282 3.26078
# Velocity P-wave (km/s) = 4.77782 7.17201 6.09366
#
# Compressibility (1/GPa) = 0.04998711
#
# Stress axis : x y z
#
# Youngs Moduli (GPa) = 50.59348 50.36365 22.89904
#
# Poissons Ratio (x) = 0.50306 -0.01507
# Poissons Ratio (y) = 0.50535 0.16766
# Poissons Ratio (z) = -0.03330 0.36874
#
# Static dielectric constant tensor:
#      x y z
#    x 3.364020 0.000000 -0.376210 
#    y 0.000000 3.491670 0.000000 
#    z -0.376210 0.000000 2.786240 
# 
# 
# High freq. dielectric constant tensor:
#      x y z
#    x 1.610760 0.000000 -0.047860 
#    y 0.000000 1.618700 0.000000 
#    z -0.047860 0.000000 1.588690 
# 
# From -- ./inp_files/60316.got.cif
#   From: 2010.06.25/outbox.cif.g09.slc.cpg/sg12_31_cif.got.tgz:60316.got - 2010.06.28 00:19:55.
