data_PCOD8078272
_publ_section_title
;
Structure prediction by ZEFSAII (Michael W. Deem and Ramdas Pophale) SiO2 
 PCOD8078272
Probable space group: C 2/M
;
_chemical_formula_sum "Si O2"
_cell_formula_units_Z 44
_cell_length_a 12.050760
_cell_length_b 20.450853
_cell_length_c 11.816053
_cell_angle_alpha 90.000000
_cell_angle_beta 126.951246
_cell_angle_gamma 90.000000
_cell_volume 2327.154086
_symmetry_space_group_name_H-M "C 2/M"
_symmetry_group_IT_number 12
_symmetry_cell_setting 'monoclinic'
loop_
_space_group_symop_operation_xyz
x,y,z
-x,y,-z
-x,-y,-z
x,-y,z
1/2+x,1/2+y,z
1/2-x,1/2+y,-z
1/2-x,1/2-y,-z
1/2+x,1/2-y,z
loop_
_atom_site_type_symbol
_atom_site_label
_atom_site_fract_x
_atom_site_fract_y
_atom_site_fract_z
Si Si1 0.000000 0.267542 0.000000
Si Si2 0.245704 0.686603 0.745916
Si Si3 0.461557 0.657412 0.291486
Si Si4 0.986215 0.302224 0.227412
Si Si5 0.294228 0.685393 0.394258
Si Si6 0.058988 0.075177 0.161814
O O1 0.131862 0.223660 0.113326
O O2 0.953620 0.314698 0.075039
O O3 0.188384 0.734938 0.611001
O O4 0.303174 0.618564 0.732097
O O5 0.122924 0.664585 0.755677
O O6 0.476054 0.723905 0.230658
O O7 0.324829 0.655564 0.287295
O O8 0.598231 0.654086 0.453592
O O9 0.451704 0.598320 0.194448
O O10 0.140521 0.330323 0.345522
O O11 0.097120 0.000000 0.204286
O O12 0.000000 0.086945 0.000000
#
# Coordination Sequence:
#
# PCOD8078272 Si02
#       6
#     4   8   8   8   8   8
#     4  10  16  28  45  78 107 134 164 210 266 314
#     4  10  18  31  49  77 107 135 169 214 262 315
#     4  10  18  34  52  78 107 133 180 213 259 313
#     4  10  18  27  49  79 108 133 159 216 277 315
#     4   9  19  31  53  81 102 137 166 220 274 311
#     4  11  22  36  54  75 104 145 183 213 246 304
#
# _framework density 18.907212999999999
#
# number of rings (size 3 to 8) (size 9 to 14) (size 15 to 20)
#    0.000    2.000    4.545    1.091    0.000    2.909 
#    0.000    1.818    0.000    3.273    0.000    3.182 
#    0.000    0.000    0.000    0.000    0.000    0.000 
#
# Total GULP energy -272585.126505 kJ/mol
# GULP energy per Si atom -12390.233023 kJ/mol
# Density = 1.886418 g / cm^3
# Si number density = 18.907213 Si / 1000 Ang^3
#
#
#
# Elastic Constant Matrix: (Units=GPa)
#
#
# Indices 1 2 3 4 5 6 
#
# 1 123.3748 17.6724 5.0748 0.0000 -2.6178 0.0000
# 2 17.6724 75.9757 10.8075 0.0000 -8.2996 0.0000
# 3 5.0748 10.8075 46.6639 0.0000 -10.1987 0.0000
# 4 0.0000 0.0000 0.0000 15.0780 0.0000 -0.5322
# 5 -2.6178 -8.2996 -10.1987 0.0000 27.4857 0.0000
# 6 0.0000 0.0000 0.0000 -0.5322 0.0000 17.4672
#
#
#
# Elastic Compliance Matrix: (Units=1/GPa)
#
#
# Indices 1 2 3 4 5 6 
#
# 1 0.008395 -0.001880 -0.000465 0.000000 0.000059 0.000000
# 2 -0.001880 0.014295 -0.002396 0.000000 0.003248 0.000000
# 3 -0.000465 -0.002396 0.023797 0.000000 0.008062 0.000000
# 4 0.000000 0.000000 0.000000 0.066393 0.000000 0.002023
# 5 0.000059 0.003248 0.008062 0.000000 0.040361 0.000000
# 6 0.000000 0.000000 0.000000 0.002023 0.000000 0.057312
#
#
# Mechanical properties :
#
#
# Convention : Reuss Voigt Hill
#
# Bulk Modulus (GPa) = 27.02302 34.79153 30.90728
# Shear Modulus (GPa) = 21.51735 26.17016 23.84376
#
# Velocity S-wave (km/s) = 3.37716 3.72443 3.55504
# Velocity P-wave (km/s) = 5.43419 6.07753 5.76484
#
# Compressibility (1/GPa) = 0.03700549
#
# Stress axis : x y z
#
# Youngs Moduli (GPa) = 119.11750 69.95366 42.02129
#
# Poissons Ratio (x) = 0.13152 0.01952
# Poissons Ratio (y) = 0.22396 0.10070
# Poissons Ratio (z) = 0.05533 0.16764
#
# Static dielectric constant tensor:
#      x y z
#    x 3.963810 0.000000 -0.223870 
#    y 0.000000 2.999230 0.000000 
#    z -0.223870 0.000000 3.576320 
# 
# 
# High freq. dielectric constant tensor:
#      x y z
#    x 1.758030 0.000000 -0.019860 
#    y 0.000000 1.654880 0.000000 
#    z -0.019860 0.000000 1.736500 
# 
# From -- ./inp_files/134559.got.cif
#   From: 2010.06.25/outbox.cif.g09.slc.cpg/sg12_68_cif.got.tgz:134559.got - 2010.06.28 00:19:55.
