data_PCOD8078771
_publ_section_title
;
Structure prediction by ZEFSAII (Michael W. Deem and Ramdas Pophale) SiO2 
 PCOD8078771
Probable space group: C 2/M
;
_chemical_formula_sum "Si O2"
_cell_formula_units_Z 64
_cell_length_a 15.243004
_cell_length_b 8.825284
_cell_length_c 33.140143
_cell_angle_alpha 90.000000
_cell_angle_beta 132.830876
_cell_angle_gamma 90.000000
_cell_volume 3269.437134
_symmetry_space_group_name_H-M "C 2/M"
_symmetry_group_IT_number 12
_symmetry_cell_setting 'monoclinic'
loop_
_space_group_symop_operation_xyz
x,y,z
-x,y,-z
-x,-y,-z
x,-y,z
1/2+x,1/2+y,z
1/2-x,1/2+y,-z
1/2-x,1/2-y,-z
1/2+x,1/2-y,z
loop_
_atom_site_type_symbol
_atom_site_label
_atom_site_fract_x
_atom_site_fract_y
_atom_site_fract_z
Si Si1 0.242748 0.820961 0.936054
Si Si2 0.504735 0.824129 0.556518
Si Si3 0.193290 0.673677 0.678294
Si Si4 0.933054 0.320983 0.060884
Si Si5 0.137082 0.179036 0.742552
Si Si6 0.364711 0.320447 0.659210
Si Si7 0.300073 0.180634 0.865630
Si Si8 0.319524 0.321121 0.452119
O O1 0.123192 0.748578 0.916484
O O2 0.255123 0.758714 0.894651
O O3 0.229204 0.000000 0.932682
O O4 0.358443 0.769771 0.998112
O O5 0.558791 0.805510 0.618193
O O6 0.588016 0.724365 0.553710
O O7 0.369417 0.757837 0.509320
O O8 0.509198 0.000000 0.544902
O O9 0.217916 0.500000 0.697061
O O10 0.200621 0.769419 0.721265
O O11 0.293528 0.729670 0.677510
O O12 0.932712 0.500000 0.064916
O O13 0.066636 0.256269 0.099412
O O14 0.213038 0.244830 0.803711
O O15 0.001042 0.237153 0.704739
O O16 0.138713 0.000000 0.743776
O O17 0.353980 0.500000 0.650256
O O18 0.309399 0.242256 0.601854
O O19 0.301607 0.000000 0.866029
O O20 0.311567 0.500000 0.456018
#
# Coordination Sequence:
#
# PCOD8078771 Si02
#       8
#     8   8   8   8   8   8   8   8
#     4   9  17  31  53  78 104 136 171 205 247 304
#     4   9  16  29  49  72 101 135 164 197 252 316
#     4   9  19  35  54  74 100 133 167 206 255 305
#     4   9  17  31  52  78 107 135 166 208 255 299
#     4  10  21  36  54  74  98 132 177 218 248 293
#     4   9  19  36  53  70  98 137 170 202 254 311
#     4   9  18  33  52  74 101 136 174 209 250 301
#     4  10  17  26  47  78 103 125 162 211 254 298
#
# _framework density 19.575234999999999
#
# number of rings (size 3 to 8) (size 9 to 14) (size 15 to 20)
#    0.000    2.750    0.000    3.375    0.000    5.500 
#    0.000    3.750    0.000    3.000    0.000    0.000 
#    0.000    0.000    0.000    0.000    0.000    0.000 
#
# Total GULP energy -396649.346225 kJ/mol
# GULP energy per Si atom -12395.292070 kJ/mol
# Density = 1.953068 g / cm^3
# Si number density = 19.575235 Si / 1000 Ang^3
#
#
#
# Elastic Constant Matrix: (Units=GPa)
#
#
# Indices 1 2 3 4 5 6 
#
# 1 70.2320 9.2954 32.1377 0.0000 -0.7962 0.0000
# 2 9.2954 30.3263 17.7145 0.0000 0.7978 0.0000
# 3 32.1377 17.7145 101.2949 0.0000 -0.6531 0.0000
# 4 0.0000 0.0000 0.0000 21.2222 0.0000 -4.2767
# 5 -0.7962 0.7978 -0.6531 0.0000 23.4261 0.0000
# 6 0.0000 0.0000 0.0000 -4.2767 0.0000 24.5021
#
#
#
# Elastic Compliance Matrix: (Units=1/GPa)
#
#
# Indices 1 2 3 4 5 6 
#
# 1 0.016802 -0.002285 -0.004928 0.000000 0.000511 0.000000
# 2 -0.002285 0.037085 -0.005770 0.000000 -0.001501 0.000000
# 3 -0.004928 -0.005770 0.012447 0.000000 0.000376 0.000000
# 4 0.000000 0.000000 0.000000 0.048838 0.000000 0.008524
# 5 0.000511 -0.001501 0.000376 0.000000 0.042767 0.000000
# 6 0.000000 0.000000 0.000000 0.008524 0.000000 0.042301
#
#
# Mechanical properties :
#
#
# Convention : Reuss Voigt Hill
#
# Bulk Modulus (GPa) = 24.77207 35.57203 30.17205
# Shear Modulus (GPa) = 20.86278 23.34377 22.10328
#
# Velocity S-wave (km/s) = 3.26816 3.45703 3.36392
# Velocity P-wave (km/s) = 5.18878 5.84347 5.52583
#
# Compressibility (1/GPa) = 0.04036805
#
# Stress axis : x y z
#
# Youngs Moduli (GPa) = 59.51796 26.96503 80.33996
#
# Poissons Ratio (x) = 0.06161 0.39589
# Poissons Ratio (y) = 0.13600 0.46358
# Poissons Ratio (z) = 0.29329 0.15559
#
# Static dielectric constant tensor:
#      x y z
#    x 3.468950 0.000000 0.156040 
#    y 0.000000 3.247610 0.000000 
#    z 0.156040 0.000000 4.028450 
# 
# 
# High freq. dielectric constant tensor:
#      x y z
#    x 1.748760 0.000000 0.004840 
#    y 0.000000 1.737010 0.000000 
#    z 0.004840 0.000000 1.769430 
# 
# From -- ./inp_files/375596.got.cif
#   From: 2010.06.25/outbox.cif.g09.slc.cpg/sg12_188_cif.got.tgz:375596.got - 2010.06.28 00:19:55.
