data_PCOD8078061
_publ_section_title
;
Structure prediction by ZEFSAII (Michael W. Deem and Ramdas Pophale) SiO2 
 PCOD8078061
Probable space group: C 2/M
;
_chemical_formula_sum "Si O2"
_cell_formula_units_Z 64
_cell_length_a 24.169459
_cell_length_b 18.005065
_cell_length_c 18.078819
_cell_angle_alpha 90.000000
_cell_angle_beta 146.676965
_cell_angle_gamma 90.000000
_cell_volume 4322.029875
_symmetry_space_group_name_H-M "C 2/M"
_symmetry_group_IT_number 12
_symmetry_cell_setting 'monoclinic'
loop_
_space_group_symop_operation_xyz
x,y,z
-x,y,-z
-x,-y,-z
x,-y,z
1/2+x,1/2+y,z
1/2-x,1/2+y,-z
1/2-x,1/2-y,-z
1/2+x,1/2-y,z
loop_
_atom_site_type_symbol
_atom_site_label
_atom_site_fract_x
_atom_site_fract_y
_atom_site_fract_z
Si Si1 0.981803 0.269317 0.305404
Si Si2 0.598684 0.316250 0.909571
Si Si3 0.700293 0.917528 0.721431
Si Si4 0.283505 0.416503 0.072258
Si Si5 0.714035 0.281160 0.830228
Si Si6 0.896384 0.276326 0.426842
Si Si7 0.936577 0.915845 0.999519
Si Si8 0.099398 0.581551 0.763979
O O1 0.985468 0.233392 0.227979
O O2 0.869773 0.252632 0.209694
O O3 0.988508 0.359281 0.315875
O O4 0.073104 0.239073 0.459879
O O5 0.642375 0.378368 0.903629
O O6 0.538443 0.359466 0.906178
O O7 0.682870 0.262523 0.038932
O O8 0.652322 0.857273 0.612769
O O9 0.664759 0.896233 0.764567
O O10 0.663684 0.000000 0.658219
O O11 0.819435 0.911830 0.849791
O O12 0.322723 0.500000 0.133993
O O13 0.276342 0.368527 0.139841
O O14 0.172579 0.420441 0.915488
O O15 0.680649 0.274423 0.706669
O O16 0.000000 0.289702 0.500000
O O17 0.966872 0.000000 0.055714
O O18 0.000000 0.888956 0.000000
O O19 0.050276 0.500000 0.697841
#
# Coordination Sequence:
#
# PCOD8078061 Si02
#       8
#     8   8   8   8   8   8   8   8
#     4  10  17  25  38  61  86 115 142 165 201 249
#     4  11  16  28  44  59  82 113 142 173 209 247
#     4  10  17  26  40  60  89 120 141 164 208 255
#     4  10  16  23  39  60  84 112 140 168 202 241
#     4  10  16  26  40  58  83 117 144 167 200 241
#     4  10  17  26  38  59  89 119 142 165 197 249
#     4  10  19  30  46  66  84 105 140 182 215 244
#     4  10  15  22  37  61  90 114 138 161 196 254
#
# _framework density 14.807857
#
# number of rings (size 3 to 8) (size 9 to 14) (size 15 to 20)
#    0.000    1.875    7.500    1.125    0.000    0.750 
#    0.000    0.000    0.000   10.875    0.000    0.000 
#    0.000    2.000    0.000    0.000    0.000    0.000 
#
# Total GULP energy -396531.883446 kJ/mol
# GULP energy per Si atom -12391.621358 kJ/mol
# Density = 1.477415 g / cm^3
# Si number density = 14.807857 Si / 1000 Ang^3
#
#
#
# Elastic Constant Matrix: (Units=GPa)
#
#
# Indices 1 2 3 4 5 6 
#
# 1 57.8199 43.2595 32.3248 0.0000 -15.1714 0.0000
# 2 43.2595 94.5773 34.1866 0.0000 -12.0637 0.0000
# 3 32.3248 34.1866 77.8896 0.0000 -25.5433 0.0000
# 4 0.0000 0.0000 0.0000 17.1089 0.0000 -5.2207
# 5 -15.1714 -12.0637 -25.5433 0.0000 13.0514 0.0000
# 6 0.0000 0.0000 0.0000 -5.2207 0.0000 17.0300
#
#
#
# Elastic Compliance Matrix: (Units=1/GPa)
#
#
# Indices 1 2 3 4 5 6 
#
# 1 0.033450 -0.011894 0.001353 0.000000 0.030538 0.000000
# 2 -0.011894 0.016821 -0.005255 0.000000 -0.008562 0.000000
# 3 0.001353 -0.005255 0.037709 0.000000 0.070517 0.000000
# 4 0.000000 0.000000 0.000000 0.064481 0.000000 0.019767
# 5 0.030538 -0.008562 0.070517 0.000000 0.242216 0.000000
# 6 0.000000 0.000000 0.000000 0.019767 0.000000 0.064780
#
#
# Mechanical properties :
#
#
# Convention : Reuss Voigt Hill
#
# Bulk Modulus (GPa) = 17.73399 49.98095 33.85747
# Shear Modulus (GPa) = 9.80690 17.47244 13.63967
#
# Velocity S-wave (km/s) = 2.57627 3.43876 3.03827
# Velocity P-wave (km/s) = 4.56635 7.04223 5.93484
#
# Compressibility (1/GPa) = 0.05638889
#
# Stress axis : x y z
#
# Youngs Moduli (GPa) = 29.89505 59.44987 26.51878
#
# Poissons Ratio (x) = 0.70709 -0.03587
# Poissons Ratio (y) = 0.35557 0.13935
# Poissons Ratio (z) = -0.04044 0.31239
#
# Static dielectric constant tensor:
#      x y z
#    x 2.526730 0.000000 -0.284810 
#    y 0.000000 3.190690 0.000000 
#    z -0.284810 0.000000 2.950370 
# 
# 
# High freq. dielectric constant tensor:
#      x y z
#    x 1.502880 0.000000 -0.020730 
#    y 0.000000 1.570670 0.000000 
#    z -0.020730 0.000000 1.558790 
# 
# From -- ./inp_files/176879.got.cif
#   From: 2010.06.25/outbox.cif.g09.slc.cpg/sg12_89_cif.got.tgz:176879.got - 2010.06.28 00:19:55.
