data_PCOD8078663
_publ_section_title
;
Structure prediction by ZEFSAII (Michael W. Deem and Ramdas Pophale) SiO2 
 PCOD8078663
Probable space group: C 2/M
;
_chemical_formula_sum "Si O2"
_cell_formula_units_Z 56
_cell_length_a 24.203734
_cell_length_b 9.282308
_cell_length_c 17.437083
_cell_angle_alpha 90.000000
_cell_angle_beta 115.224209
_cell_angle_gamma 90.000000
_cell_volume 3543.980807
_symmetry_space_group_name_H-M "C 2/M"
_symmetry_group_IT_number 12
_symmetry_cell_setting 'monoclinic'
loop_
_space_group_symop_operation_xyz
x,y,z
-x,y,-z
-x,-y,-z
x,-y,z
1/2+x,1/2+y,z
1/2-x,1/2+y,-z
1/2-x,1/2-y,-z
1/2+x,1/2-y,z
loop_
_atom_site_type_symbol
_atom_site_label
_atom_site_fract_x
_atom_site_fract_y
_atom_site_fract_z
Si Si1 0.190699 0.661646 0.055726
Si Si2 0.430070 0.667008 0.460549
Si Si3 0.167611 0.840303 0.903541
Si Si4 0.223450 0.833200 0.215964
Si Si5 0.653669 0.333290 0.729033
Si Si6 0.659553 0.831527 0.484935
Si Si7 0.792347 0.835895 0.621762
O O1 0.166644 0.500000 0.054626
O O2 0.261213 0.664502 0.075216
O O3 0.181751 0.752533 0.128379
O O4 0.151756 0.731299 0.963032
O O5 0.500000 0.716046 0.500000
O O6 0.423277 0.500000 0.478877
O O7 0.402701 0.697833 0.360181
O O8 0.396703 0.759650 0.505106
O O9 0.132250 0.798298 0.803951
O O10 0.149191 0.000000 0.920360
O O11 0.290717 0.767369 0.262489
O O12 0.190973 0.815629 0.279117
O O13 0.229781 0.000000 0.196190
O O14 0.675559 0.500000 0.737463
O O15 0.721435 0.794485 0.567323
O O16 0.664070 0.767147 0.401845
O O17 0.647036 0.000000 0.471329
O O18 0.803148 0.000000 0.601507
#
# Coordination Sequence:
#
# PCOD8078663 Si02
#       7
#     8   8   8   8   8   8   8
#     4   9  16  24  35  55  81 110 141 171 208 253
#     4  10  20  33  48  65  88 118 150 186 226 263
#     4   8  14  24  36  52  76 108 142 175 209 247
#     4  10  17  26  41  61  86 113 143 176 213 257
#     4   9  17  28  42  59  81 111 148 182 214 256
#     4  10  19  31  46  65  86 113 148 185 223 259
#     4   9  18  30  44  64  88 115 146 180 219 264
#
# _framework density 15.801439999999999
#
# number of rings (size 3 to 8) (size 9 to 14) (size 15 to 20)
#    0.000    2.714    1.429    2.143    0.000    5.429 
#    0.000    0.000    0.000    0.000    0.000    0.000 
#    0.000    1.143    0.000   13.143    0.000    4.000 
#
# Total GULP energy -347132.278965 kJ/mol
# GULP energy per Si atom -12397.581392 kJ/mol
# Density = 1.576548 g / cm^3
# Si number density = 15.801440 Si / 1000 Ang^3
#
#
#
# Elastic Constant Matrix: (Units=GPa)
#
#
# Indices 1 2 3 4 5 6 
#
# 1 60.0184 42.8064 41.6942 0.0000 -8.5921 0.0000
# 2 42.8064 107.2848 65.7341 0.0000 -13.6309 0.0000
# 3 41.6942 65.7341 120.5938 0.0000 -15.6589 0.0000
# 4 0.0000 0.0000 0.0000 26.8901 0.0000 -6.4559
# 5 -8.5921 -13.6309 -15.6589 0.0000 14.0178 0.0000
# 6 0.0000 0.0000 0.0000 -6.4559 0.0000 17.5628
#
#
#
# Elastic Compliance Matrix: (Units=1/GPa)
#
#
# Indices 1 2 3 4 5 6 
#
# 1 0.025190 -0.006809 -0.004506 0.000000 0.003785 0.000000
# 2 -0.006809 0.016273 -0.005852 0.000000 0.005113 0.000000
# 3 -0.004506 -0.005852 0.013969 0.000000 0.007151 0.000000
# 4 0.000000 0.000000 0.000000 0.040788 0.000000 0.014993
# 5 0.003785 0.005113 0.007151 0.000000 0.086619 0.000000
# 6 0.000000 0.000000 0.000000 0.014993 0.000000 0.062450
#
#
# Mechanical properties :
#
#
# Convention : Reuss Voigt Hill
#
# Bulk Modulus (GPa) = 47.39935 65.37406 56.38671
# Shear Modulus (GPa) = 17.44253 20.87162 19.15708
#
# Velocity S-wave (km/s) = 3.32604 3.63832 3.48568
# Velocity P-wave (km/s) = 6.69418 7.68842 7.20846
#
# Compressibility (1/GPa) = 0.02109733
#
# Stress axis : x y z
#
# Youngs Moduli (GPa) = 39.69799 61.45144 71.58753
#
# Poissons Ratio (x) = 0.41841 0.32260
# Poissons Ratio (y) = 0.27030 0.41894
# Poissons Ratio (z) = 0.17889 0.35963
#
# Static dielectric constant tensor:
#      x y z
#    x 2.446220 0.000000 -0.114290 
#    y 0.000000 3.135930 0.000000 
#    z -0.114290 0.000000 3.288240 
# 
# 
# High freq. dielectric constant tensor:
#      x y z
#    x 1.532650 0.000000 -0.018930 
#    y 0.000000 1.618250 0.000000 
#    z -0.018930 0.000000 1.618830 
# 
# From -- ./inp_files/287072.got.cif
#   From: 2010.06.25/outbox.cif.g09.slc.cpg/sg12_144_cif.got.tgz:287072.got - 2010.06.28 00:19:55.
