data_PCOD8078795
_publ_section_title
;
Structure prediction by ZEFSAII (Michael W. Deem and Ramdas Pophale) SiO2 
 PCOD8078795
Probable space group: C 2/M
;
_chemical_formula_sum "Si O2"
_cell_formula_units_Z 56
_cell_length_a 29.218391
_cell_length_b 9.203563
_cell_length_c 13.705671
_cell_angle_alpha 90.000000
_cell_angle_beta 75.315834
_cell_angle_gamma 90.000000
_cell_volume 3565.256388
_symmetry_space_group_name_H-M "C 2/M"
_symmetry_group_IT_number 12
_symmetry_cell_setting 'monoclinic'
loop_
_space_group_symop_operation_xyz
x,y,z
-x,y,-z
-x,-y,-z
x,-y,z
1/2+x,1/2+y,z
1/2-x,1/2+y,-z
1/2-x,1/2-y,-z
1/2+x,1/2-y,z
loop_
_atom_site_type_symbol
_atom_site_label
_atom_site_fract_x
_atom_site_fract_y
_atom_site_fract_z
Si Si1 0.149377 0.831283 0.770626
Si Si2 0.785524 0.164398 0.751902
Si Si3 0.450912 0.329746 0.134639
Si Si4 0.807035 0.666519 0.078599
Si Si5 0.446991 0.672282 0.916693
Si Si6 0.350476 0.329561 0.883592
Si Si7 0.759828 0.829790 0.394798
O O1 0.094479 0.795353 0.771073
O O2 0.158900 0.737248 0.860230
O O3 0.185881 0.792754 0.664372
O O4 0.154994 0.000000 0.796330
O O5 0.746673 0.183342 0.857238
O O6 0.835385 0.199495 0.778839
O O7 0.776636 0.273717 0.667574
O O8 0.784760 0.000000 0.710470
O O9 0.458044 0.500000 0.120386
O O10 0.501240 0.269059 0.149034
O O11 0.440513 0.270827 0.031041
O O12 0.821709 0.500000 0.057778
O O13 0.813493 0.747746 0.973099
O O14 0.444910 0.500000 0.912542
O O15 0.403860 0.731302 0.872873
O O16 0.346472 0.500000 0.909523
O O17 0.750000 0.750000 0.500000
O O18 0.751594 0.000000 0.412874
#
# Coordination Sequence:
#
# PCOD8078795 Si02
#       7
#     8   8   8   8   8   8   8
#     4   9  16  28  46  64  83 112 146 176 210 255
#     4   9  19  31  43  61  86 114 145 178 211 252
#     4   8  12  21  38  62  86 109 144 181 208 240
#     4  10  18  26  37  58  88 119 147 177 208 241
#     4   8  13  20  37  62  86 113 144 179 209 234
#     4  10  17  27  42  60  85 119 151 176 206 247
#     4  10  20  33  50  68  86 108 136 176 221 262
#
# _framework density 15.707146
#
# number of rings (size 3 to 8) (size 9 to 14) (size 15 to 20)
#    0.000    2.857    1.429    2.143    0.000    1.714 
#    0.000    0.000    0.000    1.714    0.000    1.000 
#    0.000    8.000    0.000    0.000    0.000    0.000 
#
# Total GULP energy -346877.795443 kJ/mol
# GULP energy per Si atom -12388.492694 kJ/mol
# Density = 1.567140 g / cm^3
# Si number density = 15.707146 Si / 1000 Ang^3
#
#
#
# Elastic Constant Matrix: (Units=GPa)
#
#
# Indices 1 2 3 4 5 6 
#
# 1 120.1933 27.3019 49.9641 0.0000 5.1091 0.0000
# 2 27.3019 52.3728 38.3856 0.0000 4.1573 0.0000
# 3 49.9641 38.3856 78.4542 0.0000 3.5575 0.0000
# 4 0.0000 0.0000 0.0000 21.7529 0.0000 2.2579
# 5 5.1091 4.1573 3.5575 0.0000 14.5734 0.0000
# 6 0.0000 0.0000 0.0000 2.2579 0.0000 12.4706
#
#
#
# Elastic Compliance Matrix: (Units=1/GPa)
#
#
# Indices 1 2 3 4 5 6 
#
# 1 0.011410 -0.000818 -0.006771 0.000000 -0.002114 0.000000
# 2 -0.000818 0.030191 -0.014029 0.000000 -0.004901 0.000000
# 3 -0.006771 -0.014029 0.023897 0.000000 0.000542 0.000000
# 4 0.000000 0.000000 0.000000 0.046851 0.000000 -0.008483
# 5 -0.002114 -0.004901 0.000542 0.000000 0.070625 0.000000
# 6 0.000000 0.000000 0.000000 -0.008483 0.000000 0.081725
#
#
# Mechanical properties :
#
#
# Convention : Reuss Voigt Hill
#
# Bulk Modulus (GPa) = 44.91436 53.59149 49.25293
# Shear Modulus (GPa) = 15.85509 18.78395 17.31952
#
# Velocity S-wave (km/s) = 3.18058 3.46191 3.32422
# Velocity P-wave (km/s) = 6.49192 7.08329 6.79404
#
# Compressibility (1/GPa) = 0.02226459
#
# Stress axis : x y z
#
# Youngs Moduli (GPa) = 87.64170 33.12206 41.84545
#
# Poissons Ratio (x) = 0.02709 0.28332
# Poissons Ratio (y) = 0.07168 0.58704
# Poissons Ratio (z) = 0.59338 0.46466
#
# Static dielectric constant tensor:
#      x y z
#    x 3.508030 0.000000 -0.057490 
#    y 0.000000 2.842520 0.000000 
#    z -0.057490 0.000000 2.650510 
# 
# 
# High freq. dielectric constant tensor:
#      x y z
#    x 1.612840 0.000000 -0.002550 
#    y 0.000000 1.581530 0.000000 
#    z -0.002550 0.000000 1.555070 
# 
# From -- ./inp_files/247788.got.cif
#   From: 2010.06.25/outbox.cif.g09.slc.cpg/sg12_124_cif.got.tgz:247788.got - 2010.06.28 00:19:55.
