data_PCOD8078489
_publ_section_title
;
Structure prediction by ZEFSAII (Michael W. Deem and Ramdas Pophale) SiO2 
 PCOD8078489
Probable space group: C 2/M
;
_chemical_formula_sum "Si O2"
_cell_formula_units_Z 64
_cell_length_a 20.473121
_cell_length_b 9.084982
_cell_length_c 24.279668
_cell_angle_alpha 90.000000
_cell_angle_beta 123.917223
_cell_angle_gamma 90.000000
_cell_volume 3747.551723
_symmetry_space_group_name_H-M "C 2/M"
_symmetry_group_IT_number 12
_symmetry_cell_setting 'monoclinic'
loop_
_space_group_symop_operation_xyz
x,y,z
-x,y,-z
-x,-y,-z
x,-y,z
1/2+x,1/2+y,z
1/2-x,1/2+y,-z
1/2-x,1/2-y,-z
1/2+x,1/2-y,z
loop_
_atom_site_type_symbol
_atom_site_label
_atom_site_fract_x
_atom_site_fract_y
_atom_site_fract_z
Si Si1 0.712438 0.665661 0.564812
Si Si2 0.910019 0.828223 0.952131
Si Si3 0.037333 0.333464 0.844945
Si Si4 0.627479 0.827873 0.174075
Si Si5 0.798261 0.173807 0.694390
Si Si6 0.865483 0.336931 0.560302
Si Si7 0.564268 0.831005 0.299726
Si Si8 0.667829 0.328395 0.968712
O O1 0.691741 0.500000 0.572021
O O2 0.723490 0.760688 0.625705
O O3 0.790533 0.676070 0.565027
O O4 0.639890 0.726870 0.493764
O O5 0.867214 0.736101 0.884656
O O6 0.905442 0.000000 0.935080
O O7 0.865928 0.789298 0.987512
O O8 0.000000 0.776569 0.000000
O O9 0.064208 0.500000 0.870343
O O10 0.107107 0.224785 0.893633
O O11 0.958740 0.294429 0.841934
O O12 0.019292 0.313141 0.770832
O O13 0.694553 0.747383 0.241949
O O14 0.646093 0.000000 0.181986
O O15 0.876823 0.212270 0.697930
O O16 0.788239 0.000000 0.695591
O O17 0.871027 0.500000 0.537649
O O18 0.940531 0.304012 0.636151
O O19 0.595477 0.000000 0.303535
O O20 0.680415 0.500000 0.966632
O O21 0.750000 0.250000 0.000000
#
# Coordination Sequence:
#
# PCOD8078489 Si02
#       8
#     8   8   8   8   8   8   8   8
#     4   9  15  22  31  45  71 105 144 185 225 270
#     4  10  20  35  53  74  98 122 156 200 243 282
#     4   9  17  30  47  67  91 119 153 192 237 284
#     4  10  19  30  47  69  92 118 152 194 237 283
#     4  10  17  24  36  54  79 111 147 186 230 276
#     4   8  13  21  32  47  70 102 142 182 223 269
#     4   8  15  26  38  55  79 108 144 188 230 275
#     4  11  23  37  53  72  98 128 158 197 241 290
#
# _framework density 17.077815999999999
#
# number of rings (size 3 to 8) (size 9 to 14) (size 15 to 20)
#    0.000    2.625    1.250    3.750    0.000    6.250 
#    0.000    0.000    0.000    0.000    0.000    0.000 
#    0.000    0.000    0.000    1.125    0.000   23.000 
#
# Total GULP energy -396606.577200 kJ/mol
# GULP energy per Si atom -12393.955537 kJ/mol
# Density = 1.703895 g / cm^3
# Si number density = 17.077816 Si / 1000 Ang^3
#
#
#
# Elastic Constant Matrix: (Units=GPa)
#
#
# Indices 1 2 3 4 5 6 
#
# 1 40.9539 28.7253 32.1471 0.0000 1.6940 0.0000
# 2 28.7253 113.3469 82.1604 0.0000 -1.6541 0.0000
# 3 32.1471 82.1604 176.6890 0.0000 -1.0030 0.0000
# 4 0.0000 0.0000 0.0000 37.2561 0.0000 -0.1807
# 5 1.6940 -1.6541 -1.0030 0.0000 7.5703 0.0000
# 6 0.0000 0.0000 0.0000 -0.1807 0.0000 14.4901
#
#
#
# Elastic Compliance Matrix: (Units=1/GPa)
#
#
# Indices 1 2 3 4 5 6 
#
# 1 0.031252 -0.005867 -0.003007 0.000000 -0.008673 0.000000
# 2 -0.005867 0.014443 -0.005627 0.000000 0.003723 0.000000
# 3 -0.003007 -0.005627 0.008827 0.000000 0.000613 0.000000
# 4 0.000000 0.000000 0.000000 0.026843 0.000000 0.000335
# 5 -0.008673 0.003723 0.000613 0.000000 0.134930 0.000000
# 6 0.000000 0.000000 0.000000 0.000335 0.000000 0.069017
#
#
# Mechanical properties :
#
#
# Convention : Reuss Voigt Hill
#
# Bulk Modulus (GPa) = 39.18668 68.56171 53.87419
# Shear Modulus (GPa) = 15.48848 24.39376 19.94112
#
# Velocity S-wave (km/s) = 3.01480 3.78350 3.42081
# Velocity P-wave (km/s) = 5.92575 7.70197 6.87149
#
# Compressibility (1/GPa) = 0.02551888
#
# Stress axis : x y z
#
# Youngs Moduli (GPa) = 31.99792 69.23966 113.28975
#
# Poissons Ratio (x) = 0.40623 0.34068
# Poissons Ratio (y) = 0.18773 0.63751
# Poissons Ratio (z) = 0.09622 0.38963
#
# Static dielectric constant tensor:
#      x y z
#    x 2.470030 0.000000 -0.075240 
#    y 0.000000 3.223610 0.000000 
#    z -0.075240 0.000000 3.446110 
# 
# 
# High freq. dielectric constant tensor:
#      x y z
#    x 1.564020 0.000000 -0.002610 
#    y 0.000000 1.667130 0.000000 
#    z -0.002610 0.000000 1.688540 
# 
# From -- ./inp_files/345625.got.cif
#   From: 2010.06.25/outbox.cif.g09.slc.cpg/sg12_173_cif.got.tgz:345625.got - 2010.06.28 00:19:55.
