data_PCOD8078078
_publ_section_title
;
Structure prediction by ZEFSAII (Michael W. Deem and Ramdas Pophale) SiO2 
 PCOD8078078
Probable space group: C 2/M
;
_chemical_formula_sum "Si O2"
_cell_formula_units_Z 64
_cell_length_a 16.179760
_cell_length_b 17.043574
_cell_length_c 13.456370
_cell_angle_alpha 90.000000
_cell_angle_beta 101.196977
_cell_angle_gamma 90.000000
_cell_volume 3640.108731
_symmetry_space_group_name_H-M "C 2/M"
_symmetry_group_IT_number 12
_symmetry_cell_setting 'monoclinic'
loop_
_space_group_symop_operation_xyz
x,y,z
-x,y,-z
-x,-y,-z
x,-y,z
1/2+x,1/2+y,z
1/2-x,1/2+y,-z
1/2-x,1/2-y,-z
1/2+x,1/2-y,z
loop_
_atom_site_type_symbol
_atom_site_label
_atom_site_fract_x
_atom_site_fract_y
_atom_site_fract_z
Si Si1 0.698781 0.826600 0.017803
Si Si2 0.195257 0.829020 0.252604
Si Si3 0.038372 0.724167 0.749977
Si Si4 0.843401 0.590278 0.193860
Si Si5 0.796086 0.178221 0.227672
Si Si6 0.063126 0.162020 0.391304
Si Si7 0.934168 0.231659 0.912228
Si Si8 0.099837 0.911003 0.602161
O O1 0.750390 0.863592 0.123158
O O2 0.606387 0.801777 0.032958
O O3 0.750000 0.750000 0.000000
O O4 0.687403 0.885356 0.923573
O O5 0.267612 0.893477 0.253637
O O6 0.234634 0.741323 0.266943
O O7 0.142837 0.851217 0.338434
O O8 0.133698 0.831613 0.142094
O O9 0.073094 0.635675 0.747765
O O10 0.119734 0.778235 0.789796
O O11 0.983517 0.753930 0.641655
O O12 0.977295 0.727901 0.828684
O O13 0.867492 0.500000 0.199945
O O14 0.820265 0.110369 0.311214
O O15 0.097266 0.152374 0.511350
O O16 0.988892 0.096866 0.358337
O O17 0.000000 0.187334 0.000000
O O18 0.110099 0.000000 0.566085
#
# Coordination Sequence:
#
# PCOD8078078 Si02
#       8
#     8   8   8   8   8   8   8   8
#     4  11  17  32  51  72 104 138 181 207 240 300
#     4   9  19  32  51  77  97 133 178 217 245 300
#     4   9  17  31  48  76  95 132 177 212 247 296
#     4  11  21  32  48  76 111 141 168 210 263 305
#     4   9  18  32  53  74 104 136 173 212 244 303
#     4   9  18  33  55  76  98 131 176 212 250 306
#     4  10  15  26  53  74  92 130 179 216 244 287
#     4  10  20  34  54  80 108 133 159 210 273 314
#
# _framework density 17.581893000000001
#
# number of rings (size 3 to 8) (size 9 to 14) (size 15 to 20)
#    0.000    2.250    5.000    0.750    0.000    2.000 
#    0.000    1.250    0.000    4.875    0.000   15.750 
#    0.000    0.000    0.000    0.000    0.000    0.000 
#
# Total GULP energy -396476.972000 kJ/mol
# GULP energy per Si atom -12389.905375 kJ/mol
# Density = 1.754188 g / cm^3
# Si number density = 17.581893 Si / 1000 Ang^3
#
#
#
# Elastic Constant Matrix: (Units=GPa)
#
#
# Indices 1 2 3 4 5 6 
#
# 1 72.5700 25.0854 36.8549 0.0000 -11.4390 0.0000
# 2 25.0854 95.0968 43.3963 0.0000 2.4740 0.0000
# 3 36.8549 43.3963 98.5512 0.0000 7.5257 0.0000
# 4 0.0000 0.0000 0.0000 20.1407 0.0000 3.1554
# 5 -11.4390 2.4740 7.5257 0.0000 34.8076 0.0000
# 6 0.0000 0.0000 0.0000 3.1554 0.0000 12.6680
#
#
#
# Elastic Compliance Matrix: (Units=1/GPa)
#
#
# Indices 1 2 3 4 5 6 
#
# 1 0.019268 -0.002158 -0.006864 0.000000 0.007969 0.000000
# 2 -0.002158 0.013405 -0.005053 0.000000 -0.000569 0.000000
# 3 -0.006864 -0.005053 0.015337 0.000000 -0.005213 0.000000
# 4 0.000000 0.000000 0.000000 0.051667 0.000000 -0.012869
# 5 0.007969 -0.000569 -0.005213 0.000000 0.032516 0.000000
# 6 0.000000 0.000000 0.000000 -0.012869 0.000000 0.082145
#
#
# Mechanical properties :
#
#
# Convention : Reuss Voigt Hill
#
# Bulk Modulus (GPa) = 50.34868 52.98791 51.66830
# Shear Modulus (GPa) = 20.07178 24.24869 22.16023
#
# Velocity S-wave (km/s) = 3.38245 3.71777 3.55406
# Velocity P-wave (km/s) = 6.62974 6.97368 6.80388
#
# Compressibility (1/GPa) = 0.01986149
#
# Stress axis : x y z
#
# Youngs Moduli (GPa) = 51.90030 74.59769 65.20261
#
# Poissons Ratio (x) = 0.16095 0.44755
# Poissons Ratio (y) = 0.11198 0.32944
# Poissons Ratio (z) = 0.35624 0.37691
#
# Static dielectric constant tensor:
#      x y z
#    x 3.605620 0.000000 0.133730 
#    y 0.000000 2.914740 0.000000 
#    z 0.133730 0.000000 3.485740 
# 
# 
# High freq. dielectric constant tensor:
#      x y z
#    x 1.694970 0.000000 0.000630 
#    y 0.000000 1.626910 0.000000 
#    z 0.000630 0.000000 1.677410 
# 
# From -- ./inp_files/215946.got.cif
#   From: 2010.06.25/outbox.cif.g09.slc.cpg/sg12_108_cif.got.tgz:215946.got - 2010.06.28 00:19:55.
