data_PCOD8078229
_publ_section_title
;
Structure prediction by ZEFSAII (Michael W. Deem and Ramdas Pophale) SiO2 
 PCOD8078229
Probable space group: C 2/M
;
_chemical_formula_sum "Si O2"
_cell_formula_units_Z 48
_cell_length_a 15.713691
_cell_length_b 18.864013
_cell_length_c 11.384177
_cell_angle_alpha 90.000000
_cell_angle_beta 125.206636
_cell_angle_gamma 90.000000
_cell_volume 2757.258739
_symmetry_space_group_name_H-M "C 2/M"
_symmetry_group_IT_number 12
_symmetry_cell_setting 'monoclinic'
loop_
_space_group_symop_operation_xyz
x,y,z
-x,y,-z
-x,-y,-z
x,-y,z
1/2+x,1/2+y,z
1/2-x,1/2+y,-z
1/2-x,1/2-y,-z
1/2+x,1/2-y,z
loop_
_atom_site_type_symbol
_atom_site_label
_atom_site_fract_x
_atom_site_fract_y
_atom_site_fract_z
Si Si1 0.000000 0.156106 0.000000
Si Si2 0.153547 0.921219 0.486661
Si Si3 0.171665 0.251651 0.257429
Si Si4 0.645102 0.320112 0.698441
Si Si5 0.500000 0.200661 0.500000
Si Si6 0.946334 0.080959 0.183680
Si Si7 0.333081 0.840373 0.532554
O O1 0.917375 0.204959 0.869127
O O2 0.060642 0.106535 0.956179
O O3 0.125047 0.865216 0.564121
O O4 0.266740 0.909630 0.516524
O O5 0.066113 0.912515 0.317914
O O6 0.151680 0.000000 0.539782
O O7 0.234420 0.294243 0.205451
O O8 0.256200 0.209027 0.398558
O O9 0.121609 0.305148 0.312332
O O10 0.569561 0.251922 0.638101
O O11 0.627806 0.369051 0.797677
O O12 0.567442 0.147138 0.472237
O O13 0.906420 0.000000 0.161086
#
# Coordination Sequence:
#
# PCOD8078229 Si02
#       7
#     4   8   8   8   4   8   8
#     4  12  21  34  48  76 103 144 158 200 244 326
#     4  10  18  31  52  75 100 131 169 210 245 290
#     4   9  19  31  52  71 104 128 170 204 257 284
#     4  10  18  32  52  79  96 128 168 221 247 286
#     4  10  16  26  52  74 100 122 164 210 258 280
#     4  11  21  32  48  72 107 139 163 195 247 309
#     4   9  17  33  48  75  97 136 164 211 242 297
#
# _framework density 17.408594999999998
#
# number of rings (size 3 to 8) (size 9 to 14) (size 15 to 20)
#    0.000    2.000    3.333    2.750    0.000    2.000 
#    0.000    0.417    0.000    0.000    0.000   19.250 
#    0.000    0.000    0.000    0.000    0.000    0.000 
#
# Total GULP energy -297463.427797 kJ/mol
# GULP energy per Si atom -12394.309492 kJ/mol
# Density = 1.736897 g / cm^3
# Si number density = 17.408595 Si / 1000 Ang^3
#
#
#
# Elastic Constant Matrix: (Units=GPa)
#
#
# Indices 1 2 3 4 5 6 
#
# 1 101.4740 16.6405 20.7325 0.0000 -11.3499 0.0000
# 2 16.6405 46.5308 15.5883 0.0000 -2.2862 0.0000
# 3 20.7325 15.5883 46.3023 0.0000 -12.1528 0.0000
# 4 0.0000 0.0000 0.0000 -6.1457 0.0000 19.4952
# 5 -11.3499 -2.2862 -12.1528 0.0000 18.9099 0.0000
# 6 0.0000 0.0000 0.0000 19.4952 0.0000 11.3891
#
#
#
# Elastic Compliance Matrix: (Units=1/GPa)
#
#
# Indices 1 2 3 4 5 6 
#
# 1 0.011446 -0.002881 -0.002939 0.000000 0.004633 0.000000
# 2 -0.002881 0.025071 -0.008190 0.000000 -0.003962 0.000000
# 3 -0.002939 -0.008190 0.030010 0.000000 0.016532 0.000000
# 4 0.000000 0.000000 0.000000 -0.025306 0.000000 0.043317
# 5 0.004633 -0.003962 0.016532 0.000000 0.065809 0.000000
# 6 0.000000 0.000000 0.000000 0.043317 0.000000 0.013655
#
#
# Mechanical properties :
#
#
# Convention : Reuss Voigt Hill
#
# Bulk Modulus (GPa) = 25.97044 33.35887 29.66465
# Shear Modulus (GPa) = 30.95206 14.25370 22.60288
#
# Velocity S-wave (km/s) = 4.22118 2.86453 3.60721
# Velocity P-wave (km/s) = 6.22160 5.49041 5.86741
#
# Compressibility (1/GPa) = 0.03850531
#
# Stress axis : x y z
#
# Youngs Moduli (GPa) = 87.36776 39.88734 33.32263
#
# Poissons Ratio (x) = 0.11492 0.09794
# Poissons Ratio (y) = 0.25171 0.27292
# Poissons Ratio (z) = 0.25679 0.32668
#
# Static dielectric constant tensor:
#      x y z
#    x 3.735180 0.000000 0.011900 
#    y 0.000000 3.261820 0.000000 
#    z 0.011900 0.000000 3.071870 
# 
# 
# High freq. dielectric constant tensor:
#      x y z
#    x 1.682000 0.000000 -0.016070 
#    y 0.000000 1.656250 0.000000 
#    z -0.016070 0.000000 1.639020 
# 
# From -- ./inp_files/146731.got.cif
#   From: 2010.06.25/outbox.cif.g09.slc.cpg/sg12_74_cif.got.tgz:146731.got - 2010.06.28 00:19:55.
