data_PCOD8078295
_publ_section_title
;
Structure prediction by ZEFSAII (Michael W. Deem and Ramdas Pophale) SiO2 
 PCOD8078295
Probable space group: C 2/M
;
_chemical_formula_sum "Si O2"
_cell_formula_units_Z 52
_cell_length_a 11.915717
_cell_length_b 29.223543
_cell_length_c 18.081749
_cell_angle_alpha 90.000000
_cell_angle_beta 155.877877
_cell_angle_gamma 90.000000
_cell_volume 2573.237921
_symmetry_space_group_name_H-M "C 2/M"
_symmetry_group_IT_number 12
_symmetry_cell_setting 'monoclinic'
loop_
_space_group_symop_operation_xyz
x,y,z
-x,y,-z
-x,-y,-z
x,-y,z
1/2+x,1/2+y,z
1/2-x,1/2+y,-z
1/2-x,1/2-y,-z
1/2+x,1/2-y,z
loop_
_atom_site_type_symbol
_atom_site_label
_atom_site_fract_x
_atom_site_fract_y
_atom_site_fract_z
Si Si1 0.264904 0.000000 0.418847
Si Si2 0.257806 0.901349 0.412336
Si Si3 0.753757 0.911794 0.002562
Si Si4 0.911633 0.763376 0.864139
Si Si5 0.140741 0.500000 0.004830
Si Si6 0.500000 0.396386 0.000000
Si Si7 0.952436 0.315468 0.152698
Si Si8 0.999526 0.668242 0.340606
O O1 0.500000 0.000000 0.500000
O O2 0.292637 0.049233 0.477399
O O3 0.970018 0.000000 0.202849
O O4 0.500000 0.893669 0.500000
O O5 0.262180 0.859537 0.473447
O O6 0.972894 0.900531 0.198065
O O7 0.559436 0.954147 0.910875
O O8 0.896674 0.925095 0.009398
O O9 0.556014 0.868007 0.878338
O O10 0.615621 0.788574 0.682141
O O11 0.872107 0.715877 0.796816
O O12 0.000000 0.750958 0.000000
O O13 0.140785 0.796467 0.966578
O O14 0.000000 0.500000 0.000000
O O15 0.257331 0.364785 0.825864
O O16 0.102924 0.313926 0.323143
#
# Coordination Sequence:
#
# PCOD8078295 Si02
#       8
#     4   8   8   8   4   4   8   8
#     4   8  18  32  52  85 115 145 190 232 280 346
#     4  10  16  28  51  76 111 138 172 223 295 335
#     4  10  19  33  52  81 110 145 185 235 287 338
#     4   9  15  28  49  72 100 139 177 225 281 340
#     4  10  22  37  54  82 126 152 189 237 282 345
#     4  10  16  31  50  82 110 134 182 247 292 320
#     4   9  17  29  49  74 102 135 187 225 276 332
#     4  10  16  29  49  76 109 136 172 241 291 323
#
# _framework density 20.208003999999999
#
# number of rings (size 3 to 8) (size 9 to 14) (size 15 to 20)
#    0.000    2.462    5.385    0.000    0.000    0.923 
#    0.000    3.077    0.000   20.308    0.000   43.077 
#    0.000    0.000    0.000    0.000    0.000    0.000 
#
# Total GULP energy -322113.936405 kJ/mol
# GULP energy per Si atom -12388.997554 kJ/mol
# Density = 2.016201 g / cm^3
# Si number density = 20.208004 Si / 1000 Ang^3
#
#
#
# Elastic Constant Matrix: (Units=GPa)
#
#
# Indices 1 2 3 4 5 6 
#
# 1 99.5967 77.0371 17.6238 0.0015 -18.5325 0.0066
# 2 77.0371 160.6307 28.2875 0.0012 -20.5788 0.0029
# 3 17.6238 28.2875 43.3476 0.0022 -12.5635 0.0169
# 4 0.0015 0.0012 0.0022 23.3517 0.0026 -9.1324
# 5 -18.5325 -20.5788 -12.5635 0.0026 19.1253 0.0100
# 6 0.0066 0.0029 0.0169 -9.1324 0.0100 33.4635
#
#
#
# Elastic Compliance Matrix: (Units=1/GPa)
#
#
# Indices 1 2 3 4 5 6 
#
# 1 0.017216 -0.007133 0.000328 -0.000005 0.009223 -0.000007
# 2 -0.007133 0.010515 -0.003318 0.000001 0.002224 0.000002
# 3 0.000328 -0.003318 0.029840 -0.000014 0.016350 -0.000023
# 4 -0.000005 0.000001 -0.000014 0.047940 -0.000026 0.013083
# 5 0.009223 0.002224 0.016350 -0.000026 0.074357 -0.000039
# 6 -0.000007 0.000002 -0.000023 0.013083 -0.000039 0.033454
#
#
# Mechanical properties :
#
#
# Convention : Reuss Voigt Hill
#
# Bulk Modulus (GPa) = 26.79057 61.05244 43.92150
# Shear Modulus (GPa) = 20.32459 27.22988 23.77723
#
# Velocity S-wave (km/s) = 3.17483 3.67479 3.43392
# Velocity P-wave (km/s) = 5.16968 6.94860 6.12407
#
# Compressibility (1/GPa) = 0.03732657
#
# Stress axis : x y z
#
# Youngs Moduli (GPa) = 58.08675 95.09897 33.51252
#
# Poissons Ratio (x) = 0.67831 -0.01100
# Poissons Ratio (y) = 0.41432 0.11118
# Poissons Ratio (z) = -0.01907 0.31550
#
# Static dielectric constant tensor:
#      x y z
#    x 3.815290 0.000000 -0.511760 
#    y 0.000000 4.170280 0.000000 
#    z -0.511760 0.000000 3.676260 
# 
# 
# High freq. dielectric constant tensor:
#      x y z
#    x 1.765400 0.000000 -0.014340 
#    y 0.000000 1.799760 0.000000 
#    z -0.014340 0.000000 1.742850 
# 
# From -- ./inp_files/266000.got.cif
#   From: 2010.06.25/outbox.cif.g09.slc.cpg/sg12_133_cif.got.tgz:266000.got - 2010.06.28 00:19:55.
