data_PCOD8078728
_publ_section_title
;
Structure prediction by ZEFSAII (Michael W. Deem and Ramdas Pophale) SiO2 
 PCOD8078728
Probable space group: C 2/M
;
_chemical_formula_sum "Si O2"
_cell_formula_units_Z 48
_cell_length_a 24.164596
_cell_length_b 8.910244
_cell_length_c 32.111488
_cell_angle_alpha 90.000000
_cell_angle_beta 155.172434
_cell_angle_gamma 90.000000
_cell_volume 2903.112313
_symmetry_space_group_name_H-M "C 2/M"
_symmetry_group_IT_number 12
_symmetry_cell_setting 'monoclinic'
loop_
_space_group_symop_operation_xyz
x,y,z
-x,y,-z
-x,-y,-z
x,-y,z
1/2+x,1/2+y,z
1/2-x,1/2+y,-z
1/2-x,1/2-y,-z
1/2+x,1/2-y,z
loop_
_atom_site_type_symbol
_atom_site_label
_atom_site_fract_x
_atom_site_fract_y
_atom_site_fract_z
Si Si1 0.418479 0.673906 0.006988
Si Si2 0.050392 0.175048 0.678180
Si Si3 0.193677 0.172950 0.160226
Si Si4 0.229888 0.827786 0.529321
Si Si5 0.992290 0.676915 0.261994
Si Si6 0.731884 0.677359 0.943106
O O1 0.400910 0.500000 0.007226
O O2 0.572907 0.715189 0.108187
O O3 0.346023 0.707229 0.914245
O O4 0.355951 0.777831 0.999417
O O5 0.179471 0.227395 0.740991
O O6 0.041725 0.269724 0.714687
O O7 0.921620 0.205789 0.560208
O O8 0.061359 0.000000 0.697077
O O9 0.230827 0.000000 0.191211
O O10 0.250000 0.750000 0.500000
O O11 0.352896 0.784008 0.643485
O O12 0.246842 0.000000 0.530619
O O13 0.961457 0.500000 0.237791
O O14 0.904875 0.764234 0.169179
O O15 0.726118 0.500000 0.943449
O O16 0.750000 0.750000 0.000000
#
# Coordination Sequence:
#
# PCOD8078728 Si02
#       6
#     8   8   8   8   8   8
#     4   9  18  33  49  68  95 127 162 196 235 284
#     4  10  17  26  43  71 100 126 158 193 232 283
#     4   9  17  29  48  70  97 131 158 189 238 287
#     4   8  16  27  41  63  93 126 156 189 232 280
#     4  10  18  31  47  64  93 129 161 196 237 280
#     4  12  24  36  51  71  94 125 163 202 240 282
#
# _framework density 16.53398
#
# number of rings (size 3 to 8) (size 9 to 14) (size 15 to 20)
#    0.000    2.333    1.667    3.500    0.000    2.000 
#    0.000    1.667    0.000    0.000    0.000    1.167 
#    0.000    9.333    0.000    0.000    0.000    0.000 
#
# Total GULP energy -297348.164914 kJ/mol
# GULP energy per Si atom -12389.506871 kJ/mol
# Density = 1.649635 g / cm^3
# Si number density = 16.533980 Si / 1000 Ang^3
#
#
#
# Elastic Constant Matrix: (Units=GPa)
#
#
# Indices 1 2 3 4 5 6 
#
# 1 66.8901 44.0844 61.2514 0.0010 11.5635 0.0001
# 2 44.0844 91.4053 58.4912 -0.0009 9.2686 0.0031
# 3 61.2514 58.4912 139.3011 0.0012 31.0403 0.0007
# 4 0.0010 -0.0009 0.0012 25.7368 0.0008 4.2635
# 5 11.5635 9.2686 31.0403 0.0008 28.3901 0.0002
# 6 0.0001 0.0031 0.0007 4.2635 0.0002 24.1079
#
#
#
# Elastic Compliance Matrix: (Units=1/GPa)
#
#
# Indices 1 2 3 4 5 6 
#
# 1 0.028686 -0.007802 -0.009654 -0.000001 0.001418 0.000001
# 2 -0.007802 0.017231 -0.004309 0.000001 0.002264 -0.000002
# 3 -0.009654 -0.004309 0.015922 0.000000 -0.012070 0.000000
# 4 -0.000001 0.000001 0.000000 0.040028 -0.000001 -0.007079
# 5 0.001418 0.002264 -0.012070 -0.000001 0.047104 0.000000
# 6 0.000001 -0.000002 0.000000 -0.007079 0.000000 0.042732
#
#
# Mechanical properties :
#
#
# Convention : Reuss Voigt Hill
#
# Bulk Modulus (GPa) = 54.61211 69.47230 62.04221
# Shear Modulus (GPa) = 20.71809 24.56493 22.64151
#
# Velocity S-wave (km/s) = 3.54370 3.85869 3.70455
# Velocity P-wave (km/s) = 7.06015 7.87158 7.47688
#
# Compressibility (1/GPa) = 0.01831096
#
# Stress axis : x y z
#
# Youngs Moduli (GPa) = 34.85972 58.03542 62.80522
#
# Poissons Ratio (x) = 0.45277 0.60630
# Poissons Ratio (y) = 0.27196 0.27063
# Poissons Ratio (z) = 0.33652 0.25008
#
# Static dielectric constant tensor:
#      x y z
#    x 2.915040 0.000000 0.504140 
#    y 0.000000 3.125900 0.000000 
#    z 0.504140 0.000000 3.707720 
# 
# 
# High freq. dielectric constant tensor:
#      x y z
#    x 1.587340 0.000000 0.039800 
#    y 0.000000 1.645600 0.000000 
#    z 0.039800 0.000000 1.644320 
# 
# From -- ./inp_files/179174.got.cif
#   From: 2010.06.25/outbox.cif.g09.slc.cpg/sg12_90_cif.got.tgz:179174.got - 2010.06.28 00:19:55.
