data_PCOD8078529
_publ_section_title
;
Structure prediction by ZEFSAII (Michael W. Deem and Ramdas Pophale) SiO2 
 PCOD8078529
Probable space group: C 2/M
;
_chemical_formula_sum "Si O2"
_cell_formula_units_Z 64
_cell_length_a 28.760943
_cell_length_b 9.090598
_cell_length_c 31.180221
_cell_angle_alpha 90.000000
_cell_angle_beta 148.858460
_cell_angle_gamma 90.000000
_cell_volume 4215.942194
_symmetry_space_group_name_H-M "C 2/M"
_symmetry_group_IT_number 12
_symmetry_cell_setting 'monoclinic'
loop_
_space_group_symop_operation_xyz
x,y,z
-x,y,-z
-x,-y,-z
x,-y,z
1/2+x,1/2+y,z
1/2-x,1/2+y,-z
1/2-x,1/2-y,-z
1/2+x,1/2-y,z
loop_
_atom_site_type_symbol
_atom_site_label
_atom_site_fract_x
_atom_site_fract_y
_atom_site_fract_z
Si Si1 0.882738 0.826510 0.318130
Si Si2 0.786943 0.666386 0.965561
Si Si3 0.895586 0.170543 0.420684
Si Si4 0.683054 0.172259 0.814501
Si Si5 0.887448 0.165815 0.112743
Si Si6 0.985017 0.329814 0.259462
Si Si7 0.663123 0.826402 0.450199
Si Si8 0.093414 0.173676 0.477928
O O1 0.852976 0.768052 0.342512
O O2 0.820868 0.738827 0.236118
O O3 0.987446 0.791717 0.392362
O O4 0.865311 0.000000 0.299345
O O5 0.814706 0.500000 0.976282
O O6 0.765420 0.753084 0.904864
O O7 0.700892 0.669921 0.928079
O O8 0.870043 0.744668 0.055220
O O9 0.864557 0.230322 0.442925
O O10 0.000000 0.201443 0.500000
O O11 0.875224 0.000000 0.404818
O O12 0.589413 0.209466 0.763848
O O13 0.701771 0.000000 0.826758
O O14 0.969369 0.238193 0.203665
O O15 0.914063 0.000000 0.121609
O O16 0.979126 0.500000 0.242293
O O17 0.080998 0.285493 0.354159
O O18 0.750000 0.750000 0.500000
O O19 0.645333 0.765176 0.483353
O O20 0.677521 0.000000 0.464479
O O21 0.110087 0.000000 0.484497
#
# Coordination Sequence:
#
# PCOD8078529 Si02
#       8
#     8   8   8   8   8   8   8   8
#     4   9  15  24  40  60  81 106 137 167 199 243
#     4   9  16  25  36  53  76 103 133 162 196 236
#     4   7  12  23  39  59  79 101 131 165 199 241
#     4  10  17  25  37  55  81 108 136 169 203 236
#     4   9  16  25  39  56  73  96 130 166 199 237
#     4   9  18  30  41  53  74 103 133 168 208 246
#     4  11  22  34  45  60  80 105 139 179 219 252
#     4   9  16  28  45  60  77 103 135 171 209 247
#
# _framework density 15.180472999999999
#
# number of rings (size 3 to 8) (size 9 to 14) (size 15 to 20)
#    0.000    2.875    1.250    3.000    0.000    4.500 
#    0.000    0.625    0.000    2.250    0.000    0.000 
#    0.000    0.000    0.000    1.125    0.000   22.500 
#
# Total GULP energy -396531.333655 kJ/mol
# GULP energy per Si atom -12391.604177 kJ/mol
# Density = 1.514592 g / cm^3
# Si number density = 15.180473 Si / 1000 Ang^3
#
#
#
# Elastic Constant Matrix: (Units=GPa)
#
#
# Indices 1 2 3 4 5 6 
#
# 1 68.2192 41.3063 55.8300 0.0000 -24.4516 0.0000
# 2 41.3063 84.3776 57.2476 -0.0002 -22.6602 0.0011
# 3 55.8300 57.2476 105.0318 0.0001 -38.2683 -0.0001
# 4 0.0000 -0.0002 0.0001 25.7945 0.0000 -6.1188
# 5 -24.4516 -22.6602 -38.2683 0.0000 28.4851 0.0000
# 6 0.0000 0.0011 -0.0001 -6.1188 0.0000 16.1776
#
#
#
# Elastic Compliance Matrix: (Units=1/GPa)
#
#
# Indices 1 2 3 4 5 6 
#
# 1 0.028287 -0.005538 -0.009355 0.000000 0.007308 0.000000
# 2 -0.005538 0.019969 -0.007609 0.000000 0.000909 -0.000002
# 3 -0.009355 -0.007609 0.026463 0.000000 0.021468 0.000001
# 4 0.000000 0.000000 0.000000 0.042589 0.000000 0.016108
# 5 0.007308 0.000909 0.021468 0.000000 0.070945 0.000000
# 6 0.000000 -0.000002 0.000001 0.016108 0.000000 0.067906
#
#
# Mechanical properties :
#
#
# Convention : Reuss Voigt Hill
#
# Bulk Modulus (GPa) = 33.65271 62.93294 48.29282
# Shear Modulus (GPa) = 16.07359 20.97442 18.52400
#
# Velocity S-wave (km/s) = 3.25750 3.72112 3.49700
# Velocity P-wave (km/s) = 6.03034 7.74653 6.94168
#
# Compressibility (1/GPa) = 0.02971529
#
# Stress axis : x y z
#
# Youngs Moduli (GPa) = 35.35145 50.07643 37.78871
#
# Poissons Ratio (x) = 0.27733 0.35351
# Poissons Ratio (y) = 0.19578 0.28754
# Poissons Ratio (z) = 0.33071 0.38104
#
# Static dielectric constant tensor:
#      x y z
#    x 2.718730 0.000000 -0.414300 
#    y 0.000000 2.892140 0.000000 
#    z -0.414300 0.000000 2.967040 
# 
# 
# High freq. dielectric constant tensor:
#      x y z
#    x 1.532320 0.000000 -0.045490 
#    y 0.000000 1.581240 0.000000 
#    z -0.045490 0.000000 1.571600 
# 
# From -- ./inp_files/384574.got.cif
#   From: 2010.06.25/outbox.cif.g09.slc.cpg/sg12_193_cif.got.tgz:384574.got - 2010.06.28 00:19:55.
