data_PCOD8078882
_publ_section_title
;
Structure prediction by ZEFSAII (Michael W. Deem and Ramdas Pophale) SiO2 
 PCOD8078882
Probable space group: C 2/M
;
_chemical_formula_sum "Si O2"
_cell_formula_units_Z 56
_cell_length_a 20.680336
_cell_length_b 9.102791
_cell_length_c 19.767112
_cell_angle_alpha 90.000000
_cell_angle_beta 121.495880
_cell_angle_gamma 90.000000
_cell_volume 3172.928658
_symmetry_space_group_name_H-M "C 2/M"
_symmetry_group_IT_number 12
_symmetry_cell_setting 'monoclinic'
loop_
_space_group_symop_operation_xyz
x,y,z
-x,y,-z
-x,-y,-z
x,-y,z
1/2+x,1/2+y,z
1/2-x,1/2+y,-z
1/2-x,1/2-y,-z
1/2+x,1/2-y,z
loop_
_atom_site_type_symbol
_atom_site_label
_atom_site_fract_x
_atom_site_fract_y
_atom_site_fract_z
Si Si1 0.482894 0.329968 0.335223
Si Si2 0.953471 0.170294 0.168677
Si Si3 0.216285 0.826720 0.176908
Si Si4 0.047096 0.825618 0.089865
Si Si5 0.079781 0.162670 0.505613
Si Si6 0.648684 0.172633 0.658861
Si Si7 0.795354 0.674627 0.083972
O O1 0.464877 0.500000 0.342238
O O2 0.497394 0.306117 0.263608
O O3 0.559931 0.283783 0.418107
O O4 0.410995 0.237499 0.320492
O O5 0.881304 0.273794 0.127909
O O6 0.007981 0.222877 0.138259
O O7 0.929215 0.000000 0.146126
O O8 0.132046 0.757761 0.136076
O O9 0.266931 0.783932 0.269909
O O10 0.257869 0.767997 0.132749
O O11 0.208758 0.000000 0.167505
O O12 0.051047 0.000000 0.087002
O O13 0.000000 0.763039 0.000000
O O14 0.138170 0.268472 0.576543
O O15 0.000000 0.163696 0.500000
O O16 0.115758 0.000000 0.524770
O O17 0.636241 0.000000 0.651492
O O18 0.791718 0.500000 0.074847
O O19 0.750000 0.750000 0.000000
#
# Coordination Sequence:
#
# PCOD8078882 Si02
#       7
#     8   8   8   8   8   8   8
#     4   9  17  29  45  69 100 127 158 196 241 293
#     4  10  19  32  53  76  96 126 166 205 246 292
#     4   9  18  31  48  72 100 127 160 203 247 289
#     4   9  17  31  51  72  95 126 166 206 243 291
#     4   8  15  27  42  64  97 131 157 193 238 286
#     4  10  17  27  45  71  98 126 161 200 241 286
#     4  11  21  34  51  73 100 128 159 203 252 295
#
# _framework density 17.64931
#
# number of rings (size 3 to 8) (size 9 to 14) (size 15 to 20)
#    0.000    2.571    1.429    2.571    0.000    4.857 
#    0.000    0.000    0.000    7.286    0.000    0.000 
#    0.000    0.000    0.000    0.000    0.000    1.429 
#
# Total GULP energy -347062.697070 kJ/mol
# GULP energy per Si atom -12395.096324 kJ/mol
# Density = 1.760914 g / cm^3
# Si number density = 17.649310 Si / 1000 Ang^3
#
#
#
# Elastic Constant Matrix: (Units=GPa)
#
#
# Indices 1 2 3 4 5 6 
#
# 1 106.2034 30.0650 73.6814 0.0000 2.9255 0.0000
# 2 30.0650 52.6670 46.7045 0.0000 1.1167 0.0000
# 3 73.6814 46.7045 183.2694 0.0000 -3.9161 0.0000
# 4 0.0000 0.0000 0.0000 25.2807 0.0000 0.3661
# 5 2.9255 1.1167 -3.9161 0.0000 26.9968 0.0000
# 6 0.0000 0.0000 0.0000 0.3661 0.0000 13.7526
#
#
#
# Elastic Compliance Matrix: (Units=1/GPa)
#
#
# Indices 1 2 3 4 5 6 
#
# 1 0.013721 -0.003695 -0.004617 0.000000 -0.002004 0.000000
# 2 -0.003695 0.025627 -0.005075 0.000000 -0.001396 0.000000
# 3 -0.004617 -0.005075 0.008648 0.000000 0.001965 0.000000
# 4 0.000000 0.000000 0.000000 0.039571 0.000000 -0.001053
# 5 -0.002004 -0.001396 0.001965 0.000000 0.037601 0.000000
# 6 0.000000 0.000000 0.000000 -0.001053 0.000000 0.072742
#
#
# Mechanical properties :
#
#
# Convention : Reuss Voigt Hill
#
# Bulk Modulus (GPa) = 47.12478 71.44905 59.28692
# Shear Modulus (GPa) = 21.57426 25.98528 23.77977
#
# Velocity S-wave (km/s) = 3.50006 3.84123 3.67461
# Velocity P-wave (km/s) = 6.56448 7.76170 7.18806
#
# Compressibility (1/GPa) = 0.02122026
#
# Stress axis : x y z
#
# Youngs Moduli (GPa) = 72.88328 39.02188 115.63310
#
# Poissons Ratio (x) = 0.14420 0.53391
# Poissons Ratio (y) = 0.26933 0.58682
# Poissons Ratio (z) = 0.33652 0.19803
#
# Static dielectric constant tensor:
#      x y z
#    x 3.084320 0.000000 -0.317600 
#    y 0.000000 3.046790 0.000000 
#    z -0.317600 0.000000 2.963720 
# 
# 
# High freq. dielectric constant tensor:
#      x y z
#    x 1.645590 0.000000 -0.007220 
#    y 0.000000 1.655290 0.000000 
#    z -0.007220 0.000000 1.707970 
# 
# From -- ./inp_files/319700.got.cif
#   From: 2010.06.25/outbox.cif.g09.slc.cpg/sg12_160_cif.got.tgz:319700.got - 2010.06.28 00:19:55.
