data_PCOD8078451
_publ_section_title
;
Structure prediction by ZEFSAII (Michael W. Deem and Ramdas Pophale) SiO2 
 PCOD8078451
Probable space group: C 2/M
;
_chemical_formula_sum "Si O2"
_cell_formula_units_Z 40
_cell_length_a 9.796373
_cell_length_b 24.365257
_cell_length_c 10.194512
_cell_angle_alpha 90.000000
_cell_angle_beta 61.266189
_cell_angle_gamma 90.000000
_cell_volume 2133.704680
_symmetry_space_group_name_H-M "C 2/M"
_symmetry_group_IT_number 12
_symmetry_cell_setting 'monoclinic'
loop_
_space_group_symop_operation_xyz
x,y,z
-x,y,-z
-x,-y,-z
x,-y,z
1/2+x,1/2+y,z
1/2-x,1/2+y,-z
1/2-x,1/2-y,-z
1/2+x,1/2-y,z
loop_
_atom_site_type_symbol
_atom_site_label
_atom_site_fract_x
_atom_site_fract_y
_atom_site_fract_z
Si Si1 0.326045 0.000000 0.019287
Si Si2 0.163065 0.882743 0.773251
Si Si3 0.191862 0.884284 0.066252
Si Si4 0.322404 0.222634 0.090854
Si Si5 0.683145 0.780224 0.405736
Si Si6 0.164636 0.000000 0.837245
O O1 0.314957 0.000000 0.865336
O O2 0.500000 0.000000 0.000000
O O3 0.233998 0.944624 0.103946
O O4 0.264754 0.844071 0.631427
O O5 0.176568 0.947714 0.735708
O O6 0.985363 0.866894 0.827167
O O7 0.219415 0.877067 0.897809
O O8 0.301080 0.842896 0.096308
O O9 0.242928 0.246403 0.255360
O O10 0.500000 0.239324 0.000000
O O11 0.250000 0.250000 0.000000
O O12 0.500000 0.779173 0.500000
O O13 0.750000 0.750000 0.500000
O O14 0.000000 0.000000 0.000000
#
# Coordination Sequence:
#
# PCOD8078451 Si02
#       6
#     4   8   8   8   8   4
#     4  10  18  30  50  93 131 141 179 259 325 343
#     4  10  18  35  62  87 119 157 200 247 305 367
#     4  10  18  33  59  90 118 146 199 254 302 351
#     4  12  23  38  62  89 114 158 211 259 303 360
#     4  12  26  42  58  87 129 166 203 252 313 370
#     4  10  16  34  61  93 118 151 203 259 307 355
#
# _framework density 18.746737
#
# number of rings (size 3 to 8) (size 9 to 14) (size 15 to 20)
#    0.000    1.200    6.000    4.200    0.000    0.000 
#    0.000    0.500    0.000    1.200    0.000    4.200 
#    0.000    0.000    0.000    0.000    0.000    0.000 
#
# Total GULP energy -247828.420791 kJ/mol
# GULP energy per Si atom -12391.421040 kJ/mol
# Density = 1.870407 g / cm^3
# Si number density = 18.746737 Si / 1000 Ang^3
#
#
#
# Elastic Constant Matrix: (Units=GPa)
#
#
# Indices 1 2 3 4 5 6 
#
# 1 129.9159 51.2298 58.2389 0.0000 -15.2519 0.0000
# 2 51.2298 169.6735 64.5021 0.0000 -3.9247 0.0000
# 3 58.2389 64.5021 109.4320 0.0000 -9.9213 0.0000
# 4 0.0000 0.0000 0.0000 54.9647 0.0000 3.2821
# 5 -15.2519 -3.9247 -9.9213 0.0000 30.1383 0.0000
# 6 0.0000 0.0000 0.0000 3.2821 0.0000 35.2217
#
#
#
# Elastic Compliance Matrix: (Units=1/GPa)
#
#
# Indices 1 2 3 4 5 6 
#
# 1 0.010732 -0.001433 -0.004527 0.000000 0.003754 0.000000
# 2 -0.001433 0.007794 -0.003922 0.000000 -0.001001 0.000000
# 3 -0.004527 -0.003922 0.014024 0.000000 0.001815 0.000000
# 4 0.000000 0.000000 0.000000 0.018295 0.000000 -0.001705
# 5 0.003754 -0.001001 0.001815 0.000000 0.035547 0.000000
# 6 0.000000 0.000000 0.000000 -0.001705 0.000000 0.028550
#
#
# Mechanical properties :
#
#
# Convention : Reuss Voigt Hill
#
# Bulk Modulus (GPa) = 78.20792 84.10699 81.15745
# Shear Modulus (GPa) = 35.97915 39.73499 37.85707
#
# Velocity S-wave (km/s) = 4.38565 4.60887 4.49864
# Velocity P-wave (km/s) = 8.21303 8.56064 8.38864
#
# Compressibility (1/GPa) = 0.01278643
#
# Stress axis : x y z
#
# Youngs Moduli (GPa) = 93.17677 128.30035 71.30768
#
# Poissons Ratio (x) = 0.18382 0.32279
# Poissons Ratio (y) = 0.13349 0.27970
# Poissons Ratio (z) = 0.42179 0.50325
#
# Static dielectric constant tensor:
#      x y z
#    x 3.569650 0.000000 -0.164890 
#    y 0.000000 4.090000 0.000000 
#    z -0.164890 0.000000 3.022290 
# 
# 
# High freq. dielectric constant tensor:
#      x y z
#    x 1.739340 0.000000 -0.010020 
#    y 0.000000 1.757860 0.000000 
#    z -0.010020 0.000000 1.674340 
# 
# From -- ./inp_files/121703.got.cif
#   From: 2010.06.25/outbox.cif.g09.slc.cpg/sg12_61_cif.got.tgz:121703.got - 2010.06.28 00:19:55.
