data_PCOD8078278
_publ_section_title
;
Structure prediction by ZEFSAII (Michael W. Deem and Ramdas Pophale) SiO2 
 PCOD8078278
Probable space group: C 2/M
;
_chemical_formula_sum "Si O2"
_cell_formula_units_Z 60
_cell_length_a 18.508417
_cell_length_b 9.290026
_cell_length_c 30.254852
_cell_angle_alpha 90.000000
_cell_angle_beta 40.895455
_cell_angle_gamma 90.000000
_cell_volume 3405.735199
_symmetry_space_group_name_H-M "C 2/M"
_symmetry_group_IT_number 12
_symmetry_cell_setting 'monoclinic'
loop_
_space_group_symop_operation_xyz
x,y,z
-x,y,-z
-x,-y,-z
x,-y,z
1/2+x,1/2+y,z
1/2-x,1/2+y,-z
1/2-x,1/2-y,-z
1/2+x,1/2-y,z
loop_
_atom_site_type_symbol
_atom_site_label
_atom_site_fract_x
_atom_site_fract_y
_atom_site_fract_z
Si Si1 0.585505 0.167591 0.369786
Si Si2 0.870049 0.164113 0.566326
Si Si3 0.832435 0.331688 0.931512
Si Si4 0.761931 0.669978 0.779834
Si Si5 0.448606 0.840137 0.120452
Si Si6 0.500000 0.252857 0.000000
Si Si7 0.829381 0.328650 0.498279
Si Si8 0.254843 0.338962 0.117150
O O1 0.649608 0.257821 0.377753
O O2 0.639521 0.214724 0.298329
O O3 0.455674 0.200609 0.425721
O O4 0.604767 0.000000 0.371686
O O5 0.810553 0.255613 0.555037
O O6 0.000000 0.162913 0.500000
O O7 0.823758 0.000000 0.588137
O O8 0.803160 0.500000 0.946477
O O9 0.811753 0.265541 0.892097
O O10 0.954266 0.299063 0.891225
O O11 0.750000 0.250000 0.000000
O O12 0.748138 0.500000 0.787979
O O13 0.644556 0.731850 0.819667
O O14 0.781684 0.736419 0.819908
O O15 0.487649 0.837102 0.051082
O O16 0.405451 0.000000 0.149564
O O17 0.612616 0.343743 0.951949
O O18 0.803852 0.500000 0.512192
O O19 0.750000 0.250000 0.500000
O O20 0.211612 0.500000 0.140261
#
# Coordination Sequence:
#
# PCOD8078278 Si02
#       8
#     8   8   8   8   8   4   8   8
#     4   9  18  34  54  74 101 137 174 211 257 307
#     4   9  17  30  51  78 104 132 170 211 253 300
#     4  10  19  32  47  68  95 123 157 201 256 306
#     4   9  19  35  53  71  94 130 170 206 244 298
#     4  10  20  31  46  70  98 126 159 204 256 304
#     4  10  16  28  48  66  95 120 161 202 251 298
#     4  10  19  32  52  80 112 140 172 214 258 302
#     4   9  17  29  48  71  93 121 163 208 247 294
#
# _framework density 17.617341
#
# number of rings (size 3 to 8) (size 9 to 14) (size 15 to 20)
#    0.000    2.533    1.333    1.200    0.000    3.733 
#    0.000    1.333    0.000    3.200    0.000    0.000 
#    0.000    0.000    0.000    0.000    0.000    0.000 
#
# Total GULP energy -371704.787600 kJ/mol
# GULP energy per Si atom -12390.159587 kJ/mol
# Density = 1.757724 g / cm^3
# Si number density = 17.617341 Si / 1000 Ang^3
#
#
#
# Elastic Constant Matrix: (Units=GPa)
#
#
# Indices 1 2 3 4 5 6 
#
# 1 142.9900 50.9409 59.3952 0.0004 25.4522 0.0021
# 2 50.9409 70.2694 37.5388 0.0005 7.6329 0.0022
# 3 59.3952 37.5388 112.3238 0.0000 13.4720 0.0002
# 4 0.0004 0.0005 0.0000 22.1751 0.0000 1.6684
# 5 25.4522 7.6329 13.4720 0.0000 16.7446 0.0005
# 6 0.0021 0.0022 0.0002 1.6684 0.0005 28.8964
#
#
#
# Elastic Compliance Matrix: (Units=1/GPa)
#
#
# Indices 1 2 3 4 5 6 
#
# 1 0.013102 -0.006267 -0.003086 0.000000 -0.014577 0.000000
# 2 -0.006267 0.020518 -0.003945 0.000000 0.003346 -0.000001
# 3 -0.003086 -0.003945 0.012257 0.000000 -0.003373 0.000001
# 4 0.000000 0.000000 0.000000 0.045292 0.000000 -0.002615
# 5 -0.014577 0.003346 -0.003373 0.000000 0.083066 -0.000001
# 6 0.000000 -0.000001 0.000001 -0.002615 -0.000001 0.034757
#
#
# Mechanical properties :
#
#
# Convention : Reuss Voigt Hill
#
# Bulk Modulus (GPa) = 51.85802 69.03697 60.44750
# Shear Modulus (GPa) = 20.65982 25.41044 23.03513
#
# Velocity S-wave (km/s) = 3.42818 3.80195 3.61990
# Velocity P-wave (km/s) = 6.72083 7.65148 7.20121
#
# Compressibility (1/GPa) = 0.01928342
#
# Stress axis : x y z
#
# Youngs Moduli (GPa) = 76.32167 48.73849 81.58310
#
# Poissons Ratio (x) = 0.30543 0.25174
# Poissons Ratio (y) = 0.47828 0.32182
# Poissons Ratio (z) = 0.23551 0.19226
#
# Static dielectric constant tensor:
#      x y z
#    x 4.809320 0.000350 0.965780 
#    y 0.000350 3.366170 0.000170 
#    z 0.965780 0.000170 3.596260 
# 
# 
# High freq. dielectric constant tensor:
#      x y z
#    x 1.683590 0.000000 0.019410 
#    y 0.000000 1.673630 0.000000 
#    z 0.019410 0.000000 1.664420 
# 
# From -- ./inp_files/362729.got.cif
#   From: 2010.06.25/outbox.cif.g09.slc.cpg/sg12_182_cif.got.tgz:362729.got - 2010.06.28 00:19:55.
