data_PCOD8078811
_publ_section_title
;
Structure prediction by ZEFSAII (Michael W. Deem and Ramdas Pophale) SiO2 
 PCOD8078811
Probable space group: C 2/M
;
_chemical_formula_sum "Si O2"
_cell_formula_units_Z 48
_cell_length_a 14.941011
_cell_length_b 8.678443
_cell_length_c 18.696303
_cell_angle_alpha 90.000000
_cell_angle_beta 93.822398
_cell_angle_gamma 90.000000
_cell_volume 2418.857966
_symmetry_space_group_name_H-M "C 2/M"
_symmetry_group_IT_number 12
_symmetry_cell_setting 'monoclinic'
loop_
_space_group_symop_operation_xyz
x,y,z
-x,y,-z
-x,-y,-z
x,-y,z
1/2+x,1/2+y,z
1/2-x,1/2+y,-z
1/2-x,1/2-y,-z
1/2+x,1/2-y,z
loop_
_atom_site_type_symbol
_atom_site_label
_atom_site_fract_x
_atom_site_fract_y
_atom_site_fract_z
Si Si1 0.818300 0.666407 0.915494
Si Si2 0.642174 0.681691 0.671296
Si Si3 0.372093 0.666335 0.044073
Si Si4 0.322974 0.180056 0.176618
Si Si5 0.785400 0.817810 0.575557
Si Si6 0.476790 0.818840 0.580345
O O1 0.855514 0.500000 0.889488
O O2 0.734451 0.630919 0.963202
O O3 0.780670 0.771982 0.847997
O O4 0.894656 0.750941 0.968711
O O5 0.646650 0.500000 0.659273
O O6 0.644792 0.721081 0.754717
O O7 0.725696 0.762016 0.637888
O O8 0.551008 0.747761 0.635036
O O9 0.422638 0.500000 0.051789
O O10 0.390848 0.774169 0.114763
O O11 0.328639 0.000000 0.193645
O O12 0.750000 0.750000 0.500000
O O13 0.885070 0.762550 0.596802
O O14 0.780704 0.000000 0.569723
O O15 0.500000 0.780760 0.500000
O O16 0.469050 0.000000 0.593239
#
# Coordination Sequence:
#
# PCOD8078811 Si02
#       6
#     8   8   8   8   8   8
#     4   8  13  21  35  58  90 129 170 213 260 310
#     4  12  24  38  57  82 112 146 183 227 277 327
#     4   8  13  21  35  58  90 129 170 213 260 310
#     4  10  17  27  42  65  99 136 174 218 268 319
#     4  12  24  40  61  85 110 141 180 224 272 326
#     4  11  23  40  62  85 110 140 180 225 272 327
#
# _framework density 19.844075
#
# number of rings (size 3 to 8) (size 9 to 14) (size 15 to 20)
#    1.000    0.833    1.667    5.500    0.000    0.667 
#    0.000    0.000    0.000    0.000    0.000    0.000 
#    0.000    5.333    0.000   53.333    0.000   32.000 
#
# Total GULP energy -297354.285507 kJ/mol
# GULP energy per Si atom -12389.761896 kJ/mol
# Density = 1.979891 g / cm^3
# Si number density = 19.844075 Si / 1000 Ang^3
#
#
#
# Elastic Constant Matrix: (Units=GPa)
#
#
# Indices 1 2 3 4 5 6 
#
# 1 87.9758 42.6618 40.6629 0.0000 8.4494 0.0000
# 2 42.6618 133.5325 39.7947 0.0000 9.0530 0.0000
# 3 40.6629 39.7947 115.2144 0.0000 26.4534 0.0000
# 4 0.0000 0.0000 0.0000 36.1585 0.0000 6.4090
# 5 8.4494 9.0530 26.4534 0.0000 16.6608 0.0000
# 6 0.0000 0.0000 0.0000 6.4090 0.0000 22.4581
#
#
#
# Elastic Compliance Matrix: (Units=1/GPa)
#
#
# Indices 1 2 3 4 5 6 
#
# 1 0.014989 -0.003580 -0.004335 0.000000 0.001227 0.000000
# 2 -0.003580 0.009203 -0.001863 0.000000 -0.000227 0.000000
# 3 -0.004335 -0.001863 0.015919 0.000000 -0.022065 0.000000
# 4 0.000000 0.000000 0.000000 0.029129 0.000000 -0.008313
# 5 0.001227 -0.000227 -0.022065 0.000000 0.094556 0.000000
# 6 0.000000 0.000000 0.000000 -0.008313 0.000000 0.046900
#
#
# Mechanical properties :
#
#
# Convention : Reuss Voigt Hill
#
# Bulk Modulus (GPa) = 48.65146 64.77350 56.71248
# Shear Modulus (GPa) = 21.08775 29.29570 25.19173
#
# Velocity S-wave (km/s) = 3.26340 3.84643 3.56685
# Velocity P-wave (km/s) = 6.22654 7.24146 6.75309
#
# Compressibility (1/GPa) = 0.02055437
#
# Stress axis : x y z
#
# Youngs Moduli (GPa) = 66.71703 108.65806 62.81706
#
# Poissons Ratio (x) = 0.38899 0.27233
# Poissons Ratio (y) = 0.23884 0.11704
# Poissons Ratio (z) = 0.28924 0.20245
#
# Static dielectric constant tensor:
#      x y z
#    x 3.209640 0.000000 0.106780 
#    y 0.000000 3.964860 0.000000 
#    z 0.106780 0.000000 3.495310 
# 
# 
# High freq. dielectric constant tensor:
#      x y z
#    x 1.728120 0.000000 0.019160 
#    y 0.000000 1.800340 0.000000 
#    z 0.019160 0.000000 1.766720 
# 
# From -- ./inp_files/307983.got.cif
#   From: 2010.06.25/outbox.cif.g09.slc.cpg/sg12_154_cif.got.tgz:307983.got - 2010.06.28 00:19:55.
