data_PCOD8078861
_publ_section_title
;
Structure prediction by ZEFSAII (Michael W. Deem and Ramdas Pophale) SiO2 
 PCOD8078861
Probable space group: C 2/M
;
_chemical_formula_sum "Si O2"
_cell_formula_units_Z 64
_cell_length_a 25.411562
_cell_length_b 8.992593
_cell_length_c 28.588947
_cell_angle_alpha 90.000000
_cell_angle_beta 40.775074
_cell_angle_gamma 90.000000
_cell_volume 4266.662618
_symmetry_space_group_name_H-M "C 2/M"
_symmetry_group_IT_number 12
_symmetry_cell_setting 'monoclinic'
loop_
_space_group_symop_operation_xyz
x,y,z
-x,y,-z
-x,-y,-z
x,-y,z
1/2+x,1/2+y,z
1/2-x,1/2+y,-z
1/2-x,1/2-y,-z
1/2+x,1/2-y,z
loop_
_atom_site_type_symbol
_atom_site_label
_atom_site_fract_x
_atom_site_fract_y
_atom_site_fract_z
Si Si1 0.722112 0.330189 0.783258
Si Si2 0.051362 0.175509 0.567276
Si Si3 0.663543 0.326015 0.678338
Si Si4 0.603512 0.175557 0.802302
Si Si5 0.171591 0.173866 0.405626
Si Si6 0.948061 0.830547 0.077113
Si Si7 0.874354 0.825933 0.669070
Si Si8 0.832720 0.825831 0.430691
O O1 0.736099 0.500000 0.757826
O O2 0.693120 0.229962 0.758297
O O3 0.648140 0.323238 0.870788
O O4 0.805100 0.258711 0.746119
O O5 0.099689 0.222141 0.488553
O O6 0.096441 0.235187 0.583310
O O7 0.960673 0.240694 0.626212
O O8 0.043055 0.000000 0.574544
O O9 0.658938 0.500000 0.691950
O O10 0.595020 0.243386 0.755984
O O11 0.752090 0.268700 0.630461
O O12 0.642337 0.288725 0.639046
O O13 0.537691 0.240798 0.883682
O O14 0.596749 0.000000 0.805622
O O15 0.139971 0.212622 0.375451
O O16 0.193500 0.000000 0.395954
O O17 0.976267 0.000000 0.066329
O O18 0.000000 0.758689 0.000000
O O19 0.867434 0.000000 0.684092
O O20 0.750000 0.750000 0.500000
O O21 0.819858 0.000000 0.447125
#
# Coordination Sequence:
#
# PCOD8078861 Si02
#       8
#     8   8   8   8   8   8   8   8
#     4   9  17  28  42  62  90 119 144 172 209 254
#     4   9  18  31  44  61  84 111 148 191 230 272
#     4  11  20  29  44  64  88 116 150 191 232 274
#     4  10  18  28  43  65  89 119 152 180 214 257
#     4  10  17  27  45  63  81 108 143 185 229 275
#     4   8  15  28  45  66  96 127 147 170 209 259
#     4  10  18  28  44  64  86 115 149 181 220 271
#     4  10  20  33  48  63  82 112 152 196 239 276
#
# _framework density 15.000012999999999
#
# number of rings (size 3 to 8) (size 9 to 14) (size 15 to 20)
#    0.750    1.625    2.500    1.875    0.000    2.250 
#    0.000    1.250    0.000    1.500    0.000    0.000 
#    0.000    1.000    0.000    2.000    0.000    2.750 
#
# Total GULP energy -396484.343561 kJ/mol
# GULP energy per Si atom -12390.135736 kJ/mol
# Density = 1.496587 g / cm^3
# Si number density = 15.000013 Si / 1000 Ang^3
#
#
#
# Elastic Constant Matrix: (Units=GPa)
#
#
# Indices 1 2 3 4 5 6 
#
# 1 78.3334 24.6041 42.9120 0.0039 3.3272 -0.0070
# 2 24.6041 65.2681 39.6984 0.0010 6.2631 0.0124
# 3 42.9120 39.6984 107.0589 -0.0016 3.9034 0.0092
# 4 0.0039 0.0010 -0.0016 20.2471 -0.0006 -1.9350
# 5 3.3272 6.2631 3.9034 -0.0006 12.5833 0.0057
# 6 -0.0070 0.0124 0.0092 -1.9350 0.0057 14.4124
#
#
#
# Elastic Compliance Matrix: (Units=1/GPa)
#
#
# Indices 1 2 3 4 5 6 
#
# 1 0.016788 -0.002762 -0.005657 -0.000002 -0.001309 0.000014
# 2 -0.002762 0.020995 -0.006396 -0.000002 -0.007736 -0.000013
# 3 -0.005657 -0.006396 0.013967 0.000002 0.000347 -0.000006
# 4 -0.000002 -0.000002 0.000002 0.050032 0.000000 0.006717
# 5 -0.001309 -0.007736 0.000347 0.000000 0.083559 -0.000027
# 6 0.000014 -0.000013 -0.000006 0.006717 -0.000027 0.070286
#
#
# Mechanical properties :
#
#
# Convention : Reuss Voigt Hill
#
# Bulk Modulus (GPa) = 45.20786 51.67659 48.44222
# Shear Modulus (GPa) = 17.08628 19.01162 18.04895
#
# Velocity S-wave (km/s) = 3.37869 3.56398 3.47257
# Velocity P-wave (km/s) = 6.73979 7.17368 6.96012
#
# Compressibility (1/GPa) = 0.02212005
#
# Stress axis : x y z
#
# Youngs Moduli (GPa) = 59.56566 47.62974 71.59580
#
# Poissons Ratio (x) = 0.13156 0.40503
# Poissons Ratio (y) = 0.16452 0.45793
# Poissons Ratio (z) = 0.33697 0.30464
#
# Static dielectric constant tensor:
#      x y z
#    x 2.888600 -0.000010 0.034600 
#    y -0.000010 2.797390 0.000010 
#    z 0.034600 0.000010 3.007270 
# 
# 
# High freq. dielectric constant tensor:
#      x y z
#    x 1.538090 0.000000 0.003510 
#    y 0.000000 1.570330 0.000000 
#    z 0.003510 0.000000 1.566750 
# 
# From -- ./inp_files/367040.got.cif
#   From: 2010.06.25/outbox.cif.g09.slc.cpg/sg12_184_cif.got.tgz:367040.got - 2010.06.28 00:19:55.
