data_PCOD8078137
_publ_section_title
;
Structure prediction by ZEFSAII (Michael W. Deem and Ramdas Pophale) SiO2 
 PCOD8078137
Probable space group: C 2/M
;
_chemical_formula_sum "Si O2"
_cell_formula_units_Z 64
_cell_length_a 19.472382
_cell_length_b 9.428100
_cell_length_c 26.510666
_cell_angle_alpha 90.000000
_cell_angle_beta 50.115089
_cell_angle_gamma 90.000000
_cell_volume 3734.636788
_symmetry_space_group_name_H-M "C 2/M"
_symmetry_group_IT_number 12
_symmetry_cell_setting 'monoclinic'
loop_
_space_group_symop_operation_xyz
x,y,z
-x,y,-z
-x,-y,-z
x,-y,z
1/2+x,1/2+y,z
1/2-x,1/2+y,-z
1/2-x,1/2-y,-z
1/2+x,1/2-y,z
loop_
_atom_site_type_symbol
_atom_site_label
_atom_site_fract_x
_atom_site_fract_y
_atom_site_fract_z
Si Si1 0.984712 0.833877 0.898462
Si Si2 0.475874 0.333976 0.228879
Si Si3 0.594814 0.156505 0.983269
Si Si4 0.343754 0.835617 0.149444
Si Si5 0.193130 0.163689 0.566310
Si Si6 0.722129 0.664336 0.667763
Si Si7 0.320156 0.666179 0.702406
Si Si8 0.492623 0.331631 0.677492
O O1 0.964095 0.803377 0.848942
O O2 0.080423 0.765945 0.864458
O O3 0.989502 0.000000 0.907948
O O4 0.905639 0.766266 0.969774
O O5 0.461655 0.500000 0.244345
O O6 0.374920 0.274325 0.269618
O O7 0.521431 0.272645 0.258355
O O8 0.667868 0.193905 0.905555
O O9 0.612807 0.000000 0.997202
O O10 0.500000 0.162388 0.000000
O O11 0.251166 0.800381 0.220111
O O12 0.372622 0.000000 0.143912
O O13 0.250000 0.250000 0.500000
O O14 0.234058 0.187981 0.602485
O O15 0.090116 0.216460 0.612154
O O16 0.198191 0.000000 0.548782
O O17 0.733735 0.500000 0.676807
O O18 0.797368 0.753271 0.661579
O O19 0.324335 0.500000 0.688260
O O20 0.415000 0.727464 0.677691
O O21 0.485028 0.500000 0.681883
#
# Coordination Sequence:
#
# PCOD8078137 Si02
#       8
#     8   8   8   8   8   8   8   8
#     4  10  16  23  41  65  84 111 155 197 230 269
#     4   8  14  26  44  65  89 118 152 190 232 273
#     4   8  15  26  36  52  86 122 147 183 234 279
#     4   9  17  27  39  60  90 120 147 183 236 280
#     4   9  18  34  56  75  96 126 156 186 222 266
#     4   9  17  31  49  70  96 125 151 184 233 275
#     4  10  18  29  49  73  93 118 157 197 227 267
#     4   8  16  31  49  70  95 122 153 189 228 270
#
# _framework density 17.136873000000001
#
# number of rings (size 3 to 8) (size 9 to 14) (size 15 to 20)
#    0.000    3.125    1.250    2.625    0.000    2.750 
#    0.000    1.250    0.000    6.750    0.000    0.000 
#    0.000    0.000    0.000    0.000    0.000    1.250 
#
# Total GULP energy -396525.885200 kJ/mol
# GULP energy per Si atom -12391.433912 kJ/mol
# Density = 1.709787 g / cm^3
# Si number density = 17.136873 Si / 1000 Ang^3
#
#
#
# Elastic Constant Matrix: (Units=GPa)
#
#
# Indices 1 2 3 4 5 6 
#
# 1 103.5624 33.3194 40.0531 -0.0001 7.2966 0.0000
# 2 33.3194 58.8410 43.5080 -0.0003 8.1018 -0.0004
# 3 40.0531 43.5080 102.0427 0.0000 12.2960 0.0000
# 4 -0.0001 -0.0003 0.0000 28.8783 0.0000 5.1881
# 5 7.2966 8.1018 12.2960 0.0000 17.3048 0.0000
# 6 0.0000 -0.0004 0.0000 5.1881 0.0000 17.9122
#
#
#
# Elastic Compliance Matrix: (Units=1/GPa)
#
#
# Indices 1 2 3 4 5 6 
#
# 1 0.012318 -0.004892 -0.002624 0.000000 -0.001039 0.000000
# 2 -0.004892 0.027085 -0.009130 0.000000 -0.004130 0.000001
# 3 -0.002624 -0.009130 0.015392 0.000000 -0.005556 0.000000
# 4 0.000000 0.000000 0.000000 0.036529 0.000000 -0.010580
# 5 -0.001039 -0.004130 -0.005556 0.000000 0.064107 0.000000
# 6 0.000000 0.000001 0.000000 -0.010580 0.000000 0.058892
#
#
# Mechanical properties :
#
#
# Convention : Reuss Voigt Hill
#
# Bulk Modulus (GPa) = 46.50621 55.35634 50.93127
# Shear Modulus (GPa) = 19.62453 22.65676 21.14065
#
# Velocity S-wave (km/s) = 3.38770 3.64002 3.51612
# Velocity P-wave (km/s) = 6.51913 7.07382 6.80213
#
# Compressibility (1/GPa) = 0.02150250
#
# Stress axis : x y z
#
# Youngs Moduli (GPa) = 81.18239 36.92097 64.96809
#
# Poissons Ratio (x) = 0.18061 0.17048
# Poissons Ratio (y) = 0.39713 0.59318
# Poissons Ratio (z) = 0.21302 0.33710
#
# Static dielectric constant tensor:
#      x y z
#    x 3.151660 0.000000 0.144720 
#    y 0.000000 2.972750 0.000000 
#    z 0.144720 0.000000 3.339570 
# 
# 
# High freq. dielectric constant tensor:
#      x y z
#    x 1.631810 0.000000 0.018030 
#    y 0.000000 1.636070 0.000000 
#    z 0.018030 0.000000 1.663220 
# 
# From -- ./inp_files/365169.got.cif
#   From: 2010.06.25/outbox.cif.g09.slc.cpg/sg12_183_cif.got.tgz:365169.got - 2010.06.28 00:19:55.
