data_PCOD8078121
_publ_section_title
;
Structure prediction by ZEFSAII (Michael W. Deem and Ramdas Pophale) SiO2 
 PCOD8078121
Probable space group: C 2/M
;
_chemical_formula_sum "Si O2"
_cell_formula_units_Z 56
_cell_length_a 5.327751
_cell_length_b 17.783278
_cell_length_c 34.286147
_cell_angle_alpha 90.000000
_cell_angle_beta 67.140583
_cell_angle_gamma 90.000000
_cell_volume 2993.307138
_symmetry_space_group_name_H-M "C 2/M"
_symmetry_group_IT_number 12
_symmetry_cell_setting 'monoclinic'
loop_
_space_group_symop_operation_xyz
x,y,z
-x,y,-z
-x,-y,-z
x,-y,z
1/2+x,1/2+y,z
1/2-x,1/2+y,-z
1/2-x,1/2-y,-z
1/2+x,1/2-y,z
loop_
_atom_site_type_symbol
_atom_site_label
_atom_site_fract_x
_atom_site_fract_y
_atom_site_fract_z
Si Si1 0.186682 0.587951 0.025327
Si Si2 0.828582 0.662269 0.768573
Si Si3 0.440892 0.799140 0.323646
Si Si4 0.759549 0.669866 0.196174
Si Si5 0.376063 0.170914 0.549596
Si Si6 0.005399 0.703688 0.097829
Si Si7 0.788709 0.838254 0.584538
O O1 0.162121 0.500000 0.035147
O O2 0.074348 0.628657 0.070264
O O3 0.500000 0.611840 0.000000
O O4 0.000000 0.611844 0.000000
O O5 0.527376 0.624990 0.789269
O O6 0.801015 0.750705 0.779603
O O7 0.954590 0.649104 0.718168
O O8 0.026321 0.624989 0.789267
O O9 0.690389 0.750009 0.323855
O O10 0.337307 0.852099 0.365073
O O11 0.884149 0.679936 0.146338
O O12 0.500000 0.187142 0.500000
O O13 0.591254 0.125161 0.563546
O O14 0.313408 0.249324 0.574680
O O15 0.091123 0.125157 0.563559
O O16 0.282596 0.750012 0.086940
#
# Coordination Sequence:
#
# PCOD8078121 Si02
#       7
#     8   8   8   8   8   8   8
#     4  10  23  42  57  73 102 137 164 190 233 284
#     4  10  16  25  38  51  80 109 122 151 205 259
#     4  12  16  22  31  42  57  86 113 135 175 233
#     4  10  16  27  38  61  86 106 129 163 207 250
#     4  10  16  22  28  32  43  63  87 133 193 229
#     4  12  21  32  55  80 102 123 157 203 235 264
#     4  10  16  22  26  37  48  61  99 137 163 229
#
# _framework density 18.708404000000002
#
# number of rings (size 3 to 8) (size 9 to 14) (size 15 to 20)
#    0.000    1.429    8.571    3.000    0.000    1.714 
#    0.000    0.000    0.000    0.000    0.000    0.000 
#    0.000    0.000    0.000    0.000    0.000    0.000 
#
# Total GULP energy -347006.637366 kJ/mol
# GULP energy per Si atom -12393.094192 kJ/mol
# Density = 1.866582 g / cm^3
# Si number density = 18.708404 Si / 1000 Ang^3
#
#
#
# Elastic Constant Matrix: (Units=GPa)
#
#
# Indices 1 2 3 4 5 6 
#
# 1 218.2597 16.2138 47.8036 0.0000 8.9184 0.0000
# 2 16.2138 11.8402 30.7366 0.0000 -1.0966 0.0000
# 3 47.8036 30.7366 141.1371 0.0000 -3.1887 0.0000
# 4 0.0000 0.0000 0.0000 -0.7058 0.0000 0.3556
# 5 8.9184 -1.0966 -3.1887 0.0000 26.2864 0.0000
# 6 0.0000 0.0000 0.0000 0.3556 0.0000 4.0498
#
#
#
# Elastic Compliance Matrix: (Units=1/GPa)
#
#
# Indices 1 2 3 4 5 6 
#
# 1 0.005226 -0.006056 -0.000498 0.000000 -0.002086 0.000000
# 2 -0.006056 0.201562 -0.041723 0.000000 0.005402 0.000000
# 3 -0.000498 -0.041723 0.016350 0.000000 0.000412 0.000000
# 4 0.000000 0.000000 0.000000 -1.356728 0.000000 0.119144
# 5 -0.002086 0.005402 0.000412 0.000000 0.039026 0.000000
# 6 0.000000 0.000000 0.000000 0.119144 0.000000 0.236464
#
#
# Mechanical properties :
#
#
# Convention : Reuss Voigt Hill
#
# Bulk Modulus (GPa) = 7.89992 62.30500 35.10246
# Shear Modulus (GPa) = -6.95069 24.35827 8.70379
#
# Velocity S-wave (km/s) = -1.92960 3.61223 2.15927
# Velocity P-wave (km/s) = 0.85594 7.12553 5.00203
#
# Compressibility (1/GPa) = 0.12658362
#
# Stress axis : x y z
#
# Youngs Moduli (GPa) = 191.35234 4.96126 61.16338
#
# Poissons Ratio (x) = 0.03005 0.03048
# Poissons Ratio (y) = 1.15882 2.55189
# Poissons Ratio (z) = 0.09536 0.20700
#
# Static dielectric constant tensor:
#      x y z
#    x 5.798590 0.000000 0.162030 
#    y 0.000000 2.497440 0.000000 
#    z 0.162030 0.000000 3.628900 
# 
# 
# High freq. dielectric constant tensor:
#      x y z
#    x 1.775660 0.000000 0.002160 
#    y 0.000000 1.606050 0.000000 
#    z 0.002160 0.000000 1.746720 
# 
# From -- ./inp_files/371545.got.cif
#   From: 2010.06.25/outbox.cif.g09.slc.cpg/sg12_186_cif.got.tgz:371545.got - 2010.06.28 00:19:55.
