data_PCOD8078292
_publ_section_title
;
Structure prediction by ZEFSAII (Michael W. Deem and Ramdas Pophale) SiO2 
 PCOD8078292
Probable space group: C 2/M
;
_chemical_formula_sum "Si O2"
_cell_formula_units_Z 64
_cell_length_a 23.323293
_cell_length_b 23.245787
_cell_length_c 11.681534
_cell_angle_alpha 90.000000
_cell_angle_beta 149.804932
_cell_angle_gamma 90.000000
_cell_volume 3185.333932
_symmetry_space_group_name_H-M "C 2/M"
_symmetry_group_IT_number 12
_symmetry_cell_setting 'monoclinic'
loop_
_space_group_symop_operation_xyz
x,y,z
-x,y,-z
-x,-y,-z
x,-y,z
1/2+x,1/2+y,z
1/2-x,1/2+y,-z
1/2-x,1/2-y,-z
1/2+x,1/2-y,z
loop_
_atom_site_type_symbol
_atom_site_label
_atom_site_fract_x
_atom_site_fract_y
_atom_site_fract_z
Si Si1 0.358032 0.369933 0.108117
Si Si2 0.956896 0.242934 0.304965
Si Si3 0.814517 0.222182 0.418105
Si Si4 0.428954 0.434372 0.617011
Si Si5 0.979524 0.371461 0.335747
Si Si6 0.723739 0.148153 0.664205
Si Si7 0.382920 0.354046 0.738867
Si Si8 0.252423 0.115357 0.843894
O O1 0.355348 0.299994 0.097122
O O2 0.483056 0.396581 0.305421
O O3 0.312080 0.391956 0.148003
O O4 0.275257 0.385850 0.861391
O O5 0.000000 0.218901 0.500000
O O6 0.054567 0.235034 0.380873
O O7 0.919585 0.309089 0.253109
O O8 0.749750 0.283206 0.299006
O O9 0.819148 0.194703 0.553010
O O10 0.754974 0.179326 0.224238
O O11 0.469583 0.500000 0.693598
O O12 0.420347 0.408996 0.729076
O O13 0.305438 0.429508 0.343153
O O14 0.089794 0.366679 0.444439
O O15 0.000000 0.397342 0.500000
O O16 0.883297 0.404419 0.095500
O O17 0.787439 0.122737 0.663221
O O18 0.500000 0.330385 0.000000
#
# Coordination Sequence:
#
# PCOD8078292 Si02
#       8
#     8   8   8   8   8   8   8   8
#     4  12  19  35  60  87 126 156 195 251 303 355
#     4  10  16  28  50  84 121 157 195 229 278 351
#     4  10  20  33  53  86 127 166 202 236 286 352
#     4  11  25  43  65  90 113 149 206 271 323 350
#     4  10  21  33  53  87 125 165 194 222 284 366
#     4  11  22  35  55  89 125 161 200 237 284 363
#     4  11  21  40  61  85 119 159 204 257 305 351
#     4  11  21  36  60  87 123 162 195 245 298 363
#
# _framework density 20.092085999999998
#
# number of rings (size 3 to 8) (size 9 to 14) (size 15 to 20)
#    0.000    1.250    6.250    1.500    0.000    3.250 
#    0.000    2.500    0.000    2.625    0.000    0.000 
#    0.000    0.000    0.000    0.000    0.000    0.000 
#
# Total GULP energy -396556.282780 kJ/mol
# GULP energy per Si atom -12392.383837 kJ/mol
# Density = 2.004636 g / cm^3
# Si number density = 20.092086 Si / 1000 Ang^3
#
#
#
# Elastic Constant Matrix: (Units=GPa)
#
#
# Indices 1 2 3 4 5 6 
#
# 1 124.7846 5.4702 37.4536 0.0000 -1.8097 0.0000
# 2 5.4702 45.5579 10.7913 0.0000 -3.0601 0.0000
# 3 37.4536 10.7913 114.8073 0.0000 -7.0593 0.0000
# 4 0.0000 0.0000 0.0000 8.8715 0.0000 -2.7916
# 5 -1.8097 -3.0601 -7.0593 0.0000 32.9877 0.0000
# 6 0.0000 0.0000 0.0000 -2.7916 0.0000 10.7265
#
#
#
# Elastic Compliance Matrix: (Units=1/GPa)
#
#
# Indices 1 2 3 4 5 6 
#
# 1 0.008891 -0.000398 -0.002873 0.000000 -0.000164 0.000000
# 2 -0.000398 0.022557 -0.001888 0.000000 0.001667 0.000000
# 3 -0.002873 -0.001888 0.009935 0.000000 0.001793 0.000000
# 4 0.000000 0.000000 0.000000 0.122775 0.000000 0.031952
# 5 -0.000164 0.001667 0.001793 0.000000 0.030844 0.000000
# 6 0.000000 0.000000 0.000000 0.031952 0.000000 0.101543
#
#
# Mechanical properties :
#
#
# Convention : Reuss Voigt Hill
#
# Bulk Modulus (GPa) = 32.19039 43.62001 37.90520
# Shear Modulus (GPa) = 15.76198 25.94610 20.85404
#
# Velocity S-wave (km/s) = 2.80391 3.59745 3.22518
# Velocity P-wave (km/s) = 5.15158 6.24601 5.72501
#
# Compressibility (1/GPa) = 0.03106518
#
# Stress axis : x y z
#
# Youngs Moduli (GPa) = 112.46969 44.33213 100.65089
#
# Poissons Ratio (x) = 0.01764 0.28920
# Poissons Ratio (y) = 0.04476 0.19002
# Poissons Ratio (z) = 0.32316 0.08370
#
# Static dielectric constant tensor:
#      x y z
#    x 3.613710 0.000000 -0.102350 
#    y 0.000000 3.256130 0.000000 
#    z -0.102350 0.000000 3.743140 
# 
# 
# High freq. dielectric constant tensor:
#      x y z
#    x 1.786740 0.000000 -0.007720 
#    y 0.000000 1.730270 0.000000 
#    z -0.007720 0.000000 1.790360 
# 
# From -- ./inp_files/178426.got.cif
#   From: 2010.06.25/outbox.cif.g09.slc.cpg/sg12_90_cif.got.tgz:178426.got - 2010.06.28 00:19:55.
