data_PCOD8078228
_publ_section_title
;
Structure prediction by ZEFSAII (Michael W. Deem and Ramdas Pophale) SiO2 
 PCOD8078228
Probable space group: C 2/M
;
_chemical_formula_sum "Si O2"
_cell_formula_units_Z 48
_cell_length_a 21.567512
_cell_length_b 12.947789
_cell_length_c 13.299259
_cell_angle_alpha 90.000000
_cell_angle_beta 135.786325
_cell_angle_gamma 90.000000
_cell_volume 2589.794539
_symmetry_space_group_name_H-M "C 2/M"
_symmetry_group_IT_number 12
_symmetry_cell_setting 'monoclinic'
loop_
_space_group_symop_operation_xyz
x,y,z
-x,y,-z
-x,-y,-z
x,-y,z
1/2+x,1/2+y,z
1/2-x,1/2+y,-z
1/2-x,1/2-y,-z
1/2+x,1/2-y,z
loop_
_atom_site_type_symbol
_atom_site_label
_atom_site_fract_x
_atom_site_fract_y
_atom_site_fract_z
Si Si1 0.437121 0.615958 0.523443
Si Si2 0.425153 0.119484 0.995815
Si Si3 0.344869 0.887333 0.257972
Si Si4 0.954653 0.733712 0.232510
Si Si5 0.194376 0.112117 0.923094
Si Si6 0.236000 0.802953 0.761396
O O1 0.500000 0.638612 0.500000
O O2 0.454428 0.500000 0.583465
O O3 0.457904 0.700967 0.633952
O O4 0.332480 0.622838 0.375766
O O5 0.466512 0.164076 0.147391
O O6 0.399271 0.000000 0.984647
O O7 0.500000 0.131767 0.000000
O O8 0.338496 0.179049 0.849504
O O9 0.429021 0.834555 0.300662
O O10 0.302088 0.814427 0.295455
O O11 0.371994 0.000000 0.334877
O O12 0.271112 0.906878 0.089816
O O13 0.882880 0.820048 0.118923
O O14 0.236595 0.173967 0.880431
O O15 0.156503 0.000000 0.844232
#
# Coordination Sequence:
#
# PCOD8078228 Si02
#       6
#     8   8   8   8   8   8
#     4  11  21  32  53  86 119 147 175 213 272 340
#     4  11  23  39  60  80 101 142 196 237 267 309
#     4  10  18  28  50  81 112 143 173 217 283 332
#     4  11  19  33  50  81 114 143 175 222 274 322
#     4  10  16  26  51  80 109 138 169 219 278 327
#     4  11  19  35  53  81 113 142 179 226 270 322
#
# _framework density 18.534289999999999
#
# number of rings (size 3 to 8) (size 9 to 14) (size 15 to 20)
#    0.000    1.333    6.667    3.500    0.000    0.000 
#    0.000    3.333    0.000    4.500    0.000    0.000 
#    0.000    0.000    0.000    0.000    0.000    0.000 
#
# Total GULP energy -297417.112897 kJ/mol
# GULP energy per Si atom -12392.379704 kJ/mol
# Density = 1.849210 g / cm^3
# Si number density = 18.534290 Si / 1000 Ang^3
#
#
#
# Elastic Constant Matrix: (Units=GPa)
#
#
# Indices 1 2 3 4 5 6 
#
# 1 59.8197 34.4068 24.7815 0.0000 10.4658 0.0000
# 2 34.4068 139.3686 19.1912 0.0000 1.9350 0.0000
# 3 24.7815 19.1912 74.3061 0.0000 13.5238 0.0000
# 4 0.0000 0.0000 0.0000 25.0397 0.0000 -1.8311
# 5 10.4658 1.9350 13.5238 0.0000 14.7786 0.0000
# 6 0.0000 0.0000 0.0000 -1.8311 0.0000 19.2965
#
#
#
# Elastic Compliance Matrix: (Units=1/GPa)
#
#
# Indices 1 2 3 4 5 6 
#
# 1 0.023522 -0.005040 -0.004357 0.000000 -0.012011 0.000000
# 2 -0.005040 0.008531 -0.001162 0.000000 0.003516 0.000000
# 3 -0.004357 -0.001162 0.017544 0.000000 -0.012816 0.000000
# 4 0.000000 0.000000 0.000000 0.040216 0.000000 0.003816
# 5 -0.012011 0.003516 -0.012816 0.000000 0.087439 0.000000
# 6 0.000000 0.000000 0.000000 0.003816 0.000000 0.052185
#
#
# Mechanical properties :
#
#
# Convention : Reuss Voigt Hill
#
# Bulk Modulus (GPa) = 35.11537 47.80595 41.46066
# Shear Modulus (GPa) = 19.22720 24.83061 22.02890
#
# Velocity S-wave (km/s) = 3.22434 3.66418 3.45127
# Velocity P-wave (km/s) = 5.73142 6.61444 6.18870
#
# Compressibility (1/GPa) = 0.02847756
#
# Stress axis : x y z
#
# Youngs Moduli (GPa) = 42.51272 117.22257 57.00053
#
# Poissons Ratio (x) = 0.59085 0.24836
# Poissons Ratio (y) = 0.21428 0.06624
# Poissons Ratio (z) = 0.18523 0.13623
#
# Static dielectric constant tensor:
#      x y z
#    x 2.885320 0.000000 0.164560 
#    y 0.000000 3.871260 0.000000 
#    z 0.164560 0.000000 3.387660 
# 
# 
# High freq. dielectric constant tensor:
#      x y z
#    x 1.645180 0.000000 0.017280 
#    y 0.000000 1.745380 0.000000 
#    z 0.017280 0.000000 1.718940 
# 
# From -- ./inp_files/233470.got.cif
#   From: 2010.06.25/outbox.cif.g09.slc.cpg/sg12_117_cif.got.tgz:233470.got - 2010.06.28 00:19:55.
