data_PCOD8078046
_publ_section_title
;
Structure prediction by ZEFSAII (Michael W. Deem and Ramdas Pophale) SiO2 
 PCOD8078046
Probable space group: C 2/M
;
_chemical_formula_sum "Si O2"
_cell_formula_units_Z 64
_cell_length_a 23.996308
_cell_length_b 23.747222
_cell_length_c 9.635951
_cell_angle_alpha 90.000000
_cell_angle_beta 131.157669
_cell_angle_gamma 90.000000
_cell_volume 4134.184940
_symmetry_space_group_name_H-M "C 2/M"
_symmetry_group_IT_number 12
_symmetry_cell_setting 'monoclinic'
loop_
_space_group_symop_operation_xyz
x,y,z
-x,y,-z
-x,-y,-z
x,-y,z
1/2+x,1/2+y,z
1/2-x,1/2+y,-z
1/2-x,1/2-y,-z
1/2+x,1/2-y,z
loop_
_atom_site_type_symbol
_atom_site_label
_atom_site_fract_x
_atom_site_fract_y
_atom_site_fract_z
Si Si1 0.281024 0.755134 0.898360
Si Si2 0.111492 0.062247 0.413527
Si Si3 0.532139 0.383830 0.899353
Si Si4 0.935272 0.755980 0.056899
Si Si5 0.731295 0.835452 0.595300
Si Si6 0.188812 0.827448 0.563725
Si Si7 0.093454 0.268487 0.306499
Si Si8 0.824079 0.937884 0.786705
O O1 0.260002 0.701767 0.769788
O O2 0.248209 0.811582 0.777265
O O3 0.250000 0.750000 0.000000
O O4 0.369933 0.761450 0.054321
O O5 0.163020 0.110138 0.566586
O O6 0.136736 0.058642 0.296824
O O7 0.026188 0.081842 0.290931
O O8 0.121243 0.000000 0.498371
O O9 0.538195 0.319046 0.867046
O O10 0.500000 0.387422 0.000000
O O11 0.613130 0.411305 0.011044
O O12 0.007782 0.717001 0.202376
O O13 0.903243 0.749900 0.848993
O O14 0.776400 0.820803 0.531397
O O15 0.644437 0.823368 0.422196
O O16 0.748901 0.900448 0.662406
O O17 0.120561 0.783534 0.447058
O O18 0.801215 0.000000 0.801411
#
# Coordination Sequence:
#
# PCOD8078046 Si02
#       8
#     8   8   8   8   8   8   8   8
#     4  11  21  31  45  67  94 121 152 193 234 276
#     4   9  16  24  40  67  95 124 154 186 223 265
#     4  10  14  22  38  67  98 121 150 189 222 267
#     4  11  16  27  44  70  91 121 151 185 233 272
#     4  10  17  30  46  66  93 119 153 189 229 271
#     4  10  16  30  46  66  91 123 158 186 224 268
#     4  10  16  25  47  68  87 115 157 186 226 279
#     4   9  16  24  40  66  96 123 151 189 229 264
#
# _framework density 15.480682
#
# number of rings (size 3 to 8) (size 9 to 14) (size 15 to 20)
#    0.000    2.000    6.250    1.875    0.000    1.500 
#    0.000    2.500    0.000    0.750    0.000    3.500 
#    0.000    1.000    0.000    0.000    0.000    0.000 
#
# Total GULP energy -396495.069599 kJ/mol
# GULP energy per Si atom -12390.470925 kJ/mol
# Density = 1.544545 g / cm^3
# Si number density = 15.480682 Si / 1000 Ang^3
#
#
#
# Elastic Constant Matrix: (Units=GPa)
#
#
# Indices 1 2 3 4 5 6 
#
# 1 83.1103 37.3367 43.7302 0.0000 19.2972 0.0000
# 2 37.3367 110.7746 46.9910 0.0000 24.4156 0.0000
# 3 43.7302 46.9910 54.5527 0.0000 19.2926 0.0000
# 4 0.0000 0.0000 0.0000 16.5194 0.0000 11.8441
# 5 19.2972 24.4156 19.2926 0.0000 30.2680 0.0000
# 6 0.0000 0.0000 0.0000 11.8441 0.0000 12.0157
#
#
#
# Elastic Compliance Matrix: (Units=1/GPa)
#
#
# Indices 1 2 3 4 5 6 
#
# 1 0.021101 0.000501 -0.016067 0.000000 -0.003615 0.000000
# 2 0.000501 0.014782 -0.011367 0.000000 -0.004998 0.000000
# 3 -0.016067 -0.011367 0.044071 0.000000 -0.008678 0.000000
# 4 0.000000 0.000000 0.000000 0.206418 0.000000 -0.203468
# 5 -0.003615 -0.004998 -0.008678 0.000000 0.044906 0.000000
# 6 0.000000 0.000000 0.000000 -0.203468 0.000000 0.283786
#
#
# Mechanical properties :
#
#
# Convention : Reuss Voigt Hill
#
# Bulk Modulus (GPa) = 38.33394 56.06149 47.19772
# Shear Modulus (GPa) = 7.37870 19.78593 13.58232
#
# Velocity S-wave (km/s) = 2.18558 3.57894 2.96526
# Velocity P-wave (km/s) = 5.58437 7.30554 6.50215
#
# Compressibility (1/GPa) = 0.02608654
#
# Stress axis : x y z
#
# Youngs Moduli (GPa) = 47.39118 67.64959 22.69070
#
# Poissons Ratio (x) = -0.03387 0.36458
# Poissons Ratio (y) = -0.02373 0.25792
# Poissons Ratio (z) = 0.76146 0.76896
#
# Static dielectric constant tensor:
#      x y z
#    x 2.817940 0.000000 0.373500 
#    y 0.000000 3.100520 0.000000 
#    z 0.373500 0.000000 2.915740 
# 
# 
# High freq. dielectric constant tensor:
#      x y z
#    x 1.562340 0.000000 0.029420 
#    y 0.000000 1.575810 0.000000 
#    z 0.029420 0.000000 1.572920 
# 
# From -- ./inp_files/99691.got.cif
#   From: 2010.06.25/outbox.cif.g09.slc.cpg/sg12_50_cif.got.tgz:99691.got - 2010.06.28 00:19:55.
