data_PCOD8078909
_publ_section_title
;
Structure prediction by ZEFSAII (Michael W. Deem and Ramdas Pophale) SiO2 
 PCOD8078909
Probable space group: C 2/M
;
_chemical_formula_sum "Si O2"
_cell_formula_units_Z 56
_cell_length_a 20.553805
_cell_length_b 7.957495
_cell_length_c 25.230416
_cell_angle_alpha 90.000000
_cell_angle_beta 49.263790
_cell_angle_gamma 90.000000
_cell_volume 3126.820526
_symmetry_space_group_name_H-M "C 2/M"
_symmetry_group_IT_number 12
_symmetry_cell_setting 'monoclinic'
loop_
_space_group_symop_operation_xyz
x,y,z
-x,y,-z
-x,-y,-z
x,-y,z
1/2+x,1/2+y,z
1/2-x,1/2+y,-z
1/2-x,1/2-y,-z
1/2+x,1/2-y,z
loop_
_atom_site_type_symbol
_atom_site_label
_atom_site_fract_x
_atom_site_fract_y
_atom_site_fract_z
Si Si1 0.420980 0.686669 0.174738
Si Si2 0.770633 0.805954 0.325829
Si Si3 0.852653 0.809151 0.695500
Si Si4 0.486518 0.305899 0.449076
Si Si5 0.719351 0.684229 0.842532
Si Si6 0.999923 0.500000 0.912949
Si Si7 0.358764 0.000000 0.070464
Si Si8 0.299868 0.804668 0.525161
O O1 0.464280 0.500000 0.153392
O O2 0.370235 0.724184 0.256579
O O3 0.351451 0.691795 0.165330
O O4 0.491589 0.831712 0.127482
O O5 0.708272 0.692707 0.323706
O O6 0.758453 0.754333 0.393474
O O7 0.745869 0.000000 0.328971
O O8 0.812509 0.705986 0.765788
O O9 0.945007 0.729887 0.629570
O O10 0.860827 0.000000 0.710912
O O11 0.500000 0.220515 0.500000
O O12 0.511512 0.500000 0.441004
O O13 0.390811 0.287774 0.478557
O O14 0.716953 0.500000 0.871707
O O15 0.699958 0.832294 0.894918
O O16 0.072471 0.500000 0.919093
O O17 0.905842 0.500000 0.988838
O O18 0.250000 0.750000 0.500000
O O19 0.319630 0.000000 0.513684
#
# Coordination Sequence:
#
# PCOD8078909 Si02
#       8
#     8   8   8   8   8   4   4   8
#     4   8  15  26  38  58  84 111 155 201 237 282
#     4   9  18  30  45  65  89 121 161 206 249 297
#     4  10  17  27  47  68  92 119 159 212 247 290
#     4  10  20  34  50  74  99 125 166 215 257 298
#     4   9  16  26  39  57  85 120 156 195 240 292
#     4   9  16  24  38  58  81 118 157 192 237 291
#     4   9  16  26  36  56  86 117 158 191 236 297
#     4  11  23  37  51  69  99 134 172 211 260 312
#
# _framework density 17.909566999999999
#
# number of rings (size 3 to 8) (size 9 to 14) (size 15 to 20)
#    0.000    2.571    2.143    1.714    3.000    2.571 
#    0.000    2.857    0.000    0.000    0.000    0.000 
#    0.000    0.000    0.000    1.286    4.571    1.143 
#
# Total GULP energy -347041.522310 kJ/mol
# GULP energy per Si atom -12394.340082 kJ/mol
# Density = 1.786880 g / cm^3
# Si number density = 17.909567 Si / 1000 Ang^3
#
#
#
# Elastic Constant Matrix: (Units=GPa)
#
#
# Indices 1 2 3 4 5 6 
#
# 1 46.0485 7.9727 28.2181 -0.0001 -4.4031 -0.0019
# 2 7.9727 105.1273 67.2805 0.0006 -10.9991 -0.0028
# 3 28.2181 67.2805 153.8406 0.0001 -21.0673 -0.0003
# 4 -0.0001 0.0006 0.0001 23.5909 0.0000 -2.2350
# 5 -4.4031 -10.9991 -21.0673 0.0000 12.9834 0.0000
# 6 -0.0019 -0.0028 -0.0003 -2.2350 0.0000 10.7689
#
#
#
# Elastic Compliance Matrix: (Units=1/GPa)
#
#
# Indices 1 2 3 4 5 6 
#
# 1 0.024643 0.001459 -0.004943 0.000001 0.001573 0.000005
# 2 0.001459 0.013351 -0.005773 0.000000 0.002439 0.000004
# 3 -0.004943 -0.005773 0.011613 0.000000 0.012276 -0.000002
# 4 0.000001 0.000000 0.000000 0.043239 0.000000 0.008974
# 5 0.001573 0.002439 0.012276 0.000000 0.099540 0.000001
# 6 0.000005 0.000004 -0.000002 0.008974 0.000001 0.094723
#
#
# Mechanical properties :
#
#
# Convention : Reuss Voigt Hill
#
# Bulk Modulus (GPa) = 32.16070 56.88434 44.52252
# Shear Modulus (GPa) = 15.82344 22.90497 19.36421
#
# Velocity S-wave (km/s) = 2.97563 3.58008 3.29176
# Velocity P-wave (km/s) = 5.45913 6.99430 6.27385
#
# Compressibility (1/GPa) = 0.03109385
#
# Stress axis : x y z
#
# Youngs Moduli (GPa) = 40.57965 74.89937 86.11307
#
# Poissons Ratio (x) = -0.10928 0.42564
# Poissons Ratio (y) = -0.05921 0.49710
# Poissons Ratio (z) = 0.20058 0.43237
#
# Static dielectric constant tensor:
#      x y z
#    x 2.559860 0.000000 -0.156610 
#    y 0.000000 3.501020 0.000000 
#    z -0.156610 0.000000 3.584160 
# 
# 
# High freq. dielectric constant tensor:
#      x y z
#    x 1.605080 0.000000 -0.017390 
#    y 0.000000 1.703790 0.000000 
#    z -0.017390 0.000000 1.701820 
# 
# From -- ./inp_files/345507.got.cif
#   From: 2010.06.25/outbox.cif.g09.slc.cpg/sg12_173_cif.got.tgz:345507.got - 2010.06.28 00:19:55.
