data_PCOD8078409
_publ_section_title
;
Structure prediction by ZEFSAII (Michael W. Deem and Ramdas Pophale) SiO2 
 PCOD8078409
Probable space group: C 2/M
;
_chemical_formula_sum "Si O2"
_cell_formula_units_Z 60
_cell_length_a 29.340458
_cell_length_b 9.067340
_cell_length_c 12.521446
_cell_angle_alpha 90.000000
_cell_angle_beta 74.350892
_cell_angle_gamma 90.000000
_cell_volume 3207.722341
_symmetry_space_group_name_H-M "C 2/M"
_symmetry_group_IT_number 12
_symmetry_cell_setting 'monoclinic'
loop_
_space_group_symop_operation_xyz
x,y,z
-x,y,-z
-x,-y,-z
x,-y,z
1/2+x,1/2+y,z
1/2-x,1/2+y,-z
1/2-x,1/2-y,-z
1/2+x,1/2-y,z
loop_
_atom_site_type_symbol
_atom_site_label
_atom_site_fract_x
_atom_site_fract_y
_atom_site_fract_z
Si Si1 0.500000 0.247092 0.500000
Si Si2 0.910813 0.173268 0.291875
Si Si3 0.503265 0.837094 0.261908
Si Si4 0.896470 0.325273 0.888257
Si Si5 0.861453 0.829322 0.108079
Si Si6 0.166906 0.822993 0.240897
Si Si7 0.397202 0.335912 0.530603
Si Si8 0.244954 0.826572 0.889172
O O1 0.499020 0.150494 0.607973
O O2 0.452300 0.343972 0.530044
O O3 0.874576 0.213804 0.221230
O O4 0.891511 0.240019 0.417221
O O5 0.962813 0.236705 0.235650
O O6 0.917710 0.000000 0.301543
O O7 0.553566 0.773693 0.191931
O O8 0.496436 0.000000 0.219094
O O9 0.888509 0.500000 0.881822
O O10 0.855334 0.236062 0.854685
O O11 0.893307 0.274828 0.013047
O O12 0.806349 0.797164 0.127652
O O13 0.873782 0.000000 0.077171
O O14 0.135492 0.758416 0.359184
O O15 0.218854 0.751216 0.216295
O O16 0.169537 0.000000 0.234595
O O17 0.377202 0.500000 0.535937
O O18 0.255786 0.000000 0.893702
O O19 0.250000 0.750000 0.000000
#
# Coordination Sequence:
#
# PCOD8078409 Si02
#       8
#     4   8   8   8   8   8   8   8
#     4  10  16  32  52  78 111 150 185 224 273 322
#     4   9  20  39  59  79 107 149 192 228 268 325
#     4  10  21  34  51  81 115 149 184 226 276 328
#     4  11  22  35  54  82 115 148 182 225 278 332
#     4  10  22  40  60  80 107 144 188 232 276 329
#     4  11  21  35  55  85 116 143 179 229 281 330
#     4   9  18  32  55  83 111 144 185 229 272 321
#     4  11  22  37  58  85 111 143 183 232 284 332
#
# _framework density 18.704861000000001
#
# number of rings (size 3 to 8) (size 9 to 14) (size 15 to 20)
#    0.000    1.867    2.667    1.600    0.000    3.200 
#    0.000    4.000    0.000    0.000    0.000    0.000 
#    0.000    0.000    0.000    0.000    0.000    0.000 
#
# Total GULP energy -371914.392865 kJ/mol
# GULP energy per Si atom -12397.146429 kJ/mol
# Density = 1.866229 g / cm^3
# Si number density = 18.704861 Si / 1000 Ang^3
#
#
#
# Elastic Constant Matrix: (Units=GPa)
#
#
# Indices 1 2 3 4 5 6 
#
# 1 119.9105 39.4880 69.6357 0.0000 -0.1108 0.0000
# 2 39.4880 69.4279 36.5753 0.0000 -2.1342 0.0000
# 3 69.6357 36.5753 117.6003 0.0000 -8.3378 0.0000
# 4 0.0000 0.0000 0.0000 19.4530 0.0000 -5.0051
# 5 -0.1108 -2.1342 -8.3378 0.0000 36.4997 0.0000
# 6 0.0000 0.0000 0.0000 -5.0051 0.0000 27.8440
#
#
#
# Elastic Compliance Matrix: (Units=1/GPa)
#
#
# Indices 1 2 3 4 5 6 
#
# 1 0.013776 -0.004217 -0.006973 0.000000 -0.001798 0.000000
# 2 -0.004217 0.018518 -0.003239 0.000000 0.000330 0.000000
# 3 -0.006973 -0.003239 0.013849 0.000000 0.002953 0.000000
# 4 0.000000 0.000000 0.000000 0.053899 0.000000 0.009689
# 5 -0.001798 0.000330 0.002953 0.000000 0.028086 0.000000
# 6 0.000000 0.000000 0.000000 0.009689 0.000000 0.037656
#
#
# Mechanical properties :
#
#
# Convention : Reuss Voigt Hill
#
# Bulk Modulus (GPa) = 57.85298 66.48185 62.16741
# Shear Modulus (GPa) = 24.94947 27.50867 26.22907
#
# Velocity S-wave (km/s) = 3.65615 3.83909 3.74874
# Velocity P-wave (km/s) = 6.98712 7.43446 7.21426
#
# Compressibility (1/GPa) = 0.01728519
#
# Stress axis : x y z
#
# Youngs Moduli (GPa) = 72.58866 54.00030 72.20576
#
# Poissons Ratio (x) = 0.22772 0.50352
# Poissons Ratio (y) = 0.30611 0.23387
# Poissons Ratio (z) = 0.50619 0.17491
#
# Static dielectric constant tensor:
#      x y z
#    x 3.449600 0.000000 -0.124700 
#    y 0.000000 3.269500 0.000000 
#    z -0.124700 0.000000 3.667340 
# 
# 
# High freq. dielectric constant tensor:
#      x y z
#    x 1.718040 0.000000 -0.009960 
#    y 0.000000 1.715470 0.000000 
#    z -0.009960 0.000000 1.730450 
# 
# From -- ./inp_files/187335.got.cif
#   From: 2010.06.25/outbox.cif.g09.slc.cpg/sg12_94_cif.got.tgz:187335.got - 2010.06.28 00:19:55.
