data_PCOD8078916
_publ_section_title
;
Structure prediction by ZEFSAII (Michael W. Deem and Ramdas Pophale) SiO2 
 PCOD8078916
Probable space group: C 2/M
;
_chemical_formula_sum "Si O2"
_cell_formula_units_Z 64
_cell_length_a 28.555393
_cell_length_b 10.240471
_cell_length_c 25.509152
_cell_angle_alpha 90.000000
_cell_angle_beta 29.086303
_cell_angle_gamma 90.000000
_cell_volume 3626.213560
_symmetry_space_group_name_H-M "C 2/M"
_symmetry_group_IT_number 12
_symmetry_cell_setting 'monoclinic'
loop_
_space_group_symop_operation_xyz
x,y,z
-x,y,-z
-x,-y,-z
x,-y,z
1/2+x,1/2+y,z
1/2-x,1/2+y,-z
1/2-x,1/2-y,-z
1/2+x,1/2-y,z
loop_
_atom_site_type_symbol
_atom_site_label
_atom_site_fract_x
_atom_site_fract_y
_atom_site_fract_z
Si Si1 0.405671 0.351618 0.458600
Si Si2 0.681571 0.847310 0.939788
Si Si3 0.451531 0.236407 0.599664
Si Si4 0.160421 0.640789 0.195624
Si Si5 0.253300 0.350871 0.759143
Si Si6 0.981744 0.655024 0.183772
Si Si7 0.482590 0.148942 0.301847
Si Si8 0.303847 0.849454 0.293776
O O1 0.428339 0.500000 0.418291
O O2 0.468726 0.324569 0.449003
O O3 0.424204 0.249354 0.394452
O O4 0.293568 0.333565 0.578825
O O5 0.766895 0.760855 0.880573
O O6 0.681478 0.821992 0.877479
O O7 0.702010 0.000000 0.932541
O O8 0.581053 0.796053 0.060692
O O9 0.500000 0.170114 0.500000
O O10 0.407199 0.137729 0.685887
O O11 0.363119 0.321333 0.665420
O O12 0.214369 0.500000 0.142666
O O13 0.094224 0.651665 0.209161
O O14 0.253371 0.500000 0.742985
O O15 0.211498 0.278968 0.748061
O O16 0.980355 0.500000 0.183869
O O17 0.892391 0.716923 0.238728
O O18 0.975024 0.702080 0.250161
O O19 0.442119 0.000000 0.347067
O O20 0.332422 0.000000 0.259102
#
# Coordination Sequence:
#
# PCOD8078916 Si02
#       8
#     8   8   8   8   8   8   8   8
#     4  10  19  30  49  77 104 129 160 199 242 288
#     4   9  18  32  52  75  98 125 161 203 246 291
#     4  10  17  27  47  73 104 131 156 189 242 293
#     4   9  19  33  48  71 100 128 159 197 244 294
#     4   9  16  26  43  72 105 128 151 193 249 292
#     4   9  18  33  50  69  94 130 170 207 243 282
#     4   9  19  35  51  68  98 134 163 198 246 291
#     4   9  17  28  46  73 102 128 161 201 243 286
#
# _framework density 17.649263999999999
#
# number of rings (size 3 to 8) (size 9 to 14) (size 15 to 20)
#    0.000    2.750    1.250    0.375    0.000    5.250 
#    0.000    3.125    0.000    0.750    0.000    3.500 
#    0.000    0.000    0.000    0.000    0.000    0.000 
#
# Total GULP energy -396470.257801 kJ/mol
# GULP energy per Si atom -12389.695556 kJ/mol
# Density = 1.760909 g / cm^3
# Si number density = 17.649264 Si / 1000 Ang^3
#
#
#
# Elastic Constant Matrix: (Units=GPa)
#
#
# Indices 1 2 3 4 5 6 
#
# 1 127.7959 27.1298 53.8946 0.0023 -0.5489 -0.0008
# 2 27.1298 61.1308 30.3726 0.0076 -2.8571 -0.0032
# 3 53.8946 30.3726 71.4936 0.0052 -4.2705 -0.0029
# 4 0.0023 0.0076 0.0052 12.8245 -0.0032 0.4039
# 5 -0.5489 -2.8571 -4.2705 -0.0032 22.6662 0.0007
# 6 -0.0008 -0.0032 -0.0029 0.4039 0.0007 13.7704
#
#
#
# Elastic Compliance Matrix: (Units=1/GPa)
#
#
# Indices 1 2 3 4 5 6 
#
# 1 0.011567 -0.001046 -0.008360 0.000002 -0.001427 -0.000001
# 2 -0.001046 0.020851 -0.008004 -0.000009 0.001095 0.000003
# 3 -0.008360 -0.008004 0.023886 -0.000003 0.003289 0.000003
# 4 0.000002 -0.000009 -0.000003 0.078048 0.000010 -0.002289
# 5 -0.001427 0.001095 0.003289 0.000010 0.044842 -0.000002
# 6 -0.000001 0.000003 0.000003 -0.002289 -0.000002 0.072687
#
#
# Mechanical properties :
#
#
# Convention : Reuss Voigt Hill
#
# Bulk Modulus (GPa) = 46.54855 53.69048 50.11952
# Shear Modulus (GPa) = 17.01486 19.78711 18.40098
#
# Velocity S-wave (km/s) = 3.10829 3.35196 3.23242
# Velocity P-wave (km/s) = 6.27004 6.74297 6.51080
#
# Compressibility (1/GPa) = 0.02148295
#
# Stress axis : x y z
#
# Youngs Moduli (GPa) = 86.45567 47.96044 41.86522
#
# Poissons Ratio (x) = 0.05018 0.35000
# Poissons Ratio (y) = 0.09045 0.33508
# Poissons Ratio (z) = 0.72278 0.38387
#
# Static dielectric constant tensor:
#      x y z
#    x 3.544510 0.000000 0.038290 
#    y 0.000000 2.963030 0.000000 
#    z 0.038290 0.000000 3.278380 
# 
# 
# High freq. dielectric constant tensor:
#      x y z
#    x 1.692300 0.000000 0.005040 
#    y 0.000000 1.640930 0.000000 
#    z 0.005040 0.000000 1.677570 
# 
# From -- ./inp_files/351733.got.cif
#   From: 2010.06.25/outbox.cif.g09.slc.cpg/sg12_176_cif.got.tgz:351733.got - 2010.06.28 00:19:55.
