data_PCOD8078965
_publ_section_title
;
Structure prediction by ZEFSAII (Michael W. Deem and Ramdas Pophale) SiO2 
 PCOD8078965
Probable space group: C 2/M
;
_chemical_formula_sum "Si O2"
_cell_formula_units_Z 64
_cell_length_a 26.992017
_cell_length_b 8.965608
_cell_length_c 19.503737
_cell_angle_alpha 90.000000
_cell_angle_beta 58.400993
_cell_angle_gamma 90.000000
_cell_volume 4020.109928
_symmetry_space_group_name_H-M "C 2/M"
_symmetry_group_IT_number 12
_symmetry_cell_setting 'monoclinic'
loop_
_space_group_symop_operation_xyz
x,y,z
-x,y,-z
-x,-y,-z
x,-y,z
1/2+x,1/2+y,z
1/2-x,1/2+y,-z
1/2-x,1/2-y,-z
1/2+x,1/2-y,z
loop_
_atom_site_type_symbol
_atom_site_label
_atom_site_fract_x
_atom_site_fract_y
_atom_site_fract_z
Si Si1 0.615477 0.827865 0.845177
Si Si2 0.005359 0.324471 0.835905
Si Si3 0.031274 0.828860 0.680745
Si Si4 0.667459 0.328078 0.583341
Si Si5 0.221095 0.674007 0.674691
Si Si6 0.442390 0.332067 0.996742
Si Si7 0.171215 0.675369 0.440626
Si Si8 0.538309 0.174960 0.536488
O O1 0.567539 0.777862 0.823618
O O2 0.679929 0.797020 0.769824
O O3 0.609590 0.736689 0.920108
O O4 0.605251 0.000000 0.870392
O O5 0.999236 0.500000 0.833472
O O6 0.998180 0.253915 0.766128
O O7 0.952564 0.263109 0.920672
O O8 0.013279 0.757905 0.621180
O O9 0.099256 0.807712 0.643563
O O10 0.012055 0.000000 0.694573
O O11 0.684002 0.500000 0.557761
O O12 0.698187 0.269974 0.628386
O O13 0.688561 0.228323 0.504396
O O14 0.221912 0.500000 0.655134
O O15 0.286157 0.736269 0.643016
O O16 0.425809 0.500000 0.988113
O O17 0.500000 0.325958 0.000000
O O18 0.181273 0.500000 0.426197
O O19 0.104900 0.720806 0.472355
O O20 0.500000 0.225885 0.500000
O O21 0.533630 0.000000 0.554172
#
# Coordination Sequence:
#
# PCOD8078965 Si02
#       8
#     8   8   8   8   8   8   8   8
#     4   9  18  29  41  58  83 120 157 186 218 257
#     4  10  17  28  44  61  86 119 155 188 219 260
#     4  10  19  29  45  69  92 115 148 188 228 267
#     4  10  19  30  43  60  86 118 150 184 221 258
#     4  11  20  30  43  61  88 119 153 186 217 257
#     4   9  17  27  40  59  84 115 151 190 226 258
#     4  10  20  32  46  64  85 111 146 184 224 266
#     4   9  19  36  54  68  86 114 147 184 228 277
#
# _framework density 15.919962999999999
#
# number of rings (size 3 to 8) (size 9 to 14) (size 15 to 20)
#    0.000    2.250    1.250    2.625    0.000    4.750 
#    0.000    0.000    0.000    0.000    0.000    0.000 
#    0.000    1.000    0.000    3.000    0.000    4.625 
#
# Total GULP energy -396815.455941 kJ/mol
# GULP energy per Si atom -12400.482998 kJ/mol
# Density = 1.588373 g / cm^3
# Si number density = 15.919963 Si / 1000 Ang^3
#
#
#
# Elastic Constant Matrix: (Units=GPa)
#
#
# Indices 1 2 3 4 5 6 
#
# 1 51.2803 28.3428 39.5503 -0.0001 9.3874 0.0001
# 2 28.3428 76.3853 56.3598 -0.0014 7.8090 0.0043
# 3 39.5503 56.3598 123.9665 0.0002 10.1457 -0.0002
# 4 -0.0001 -0.0014 0.0002 32.4806 -0.0002 0.6556
# 5 9.3874 7.8090 10.1457 -0.0002 14.5929 0.0000
# 6 0.0001 0.0043 -0.0002 0.6556 0.0000 15.6771
#
#
#
# Elastic Compliance Matrix: (Units=1/GPa)
#
#
# Indices 1 2 3 4 5 6 
#
# 1 0.029139 -0.005204 -0.005964 0.000000 -0.011814 0.000001
# 2 -0.005204 0.020922 -0.007644 0.000001 -0.002533 -0.000006
# 3 -0.005964 -0.007644 0.013568 0.000000 -0.001506 0.000002
# 4 0.000000 0.000001 0.000000 0.030814 0.000000 -0.001289
# 5 -0.011814 -0.002533 -0.001506 0.000000 0.078529 0.000001
# 6 0.000001 -0.000006 0.000002 -0.001289 0.000001 0.063841
#
#
# Mechanical properties :
#
#
# Convention : Reuss Voigt Hill
#
# Bulk Modulus (GPa) = 38.45435 55.57087 47.01261
# Shear Modulus (GPa) = 17.66131 21.04207 19.35169
#
# Velocity S-wave (km/s) = 3.33435 3.63952 3.49027
# Velocity P-wave (km/s) = 6.24749 7.25559 6.77033
#
# Compressibility (1/GPa) = 0.02600486
#
# Stress axis : x y z
#
# Youngs Moduli (GPa) = 34.31804 47.79758 73.70326
#
# Poissons Ratio (x) = 0.24874 0.43955
# Poissons Ratio (y) = 0.17859 0.56339
# Poissons Ratio (z) = 0.20466 0.36537
#
# Static dielectric constant tensor:
#      x y z
#    x 2.652740 0.000000 -0.088660 
#    y 0.000000 3.127680 0.000000 
#    z -0.088660 0.000000 3.211400 
# 
# 
# High freq. dielectric constant tensor:
#      x y z
#    x 1.549090 0.000000 -0.001190 
#    y 0.000000 1.626990 0.000000 
#    z -0.001190 0.000000 1.617420 
# 
# From -- ./inp_files/324194.got.cif
#   From: 2010.06.25/outbox.cif.g09.slc.cpg/sg12_163_cif.got.tgz:324194.got - 2010.06.28 00:19:55.
