data_PCOD8078589
_publ_section_title
;
Structure prediction by ZEFSAII (Michael W. Deem and Ramdas Pophale) SiO2 
 PCOD8078589
Probable space group: C 2/M
;
_chemical_formula_sum "Si O2"
_cell_formula_units_Z 64
_cell_length_a 23.240062
_cell_length_b 8.924867
_cell_length_c 17.915459
_cell_angle_alpha 90.000000
_cell_angle_beta 101.009855
_cell_angle_gamma 90.000000
_cell_volume 3647.531275
_symmetry_space_group_name_H-M "C 2/M"
_symmetry_group_IT_number 12
_symmetry_cell_setting 'monoclinic'
loop_
_space_group_symop_operation_xyz
x,y,z
-x,y,-z
-x,-y,-z
x,-y,z
1/2+x,1/2+y,z
1/2-x,1/2+y,-z
1/2-x,1/2-y,-z
1/2+x,1/2-y,z
loop_
_atom_site_type_symbol
_atom_site_label
_atom_site_fract_x
_atom_site_fract_y
_atom_site_fract_z
Si Si1 0.388040 0.826491 0.655125
Si Si2 0.633382 0.829855 0.134278
Si Si3 0.730214 0.322088 0.071570
Si Si4 0.959483 0.823682 0.798756
Si Si5 0.310859 0.175548 0.227782
Si Si6 0.442855 0.178799 0.262476
Si Si7 0.779185 0.334392 0.705265
Si Si8 0.986786 0.673195 0.576591
O O1 0.419836 0.710684 0.717267
O O2 0.317498 0.794413 0.639813
O O3 0.417719 0.803931 0.580968
O O4 0.399352 0.000000 0.684410
O O5 0.665944 0.739832 0.076376
O O6 0.570985 0.750907 0.136014
O O7 0.673240 0.823538 0.217441
O O8 0.622448 0.000000 0.105300
O O9 0.727547 0.500000 0.063934
O O10 0.777075 0.269298 0.145610
O O11 0.750000 0.250000 0.000000
O O12 0.023546 0.752052 0.799751
O O13 0.965019 0.000000 0.813175
O O14 0.376460 0.240340 0.244164
O O15 0.275558 0.226217 0.293365
O O16 0.313920 0.000000 0.231879
O O17 0.471906 0.236766 0.347132
O O18 0.446815 0.000000 0.255818
O O19 0.752403 0.500000 0.692623
O O20 0.002784 0.500000 0.572464
O O21 0.000000 0.752976 0.500000
#
# Coordination Sequence:
#
# PCOD8078589 Si02
#       8
#     8   8   8   8   8   8   8   8
#     4   8  14  25  40  60  86 114 145 182 223 262
#     4   9  16  28  45  65  89 117 147 182 222 259
#     4  10  19  31  47  69  93 118 149 182 220 264
#     4  10  17  25  41  66  90 113 145 184 222 260
#     4   9  18  30  45  64  87 116 148 180 215 261
#     4   9  17  30  45  63  89 118 147 181 220 261
#     4   8  14  24  40  61  84 110 142 181 220 255
#     4   8  13  23  43  67  86 109 147 189 221 254
#
# _framework density 17.546113999999999
#
# number of rings (size 3 to 8) (size 9 to 14) (size 15 to 20)
#    0.000    3.125    0.000    3.375    0.000    4.000 
#    0.000    0.000    0.000    7.500    0.000    5.250 
#    0.000    0.000    0.000    0.000    0.000    6.500 
#
# Total GULP energy -396462.229299 kJ/mol
# GULP energy per Si atom -12389.444666 kJ/mol
# Density = 1.750618 g / cm^3
# Si number density = 17.546114 Si / 1000 Ang^3
#
#
#
# Elastic Constant Matrix: (Units=GPa)
#
#
# Indices 1 2 3 4 5 6 
#
# 1 158.9649 40.0689 56.3197 0.0000 -39.5176 0.0000
# 2 40.0689 56.6786 24.6717 0.0000 -11.4128 0.0000
# 3 56.3197 24.6717 70.1063 0.0000 -31.6953 0.0000
# 4 0.0000 0.0000 0.0000 12.3886 0.0000 -7.8065
# 5 -39.5176 -11.4128 -31.6953 0.0000 30.9311 0.0000
# 6 0.0000 0.0000 0.0000 -7.8065 0.0000 26.9306
#
#
#
# Elastic Compliance Matrix: (Units=1/GPa)
#
#
# Indices 1 2 3 4 5 6 
#
# 1 0.010700 -0.004466 -0.002960 0.000000 0.008989 0.000000
# 2 -0.004466 0.022700 -0.005951 0.000000 -0.003427 0.000000
# 3 -0.002960 -0.005951 0.029873 0.000000 0.024634 0.000000
# 4 0.000000 0.000000 0.000000 0.098759 0.000000 0.028628
# 5 0.008989 -0.003427 0.024634 0.000000 0.067792 0.000000
# 6 0.000000 0.000000 0.000000 0.028628 0.000000 0.045431
#
#
# Mechanical properties :
#
#
# Convention : Reuss Voigt Hill
#
# Bulk Modulus (GPa) = 27.38172 58.65228 43.01700
# Shear Modulus (GPa) = 15.91438 25.02935 20.47186
#
# Velocity S-wave (km/s) = 3.01492 3.78099 3.41947
# Velocity P-wave (km/s) = 5.26869 7.24991 6.33720
#
# Compressibility (1/GPa) = 0.03652072
#
# Stress axis : x y z
#
# Youngs Moduli (GPa) = 93.46124 44.05191 33.47487
#
# Poissons Ratio (x) = 0.19672 0.09909
# Poissons Ratio (y) = 0.41736 0.19920
# Poissons Ratio (z) = 0.27665 0.26214
#
# Static dielectric constant tensor:
#      x y z
#    x 3.667670 0.000000 -0.455340 
#    y 0.000000 3.092220 0.000000 
#    z -0.455340 0.000000 3.099600 
# 
# 
# High freq. dielectric constant tensor:
#      x y z
#    x 1.682180 0.000000 -0.046080 
#    y 0.000000 1.663090 0.000000 
#    z -0.046080 0.000000 1.630350 
# 
# From -- ./inp_files/287636.got.cif
#   From: 2010.06.25/outbox.cif.g09.slc.cpg/sg12_144_cif.got.tgz:287636.got - 2010.06.28 00:19:55.
