data_PCOD8078442
_publ_section_title
;
Structure prediction by ZEFSAII (Michael W. Deem and Ramdas Pophale) SiO2 
 PCOD8078442
Probable space group: C 2/M
;
_chemical_formula_sum "Si O2"
_cell_formula_units_Z 52
_cell_length_a 13.815162
_cell_length_b 19.207559
_cell_length_c 18.680391
_cell_angle_alpha 90.000000
_cell_angle_beta 30.552503
_cell_angle_gamma 90.000000
_cell_volume 2519.752585
_symmetry_space_group_name_H-M "C 2/M"
_symmetry_group_IT_number 12
_symmetry_cell_setting 'monoclinic'
loop_
_space_group_symop_operation_xyz
x,y,z
-x,y,-z
-x,-y,-z
x,-y,z
1/2+x,1/2+y,z
1/2-x,1/2+y,-z
1/2-x,1/2-y,-z
1/2+x,1/2-y,z
loop_
_atom_site_type_symbol
_atom_site_label
_atom_site_fract_x
_atom_site_fract_y
_atom_site_fract_z
Si Si1 0.711644 0.851464 0.579592
Si Si2 0.449669 0.700772 0.305366
Si Si3 0.422267 0.923761 0.129309
Si Si4 0.859046 0.421527 0.866046
Si Si5 0.405109 0.698128 0.934473
Si Si6 0.000000 0.184649 0.500000
Si Si7 0.254364 0.781253 0.223606
O O1 0.656561 0.773149 0.635211
O O2 0.818871 0.853236 0.434226
O O3 0.532307 0.903218 0.700932
O O4 0.863468 0.869137 0.544334
O O5 0.479350 0.668128 0.207792
O O6 0.658170 0.720551 0.206650
O O7 0.585377 0.916049 0.085751
O O8 0.275669 0.862029 0.233561
O O9 0.325532 0.000000 0.198383
O O10 0.500000 0.914053 0.000000
O O11 0.791482 0.500000 0.890516
O O12 0.688695 0.366120 0.962444
O O13 0.549585 0.737703 0.897039
O O14 0.250000 0.750000 0.000000
O O15 0.100109 0.240418 0.381700
#
# Coordination Sequence:
#
# PCOD8078442 Si02
#       7
#     8   8   8   8   8   4   8
#     4  10  19  37  54  84 114 149 188 240 286 342
#     4  10  21  34  59  85 117 145 198 242 284 338
#     4  10  19  31  48  77 115 152 184 224 283 345
#     4  11  22  38  57  80 120 159 188 237 298 345
#     4  12  20  37  57  88 117 150 196 242 283 344
#     4  10  16  34  53  80 109 140 178 234 282 334
#     4  11  21  32  57  82 114 148 191 235 287 337
#
# _framework density 20.636948
#
# number of rings (size 3 to 8) (size 9 to 14) (size 15 to 20)
#    0.000    1.385    6.154    0.923    0.000    0.000 
#    0.000    4.615    0.000    1.846    0.000    0.538 
#    0.000    0.000    0.000    0.000    0.000    0.000 
#
# Total GULP energy -322145.075476 kJ/mol
# GULP energy per Si atom -12390.195211 kJ/mol
# Density = 2.058998 g / cm^3
# Si number density = 20.636948 Si / 1000 Ang^3
#
#
#
# Elastic Constant Matrix: (Units=GPa)
#
#
# Indices 1 2 3 4 5 6 
#
# 1 60.5115 23.0780 28.5529 -0.0294 -1.5498 0.0021
# 2 23.0780 109.9714 42.9958 -0.0223 -11.4582 -0.0071
# 3 28.5529 42.9958 98.1547 -0.0163 -6.1183 -0.0060
# 4 -0.0294 -0.0223 -0.0163 19.9174 0.0397 -2.5029
# 5 -1.5498 -11.4582 -6.1183 0.0397 29.7778 -0.0116
# 6 0.0021 -0.0071 -0.0060 -2.5029 -0.0116 14.3864
#
#
#
# Elastic Compliance Matrix: (Units=1/GPa)
#
#
# Indices 1 2 3 4 5 6 
#
# 1 0.019637 -0.002360 -0.004732 0.000024 -0.000858 -0.000003
# 2 -0.002360 0.011581 -0.004170 0.000000 0.003477 0.000007
# 3 -0.004732 -0.004170 0.013448 -0.000002 0.000912 0.000005
# 4 0.000024 0.000000 -0.000002 0.051330 -0.000064 0.008930
# 5 -0.000858 0.003477 0.000912 -0.000064 0.035063 0.000019
# 6 -0.000003 0.000007 0.000005 0.008930 0.000019 0.071064
#
#
# Mechanical properties :
#
#
# Convention : Reuss Voigt Hill
#
# Bulk Modulus (GPa) = 45.16301 50.87679 48.01990
# Shear Modulus (GPa) = 21.54930 24.41705 22.98318
#
# Velocity S-wave (km/s) = 3.23493 3.44346 3.34082
# Velocity P-wave (km/s) = 5.99042 6.36527 6.18068
#
# Compressibility (1/GPa) = 0.02214201
#
# Stress axis : x y z
#
# Youngs Moduli (GPa) = 50.92490 86.34781 74.36131
#
# Poissons Ratio (x) = 0.20380 0.35187
# Poissons Ratio (y) = 0.12020 0.31006
# Poissons Ratio (z) = 0.24097 0.36004
#
# Static dielectric constant tensor:
#      x y z
#    x 3.756390 -0.000020 0.163710 
#    y -0.000020 3.544960 0.000120 
#    z 0.163710 0.000120 4.120340 
# 
# 
# High freq. dielectric constant tensor:
#      x y z
#    x 1.798130 0.000000 0.014260 
#    y 0.000000 1.757600 0.000010 
#    z 0.014260 0.000010 1.823770 
# 
# From -- ./inp_files/312028.got.cif
#   From: 2010.06.25/outbox.cif.g09.slc.cpg/sg12_157_cif.got.tgz:312028.got - 2010.06.28 00:19:55.
