data_PCOD8078073
_publ_section_title
;
Structure prediction by ZEFSAII (Michael W. Deem and Ramdas Pophale) SiO2 
 PCOD8078073
Probable space group: C 2/M
;
_chemical_formula_sum "Si O2"
_cell_formula_units_Z 56
_cell_length_a 16.813002
_cell_length_b 21.541242
_cell_length_c 8.656782
_cell_angle_alpha 90.000000
_cell_angle_beta 111.140365
_cell_angle_gamma 90.000000
_cell_volume 2924.248766
_symmetry_space_group_name_H-M "C 2/M"
_symmetry_group_IT_number 12
_symmetry_cell_setting 'monoclinic'
loop_
_space_group_symop_operation_xyz
x,y,z
-x,y,-z
-x,-y,-z
x,-y,z
1/2+x,1/2+y,z
1/2-x,1/2+y,-z
1/2-x,1/2-y,-z
1/2+x,1/2-y,z
loop_
_atom_site_type_symbol
_atom_site_label
_atom_site_fract_x
_atom_site_fract_y
_atom_site_fract_z
Si Si1 0.448673 0.117122 0.248924
Si Si2 0.708792 0.431775 0.337808
Si Si3 0.111901 0.428021 0.473411
Si Si4 0.185966 0.192970 0.945824
Si Si5 0.777349 0.430989 0.039037
Si Si6 0.078542 0.163415 0.157480
Si Si7 0.972901 0.244651 0.304593
O O1 0.418107 0.113178 0.404230
O O2 0.543085 0.086603 0.289822
O O3 0.378702 0.082618 0.093847
O O4 0.453705 0.189496 0.211327
O O5 0.677577 0.500000 0.365128
O O6 0.789675 0.410762 0.503244
O O7 0.748654 0.432428 0.195579
O O8 0.625163 0.389458 0.291610
O O9 0.107775 0.500000 0.518643
O O10 0.113024 0.203914 0.766853
O O11 0.250000 0.250000 0.000000
O O12 0.227340 0.126590 0.925324
O O13 0.147147 0.192490 0.090373
O O14 0.758637 0.500000 0.952615
O O15 0.048376 0.214634 0.257614
O O16 0.000000 0.135946 0.000000
O O17 0.000000 0.250432 0.500000
#
# Coordination Sequence:
#
# PCOD8078073 Si02
#       7
#     8   8   8   8   8   8   8
#     4  10  15  25  45  73 107 133 163 213 272 317
#     4   8  15  28  47  71 100 129 171 228 273 305
#     4   9  15  24  42  71 106 132 158 215 281 320
#     4  10  19  36  57  78 110 145 179 226 271 316
#     4   9  16  28  52  81 101 130 182 229 265 312
#     4   9  20  34  51  75 104 140 183 223 266 318
#     4  11  21  34  51  78 113 146 179 218 266 324
#
# _framework density 19.150217999999999
#
# number of rings (size 3 to 8) (size 9 to 14) (size 15 to 20)
#    0.000    2.571    2.857    2.571    0.000    0.286 
#    0.000    5.000    0.000    1.714    0.000    4.000 
#    0.000    0.000    0.000    0.000    0.000    0.000 
#
# Total GULP energy -346883.157969 kJ/mol
# GULP energy per Si atom -12388.684213 kJ/mol
# Density = 1.910663 g / cm^3
# Si number density = 19.150218 Si / 1000 Ang^3
#
#
#
# Elastic Constant Matrix: (Units=GPa)
#
#
# Indices 1 2 3 4 5 6 
#
# 1 86.0889 60.5629 26.4784 0.0000 28.0468 0.0000
# 2 60.5629 152.4638 31.2346 0.0000 27.6086 0.0000
# 3 26.4784 31.2346 39.0521 0.0000 17.4862 0.0000
# 4 0.0000 0.0000 0.0000 25.3741 0.0000 13.1046
# 5 28.0468 27.6086 17.4862 0.0000 24.8382 0.0000
# 6 0.0000 0.0000 0.0000 13.1046 0.0000 34.2400
#
#
#
# Elastic Compliance Matrix: (Units=1/GPa)
#
#
# Indices 1 2 3 4 5 6 
#
# 1 0.021396 -0.004849 -0.003248 0.000000 -0.016484 0.000000
# 2 -0.004849 0.009677 -0.003049 0.000000 -0.003135 0.000000
# 3 -0.003248 -0.003049 0.039558 0.000000 -0.020792 0.000000
# 4 0.000000 0.000000 0.000000 0.049119 0.000000 -0.018799
# 5 -0.016484 -0.003135 -0.020792 0.000000 0.076997 0.000000
# 6 0.000000 0.000000 0.000000 -0.018799 0.000000 0.036401
#
#
# Mechanical properties :
#
#
# Convention : Reuss Voigt Hill
#
# Bulk Modulus (GPa) = 20.68678 57.12850 38.90764
# Shear Modulus (GPa) = 18.41265 27.51238 22.96251
#
# Velocity S-wave (km/s) = 3.10415 3.79444 3.46652
# Velocity P-wave (km/s) = 4.86554 7.00668 6.03188
#
# Compressibility (1/GPa) = 0.04834006
#
# Stress axis : x y z
#
# Youngs Moduli (GPa) = 46.73699 103.33435 25.27963
#
# Poissons Ratio (x) = 0.50105 0.08211
# Poissons Ratio (y) = 0.22662 0.07707
# Poissons Ratio (z) = 0.15181 0.31502
#
# Static dielectric constant tensor:
#      x y z
#    x 3.552980 0.000000 0.611660 
#    y 0.000000 3.704460 0.000000 
#    z 0.611660 0.000000 3.321160 
# 
# 
# High freq. dielectric constant tensor:
#      x y z
#    x 1.730400 0.000000 0.046940 
#    y 0.000000 1.750610 0.000000 
#    z 0.046940 0.000000 1.704040 
# 
# From -- ./inp_files/77651.got.cif
#   From: 2010.06.25/outbox.cif.g09.slc.cpg/sg12_39_cif.got.tgz:77651.got - 2010.06.28 00:19:55.
