data_PCOD8078991
_publ_section_title
;
Structure prediction by ZEFSAII (Michael W. Deem and Ramdas Pophale) SiO2 
 PCOD8078991
Probable space group: C 2/M
;
_chemical_formula_sum "Si O2"
_cell_formula_units_Z 64
_cell_length_a 17.731239
_cell_length_b 23.118553
_cell_length_c 12.132610
_cell_angle_alpha 90.000000
_cell_angle_beta 128.833811
_cell_angle_gamma 90.000000
_cell_volume 3874.124926
_symmetry_space_group_name_H-M "C 2/M"
_symmetry_group_IT_number 12
_symmetry_cell_setting 'monoclinic'
loop_
_space_group_symop_operation_xyz
x,y,z
-x,y,-z
-x,-y,-z
x,-y,z
1/2+x,1/2+y,z
1/2-x,1/2+y,-z
1/2-x,1/2-y,-z
1/2+x,1/2-y,z
loop_
_atom_site_type_symbol
_atom_site_label
_atom_site_fract_x
_atom_site_fract_y
_atom_site_fract_z
Si Si1 0.809538 0.823772 0.444947
Si Si2 0.441032 0.287905 0.133402
Si Si3 0.992537 0.914556 0.827507
Si Si4 0.595147 0.257258 0.654571
Si Si5 0.273734 0.685787 0.822810
Si Si6 0.340896 0.438295 0.862460
Si Si7 0.930332 0.934763 0.535607
Si Si8 0.136749 0.249427 0.298232
O O1 0.842692 0.803749 0.355110
O O2 0.839550 0.891462 0.476554
O O3 0.862404 0.784116 0.584054
O O4 0.693590 0.811303 0.352966
O O5 0.493164 0.346556 0.145610
O O6 0.428013 0.287563 0.251857
O O7 0.521841 0.239817 0.169131
O O8 0.339477 0.282543 0.976467
O O9 0.889463 0.929636 0.787393
O O10 0.995698 0.935813 0.704852
O O11 0.077935 0.946117 0.969857
O O12 0.500000 0.238171 0.500000
O O13 0.661610 0.201313 0.738795
O O14 0.273538 0.616162 0.829768
O O15 0.310487 0.707103 0.738694
O O16 0.283120 0.500000 0.807686
O O17 0.000000 0.912904 0.500000
O O18 0.891958 0.000000 0.475183
#
# Coordination Sequence:
#
# PCOD8078991 Si02
#       8
#     8   8   8   8   8   8   8   8
#     4  10  19  31  46  69  93 128 163 187 235 290
#     4  11  18  31  49  71  97 123 150 197 242 281
#     4  10  17  28  45  67  95 120 150 185 235 288
#     4  11  20  33  49  67  96 129 158 192 241 285
#     4  10  21  31  47  73  96 122 159 199 233 282
#     4  10  18  29  46  67  93 123 152 188 235 280
#     4  11  20  29  43  65  96 132 164 192 230 282
#     4  10  18  30  49  68  94 124 155 194 237 283
#
# _framework density 16.519860000000001
#
# number of rings (size 3 to 8) (size 9 to 14) (size 15 to 20)
#    0.000    1.625    3.750    3.375    0.000    0.000 
#    0.000    0.000    0.000    0.375    0.000    0.875 
#    0.000    8.000    0.000    0.000    0.000    0.000 
#
# Total GULP energy -396515.732475 kJ/mol
# GULP energy per Si atom -12391.116640 kJ/mol
# Density = 1.648226 g / cm^3
# Si number density = 16.519860 Si / 1000 Ang^3
#
#
#
# Elastic Constant Matrix: (Units=GPa)
#
#
# Indices 1 2 3 4 5 6 
#
# 1 60.4614 28.3819 31.5923 0.0000 -2.4796 0.0000
# 2 28.3819 86.9641 26.5647 0.0000 8.9842 0.0000
# 3 31.5923 26.5647 75.4306 0.0000 -1.8232 0.0000
# 4 0.0000 0.0000 0.0000 7.8022 0.0000 -2.6666
# 5 -2.4796 8.9842 -1.8232 0.0000 30.1684 0.0000
# 6 0.0000 0.0000 0.0000 -2.6666 0.0000 17.2121
#
#
#
# Elastic Compliance Matrix: (Units=1/GPa)
#
#
# Indices 1 2 3 4 5 6 
#
# 1 0.023321 -0.005571 -0.007731 0.000000 0.003109 0.000000
# 2 -0.005571 0.014748 -0.002982 0.000000 -0.005030 0.000000
# 3 -0.007731 -0.002982 0.017577 0.000000 0.001315 0.000000
# 4 0.000000 0.000000 0.000000 0.135334 0.000000 0.020966
# 5 0.003109 -0.005030 0.001315 0.000000 0.034980 0.000000
# 6 0.000000 0.000000 0.000000 0.020966 0.000000 0.061347
#
#
# Mechanical properties :
#
#
# Convention : Reuss Voigt Hill
#
# Bulk Modulus (GPa) = 43.32952 43.99266 43.66109
# Shear Modulus (GPa) = 15.26404 20.12437 17.69420
#
# Velocity S-wave (km/s) = 3.04300 3.49405 3.27630
# Velocity P-wave (km/s) = 6.21548 6.55483 6.38741
#
# Compressibility (1/GPa) = 0.02307895
#
# Stress axis : x y z
#
# Youngs Moduli (GPa) = 42.87889 67.80697 56.89265
#
# Poissons Ratio (x) = 0.37775 0.43981
# Poissons Ratio (y) = 0.23888 0.16966
# Poissons Ratio (z) = 0.33148 0.20220
#
# Static dielectric constant tensor:
#      x y z
#    x 3.105500 0.000000 -0.068640 
#    y 0.000000 3.138810 0.000000 
#    z -0.068640 0.000000 3.334910 
# 
# 
# High freq. dielectric constant tensor:
#      x y z
#    x 1.623910 0.000000 -0.025920 
#    y 0.000000 1.614540 0.000000 
#    z -0.025920 0.000000 1.634530 
# 
# From -- ./inp_files/160313.got.cif
#   From: 2010.06.25/outbox.cif.g09.slc.cpg/sg12_81_cif.got.tgz:160313.got - 2010.06.28 00:19:55.
