data_PCOD8078093
_publ_section_title
;
Structure prediction by ZEFSAII (Michael W. Deem and Ramdas Pophale) SiO2 
 PCOD8078093
Probable space group: C 2/M
;
_chemical_formula_sum "Si O2"
_cell_formula_units_Z 56
_cell_length_a 27.685282
_cell_length_b 19.408797
_cell_length_c 14.138448
_cell_angle_alpha 90.000000
_cell_angle_beta 24.346442
_cell_angle_gamma 90.000000
_cell_volume 3131.937647
_symmetry_space_group_name_H-M "C 2/M"
_symmetry_group_IT_number 12
_symmetry_cell_setting 'monoclinic'
loop_
_space_group_symop_operation_xyz
x,y,z
-x,y,-z
-x,-y,-z
x,-y,z
1/2+x,1/2+y,z
1/2-x,1/2+y,-z
1/2-x,1/2-y,-z
1/2+x,1/2-y,z
loop_
_atom_site_type_symbol
_atom_site_label
_atom_site_fract_x
_atom_site_fract_y
_atom_site_fract_z
Si Si1 0.774026 0.326725 0.418277
Si Si2 0.306470 0.673604 0.128667
Si Si3 0.027745 0.812852 0.844968
Si Si4 0.147207 0.920583 0.333246
Si Si5 0.380093 0.579955 0.833667
Si Si6 0.591371 0.830564 0.646724
Si Si7 0.338171 0.829539 0.090905
O O1 0.750000 0.250000 0.500000
O O2 0.644206 0.362009 0.639612
O O3 0.855063 0.364607 0.352285
O O4 0.838990 0.322661 0.202904
O O5 0.183044 0.659631 0.399060
O O6 0.318896 0.754099 0.080100
O O7 0.414382 0.649014 0.003598
O O8 0.305800 0.628069 0.035550
O O9 0.061507 0.749585 0.716764
O O10 0.000000 0.786266 0.000000
O O11 0.167486 0.905751 0.186544
O O12 0.237491 0.878667 0.234577
O O13 0.016445 0.899302 0.596668
O O14 0.168297 0.000000 0.317998
O O15 0.362718 0.500000 0.891650
O O16 0.465956 0.862836 0.838971
#
# Coordination Sequence:
#
# PCOD8078093 Si02
#       7
#     8   8   8   8   8   8   8
#     4  10  15  29  45  75 111 147 178 210 255 308
#     4  11  19  30  52  81 113 136 173 221 271 312
#     4  10  16  26  45  74 110 147 179 213 256 306
#     4   9  20  41  61  78  99 135 185 227 266 317
#     4   9  20  39  62  78  98 136 181 227 272 320
#     4  10  18  28  42  78 116 142 168 209 260 319
#     4  11  20  30  54  82 109 142 181 219 265 312
#
# _framework density 17.880305
#
# number of rings (size 3 to 8) (size 9 to 14) (size 15 to 20)
#    0.000    2.000    4.286    4.714    2.000    0.571 
#    0.000    1.429    0.000    4.714    0.000    0.000 
#    0.000    0.000    0.000    0.000    0.000    0.000 
#
# Total GULP energy -346990.348867 kJ/mol
# GULP energy per Si atom -12392.512460 kJ/mol
# Density = 1.783961 g / cm^3
# Si number density = 17.880305 Si / 1000 Ang^3
#
#
#
# Elastic Constant Matrix: (Units=GPa)
#
#
# Indices 1 2 3 4 5 6 
#
# 1 73.2800 32.7543 38.1217 -0.0002 1.5104 0.0000
# 2 32.7543 41.3803 30.9679 -0.0001 8.6483 0.0001
# 3 38.1217 30.9679 121.3980 -0.0001 6.9000 0.0001
# 4 -0.0002 -0.0001 -0.0001 11.5415 0.0001 -13.0531
# 5 1.5104 8.6483 6.9000 0.0001 37.0160 0.0000
# 6 0.0000 0.0001 0.0001 -13.0531 0.0000 10.0451
#
#
#
# Elastic Compliance Matrix: (Units=1/GPa)
#
#
# Indices 1 2 3 4 5 6 
#
# 1 0.022401 -0.016115 -0.003119 -0.000001 0.003432 -0.000001
# 2 -0.016115 0.042663 -0.005350 0.000000 -0.008313 0.000000
# 3 -0.003119 -0.005350 0.010616 0.000000 -0.000602 0.000000
# 4 -0.000001 0.000000 0.000000 -0.184488 0.000000 -0.239733
# 5 0.003432 -0.008313 -0.000602 0.000000 0.028930 0.000001
# 6 -0.000001 0.000000 0.000000 -0.239733 0.000001 -0.211970
#
#
# Mechanical properties :
#
#
# Convention : Reuss Voigt Hill
#
# Bulk Modulus (GPa) = 37.71833 48.86067 43.28950
# Shear Modulus (GPa) = -21.38168 20.66816 -0.35676
#
# Velocity S-wave (km/s) = -3.46182 3.40357 -0.44717
# Velocity P-wave (km/s) = 2.27195 6.54458 4.89864
#
# Compressibility (1/GPa) = 0.02651231
#
# Stress axis : x y z
#
# Youngs Moduli (GPa) = 44.64141 23.43969 94.20002
#
# Poissons Ratio (x) = 0.37772 0.29378
# Poissons Ratio (y) = 0.71937 0.50399
# Poissons Ratio (z) = 0.13922 0.12541
#
# Static dielectric constant tensor:
#      x y z
#    x 3.594870 0.000000 -0.496300 
#    y 0.000000 2.741060 0.000000 
#    z -0.496300 0.000000 3.862270 
# 
# 
# High freq. dielectric constant tensor:
#      x y z
#    x 1.693900 0.000000 -0.010880 
#    y 0.000000 1.623300 0.000000 
#    z -0.010880 0.000000 1.710650 
# 
# From -- ./inp_files/177878.got.cif
#   From: 2010.06.25/outbox.cif.g09.slc.cpg/sg12_89_cif.got.tgz:177878.got - 2010.06.28 00:19:55.
