data_PCOD8078700
_publ_section_title
;
Structure prediction by ZEFSAII (Michael W. Deem and Ramdas Pophale) SiO2 
 PCOD8078700
Probable space group: C 2/M
;
_chemical_formula_sum "Si O2"
_cell_formula_units_Z 64
_cell_length_a 27.126789
_cell_length_b 8.986512
_cell_length_c 17.198311
_cell_angle_alpha 90.000000
_cell_angle_beta 78.005586
_cell_angle_gamma 90.000000
_cell_volume 4100.990259
_symmetry_space_group_name_H-M "C 2/M"
_symmetry_group_IT_number 12
_symmetry_cell_setting 'monoclinic'
loop_
_space_group_symop_operation_xyz
x,y,z
-x,y,-z
-x,-y,-z
x,-y,z
1/2+x,1/2+y,z
1/2-x,1/2+y,-z
1/2-x,1/2-y,-z
1/2+x,1/2-y,z
loop_
_atom_site_type_symbol
_atom_site_label
_atom_site_fract_x
_atom_site_fract_y
_atom_site_fract_z
Si Si1 0.942518 0.671972 0.688217
Si Si2 0.440327 0.664379 0.009168
Si Si3 0.433704 0.170356 0.160837
Si Si4 0.882686 0.669147 0.330174
Si Si5 0.105754 0.672354 0.449708
Si Si6 0.962493 0.176623 0.835378
Si Si7 0.039994 0.824908 0.590816
Si Si8 0.302525 0.170017 0.476907
O O1 0.951744 0.500000 0.705790
O O2 0.895442 0.691724 0.643752
O O3 0.931995 0.759710 0.771708
O O4 0.990183 0.736301 0.628124
O O5 0.417521 0.500000 0.028893
O O6 0.415896 0.770573 0.082206
O O7 0.500000 0.660531 0.000000
O O8 0.430815 0.719777 0.923714
O O9 0.386442 0.189574 0.235542
O O10 0.481333 0.257125 0.180512
O O11 0.449836 0.000000 0.145923
O O12 0.899453 0.500000 0.346786
O O13 0.919109 0.788922 0.356907
O O14 0.826668 0.696558 0.382922
O O15 0.096822 0.500000 0.475757
O O16 0.060498 0.770039 0.500798
O O17 0.158928 0.727045 0.468463
O O18 0.968057 0.000000 0.826569
O O19 0.028895 0.000000 0.591951
O O20 0.250000 0.250000 0.500000
O O21 0.290251 0.000000 0.495906
#
# Coordination Sequence:
#
# PCOD8078700 Si02
#       8
#     8   8   8   8   8   8   8   8
#     4  11  20  30  44  60  83 118 152 180 212 254
#     4   8  16  28  39  54  83 117 145 180 223 252
#     4  10  17  26  43  62  82 114 153 184 211 253
#     4   9  18  31  45  63  89 118 146 179 219 260
#     4   9  20  35  47  60  84 115 144 177 219 262
#     4  10  19  29  40  58  86 119 149 183 221 250
#     4  11  20  28  42  63  87 114 146 183 216 250
#     4   9  18  34  51  66  86 111 140 177 222 266
#
# _framework density 15.605988
#
# number of rings (size 3 to 8) (size 9 to 14) (size 15 to 20)
#    0.000    2.375    1.250    4.125    0.000    7.750 
#    0.000    0.000    0.000    0.000    0.000    0.000 
#    0.000    1.000    0.000    2.250    0.000    4.000 
#
# Total GULP energy -396558.993589 kJ/mol
# GULP energy per Si atom -12392.468550 kJ/mol
# Density = 1.557047 g / cm^3
# Si number density = 15.605988 Si / 1000 Ang^3
#
#
#
# Elastic Constant Matrix: (Units=GPa)
#
#
# Indices 1 2 3 4 5 6 
#
# 1 46.2443 21.0815 44.4001 0.0000 2.3581 0.0000
# 2 21.0815 73.2851 50.7074 0.0000 4.4207 0.0000
# 3 44.4001 50.7074 142.4247 0.0000 15.7507 0.0000
# 4 0.0000 0.0000 0.0000 27.4449 0.0000 0.6358
# 5 2.3581 4.4207 15.7507 0.0000 16.4698 0.0000
# 6 0.0000 0.0000 0.0000 0.6358 0.0000 17.2208
#
#
#
# Elastic Compliance Matrix: (Units=1/GPa)
#
#
# Indices 1 2 3 4 5 6 
#
# 1 0.031751 -0.002919 -0.009442 0.000000 0.005267 0.000000
# 2 -0.002919 0.018405 -0.005751 0.000000 0.000978 0.000000
# 3 -0.009442 -0.005751 0.013075 0.000000 -0.009608 0.000000
# 4 0.000000 0.000000 0.000000 0.036468 0.000000 -0.001346
# 5 0.005267 0.000978 -0.009608 0.000000 0.068890 0.000000
# 6 0.000000 0.000000 0.000000 -0.001346 0.000000 0.058119
#
#
# Mechanical properties :
#
#
# Convention : Reuss Voigt Hill
#
# Bulk Modulus (GPa) = 37.02506 54.92578 45.97542
# Shear Modulus (GPa) = 18.38688 21.94480 20.16584
#
# Velocity S-wave (km/s) = 3.43621 3.75397 3.59860
# Velocity P-wave (km/s) = 6.28647 7.35265 6.84037
#
# Compressibility (1/GPa) = 0.02700874
#
# Stress axis : x y z
#
# Youngs Moduli (GPa) = 31.49475 54.33249 76.48319
#
# Poissons Ratio (x) = 0.15857 0.72213
# Poissons Ratio (y) = 0.09192 0.43986
# Poissons Ratio (z) = 0.29736 0.31247
#
# Static dielectric constant tensor:
#      x y z
#    x 2.588650 0.000000 0.197280 
#    y 0.000000 3.046030 0.000000 
#    z 0.197280 0.000000 3.376280 
# 
# 
# High freq. dielectric constant tensor:
#      x y z
#    x 1.532350 0.000000 0.016480 
#    y 0.000000 1.608320 0.000000 
#    z 0.016480 0.000000 1.607770 
# 
# From -- ./inp_files/294574.got.cif
#   From: 2010.06.25/outbox.cif.g09.slc.cpg/sg12_148_cif.got.tgz:294574.got - 2010.06.28 00:19:55.
