data_PCOD8078677
_publ_section_title
;
Structure prediction by ZEFSAII (Michael W. Deem and Ramdas Pophale) SiO2 
 PCOD8078677
Probable space group: C 2/M
;
_chemical_formula_sum "Si O2"
_cell_formula_units_Z 52
_cell_length_a 14.515878
_cell_length_b 18.777304
_cell_length_c 21.645013
_cell_angle_alpha 90.000000
_cell_angle_beta 149.352318
_cell_angle_gamma 90.000000
_cell_volume 3007.447603
_symmetry_space_group_name_H-M "C 2/M"
_symmetry_group_IT_number 12
_symmetry_cell_setting 'monoclinic'
loop_
_space_group_symop_operation_xyz
x,y,z
-x,y,-z
-x,-y,-z
x,-y,z
1/2+x,1/2+y,z
1/2-x,1/2+y,-z
1/2-x,1/2-y,-z
1/2+x,1/2-y,z
loop_
_atom_site_type_symbol
_atom_site_label
_atom_site_fract_x
_atom_site_fract_y
_atom_site_fract_z
Si Si1 0.170141 0.500000 0.181408
Si Si2 0.423437 0.639425 0.203845
Si Si3 0.000000 0.357191 0.500000
Si Si4 0.730991 0.000000 0.071539
Si Si5 0.669856 0.256044 0.285301
Si Si6 0.291036 0.312860 0.476157
Si Si7 0.802695 0.845177 0.266024
Si Si8 0.222354 0.419551 0.527925
O O1 0.199181 0.500000 0.125559
O O2 0.258364 0.427403 0.258850
O O3 0.956610 0.500000 0.073950
O O4 0.340000 0.572629 0.117803
O O5 0.479373 0.701875 0.187534
O O6 0.293624 0.665642 0.185741
O O7 0.605117 0.617168 0.342726
O O8 0.836270 0.310664 0.379658
O O9 0.947846 0.408899 0.526006
O O10 0.703133 0.201031 0.359731
O O11 0.660426 0.209848 0.216322
O O12 0.250000 0.250000 0.500000
O O13 0.504897 0.325367 0.593322
O O14 0.189126 0.382845 0.442780
O O15 0.267367 0.500000 0.541032
#
# Coordination Sequence:
#
# PCOD8078677 Si02
#       8
#     4   8   4   4   8   8   8   8
#     4   9  20  32  53  70  93 123 154 210 246 274
#     4   9  18  28  52  67  91 123 156 200 239 283
#     4  10  17  26  42  61  94 128 154 192 221 264
#     4   9  16  36  52  73  89 115 157 210 261 269
#     4  11  18  30  45  69  95 135 156 184 229 285
#     4  11  17  29  44  64  96 134 159 180 228 274
#     4  10  18  31  47  68  98 122 163 191 231 283
#     4  10  18  27  41  65  93 124 162 191 227 270
#
# _framework density 17.290410000000001
#
# number of rings (size 3 to 8) (size 9 to 14) (size 15 to 20)
#    0.000    2.000    6.923    0.231    3.231    0.000 
#    1.385    1.538    0.000    0.000    0.000    0.000 
#    0.000    1.231    0.000    0.000    0.000    0.000 
#
# Total GULP energy -322194.230047 kJ/mol
# GULP energy per Si atom -12392.085771 kJ/mol
# Density = 1.725106 g / cm^3
# Si number density = 17.290410 Si / 1000 Ang^3
#
#
#
# Elastic Constant Matrix: (Units=GPa)
#
#
# Indices 1 2 3 4 5 6 
#
# 1 96.3848 54.8403 14.3753 -0.0011 4.4540 -0.0016
# 2 54.8403 102.3742 14.4105 0.0008 1.5199 -0.0025
# 3 14.3753 14.4105 32.6742 0.0000 9.8543 -0.0041
# 4 -0.0011 0.0008 0.0000 14.4396 0.0001 6.2684
# 5 4.4540 1.5199 9.8543 0.0001 11.4878 -0.0008
# 6 -0.0016 -0.0025 -0.0041 6.2684 -0.0008 28.1233
#
#
#
# Elastic Compliance Matrix: (Units=1/GPa)
#
#
# Indices 1 2 3 4 5 6 
#
# 1 0.015319 -0.007820 -0.002444 0.000002 -0.002809 -0.000001
# 2 -0.007820 0.014510 -0.004444 -0.000002 0.004924 0.000001
# 3 -0.002444 -0.004444 0.044756 -0.000002 -0.036856 0.000005
# 4 0.000002 -0.000002 -0.000002 0.076673 0.000000 -0.017090
# 5 -0.002809 0.004924 -0.036856 0.000000 0.119102 -0.000001
# 6 -0.000001 0.000001 0.000005 -0.017090 -0.000001 0.039367
#
#
# Mechanical properties :
#
#
# Convention : Reuss Voigt Hill
#
# Bulk Modulus (GPa) = 22.13912 44.29838 33.21875
# Shear Modulus (GPa) = 14.11640 20.66394 17.39017
#
# Velocity S-wave (km/s) = 2.86042 3.46079 3.17483
# Velocity P-wave (km/s) = 4.87252 6.45331 5.71781
#
# Compressibility (1/GPa) = 0.04516891
#
# Stress axis : x y z
#
# Youngs Moduli (GPa) = 65.27869 68.91893 22.34346
#
# Poissons Ratio (x) = 0.53898 0.05460
# Poissons Ratio (y) = 0.51051 0.09929
# Poissons Ratio (z) = 0.15951 0.30626
#
# Static dielectric constant tensor:
#      x y z
#    x 3.589680 0.000000 0.231600 
#    y 0.000000 3.590910 0.000000 
#    z 0.231600 0.000000 2.806160 
# 
# 
# High freq. dielectric constant tensor:
#      x y z
#    x 1.669530 0.000000 0.020230 
#    y 0.000000 1.676440 0.000000 
#    z 0.020230 0.000000 1.604680 
# 
# From -- ./inp_files/147230.got.cif
#   From: 2010.06.25/outbox.cif.g09.slc.cpg/sg12_74_cif.got.tgz:147230.got - 2010.06.28 00:19:55.
