data_PCOD8078123
_publ_section_title
;
Structure prediction by ZEFSAII (Michael W. Deem and Ramdas Pophale) SiO2 
 PCOD8078123
Probable space group: C 2/M
;
_chemical_formula_sum "Si O2"
_cell_formula_units_Z 64
_cell_length_a 8.757569
_cell_length_b 19.646021
_cell_length_c 21.077082
_cell_angle_alpha 90.000000
_cell_angle_beta 89.999987
_cell_angle_gamma 90.000000
_cell_volume 3626.341139
_symmetry_space_group_name_H-M "C 2/M"
_symmetry_group_IT_number 12
_symmetry_cell_setting 'monoclinic'
loop_
_space_group_symop_operation_xyz
x,y,z
-x,y,-z
-x,-y,-z
x,-y,z
1/2+x,1/2+y,z
1/2-x,1/2+y,-z
1/2-x,1/2-y,-z
1/2+x,1/2-y,z
loop_
_atom_site_type_symbol
_atom_site_label
_atom_site_fract_x
_atom_site_fract_y
_atom_site_fract_z
Si Si1 0.930976 0.077152 0.434311
Si Si2 0.568837 0.825731 0.937104
Si Si3 0.428329 0.176179 0.813551
Si Si4 0.071807 0.676300 0.325894
Si Si5 0.071672 0.176179 0.813551
Si Si6 0.931163 0.825730 0.937104
Si Si7 0.569024 0.077152 0.434311
Si Si8 0.071807 0.823700 0.674106
O O1 0.750000 0.080988 0.438364
O O2 0.995393 0.123883 0.377429
O O3 0.000000 0.104859 0.500000
O O4 0.986342 0.000000 0.421669
O O5 0.512344 0.863331 0.872083
O O6 0.750000 0.824570 0.941070
O O7 0.499998 0.750001 0.934700
O O8 0.500000 0.862578 0.000000
O O9 0.458347 0.143231 0.744210
O O10 0.250000 0.180963 0.829580
O O11 0.500002 0.249999 0.808270
O O12 0.004606 0.623882 0.377429
O O13 0.250000 0.686636 0.336206
O O14 1.000000 0.750000 0.335377
O O15 0.041653 0.143231 0.744210
O O16 0.987657 0.136670 0.872083
O O17 0.000000 0.862577 0.000000
O O18 0.500000 0.104859 0.500000
O O19 0.513657 0.000000 0.421670
#
# Coordination Sequence:
#
# PCOD8078123 Si02
#       8
#     8   8   8   8   8   8   8   8
#     4   9  18  33  50  67  88 115 147 181 218 260
#     4  10  16  22  32  48  72 104 140 173 207 247
#     4   9  15  24  36  52  76 105 137 171 210 252
#     4   9  18  30  45  65  89 117 146 180 220 262
#     4   9  15  24  36  52  76 105 137 171 210 252
#     4  10  16  22  32  48  72 104 140 173 207 247
#     4   9  18  33  50  67  88 115 147 181 218 260
#     4   9  18  30  45  65  89 117 146 180 220 262
#
# _framework density 17.648643
#
# number of rings (size 3 to 8) (size 9 to 14) (size 15 to 20)
#    0.000    2.750    0.000    5.250    0.000    2.500 
#    0.000    2.500    0.000    0.000    0.000    0.000 
#    0.000    1.000    0.000    1.750    0.000   10.250 
#
# Total GULP energy -396434.385704 kJ/mol
# GULP energy per Si atom -12388.574553 kJ/mol
# Density = 1.760847 g / cm^3
# Si number density = 17.648643 Si / 1000 Ang^3
#
#
#
# Elastic Constant Matrix: (Units=GPa)
#
#
# Indices 1 2 3 4 5 6 
#
# 1 91.6061 18.2790 61.3534 0.0000 0.0009 0.0000
# 2 18.2790 39.1431 54.4360 0.0000 0.0001 0.0000
# 3 61.3534 54.4360 205.6261 0.0000 0.0004 0.0000
# 4 0.0000 0.0000 0.0000 3.5802 0.0000 0.0000
# 5 0.0009 0.0001 0.0004 0.0000 30.5453 0.0000
# 6 0.0000 0.0000 0.0000 0.0000 0.0000 11.1334
#
#
#
# Elastic Compliance Matrix: (Units=1/GPa)
#
#
# Indices 1 2 3 4 5 6 
#
# 1 0.013674 -0.001126 -0.003782 0.000000 0.000000 0.000000
# 2 -0.001126 0.040526 -0.010393 0.000000 0.000000 0.000000
# 3 -0.003782 -0.010393 0.008743 0.000000 0.000000 0.000000
# 4 0.000000 0.000000 0.000000 0.279316 0.000000 0.000000
# 5 0.000000 0.000000 0.000000 0.000000 0.032738 0.000000
# 6 0.000000 0.000000 0.000000 0.000000 0.000000 0.089820
#
#
# Mechanical properties :
#
#
# Convention : Reuss Voigt Hill
#
# Bulk Modulus (GPa) = 30.91973 67.16799 49.04386
# Shear Modulus (GPa) = 9.87754 22.53891 16.20822
#
# Velocity S-wave (km/s) = 2.36832 3.57752 3.03377
# Velocity P-wave (km/s) = 5.00362 7.43007 6.33412
#
# Compressibility (1/GPa) = 0.03234181
#
# Stress axis : x y z
#
# Youngs Moduli (GPa) = 73.13215 24.67552 114.37927
#
# Poissons Ratio (x) = 0.02779 0.43256
# Poissons Ratio (y) = 0.08235 1.18869
# Poissons Ratio (z) = 0.27657 0.25644
#
# Static dielectric constant tensor:
#      x y z
#    x 3.285090 0.000000 0.000010 
#    y 0.000000 2.763970 0.000000 
#    z 0.000010 0.000000 4.933910 
# 
# 
# High freq. dielectric constant tensor:
#      x y z
#    x 1.687620 0.000000 0.000000 
#    y 0.000000 1.598440 0.000000 
#    z 0.000000 0.000000 1.718990 
# 
# From -- ./inp_files/301430.got.cif
#   From: 2010.06.25/outbox.cif.g09.slc.cpg/sg12_151_cif.got.tgz:301430.got - 2010.06.28 00:19:55.
