data_PCOD8078139
_publ_section_title
;
Structure prediction by ZEFSAII (Michael W. Deem and Ramdas Pophale) SiO2 
 PCOD8078139
Probable space group: C 2/M
;
_chemical_formula_sum "Si O2"
_cell_formula_units_Z 64
_cell_length_a 24.235695
_cell_length_b 8.484549
_cell_length_c 20.451265
_cell_angle_alpha 90.000000
_cell_angle_beta 115.328091
_cell_angle_gamma 90.000000
_cell_volume 3801.121834
_symmetry_space_group_name_H-M "C 2/M"
_symmetry_group_IT_number 12
_symmetry_cell_setting 'monoclinic'
loop_
_space_group_symop_operation_xyz
x,y,z
-x,y,-z
-x,-y,-z
x,-y,z
1/2+x,1/2+y,z
1/2-x,1/2+y,-z
1/2-x,1/2-y,-z
1/2+x,1/2-y,z
loop_
_atom_site_type_symbol
_atom_site_label
_atom_site_fract_x
_atom_site_fract_y
_atom_site_fract_z
Si Si1 0.839685 0.683895 0.663836
Si Si2 0.840341 0.183134 0.007791
Si Si3 0.779833 0.184858 0.242204
Si Si4 0.352353 0.682982 0.802650
Si Si5 0.069367 0.682778 0.045935
Si Si6 0.707405 0.184632 0.888925
Si Si7 0.182342 0.813741 0.478229
Si Si8 0.293196 0.184947 0.381548
O O1 0.853659 0.500000 0.670830
O O2 0.875865 0.765166 0.742366
O O3 0.860033 0.756111 0.603754
O O4 0.768529 0.716644 0.639441
O O5 0.836797 0.228781 0.082134
O O6 0.855310 0.000000 0.007733
O O7 0.893820 0.282805 0.001653
O O8 0.777381 0.228036 0.939954
O O9 0.707816 0.221056 0.207526
O O10 0.809355 0.252808 0.191199
O O11 0.816347 0.267767 0.320990
O O12 0.790662 0.000000 0.251014
O O13 0.334785 0.500000 0.793855
O O14 0.405430 0.715203 0.881156
O O15 0.074752 0.500000 0.066915
O O16 0.000000 0.734658 0.000000
O O17 0.695733 0.000000 0.888018
O O18 0.250000 0.750000 0.500000
O O19 0.160402 0.739623 0.536919
O O20 0.181449 0.000000 0.481852
O O21 0.280024 0.000000 0.379754
#
# Coordination Sequence:
#
# PCOD8078139 Si02
#       8
#     8   8   8   8   8   8   8   8
#     4  10  17  26  39  55  76 106 142 181 221 260
#     4  10  20  33  50  70  91 117 149 187 230 275
#     4  11  19  28  43  63  88 117 149 186 226 267
#     4  11  20  31  45  63  85 112 148 188 228 270
#     4  11  23  37  52  69  91 120 152 190 234 278
#     4  10  19  31  48  69  93 119 148 188 230 273
#     4  10  16  24  35  51  75 105 142 179 216 258
#     4  10  17  25  36  53  79 110 145 180 217 261
#
# _framework density 16.837133999999999
#
# number of rings (size 3 to 8) (size 9 to 14) (size 15 to 20)
#    0.000    1.625    1.250    9.750    0.000    2.000 
#    0.000    0.000    0.000    0.000    0.000    0.000 
#    0.000    0.000    0.000    1.125    0.000   20.875 
#
# Total GULP energy -396740.941340 kJ/mol
# GULP energy per Si atom -12398.154417 kJ/mol
# Density = 1.679881 g / cm^3
# Si number density = 16.837134 Si / 1000 Ang^3
#
#
#
# Elastic Constant Matrix: (Units=GPa)
#
#
# Indices 1 2 3 4 5 6 
#
# 1 39.3246 11.7400 30.5856 0.0000 -6.9568 0.0000
# 2 11.7400 71.1864 24.9284 0.0000 -5.0021 0.0000
# 3 30.5856 24.9284 143.8361 0.0000 -31.0199 0.0000
# 4 0.0000 0.0000 0.0000 34.2090 0.0000 -6.3476
# 5 -6.9568 -5.0021 -31.0199 0.0000 15.8613 0.0000
# 6 0.0000 0.0000 0.0000 -6.3476 0.0000 14.0188
#
#
#
# Elastic Compliance Matrix: (Units=1/GPa)
#
#
# Indices 1 2 3 4 5 6 
#
# 1 0.031072 -0.003000 -0.005797 0.000000 0.001344 0.000000
# 2 -0.003000 0.015248 -0.002164 0.000000 -0.000740 0.000000
# 3 -0.005797 -0.002164 0.013601 0.000000 0.023374 0.000000
# 4 0.000000 0.000000 0.000000 0.031913 0.000000 0.014450
# 5 0.001344 -0.000740 0.023374 0.000000 0.109116 0.000000
# 6 0.000000 0.000000 0.000000 0.014450 0.000000 0.077876
#
#
# Mechanical properties :
#
#
# Convention : Reuss Voigt Hill
#
# Bulk Modulus (GPa) = 26.31691 43.20613 34.76152
# Shear Modulus (GPa) = 15.95326 25.29068 20.62197
#
# Velocity S-wave (km/s) = 3.08150 3.87987 3.50350
# Velocity P-wave (km/s) = 5.32213 6.76669 6.08741
#
# Compressibility (1/GPa) = 0.03799838
#
# Stress axis : x y z
#
# Youngs Moduli (GPa) = 32.18353 65.58113 73.52300
#
# Poissons Ratio (x) = 0.19672 0.42624
# Poissons Ratio (y) = 0.09654 0.15913
# Poissons Ratio (z) = 0.18658 0.14194
#
# Static dielectric constant tensor:
#      x y z
#    x 2.536770 0.000000 -0.380090 
#    y 0.000000 3.222640 0.000000 
#    z -0.380090 0.000000 4.165540 
# 
# 
# High freq. dielectric constant tensor:
#      x y z
#    x 1.556130 0.000000 -0.033190 
#    y 0.000000 1.671960 0.000000 
#    z -0.033190 0.000000 1.672600 
# 
# From -- ./inp_files/319265.got.cif
#   From: 2010.06.25/outbox.cif.g09.slc.cpg/sg12_160_cif.got.tgz:319265.got - 2010.06.28 00:19:55.
