data_PCOD8078675
_publ_section_title
;
Structure prediction by ZEFSAII (Michael W. Deem and Ramdas Pophale) SiO2 
 PCOD8078675
Probable space group: C 2/M
;
_chemical_formula_sum "Si O2"
_cell_formula_units_Z 64
_cell_length_a 25.141104
_cell_length_b 30.416376
_cell_length_c 5.073469
_cell_angle_alpha 90.000000
_cell_angle_beta 95.435292
_cell_angle_gamma 90.000000
_cell_volume 3862.244379
_symmetry_space_group_name_H-M "C 2/M"
_symmetry_group_IT_number 12
_symmetry_cell_setting 'monoclinic'
loop_
_space_group_symop_operation_xyz
x,y,z
-x,y,-z
-x,-y,-z
x,-y,z
1/2+x,1/2+y,z
1/2-x,1/2+y,-z
1/2-x,1/2-y,-z
1/2+x,1/2-y,z
loop_
_atom_site_type_symbol
_atom_site_label
_atom_site_fract_x
_atom_site_fract_y
_atom_site_fract_z
Si Si1 0.422722 0.551860 0.039653
Si Si2 0.155572 0.163833 0.420289
Si Si3 0.705920 0.190185 0.996274
Si Si4 0.257783 0.049217 0.651966
Si Si5 0.174869 0.216484 0.944735
Si Si6 0.193315 0.951341 0.108246
Si Si7 0.054949 0.101787 0.440581
Si Si8 0.723078 0.137832 0.519507
O O1 0.428572 0.500000 0.993142
O O2 0.435624 0.562807 0.345400
O O3 0.363689 0.571912 0.942709
O O4 0.458331 0.578000 0.843322
O O5 0.161347 0.200363 0.647921
O O6 0.105447 0.133677 0.465712
O O7 0.211486 0.136402 0.420638
O O8 0.140748 0.189624 0.144654
O O9 0.664394 0.230919 0.956379
O O10 0.693457 0.152538 0.773393
O O11 0.764024 0.207987 0.946532
O O12 0.703742 0.171266 0.287728
O O13 0.209888 0.046587 0.419283
O O14 0.296590 0.087941 0.560745
O O15 0.284577 0.000000 0.687489
O O16 0.237152 0.068540 0.925030
O O17 0.185357 0.000000 0.985744
O O18 0.000000 0.127064 0.500000
#
# Coordination Sequence:
#
# PCOD8078675 Si02
#       8
#     8   8   8   8   8   8   8   8
#     4  11  22  36  51  62  76 100 130 171 221 260
#     4  10  19  31  47  61  78 104 128 157 206 251
#     4   9  17  27  42  65  84  98 120 155 197 240
#     4  10  18  27  39  58  84 111 137 164 195 231
#     4   9  17  30  46  63  82 100 120 150 198 258
#     4   9  17  28  42  57  72  95 132 171 202 241
#     4  12  25  37  48  63  81 101 134 173 206 249
#     4  10  17  26  42  61  82 104 129 160 195 237
#
# _framework density 16.570677
#
# number of rings (size 3 to 8) (size 9 to 14) (size 15 to 20)
#    0.000    2.000    0.000    5.250    0.000    8.500 
#    0.000    0.000    0.000    0.000    0.000    0.000 
#    0.000    0.000    0.000    0.000    0.000    0.000 
#
# Total GULP energy -396535.167278 kJ/mol
# GULP energy per Si atom -12391.723977 kJ/mol
# Density = 1.653296 g / cm^3
# Si number density = 16.570677 Si / 1000 Ang^3
#
#
#
# Elastic Constant Matrix: (Units=GPa)
#
#
# Indices 1 2 3 4 5 6 
#
# 1 15.2073 16.0465 6.3240 0.0000 -3.4723 0.0000
# 2 16.0465 76.9113 -0.1956 0.0000 -8.2139 0.0000
# 3 6.3240 -0.1956 58.0728 0.0000 -9.5519 0.0000
# 4 0.0000 0.0000 0.0000 20.1000 0.0000 -1.6939
# 5 -3.4723 -8.2139 -9.5519 0.0000 12.9430 0.0000
# 6 0.0000 0.0000 0.0000 -1.6939 0.0000 6.9093
#
#
#
# Elastic Compliance Matrix: (Units=1/GPa)
#
#
# Indices 1 2 3 4 5 6 
#
# 1 0.089978 -0.018145 -0.008858 0.000000 0.006086 0.000000
# 2 -0.018145 0.017757 0.003515 0.000000 0.008996 0.000000
# 3 -0.008858 0.003515 0.020683 0.000000 0.015118 0.000000
# 4 0.000000 0.000000 0.000000 0.050801 0.000000 0.012454
# 5 0.006086 0.008996 0.015118 0.000000 0.095761 0.000000
# 6 0.000000 0.000000 0.000000 0.012454 0.000000 0.147787
#
#
# Mechanical properties :
#
#
# Convention : Reuss Voigt Hill
#
# Bulk Modulus (GPa) = 12.27876 21.61569 16.94723
# Shear Modulus (GPa) = 10.06260 16.52488 13.29374
#
# Velocity S-wave (km/s) = 2.46692 3.16133 2.83547
# Velocity P-wave (km/s) = 3.94212 5.13792 4.57922
#
# Compressibility (1/GPa) = 0.08144145
#
# Stress axis : x y z
#
# Youngs Moduli (GPa) = 11.11388 56.31468 48.34903
#
# Poissons Ratio (x) = 1.02184 0.42830
# Poissons Ratio (y) = 0.20166 -0.16997
# Poissons Ratio (z) = 0.09845 -0.19797
#
# Static dielectric constant tensor:
#      x y z
#    x 2.559190 0.000000 -0.129170 
#    y 0.000000 3.300150 0.000000 
#    z -0.129170 0.000000 3.301970 
# 
# 
# High freq. dielectric constant tensor:
#      x y z
#    x 1.541540 0.000000 -0.008540 
#    y 0.000000 1.641900 0.000000 
#    z -0.008540 0.000000 1.668540 
# 
# From -- ./inp_files/26408.got.cif
#   From: 2010.06.25/outbox.cif.g09.slc.cpg/sg12_14_cif.got.tgz:26408.got - 2010.06.28 00:19:55.
