data_PCOD8078903
_publ_section_title
;
Structure prediction by ZEFSAII (Michael W. Deem and Ramdas Pophale) SiO2 
 PCOD8078903
Probable space group: C 2/M
;
_chemical_formula_sum "Si O2"
_cell_formula_units_Z 56
_cell_length_a 14.348020
_cell_length_b 8.684058
_cell_length_c 23.251705
_cell_angle_alpha 90.000000
_cell_angle_beta 109.363322
_cell_angle_gamma 90.000000
_cell_volume 2733.263628
_symmetry_space_group_name_H-M "C 2/M"
_symmetry_group_IT_number 12
_symmetry_cell_setting 'monoclinic'
loop_
_space_group_symop_operation_xyz
x,y,z
-x,y,-z
-x,-y,-z
x,-y,z
1/2+x,1/2+y,z
1/2-x,1/2+y,-z
1/2-x,1/2-y,-z
1/2+x,1/2-y,z
loop_
_atom_site_type_symbol
_atom_site_label
_atom_site_fract_x
_atom_site_fract_y
_atom_site_fract_z
Si Si1 0.150919 0.318219 0.227256
Si Si2 0.882182 0.819139 0.427914
Si Si3 0.851541 0.180676 0.999702
Si Si4 0.662382 0.818038 0.693534
Si Si5 0.447445 0.681685 0.902014
Si Si6 0.596218 0.180078 0.455746
Si Si7 0.055880 0.318099 0.324085
O O1 0.165126 0.500000 0.232721
O O2 0.257341 0.236137 0.243038
O O3 0.082170 0.275287 0.160138
O O4 0.102525 0.249416 0.275739
O O5 0.809844 0.766011 0.361629
O O6 0.840151 0.775678 0.483423
O O7 0.981050 0.719955 0.440231
O O8 0.902795 0.000000 0.429091
O O9 0.940487 0.230459 0.060050
O O10 0.841308 0.000000 0.998823
O O11 0.750000 0.250000 0.000000
O O12 0.876081 0.233142 0.939722
O O13 0.556245 0.756416 0.693265
O O14 0.664516 0.000000 0.685636
O O15 0.439084 0.500000 0.889094
O O16 0.620982 0.225867 0.394380
O O17 0.613664 0.000000 0.469428
O O18 0.050959 0.500000 0.317727
#
# Coordination Sequence:
#
# PCOD8078903 Si02
#       7
#     8   8   8   8   8   8   8
#     4  11  22  37  56  82 111 142 181 229 269 309
#     4  10  17  27  46  75 104 131 171 230 283 325
#     4   9  19  37  62  87 115 147 184 222 262 309
#     4  10  20  37  56  75 103 145 185 221 272 337
#     4   9  20  39  57  80 115 153 181 213 264 324
#     4   9  15  28  49  71  97 137 180 220 274 340
#     4   8  18  35  54  74 103 140 180 222 271 326
#
# _framework density 20.488326000000001
#
# number of rings (size 3 to 8) (size 9 to 14) (size 15 to 20)
#    0.000    2.571    0.000    5.143    0.000    2.286 
#    0.000   15.000    0.000    0.000    0.000    0.000 
#    0.000    0.000    0.000    0.000    0.000    0.000 
#
# Total GULP energy -347053.360972 kJ/mol
# GULP energy per Si atom -12394.762892 kJ/mol
# Density = 2.044169 g / cm^3
# Si number density = 20.488326 Si / 1000 Ang^3
#
#
#
# Elastic Constant Matrix: (Units=GPa)
#
#
# Indices 1 2 3 4 5 6 
#
# 1 73.6753 22.1526 38.2762 0.0000 -1.7288 0.0000
# 2 22.1526 61.7065 35.1469 0.0000 0.5064 0.0000
# 3 38.2762 35.1469 130.6525 0.0000 0.5155 0.0000
# 4 0.0000 0.0000 0.0000 35.9934 0.0000 0.7843
# 5 -1.7288 0.5064 0.5155 0.0000 25.2516 0.0000
# 6 0.0000 0.0000 0.0000 0.7843 0.0000 20.8535
#
#
#
# Elastic Compliance Matrix: (Units=1/GPa)
#
#
# Indices 1 2 3 4 5 6 
#
# 1 0.016773 -0.003815 -0.003893 0.000000 0.001304 0.000000
# 2 -0.003815 0.020008 -0.004262 0.000000 -0.000575 0.000000
# 3 -0.003893 -0.004262 0.009942 0.000000 -0.000384 0.000000
# 4 0.000000 0.000000 0.000000 0.027806 0.000000 -0.001046
# 5 0.001304 -0.000575 -0.000384 0.000000 0.039710 0.000000
# 6 0.000000 0.000000 0.000000 -0.001046 0.000000 0.047993
#
#
# Mechanical properties :
#
#
# Convention : Reuss Voigt Hill
#
# Bulk Modulus (GPa) = 43.89214 50.79842 47.34528
# Shear Modulus (GPa) = 25.80421 27.78361 26.79391
#
# Velocity S-wave (km/s) = 3.55274 3.68648 3.62023
# Velocity P-wave (km/s) = 6.18860 6.55499 6.37443
#
# Compressibility (1/GPa) = 0.02278312
#
# Stress axis : x y z
#
# Youngs Moduli (GPa) = 59.61904 49.98034 100.57865
#
# Poissons Ratio (x) = 0.19068 0.39153
# Poissons Ratio (y) = 0.22745 0.42871
# Poissons Ratio (z) = 0.23208 0.21304
#
# Static dielectric constant tensor:
#      x y z
#    x 3.540280 0.000000 -0.145090 
#    y 0.000000 3.399020 0.000000 
#    z -0.145090 0.000000 4.103220 
# 
# 
# High freq. dielectric constant tensor:
#      x y z
#    x 1.788420 0.000000 0.001160 
#    y 0.000000 1.786000 0.000000 
#    z 0.001160 0.000000 1.809390 
# 
# From -- ./inp_files/338167.got.cif
#   From: 2010.06.25/outbox.cif.g09.slc.cpg/sg12_170_cif.got.tgz:338167.got - 2010.06.28 00:19:55.
