data_PCOD8078634
_publ_section_title
;
Structure prediction by ZEFSAII (Michael W. Deem and Ramdas Pophale) SiO2 
 PCOD8078634
Probable space group: C 2/M
;
_chemical_formula_sum "Si O2"
_cell_formula_units_Z 64
_cell_length_a 28.590920
_cell_length_b 9.013575
_cell_length_c 16.472177
_cell_angle_alpha 90.000000
_cell_angle_beta 97.966321
_cell_angle_gamma 90.000000
_cell_volume 4204.020101
_symmetry_space_group_name_H-M "C 2/M"
_symmetry_group_IT_number 12
_symmetry_cell_setting 'monoclinic'
loop_
_space_group_symop_operation_xyz
x,y,z
-x,y,-z
-x,-y,-z
x,-y,z
1/2+x,1/2+y,z
1/2-x,1/2+y,-z
1/2-x,1/2-y,-z
1/2+x,1/2-y,z
loop_
_atom_site_type_symbol
_atom_site_label
_atom_site_fract_x
_atom_site_fract_y
_atom_site_fract_z
Si Si1 0.730437 0.174561 0.075516
Si Si2 0.477638 0.166667 0.620032
Si Si3 0.074488 0.333299 0.546376
Si Si4 0.808580 0.676218 0.177301
Si Si5 0.379865 0.327142 0.304798
Si Si6 0.024775 0.827206 0.767776
Si Si7 0.534956 0.176562 0.938776
Si Si8 0.860461 0.672957 0.028584
O O1 0.755625 0.253131 0.158563
O O2 0.741692 0.000000 0.078097
O O3 0.750000 0.250000 0.000000
O O4 0.673536 0.203197 0.057752
O O5 0.435220 0.218145 0.549246
O O6 0.525532 0.168917 0.581499
O O7 0.482470 0.276428 0.697630
O O8 0.467665 0.000000 0.649237
O O9 0.095395 0.500000 0.552326
O O10 0.110656 0.222867 0.600029
O O11 0.804205 0.500000 0.180429
O O12 0.834351 0.737057 0.263249
O O13 0.837740 0.736360 0.106174
O O14 0.368390 0.500000 0.301019
O O15 0.424506 0.287448 0.258786
O O16 0.017988 0.740223 0.849355
O O17 0.019545 0.000000 0.783022
O O18 0.587366 0.239449 0.972993
O O19 0.533897 0.000000 0.932966
O O20 0.500000 0.235040 0.000000
O O21 0.865907 0.500000 0.044892
#
# Coordination Sequence:
#
# PCOD8078634 Si02
#       8
#     8   8   8   8   8   8   8   8
#     4   9  16  26  39  56  77  98 127 161 197 240
#     4   8  14  25  40  54  71  98 133 164 193 233
#     4   8  14  24  37  54  74 100 131 163 194 227
#     4  10  17  26  40  56  77 104 133 165 198 234
#     4  10  18  25  36  56  80 107 134 162 197 237
#     4  10  19  28  39  56  77 102 131 167 208 241
#     4  10  19  31  46  60  75 101 138 173 205 242
#     4   8  15  27  41  56  73  97 127 165 204 235
#
# _framework density 15.223523
#
# number of rings (size 3 to 8) (size 9 to 14) (size 15 to 20)
#    0.000    2.875    1.250    3.000    0.000    1.750 
#    0.000    3.125    0.000    0.000    0.000    0.000 
#    0.000    0.000    0.000    1.125    0.000   12.250 
#
# Total GULP energy -396516.792807 kJ/mol
# GULP energy per Si atom -12391.149775 kJ/mol
# Density = 1.518887 g / cm^3
# Si number density = 15.223523 Si / 1000 Ang^3
#
#
#
# Elastic Constant Matrix: (Units=GPa)
#
#
# Indices 1 2 3 4 5 6 
#
# 1 54.1376 24.0022 44.8940 0.0000 19.0922 0.0000
# 2 24.0022 62.9012 38.5980 0.0000 15.4558 0.0000
# 3 44.8940 38.5980 93.4057 0.0000 30.4958 0.0000
# 4 0.0000 0.0000 0.0000 23.7925 0.0000 8.6912
# 5 19.0922 15.4558 30.4958 0.0000 25.1882 0.0000
# 6 0.0000 0.0000 0.0000 8.6912 0.0000 14.4543
#
#
#
# Elastic Compliance Matrix: (Units=1/GPa)
#
#
# Indices 1 2 3 4 5 6 
#
# 1 0.032458 -0.003230 -0.011378 0.000000 -0.008845 0.000000
# 2 -0.003230 0.021866 -0.006452 0.000000 -0.003156 0.000000
# 3 -0.011378 -0.006452 0.024363 0.000000 -0.016913 0.000000
# 4 0.000000 0.000000 0.000000 0.053860 0.000000 -0.032386
# 5 -0.008845 -0.003156 -0.016913 0.000000 0.068819 0.000000
# 6 0.000000 0.000000 0.000000 -0.032386 0.000000 0.088657
#
#
# Mechanical properties :
#
#
# Convention : Reuss Voigt Hill
#
# Bulk Modulus (GPa) = 27.34826 47.27029 37.30928
# Shear Modulus (GPa) = 14.52088 19.55035 17.03561
#
# Velocity S-wave (km/s) = 3.09179 3.58749 3.34882
# Velocity P-wave (km/s) = 5.54518 6.94826 6.28599
#
# Compressibility (1/GPa) = 0.03656539
#
# Stress axis : x y z
#
# Youngs Moduli (GPa) = 30.80897 45.73407 41.04640
#
# Poissons Ratio (x) = 0.14774 0.46701
# Poissons Ratio (y) = 0.09953 0.26484
# Poissons Ratio (z) = 0.35054 0.29509
#
# Static dielectric constant tensor:
#      x y z
#    x 2.922630 0.000000 0.519700 
#    y 0.000000 2.904280 0.000000 
#    z 0.519700 0.000000 3.091570 
# 
# 
# High freq. dielectric constant tensor:
#      x y z
#    x 1.534420 0.000000 0.048880 
#    y 0.000000 1.582420 0.000000 
#    z 0.048880 0.000000 1.568130 
# 
# From -- ./inp_files/248485.got.cif
#   From: 2010.06.25/outbox.cif.g09.slc.cpg/sg12_125_cif.got.tgz:248485.got - 2010.06.28 00:19:55.
