data_PCOD8078084
_publ_section_title
;
Structure prediction by ZEFSAII (Michael W. Deem and Ramdas Pophale) SiO2 
 PCOD8078084
Probable space group: C 2/M
;
_chemical_formula_sum "Si O2"
_cell_formula_units_Z 40
_cell_length_a 12.191079
_cell_length_b 18.658847
_cell_length_c 10.324965
_cell_angle_alpha 90.000000
_cell_angle_beta 122.304770
_cell_angle_gamma 90.000000
_cell_volume 1985.107077
_symmetry_space_group_name_H-M "C 2/M"
_symmetry_group_IT_number 12
_symmetry_cell_setting 'monoclinic'
loop_
_space_group_symop_operation_xyz
x,y,z
-x,y,-z
-x,-y,-z
x,-y,z
1/2+x,1/2+y,z
1/2-x,1/2+y,-z
1/2-x,1/2-y,-z
1/2+x,1/2-y,z
loop_
_atom_site_type_symbol
_atom_site_label
_atom_site_fract_x
_atom_site_fract_y
_atom_site_fract_z
Si Si1 0.695778 0.137863 0.500668
Si Si2 0.663306 0.500000 0.451383
Si Si3 0.348325 0.273200 0.383336
Si Si4 0.789758 0.629713 0.886244
Si Si5 0.999768 0.415429 0.189573
Si Si6 0.640355 0.500000 0.730956
O O1 0.676019 0.188293 0.613615
O O2 0.771243 0.181766 0.439809
O O3 0.553184 0.112850 0.361045
O O4 0.781058 0.068587 0.590230
O O5 0.708234 0.500000 0.630465
O O6 0.511892 0.500000 0.364675
O O7 0.500000 0.292263 0.500000
O O8 0.285422 0.297118 0.204705
O O9 0.678979 0.570490 0.833834
O O10 0.888792 0.598694 0.843719
O O11 0.872483 0.633198 0.072241
O O12 0.964578 0.500000 0.172448
#
# Coordination Sequence:
#
# PCOD8078084 Si02
#       6
#     8   4   8   8   8   4
#     4  10  19  32  50  72 102 130 165 206 241 291
#     4  11  18  27  47  75  95 126 161 209 252 282
#     4  10  20  33  47  69 106 136 162 199 240 298
#     4  10  16  26  45  75 101 124 156 196 257 300
#     4  10  15  27  47  74 102 125 155 204 252 294
#     4  11  16  24  47  78 100 118 150 215 262 290
#
# _framework density 20.150047000000001
#
# number of rings (size 3 to 8) (size 9 to 14) (size 15 to 20)
#    0.000    1.800    7.000    1.800    0.000    0.000 
#    0.000    1.500    0.000    4.800    0.000    0.000 
#    0.000   17.600    0.000    0.000    0.000    0.000 
#
# Total GULP energy -247762.088916 kJ/mol
# GULP energy per Si atom -12388.104446 kJ/mol
# Density = 2.010418 g / cm^3
# Si number density = 20.150047 Si / 1000 Ang^3
#
#
#
# Elastic Constant Matrix: (Units=GPa)
#
#
# Indices 1 2 3 4 5 6 
#
# 1 27.8848 27.8014 31.5575 0.0000 19.7320 0.0000
# 2 27.8014 138.2285 56.8967 0.0000 12.0394 0.0000
# 3 31.5575 56.8967 79.4512 0.0000 27.3261 0.0000
# 4 0.0000 0.0000 0.0000 23.2245 0.0000 12.4866
# 5 19.7320 12.0394 27.3261 0.0000 21.7341 0.0000
# 6 0.0000 0.0000 0.0000 12.4866 0.0000 7.3924
#
#
#
# Elastic Compliance Matrix: (Units=1/GPa)
#
#
# Indices 1 2 3 4 5 6 
#
# 1 0.129101 -0.014762 -0.005650 0.000000 -0.101927 0.000000
# 2 -0.014762 0.012454 -0.009324 0.000000 0.018226 0.000000
# 3 -0.005650 -0.009324 0.031655 0.000000 -0.029506 0.000000
# 4 0.000000 0.000000 0.000000 0.468841 0.000000 -0.791932
# 5 -0.101927 0.018226 -0.029506 0.000000 0.165550 0.000000
# 6 0.000000 0.000000 0.000000 -0.791932 0.000000 1.472949
#
#
# Mechanical properties :
#
#
# Convention : Reuss Voigt Hill
#
# Bulk Modulus (GPa) = 8.79212 53.11952 30.95582
# Shear Modulus (GPa) = 2.10267 19.09077 10.59672
#
# Velocity S-wave (km/s) = 1.02263 3.08138 2.29572
# Velocity P-wave (km/s) = 2.40149 6.25132 4.73530
#
# Compressibility (1/GPa) = 0.11373825
#
# Stress axis : x y z
#
# Youngs Moduli (GPa) = 7.74590 80.29707 31.59022
#
# Poissons Ratio (x) = 1.18538 0.17848
# Poissons Ratio (y) = 0.11435 0.29453
# Poissons Ratio (z) = 0.04376 0.74866
#
# Static dielectric constant tensor:
#      x y z
#    x 3.248790 0.000000 0.397850 
#    y 0.000000 3.949510 0.000000 
#    z 0.397850 0.000000 4.129230 
# 
# 
# High freq. dielectric constant tensor:
#      x y z
#    x 1.746800 0.000000 0.047710 
#    y 0.000000 1.788540 0.000000 
#    z 0.047710 0.000000 1.767140 
# 
# From -- ./inp_files/131401.got.cif
#   From: 2010.06.25/outbox.cif.g09.slc.cpg/sg12_66_cif.got.tgz:131401.got - 2010.06.28 00:19:55.
