data_PCOD8078842
_publ_section_title
;
Structure prediction by ZEFSAII (Michael W. Deem and Ramdas Pophale) SiO2 
 PCOD8078842
Probable space group: C 2/M
;
_chemical_formula_sum "Si O2"
_cell_formula_units_Z 48
_cell_length_a 24.441603
_cell_length_b 8.813335
_cell_length_c 15.239147
_cell_angle_alpha 90.000000
_cell_angle_beta 61.560118
_cell_angle_gamma 90.000000
_cell_volume 2886.531063
_symmetry_space_group_name_H-M "C 2/M"
_symmetry_group_IT_number 12
_symmetry_cell_setting 'monoclinic'
loop_
_space_group_symop_operation_xyz
x,y,z
-x,y,-z
-x,-y,-z
x,-y,z
1/2+x,1/2+y,z
1/2-x,1/2+y,-z
1/2-x,1/2-y,-z
1/2+x,1/2-y,z
loop_
_atom_site_type_symbol
_atom_site_label
_atom_site_fract_x
_atom_site_fract_y
_atom_site_fract_z
Si Si1 0.203428 0.821515 0.155400
Si Si2 0.071144 0.180123 0.948525
Si Si3 0.338526 0.178633 0.985006
Si Si4 0.314681 0.678441 0.478432
Si Si5 0.656683 0.322359 0.729536
Si Si6 0.294672 0.179807 0.665119
O O1 0.160755 0.754917 0.111000
O O2 0.179864 0.747177 0.263648
O O3 0.193856 0.000000 0.167020
O O4 0.275339 0.776336 0.084182
O O5 0.103724 0.242716 0.834460
O O6 0.077192 0.000000 0.953470
O O7 0.102801 0.257318 0.007730
O O8 0.000000 0.232775 0.000000
O O9 0.344440 0.000000 0.968839
O O10 0.307265 0.500000 0.499591
O O11 0.250000 0.750000 0.500000
O O12 0.360166 0.712475 0.360089
O O13 0.337135 0.757486 0.551714
O O14 0.661258 0.500000 0.740865
O O15 0.724445 0.257087 0.704247
O O16 0.299232 0.000000 0.663628
#
# Coordination Sequence:
#
# PCOD8078842 Si02
#       6
#     8   8   8   8   8   8
#     4  10  19  30  47  69  93 124 156 189 232 284
#     4  10  19  32  50  69  92 126 164 196 228 270
#     4  10  20  32  46  67  94 124 156 194 235 276
#     4   9  16  26  40  61  90 121 154 189 229 278
#     4   8  15  27  42  62  90 122 153 191 228 265
#     4  10  17  27  44  66  94 123 151 187 232 282
#
# _framework density 16.628957
#
# number of rings (size 3 to 8) (size 9 to 14) (size 15 to 20)
#    0.000    2.500    1.667    3.000    0.000    1.667 
#    0.000    0.833    0.000    0.000    0.000    1.167 
#    0.000    9.333    0.000    0.000    0.000    0.000 
#
# Total GULP energy -297476.046425 kJ/mol
# GULP energy per Si atom -12394.835268 kJ/mol
# Density = 1.659111 g / cm^3
# Si number density = 16.628957 Si / 1000 Ang^3
#
#
#
# Elastic Constant Matrix: (Units=GPa)
#
#
# Indices 1 2 3 4 5 6 
#
# 1 73.1371 34.5750 55.2864 0.0000 15.6540 0.0000
# 2 34.5750 70.5328 46.5323 0.0000 15.5662 0.0000
# 3 55.2864 46.5323 142.5479 0.0000 33.6229 0.0000
# 4 0.0000 0.0000 0.0000 26.9270 0.0000 9.3749
# 5 15.6540 15.5662 33.6229 0.0000 27.2293 0.0000
# 6 0.0000 0.0000 0.0000 9.3749 0.0000 20.1371
#
#
#
# Elastic Compliance Matrix: (Units=1/GPa)
#
#
# Indices 1 2 3 4 5 6 
#
# 1 0.021424 -0.006281 -0.005927 0.000000 -0.001407 0.000000
# 2 -0.006281 0.020274 -0.003245 0.000000 -0.003972 0.000000
# 3 -0.005927 -0.003245 0.012885 0.000000 -0.010648 0.000000
# 4 0.000000 0.000000 0.000000 0.044321 0.000000 -0.020634
# 5 -0.001407 -0.003972 -0.010648 0.000000 0.052953 0.000000
# 6 0.000000 0.000000 0.000000 -0.020634 0.000000 0.059266
#
#
# Mechanical properties :
#
#
# Convention : Reuss Voigt Hill
#
# Bulk Modulus (GPa) = 42.23622 62.11169 52.17396
# Shear Modulus (GPa) = 20.00629 24.84694 22.42661
#
# Velocity S-wave (km/s) = 3.47234 3.86968 3.67638
# Velocity P-wave (km/s) = 6.44442 7.57618 7.03310
#
# Compressibility (1/GPa) = 0.02367636
#
# Stress axis : x y z
#
# Youngs Moduli (GPa) = 46.67708 49.32326 77.61189
#
# Poissons Ratio (x) = 0.30981 0.45998
# Poissons Ratio (y) = 0.29319 0.25187
# Poissons Ratio (z) = 0.27664 0.16006
#
# Static dielectric constant tensor:
#      x y z
#    x 2.747220 0.000000 0.170410 
#    y 0.000000 3.067830 0.000000 
#    z 0.170410 0.000000 3.640620 
# 
# 
# High freq. dielectric constant tensor:
#      x y z
#    x 1.582920 0.000000 0.030430 
#    y 0.000000 1.640560 0.000000 
#    z 0.030430 0.000000 1.652180 
# 
# From -- ./inp_files/236598.got.cif
#   From: 2010.06.25/outbox.cif.g09.slc.cpg/sg12_119_cif.got.tgz:236598.got - 2010.06.28 00:19:55.
