data_PCOD8078599
_publ_section_title
;
Structure prediction by ZEFSAII (Michael W. Deem and Ramdas Pophale) SiO2 
 PCOD8078599
Probable space group: C 2/M
;
_chemical_formula_sum "Si O2"
_cell_formula_units_Z 64
_cell_length_a 19.574320
_cell_length_b 14.189782
_cell_length_c 14.747668
_cell_angle_alpha 90.000000
_cell_angle_beta 105.956494
_cell_angle_gamma 90.000000
_cell_volume 3938.418120
_symmetry_space_group_name_H-M "C 2/M"
_symmetry_group_IT_number 12
_symmetry_cell_setting 'monoclinic'
loop_
_space_group_symop_operation_xyz
x,y,z
-x,y,-z
-x,-y,-z
x,-y,z
1/2+x,1/2+y,z
1/2-x,1/2+y,-z
1/2-x,1/2-y,-z
1/2+x,1/2-y,z
loop_
_atom_site_type_symbol
_atom_site_label
_atom_site_fract_x
_atom_site_fract_y
_atom_site_fract_z
Si Si1 0.600529 0.604588 0.106201
Si Si2 0.693863 0.389798 0.474678
Si Si3 0.062269 0.893082 0.898736
Si Si4 0.990393 0.606127 0.598611
Si Si5 0.076845 0.893205 0.570726
Si Si6 0.129650 0.209301 0.287902
Si Si7 0.160582 0.604193 0.376808
Si Si8 0.030416 0.218756 0.720099
O O1 0.631604 0.500000 0.132710
O O2 0.518277 0.605606 0.099303
O O3 0.641469 0.674635 0.189314
O O4 0.610659 0.633665 0.004129
O O5 0.681749 0.500000 0.455078
O O6 0.635400 0.349899 0.524053
O O7 0.685544 0.340108 0.374847
O O8 0.771800 0.365610 0.539469
O O9 0.072021 0.809307 0.828026
O O10 0.081423 0.000000 0.870678
O O11 0.021681 0.500000 0.619383
O O12 0.029666 0.671206 0.688868
O O13 0.000000 0.646157 0.500000
O O14 0.906096 0.605442 0.580602
O O15 0.075674 0.836624 0.662834
O O16 0.000000 0.885474 0.500000
O O17 0.097729 0.000000 0.601568
O O18 0.146121 0.321150 0.291339
O O19 0.051096 0.184721 0.297908
O O20 0.171369 0.500000 0.337613
#
# Coordination Sequence:
#
# PCOD8078599 Si02
#       8
#     8   8   8   8   8   8   8   8
#     4   8  14  24  39  61  86 110 140 171 209 258
#     4  10  19  29  41  61  91 117 140 172 210 254
#     4   8  14  24  38  60  89 114 134 168 213 258
#     4   9  18  31  46  61  81 113 151 187 217 245
#     4  10  18  26  38  61  91 117 139 165 202 258
#     4  10  17  26  43  61  81 116 145 173 211 252
#     4   9  19  32  43  59  85 114 147 183 213 247
#     4  10  17  25  42  61  86 113 143 172 208 253
#
# _framework density 16.25018
#
# number of rings (size 3 to 8) (size 9 to 14) (size 15 to 20)
#    0.000    2.750    1.250    2.250    1.750    1.000 
#    0.000    0.000    0.000    0.750    0.000    6.125 
#    0.000    0.000    0.000    0.000    0.000    0.000 
#
# Total GULP energy -396496.596542 kJ/mol
# GULP energy per Si atom -12390.518642 kJ/mol
# Density = 1.621319 g / cm^3
# Si number density = 16.250180 Si / 1000 Ang^3
#
#
#
# Elastic Constant Matrix: (Units=GPa)
#
#
# Indices 1 2 3 4 5 6 
#
# 1 34.3290 20.4521 24.4654 0.0000 2.9627 0.0000
# 2 20.4521 89.0187 77.5072 0.0000 -2.1859 0.0000
# 3 24.4654 77.5072 128.9903 0.0000 -5.3769 0.0000
# 4 0.0000 0.0000 0.0000 28.0724 0.0000 -0.3529
# 5 2.9627 -2.1859 -5.3769 0.0000 12.2381 0.0000
# 6 0.0000 0.0000 0.0000 -0.3529 0.0000 14.1338
#
#
#
# Elastic Compliance Matrix: (Units=1/GPa)
#
#
# Indices 1 2 3 4 5 6 
#
# 1 0.036129 -0.004610 -0.004565 0.000000 -0.011575 0.000000
# 2 -0.004610 0.024198 -0.013690 0.000000 -0.000576 0.000000
# 3 -0.004565 -0.013690 0.017101 0.000000 0.006174 0.000000
# 4 0.000000 0.000000 0.000000 0.035633 0.000000 0.000890
# 5 -0.011575 -0.000576 0.006174 0.000000 0.087124 0.000000
# 6 0.000000 0.000000 0.000000 0.000890 0.000000 0.070775
#
#
# Mechanical properties :
#
#
# Convention : Reuss Voigt Hill
#
# Bulk Modulus (GPa) = 31.54700 55.24305 43.39502
# Shear Modulus (GPa) = 15.27856 19.54974 17.41415
#
# Velocity S-wave (km/s) = 3.06961 3.47226 3.27712
# Velocity P-wave (km/s) = 5.65852 7.08129 6.40950
#
# Compressibility (1/GPa) = 0.03169874
#
# Stress axis : x y z
#
# Youngs Moduli (GPa) = 27.67873 41.32573 58.47484
#
# Poissons Ratio (x) = 0.19053 0.26692
# Poissons Ratio (y) = 0.12761 0.80050
# Poissons Ratio (z) = 0.12634 0.56573
#
# Static dielectric constant tensor:
#      x y z
#    x 2.790790 0.000000 -0.105150 
#    y 0.000000 3.288740 0.000000 
#    z -0.105150 0.000000 3.260900 
# 
# 
# High freq. dielectric constant tensor:
#      x y z
#    x 1.585670 0.000000 -0.006830 
#    y 0.000000 1.626850 0.000000 
#    z -0.006830 0.000000 1.607490 
# 
# From -- ./inp_files/233172.got.cif
#   From: 2010.06.25/outbox.cif.g09.slc.cpg/sg12_117_cif.got.tgz:233172.got - 2010.06.28 00:19:55.
