data_PCOD8078266
_publ_section_title
;
Structure prediction by ZEFSAII (Michael W. Deem and Ramdas Pophale) SiO2 
 PCOD8078266
Probable space group: C 2/M
;
_chemical_formula_sum "Si O2"
_cell_formula_units_Z 64
_cell_length_a 22.621899
_cell_length_b 23.867493
_cell_length_c 9.204714
_cell_angle_alpha 90.000000
_cell_angle_beta 120.954308
_cell_angle_gamma 90.000000
_cell_volume 4262.061096
_symmetry_space_group_name_H-M "C 2/M"
_symmetry_group_IT_number 12
_symmetry_cell_setting 'monoclinic'
loop_
_space_group_symop_operation_xyz
x,y,z
-x,y,-z
-x,-y,-z
x,-y,z
1/2+x,1/2+y,z
1/2-x,1/2+y,-z
1/2-x,1/2-y,-z
1/2+x,1/2-y,z
loop_
_atom_site_type_symbol
_atom_site_label
_atom_site_fract_x
_atom_site_fract_y
_atom_site_fract_z
Si Si1 0.220207 0.838163 0.989734
Si Si2 0.038024 0.063722 0.791209
Si Si3 0.939039 0.225983 0.522447
Si Si4 0.663392 0.436736 0.741834
Si Si5 0.892326 0.118995 0.587518
Si Si6 0.966302 0.748836 0.097102
Si Si7 0.885944 0.140399 0.908919
Si Si8 0.855181 0.725327 0.178230
O O1 0.186860 0.849447 0.104364
O O2 0.300852 0.825006 0.113140
O O3 0.215612 0.893088 0.882451
O O4 0.181484 0.785789 0.868377
O O5 0.087218 0.070475 0.713799
O O6 0.971607 0.101260 0.684293
O O7 0.015348 0.000000 0.787425
O O8 0.078479 0.084343 0.985030
O O9 0.885290 0.176761 0.489290
O O10 0.900507 0.275401 0.383532
O O11 0.000000 0.201153 0.500000
O O12 0.970152 0.247428 0.712220
O O13 0.691191 0.500000 0.800153
O O14 0.656036 0.425116 0.559415
O O15 0.866662 0.129160 0.718068
O O16 0.903334 0.716546 0.096199
O O17 0.938715 0.808663 0.003795
O O18 0.000000 0.717029 0.000000
#
# Coordination Sequence:
#
# PCOD8078266 Si02
#       8
#     8   8   8   8   8   8   8   8
#     4   9  18  34  45  59  85 117 159 181 214 265
#     4  10  19  29  40  57  83 119 158 190 218 249
#     4  10  17  26  43  62  84 113 143 175 221 260
#     4  10  20  31  45  61  83 117 157 194 219 254
#     4  12  18  26  39  61  88 115 150 190 220 248
#     4  10  16  28  44  67  90 109 141 177 225 268
#     4  10  19  28  41  58  88 121 149 184 221 250
#     4   9  18  30  48  63  83 120 148 184 217 262
#
# _framework density 15.016209999999999
#
# number of rings (size 3 to 8) (size 9 to 14) (size 15 to 20)
#    0.000    2.000    3.750    1.875    0.000    2.500 
#    0.000    1.875    0.000    0.000    0.000    0.000 
#    0.000    5.000    0.000    0.000    0.000    0.125 
#
# Total GULP energy -396656.127796 kJ/mol
# GULP energy per Si atom -12395.503994 kJ/mol
# Density = 1.498203 g / cm^3
# Si number density = 15.016210 Si / 1000 Ang^3
#
#
#
# Elastic Constant Matrix: (Units=GPa)
#
#
# Indices 1 2 3 4 5 6 
#
# 1 70.3735 35.4280 50.9899 0.0000 -3.4853 0.0000
# 2 35.4280 57.9614 38.4866 0.0000 1.7031 0.0000
# 3 50.9899 38.4866 101.5577 0.0000 -19.5118 0.0000
# 4 0.0000 0.0000 0.0000 16.2546 0.0000 5.2769
# 5 -3.4853 1.7031 -19.5118 0.0000 19.3192 0.0000
# 6 0.0000 0.0000 0.0000 5.2769 0.0000 14.5288
#
#
#
# Elastic Compliance Matrix: (Units=1/GPa)
#
#
# Indices 1 2 3 4 5 6 
#
# 1 0.026203 -0.008549 -0.010997 0.000000 -0.005626 0.000000
# 2 -0.008549 0.029063 -0.009318 0.000000 -0.013515 0.000000
# 3 -0.010997 -0.009318 0.023172 0.000000 0.022241 0.000000
# 4 0.000000 0.000000 0.000000 0.069745 0.000000 -0.025332
# 5 -0.005626 -0.013515 0.022241 0.000000 0.074401 0.000000
# 6 0.000000 0.000000 0.000000 -0.025332 0.000000 0.078030
#
#
# Mechanical properties :
#
#
# Convention : Reuss Voigt Hill
#
# Bulk Modulus (GPa) = 48.28638 53.30018 50.79328
# Shear Modulus (GPa) = 13.68944 17.01972 15.35458
#
# Velocity S-wave (km/s) = 3.02262 3.37029 3.20118
# Velocity P-wave (km/s) = 6.66390 7.12161 6.89655
#
# Compressibility (1/GPa) = 0.02070978
#
# Stress axis : x y z
#
# Youngs Moduli (GPa) = 38.16338 34.40857 43.15483
#
# Poissons Ratio (x) = 0.29415 0.47459
# Poissons Ratio (y) = 0.32625 0.40212
# Poissons Ratio (z) = 0.41969 0.32062
#
# Static dielectric constant tensor:
#      x y z
#    x 2.818540 0.000000 -0.167130 
#    y 0.000000 2.657330 0.000000 
#    z -0.167130 0.000000 2.958790 
# 
# 
# High freq. dielectric constant tensor:
#      x y z
#    x 1.550610 0.000000 -0.020520 
#    y 0.000000 1.534400 0.000000 
#    z -0.020520 0.000000 1.579170 
# 
# From -- ./inp_files/77538.got.cif
#   From: 2010.06.25/outbox.cif.g09.slc.cpg/sg12_39_cif.got.tgz:77538.got - 2010.06.28 00:19:55.
