data_PCOD8078156
_publ_section_title
;
Structure prediction by ZEFSAII (Michael W. Deem and Ramdas Pophale) SiO2 
 PCOD8078156
Probable space group: C 2/M
;
_chemical_formula_sum "Si O2"
_cell_formula_units_Z 56
_cell_length_a 10.243164
_cell_length_b 20.404897
_cell_length_c 12.838412
_cell_angle_alpha 90.000000
_cell_angle_beta 76.427820
_cell_angle_gamma 90.000000
_cell_volume 2608.432737
_symmetry_space_group_name_H-M "C 2/M"
_symmetry_group_IT_number 12
_symmetry_cell_setting 'monoclinic'
loop_
_space_group_symop_operation_xyz
x,y,z
-x,y,-z
-x,-y,-z
x,-y,z
1/2+x,1/2+y,z
1/2-x,1/2+y,-z
1/2-x,1/2-y,-z
1/2+x,1/2-y,z
loop_
_atom_site_type_symbol
_atom_site_label
_atom_site_fract_x
_atom_site_fract_y
_atom_site_fract_z
Si Si1 0.516471 0.686353 0.880918
Si Si2 0.421037 0.927059 0.416951
Si Si3 0.916758 0.074890 0.286272
Si Si4 0.380370 0.228722 0.587984
Si Si5 0.851751 0.571353 0.786302
Si Si6 0.180838 0.289560 0.170264
Si Si7 0.672869 0.648943 0.509853
O O1 0.502349 0.624510 0.805106
O O2 0.659935 0.724547 0.844771
O O3 0.393065 0.737957 0.890802
O O4 0.500000 0.657555 0.000000
O O5 0.500000 0.896238 0.500000
O O6 0.504994 0.923848 0.295411
O O7 0.283177 0.889712 0.423904
O O8 0.379308 0.000000 0.454779
O O9 0.760384 0.075801 0.283257
O O10 0.924446 0.100774 0.404811
O O11 0.974103 0.000000 0.268834
O O12 0.500000 0.193988 0.500000
O O13 0.399591 0.214715 0.705809
O O14 0.397308 0.307223 0.566151
O O15 0.236164 0.200763 0.580514
O O16 0.838695 0.500000 0.846544
O O17 0.834522 0.634076 0.866618
#
# Coordination Sequence:
#
# PCOD8078156 Si02
#       7
#     8   8   8   8   8   8   8
#     4  11  24  42  65  90 114 154 206 264 316 359
#     4  10  16  24  44  73 105 142 186 233 274 326
#     4  10  19  35  57  86 119 155 201 252 297 350
#     4  11  22  31  50  81 119 160 193 228 286 360
#     4   9  17  29  51  83 115 151 195 243 289 340
#     4  11  22  40  62  89 123 156 197 252 307 367
#     4  11  19  30  49  79 117 150 192 230 286 351
#
# _framework density 21.468828999999999
#
# number of rings (size 3 to 8) (size 9 to 14) (size 15 to 20)
#    0.000    1.571    4.286    3.000    4.000    0.286 
#    0.000    0.000    0.000    9.000    0.000    0.000 
#    0.000    0.000    0.000    0.000    0.000    0.000 
#
# Total GULP energy -346935.892435 kJ/mol
# GULP energy per Si atom -12390.567587 kJ/mol
# Density = 2.141997 g / cm^3
# Si number density = 21.468829 Si / 1000 Ang^3
#
#
#
# Elastic Constant Matrix: (Units=GPa)
#
#
# Indices 1 2 3 4 5 6 
#
# 1 46.3278 27.8429 -4.8762 0.0000 -11.6183 0.0000
# 2 27.8429 166.4049 10.1038 0.0000 4.1396 0.0000
# 3 -4.8762 10.1038 44.1961 0.0000 -2.4257 0.0000
# 4 0.0000 0.0000 0.0000 21.8490 0.0000 -1.6565
# 5 -11.6183 4.1396 -2.4257 0.0000 16.8566 0.0000
# 6 0.0000 0.0000 0.0000 -1.6565 0.0000 27.9588
#
#
#
# Elastic Compliance Matrix: (Units=1/GPa)
#
#
# Indices 1 2 3 4 5 6 
#
# 1 0.032326 -0.006413 0.006392 0.000000 0.024775 0.000000
# 2 -0.006413 0.007416 -0.002767 0.000000 -0.006640 0.000000
# 3 0.006392 -0.002767 0.024436 0.000000 0.008602 0.000000
# 4 0.000000 0.000000 0.000000 0.045975 0.000000 0.002724
# 5 0.024775 -0.006640 0.008602 0.000000 0.079268 0.000000
# 6 0.000000 0.000000 0.000000 0.002724 0.000000 0.035928
#
#
# Mechanical properties :
#
#
# Convention : Reuss Voigt Hill
#
# Bulk Modulus (GPa) = 17.06441 35.89665 26.48053
# Shear Modulus (GPa) = 19.96333 28.25676 24.11004
#
# Velocity S-wave (km/s) = 3.05269 3.63185 3.35479
# Velocity P-wave (km/s) = 4.51564 5.86036 5.23138
#
# Compressibility (1/GPa) = 0.05860150
#
# Stress axis : x y z
#
# Youngs Moduli (GPa) = 30.93529 134.84922 40.92246
#
# Poissons Ratio (x) = 0.86481 -0.26159
# Poissons Ratio (y) = 0.19839 0.11324
# Poissons Ratio (z) = -0.19775 0.37317
#
# Static dielectric constant tensor:
#      x y z
#    x 3.632490 0.000000 -0.202630 
#    y 0.000000 4.377630 0.000000 
#    z -0.202630 0.000000 3.429120 
# 
# 
# High freq. dielectric constant tensor:
#      x y z
#    x 1.811760 0.000000 -0.027110 
#    y 0.000000 1.869780 0.000000 
#    z -0.027110 0.000000 1.797660 
# 
# From -- ./inp_files/206081.got.cif
#   From: 2010.06.25/outbox.cif.g09.slc.cpg/sg12_104_cif.got.tgz:206081.got - 2010.06.28 00:19:55.
