data_PCOD8078780
_publ_section_title
;
Structure prediction by ZEFSAII (Michael W. Deem and Ramdas Pophale) SiO2 
 PCOD8078780
Probable space group: C 2/M
;
_chemical_formula_sum "Si O2"
_cell_formula_units_Z 56
_cell_length_a 28.847597
_cell_length_b 8.876682
_cell_length_c 28.966658
_cell_angle_alpha 90.000000
_cell_angle_beta 151.096035
_cell_angle_gamma 90.000000
_cell_volume 3585.205872
_symmetry_space_group_name_H-M "C 2/M"
_symmetry_group_IT_number 12
_symmetry_cell_setting 'monoclinic'
loop_
_space_group_symop_operation_xyz
x,y,z
-x,y,-z
-x,-y,-z
x,-y,z
1/2+x,1/2+y,z
1/2-x,1/2+y,-z
1/2-x,1/2-y,-z
1/2+x,1/2-y,z
loop_
_atom_site_type_symbol
_atom_site_label
_atom_site_fract_x
_atom_site_fract_y
_atom_site_fract_z
Si Si1 0.597261 0.178141 0.564065
Si Si2 0.454258 0.176919 0.854147
Si Si3 0.353447 0.176764 0.588239
Si Si4 0.387910 0.678556 0.707623
Si Si5 0.171412 0.323934 0.533294
Si Si6 0.295740 0.323067 0.779011
Si Si7 0.418020 0.666512 0.966759
O O1 0.500000 0.250590 0.500000
O O2 0.617205 0.247144 0.530304
O O3 0.685204 0.219920 0.674546
O O4 0.584518 0.000000 0.549241
O O5 0.458532 0.254780 0.807795
O O6 0.360778 0.232545 0.799826
O O7 0.449786 0.000000 0.844040
O O8 0.552416 0.219786 0.966780
O O9 0.250000 0.250000 0.500000
O O10 0.419417 0.256113 0.684682
O O11 0.389572 0.206819 0.566939
O O12 0.346654 0.000000 0.592479
O O13 0.396425 0.500000 0.713874
O O14 0.280125 0.738309 0.624374
O O15 0.182868 0.500000 0.552116
O O16 0.314996 0.500000 0.786543
O O17 0.322237 0.281445 0.855396
O O18 0.403810 0.500000 0.975894
O O19 0.500000 0.661683 0.000000
#
# Coordination Sequence:
#
# PCOD8078780 Si02
#       7
#     8   8   8   8   8   8   8
#     4   9  15  24  42  65  83 105 142 178 202 230
#     4  11  19  25  38  60  82 106 136 169 204 249
#     4   9  16  25  37  56  80 107 139 169 202 243
#     4  10  17  27  41  56  80 109 137 168 204 247
#     4   8  14  24  38  55  79 107 133 169 204 231
#     4   9  16  28  42  56  79 110 141 171 204 238
#     4   8  15  26  39  54  76 108 138 165 200 243
#
# _framework density 15.619745
#
# number of rings (size 3 to 8) (size 9 to 14) (size 15 to 20)
#    0.000    2.857    1.429    3.857    0.000    2.571 
#    0.000    0.000    0.000    0.429    0.000    0.000 
#    0.000    1.143    0.000    2.000    0.000    2.857 
#
# Total GULP energy -346912.756729 kJ/mol
# GULP energy per Si atom -12389.741312 kJ/mol
# Density = 1.558419 g / cm^3
# Si number density = 15.619745 Si / 1000 Ang^3
#
#
#
# Elastic Constant Matrix: (Units=GPa)
#
#
# Indices 1 2 3 4 5 6 
#
# 1 72.3966 24.8772 56.8613 0.0000 -21.8900 0.0000
# 2 24.8772 70.7446 36.8619 0.0000 -17.3337 0.0001
# 3 56.8613 36.8619 108.0255 0.0000 -29.6791 0.0000
# 4 0.0000 0.0000 0.0000 17.3857 0.0000 -9.7555
# 5 -21.8900 -17.3337 -29.6791 0.0000 28.9400 0.0000
# 6 0.0000 0.0001 0.0000 -9.7555 0.0000 14.9125
#
#
#
# Elastic Compliance Matrix: (Units=1/GPa)
#
#
# Indices 1 2 3 4 5 6 
#
# 1 0.024764 -0.001469 -0.010622 0.000000 0.006958 0.000000
# 2 -0.001469 0.018051 -0.003789 0.000000 0.005815 0.000000
# 3 -0.010622 -0.003789 0.018532 0.000000 0.008701 0.000000
# 4 0.000000 0.000000 0.000000 0.090878 0.000000 0.059451
# 5 0.006958 0.005815 0.008701 0.000000 0.052224 0.000000
# 6 0.000000 0.000000 0.000000 0.059451 0.000000 0.105950
#
#
# Mechanical properties :
#
#
# Convention : Reuss Voigt Hill
#
# Bulk Modulus (GPa) = 33.79816 54.26305 44.03061
# Shear Modulus (GPa) = 14.20375 21.08538 17.64456
#
# Velocity S-wave (km/s) = 3.01881 3.67811 3.36465
# Velocity P-wave (km/s) = 5.81687 7.27004 6.58367
#
# Compressibility (1/GPa) = 0.02958741
#
# Stress axis : x y z
#
# Youngs Moduli (GPa) = 40.38076 55.39925 53.96140
#
# Poissons Ratio (x) = 0.08136 0.57319
# Poissons Ratio (y) = 0.05930 0.20445
# Poissons Ratio (z) = 0.42894 0.20990
#
# Static dielectric constant tensor:
#      x y z
#    x 3.086260 0.000000 -0.468630 
#    y 0.000000 2.820000 0.000000 
#    z -0.468630 0.000000 3.256650 
# 
# 
# High freq. dielectric constant tensor:
#      x y z
#    x 1.559580 0.000000 -0.048360 
#    y 0.000000 1.580940 0.000000 
#    z -0.048360 0.000000 1.586310 
# 
# From -- ./inp_files/384430.got.cif
#   From: 2010.06.25/outbox.cif.g09.slc.cpg/sg12_193_cif.got.tgz:384430.got - 2010.06.28 00:19:55.
