data_PCOD8078905
_publ_section_title
;
Structure prediction by ZEFSAII (Michael W. Deem and Ramdas Pophale) SiO2 
 PCOD8078905
Probable space group: C 2/M
;
_chemical_formula_sum "Si O2"
_cell_formula_units_Z 52
_cell_length_a 30.911734
_cell_length_b 19.793448
_cell_length_c 12.152622
_cell_angle_alpha 90.000000
_cell_angle_beta 24.737408
_cell_angle_gamma 90.000000
_cell_volume 3111.493592
_symmetry_space_group_name_H-M "C 2/M"
_symmetry_group_IT_number 12
_symmetry_cell_setting 'monoclinic'
loop_
_space_group_symop_operation_xyz
x,y,z
-x,y,-z
-x,-y,-z
x,-y,z
1/2+x,1/2+y,z
1/2-x,1/2+y,-z
1/2-x,1/2-y,-z
1/2+x,1/2-y,z
loop_
_atom_site_type_symbol
_atom_site_label
_atom_site_fract_x
_atom_site_fract_y
_atom_site_fract_z
Si Si1 0.562534 0.380559 0.999879
Si Si2 0.000000 0.238227 0.000000
Si Si3 0.111719 0.920532 0.277795
Si Si4 0.263234 0.421963 0.555928
Si Si5 0.113247 0.632564 0.724184
Si Si6 0.850469 0.076133 0.573205
Si Si7 0.219168 0.920866 0.810030
O O1 0.622355 0.415435 0.760558
O O2 0.639206 0.375290 0.926407
O O3 0.525383 0.306121 0.048912
O O4 0.466254 0.425198 0.258924
O O5 0.098588 0.286386 0.743989
O O6 0.150620 0.887487 0.303976
O O7 0.000000 0.890110 0.500000
O O8 0.095959 0.000000 0.333538
O O9 0.199883 0.905934 0.983218
O O10 0.229682 0.500000 0.631870
O O11 0.179997 0.379539 0.680081
O O12 0.273207 0.392665 0.658479
O O13 0.166168 0.601155 0.492721
O O14 0.000000 0.598065 0.000000
O O15 0.812816 0.000000 0.676058
O O16 0.201915 0.000000 0.822675
#
# Coordination Sequence:
#
# PCOD8078905 Si02
#       7
#     8   4   8   8   8   8   8
#     4  11  17  29  46  75 100 130 153 200 242 305
#     4  10  22  34  46  70  96 138 174 194 250 278
#     4   9  16  27  46  76 110 132 148 185 249 319
#     4  10  19  29  49  77 100 124 157 205 262 294
#     4   9  21  37  48  69  94 136 176 209 236 280
#     4  10  17  27  46  76 110 128 148 191 255 315
#     4  10  19  31  53  80 100 126 159 201 255 294
#
# _framework density 16.712230999999999
#
# number of rings (size 3 to 8) (size 9 to 14) (size 15 to 20)
#    0.462    1.692    3.077    2.769    0.000    4.923 
#    0.000    0.000    0.000    1.846    4.000    4.308 
#    0.000    0.000    0.000    0.000    0.000    0.000 
#
# Total GULP energy -322089.433823 kJ/mol
# GULP energy per Si atom -12388.055147 kJ/mol
# Density = 1.667419 g / cm^3
# Si number density = 16.712231 Si / 1000 Ang^3
#
#
#
# Elastic Constant Matrix: (Units=GPa)
#
#
# Indices 1 2 3 4 5 6 
#
# 1 137.6634 29.0704 60.7742 0.0000 19.8066 0.0000
# 2 29.0704 57.2113 19.4632 0.0000 -0.4969 0.0000
# 3 60.7742 19.4632 91.7749 0.0000 6.2802 0.0000
# 4 0.0000 0.0000 0.0000 16.1701 0.0000 -13.0463
# 5 19.8066 -0.4969 6.2802 0.0000 23.7142 0.0000
# 6 0.0000 0.0000 0.0000 -13.0463 0.0000 19.4454
#
#
#
# Elastic Compliance Matrix: (Units=1/GPa)
#
#
# Indices 1 2 3 4 5 6 
#
# 1 0.012319 -0.004051 -0.006710 0.000000 -0.008597 0.000000
# 2 -0.004051 0.020222 -0.001901 0.000000 0.004311 0.000000
# 3 -0.006710 -0.001901 0.015646 0.000000 0.001421 0.000000
# 4 0.000000 0.000000 0.000000 0.134823 0.000000 0.090455
# 5 -0.008597 0.004311 0.001421 0.000000 0.049063 0.000000
# 6 0.000000 0.000000 0.000000 0.090455 0.000000 0.112114
#
#
# Mechanical properties :
#
#
# Convention : Reuss Voigt Hill
#
# Bulk Modulus (GPa) = 43.74125 56.14058 49.94091
# Shear Modulus (GPa) = 13.25797 23.68872 18.47335
#
# Velocity S-wave (km/s) = 2.81963 3.76899 3.32833
# Velocity P-wave (km/s) = 6.06881 7.25298 6.68716
#
# Compressibility (1/GPa) = 0.02286172
#
# Stress axis : x y z
#
# Youngs Moduli (GPa) = 81.17648 49.45181 63.91574
#
# Poissons Ratio (x) = 0.20035 0.42889
# Poissons Ratio (y) = 0.32888 0.12148
# Poissons Ratio (z) = 0.54471 0.09399
#
# Static dielectric constant tensor:
#      x y z
#    x 3.421310 0.000000 0.124640 
#    y 0.000000 2.773800 0.000000 
#    z 0.124640 0.000000 3.022520 
# 
# 
# High freq. dielectric constant tensor:
#      x y z
#    x 1.653000 0.000000 0.004700 
#    y 0.000000 1.601540 0.000000 
#    z 0.004700 0.000000 1.621980 
# 
# From -- ./inp_files/189851.got.cif
#   From: 2010.06.25/outbox.cif.g09.slc.cpg/sg12_95_cif.got.tgz:189851.got - 2010.06.28 00:19:55.
