data_PCOD8078140
_publ_section_title
;
Structure prediction by ZEFSAII (Michael W. Deem and Ramdas Pophale) SiO2 
 PCOD8078140
Probable space group: C 2/M
;
_chemical_formula_sum "Si O2"
_cell_formula_units_Z 64
_cell_length_a 22.577058
_cell_length_b 8.573943
_cell_length_c 23.185374
_cell_angle_alpha 90.000000
_cell_angle_beta 125.422085
_cell_angle_gamma 90.000000
_cell_volume 3657.368623
_symmetry_space_group_name_H-M "C 2/M"
_symmetry_group_IT_number 12
_symmetry_cell_setting 'monoclinic'
loop_
_space_group_symop_operation_xyz
x,y,z
-x,y,-z
-x,-y,-z
x,-y,z
1/2+x,1/2+y,z
1/2-x,1/2+y,-z
1/2-x,1/2-y,-z
1/2+x,1/2-y,z
loop_
_atom_site_type_symbol
_atom_site_label
_atom_site_fract_x
_atom_site_fract_y
_atom_site_fract_z
Si Si1 0.087315 0.682869 0.373587
Si Si2 0.076182 0.818995 0.071389
Si Si3 0.846280 0.319946 0.106586
Si Si4 0.399362 0.181724 0.792430
Si Si5 0.013195 0.182132 0.769060
Si Si6 0.181544 0.819380 0.028149
Si Si7 0.798859 0.816677 0.651592
Si Si8 0.806975 0.184501 0.485965
O O1 0.079496 0.500000 0.377992
O O2 0.146178 0.723019 0.358273
O O3 0.112641 0.758636 0.449055
O O4 0.011257 0.753590 0.307732
O O5 0.087765 0.714016 0.133559
O O6 0.140575 0.778005 0.063695
O O7 0.076910 0.000000 0.089758
O O8 0.000000 0.773064 0.000000
O O9 0.865391 0.500000 0.126628
O O10 0.901864 0.217521 0.175276
O O11 0.766111 0.277674 0.084344
O O12 0.852992 0.281159 0.042707
O O13 0.469395 0.237265 0.796229
O O14 0.325153 0.271937 0.730776
O O15 0.387926 0.000000 0.775531
O O16 0.997362 0.000000 0.762909
O O17 0.171491 0.000000 0.005661
O O18 0.717151 0.756600 0.589891
O O19 0.804722 0.000000 0.643861
O O20 0.750000 0.250000 0.500000
O O21 0.804422 0.000000 0.481972
#
# Coordination Sequence:
#
# PCOD8078140 Si02
#       8
#     8   8   8   8   8   8   8   8
#     4  10  17  26  39  59  86 116 151 189 228 272
#     4  10  20  34  51  70  94 124 155 187 227 276
#     4  10  19  32  50  71  94 120 153 192 231 273
#     4  11  21  32  46  67  93 121 155 195 235 276
#     4  11  20  31  46  65  91 124 158 192 234 279
#     4   9  19  34  51  71  95 123 153 187 230 277
#     4  10  17  27  41  58  83 118 155 188 225 270
#     4  10  16  24  37  56  83 116 152 187 224 267
#
# _framework density 17.498919000000001
#
# number of rings (size 3 to 8) (size 9 to 14) (size 15 to 20)
#    0.000    1.875    0.000    9.750    0.000    2.250 
#    0.000    0.000    0.000    0.000    0.000    0.000 
#    0.000    1.000    0.000   10.750    0.000    6.000 
#
# Total GULP energy -396734.026598 kJ/mol
# GULP energy per Si atom -12397.938331 kJ/mol
# Density = 1.745909 g / cm^3
# Si number density = 17.498919 Si / 1000 Ang^3
#
#
#
# Elastic Constant Matrix: (Units=GPa)
#
#
# Indices 1 2 3 4 5 6 
#
# 1 46.2856 17.7506 36.2412 0.0000 7.3115 0.0000
# 2 17.7506 96.6631 48.2906 0.0000 7.3493 0.0000
# 3 36.2412 48.2906 144.5903 0.0000 20.3197 0.0000
# 4 0.0000 0.0000 0.0000 36.6606 0.0000 2.1665
# 5 7.3115 7.3493 20.3197 0.0000 16.3833 0.0000
# 6 0.0000 0.0000 0.0000 2.1665 0.0000 15.3923
#
#
#
# Elastic Compliance Matrix: (Units=1/GPa)
#
#
# Indices 1 2 3 4 5 6 
#
# 1 0.027431 -0.001892 -0.005622 0.000000 -0.004420 0.000000
# 2 -0.001892 0.012551 -0.003688 0.000000 -0.000212 0.000000
# 3 -0.005622 -0.003688 0.010866 0.000000 -0.009313 0.000000
# 4 0.000000 0.000000 0.000000 0.027506 0.000000 -0.003872
# 5 -0.004420 -0.000212 -0.009313 0.000000 0.074656 0.000000
# 6 0.000000 0.000000 0.000000 -0.003872 0.000000 0.065513
#
#
# Mechanical properties :
#
#
# Convention : Reuss Voigt Hill
#
# Bulk Modulus (GPa) = 35.15813 54.67820 44.91817
# Shear Modulus (GPa) = 19.96737 26.03769 23.00253
#
# Velocity S-wave (km/s) = 3.38163 3.86159 3.62955
# Velocity P-wave (km/s) = 5.94831 7.15521 6.57949
#
# Compressibility (1/GPa) = 0.02844293
#
# Stress axis : x y z
#
# Youngs Moduli (GPa) = 36.45490 79.67398 92.03221
#
# Poissons Ratio (x) = 0.15078 0.51744
# Poissons Ratio (y) = 0.06899 0.33939
# Poissons Ratio (z) = 0.20496 0.29382
#
# Static dielectric constant tensor:
#      x y z
#    x 2.749300 0.000000 0.241020 
#    y 0.000000 3.296530 0.000000 
#    z 0.241020 0.000000 4.206580 
# 
# 
# High freq. dielectric constant tensor:
#      x y z
#    x 1.601860 0.000000 0.020120 
#    y 0.000000 1.692570 0.000000 
#    z 0.020120 0.000000 1.700200 
# 
# From -- ./inp_files/348580.got.cif
#   From: 2010.06.25/outbox.cif.g09.slc.cpg/sg12_175_cif.got.tgz:348580.got - 2010.06.28 00:19:55.
