data_PCOD8078252
_publ_section_title
;
Structure prediction by ZEFSAII (Michael W. Deem and Ramdas Pophale) SiO2 
 PCOD8078252
Probable space group: C 2/M
;
_chemical_formula_sum "Si O2"
_cell_formula_units_Z 56
_cell_length_a 20.738118
_cell_length_b 7.959631
_cell_length_c 25.603786
_cell_angle_alpha 90.000000
_cell_angle_beta 48.261675
_cell_angle_gamma 90.000000
_cell_volume 3153.680271
_symmetry_space_group_name_H-M "C 2/M"
_symmetry_group_IT_number 12
_symmetry_cell_setting 'monoclinic'
loop_
_space_group_symop_operation_xyz
x,y,z
-x,y,-z
-x,-y,-z
x,-y,z
1/2+x,1/2+y,z
1/2-x,1/2+y,-z
1/2-x,1/2-y,-z
1/2+x,1/2-y,z
loop_
_atom_site_type_symbol
_atom_site_label
_atom_site_fract_x
_atom_site_fract_y
_atom_site_fract_z
Si Si1 0.424938 0.687124 0.172189
Si Si2 0.775132 0.808184 0.324880
Si Si3 0.851050 0.808698 0.690883
Si Si4 0.479710 0.299892 0.453566
Si Si5 0.718319 0.683731 0.839562
Si Si6 0.997018 0.500000 0.915671
Si Si7 0.357662 0.000000 0.074071
Si Si8 0.289040 0.697467 0.533529
O O1 0.467865 0.500000 0.152410
O O2 0.373131 0.731643 0.253314
O O3 0.356692 0.689592 0.162405
O O4 0.496245 0.831507 0.123468
O O5 0.705985 0.695451 0.331312
O O6 0.769930 0.776111 0.389317
O O7 0.753372 0.000000 0.322744
O O8 0.809597 0.704535 0.760652
O O9 0.946479 0.736719 0.626501
O O10 0.855603 0.000000 0.707261
O O11 0.500000 0.226193 0.500000
O O12 0.482098 0.500000 0.454278
O O13 0.386854 0.232360 0.484705
O O14 0.718557 0.500000 0.867295
O O15 0.701771 0.832699 0.890080
O O16 0.072337 0.500000 0.917773
O O17 0.903612 0.500000 0.993148
O O18 0.288444 0.500000 0.540605
O O19 0.250000 0.750000 0.500000
#
# Coordination Sequence:
#
# PCOD8078252 Si02
#       8
#     8   8   8   8   8   4   4   8
#     4   8  16  26  38  59  85 112 153 201 236 278
#     4  10  19  30  45  67  91 120 160 204 247 293
#     4  10  16  27  48  67  89 119 161 209 247 288
#     4   9  17  31  49  72  93 122 165 209 251 293
#     4   9  16  26  38  58  86 118 156 195 240 290
#     4   9  16  24  40  56  83 116 163 188 235 291
#     4   9  16  26  36  58  82 123 154 193 236 293
#     4  11  22  36  51  68  96 131 167 204 256 306
#
# _framework density 17.757031999999999
#
# number of rings (size 3 to 8) (size 9 to 14) (size 15 to 20)
#    0.000    2.571    2.143    2.143    4.000    0.571 
#    0.000    6.429    0.000    0.000    0.000    0.000 
#    0.000    0.000    0.000    1.286    4.000    1.000 
#
# Total GULP energy -347069.098087 kJ/mol
# GULP energy per Si atom -12395.324932 kJ/mol
# Density = 1.771662 g / cm^3
# Si number density = 17.757032 Si / 1000 Ang^3
#
#
#
# Elastic Constant Matrix: (Units=GPa)
#
#
# Indices 1 2 3 4 5 6 
#
# 1 51.4922 13.2025 34.0474 0.0015 -2.8972 -0.0012
# 2 13.2025 106.8285 69.2332 0.0033 -9.5609 -0.0015
# 3 34.0474 69.2332 152.9079 0.0001 -13.1056 -0.0006
# 4 0.0015 0.0033 0.0001 21.5905 -0.0005 2.7195
# 5 -2.8972 -9.5609 -13.1056 -0.0005 11.1630 0.0014
# 6 -0.0012 -0.0015 -0.0006 2.7195 0.0014 9.1517
#
#
#
# Elastic Compliance Matrix: (Units=1/GPa)
#
#
# Indices 1 2 3 4 5 6 
#
# 1 0.022807 0.000678 -0.005369 -0.000002 0.000197 0.000003
# 2 0.000678 0.013503 -0.005847 -0.000002 0.004877 0.000002
# 3 -0.005369 -0.005847 0.010934 0.000002 0.006436 -0.000002
# 4 -0.000002 -0.000002 0.000002 0.048118 0.000003 -0.014299
# 5 0.000197 0.004877 0.006436 0.000003 0.101366 -0.000015
# 6 0.000003 0.000002 -0.000002 -0.014299 -0.000015 0.113518
#
#
# Mechanical properties :
#
#
# Convention : Reuss Voigt Hill
#
# Bulk Modulus (GPa) = 38.21165 60.46608 49.33887
# Shear Modulus (GPa) = 14.70404 21.36408 18.03406
#
# Velocity S-wave (km/s) = 2.88074 3.47238 3.19031
# Velocity P-wave (km/s) = 5.71233 7.08537 6.43557
#
# Compressibility (1/GPa) = 0.02617003
#
# Stress axis : x y z
#
# Youngs Moduli (GPa) = 43.84534 74.06012 91.45626
#
# Poissons Ratio (x) = -0.05023 0.49100
# Poissons Ratio (y) = -0.02974 0.53472
# Poissons Ratio (z) = 0.23539 0.43301
#
# Static dielectric constant tensor:
#      x y z
#    x 2.637950 0.000000 -0.201170 
#    y 0.000000 3.469190 0.000000 
#    z -0.201170 0.000000 3.478550 
# 
# 
# High freq. dielectric constant tensor:
#      x y z
#    x 1.600730 0.000000 -0.015490 
#    y 0.000000 1.696670 0.000000 
#    z -0.015490 0.000000 1.693550 
# 
# From -- ./inp_files/345506.got.cif
#   From: 2010.06.25/outbox.cif.g09.slc.cpg/sg12_173_cif.got.tgz:345506.got - 2010.06.28 00:19:55.
