data_PCOD8078725
_publ_section_title
;
Structure prediction by ZEFSAII (Michael W. Deem and Ramdas Pophale) SiO2 
 PCOD8078725
Probable space group: C 2/M
;
_chemical_formula_sum "Si O2"
_cell_formula_units_Z 48
_cell_length_a 28.508870
_cell_length_b 9.161697
_cell_length_c 12.035588
_cell_angle_alpha 90.000000
_cell_angle_beta 111.079781
_cell_angle_gamma 90.000000
_cell_volume 2933.204626
_symmetry_space_group_name_H-M "C 2/M"
_symmetry_group_IT_number 12
_symmetry_cell_setting 'monoclinic'
loop_
_space_group_symop_operation_xyz
x,y,z
-x,y,-z
-x,-y,-z
x,-y,z
1/2+x,1/2+y,z
1/2-x,1/2+y,-z
1/2-x,1/2-y,-z
1/2+x,1/2-y,z
loop_
_atom_site_type_symbol
_atom_site_label
_atom_site_fract_x
_atom_site_fract_y
_atom_site_fract_z
Si Si1 0.273270 0.828074 0.414661
Si Si2 0.114424 0.670103 0.543672
Si Si3 0.822601 0.834065 0.049764
Si Si4 0.511261 0.838364 0.379286
Si Si5 0.917156 0.168115 0.265253
Si Si6 0.757594 0.330398 0.831490
O O1 0.250000 0.750000 0.500000
O O2 0.332660 0.793595 0.467631
O O3 0.247580 0.762602 0.283903
O O4 0.262507 0.000000 0.409690
O O5 0.109538 0.500000 0.570736
O O6 0.069661 0.712635 0.418304
O O7 0.109402 0.757296 0.653139
O O8 0.881261 0.809728 0.127945
O O9 0.790845 0.800603 0.133732
O O10 0.812214 0.000000 0.002354
O O11 0.807305 0.724626 0.938496
O O12 0.500000 0.836685 0.500000
O O13 0.472203 0.732912 0.283116
O O14 0.503936 0.000000 0.323077
O O15 0.923980 0.000000 0.301154
O O16 0.764025 0.500000 0.806911
#
# Coordination Sequence:
#
# PCOD8078725 Si02
#       6
#     8   8   8   8   8   8
#     4  11  22  35  51  69  93 126 163 200 238 277
#     4   9  18  31  45  62  90 126 158 191 230 276
#     4   9  18  30  45  68  98 127 154 190 234 281
#     4   8  15  27  41  61  90 122 155 186 224 278
#     4  10  17  26  43  69  97 123 152 188 232 278
#     4  10  19  32  48  68  93 124 161 196 233 279
#
# _framework density 16.364353999999999
#
# number of rings (size 3 to 8) (size 9 to 14) (size 15 to 20)
#    0.000    2.500    1.667    2.500    0.000    5.667 
#    0.000    0.000    0.000    0.000    0.000    1.167 
#    0.000    9.333    0.000    0.000    0.000    0.000 
#
# Total GULP energy -297526.064941 kJ/mol
# GULP energy per Si atom -12396.919373 kJ/mol
# Density = 1.632711 g / cm^3
# Si number density = 16.364354 Si / 1000 Ang^3
#
#
#
# Elastic Constant Matrix: (Units=GPa)
#
#
# Indices 1 2 3 4 5 6 
#
# 1 89.6897 53.7331 55.0275 0.0000 20.0319 0.0000
# 2 53.7331 98.0989 55.2940 0.0000 11.5680 0.0000
# 3 55.0275 55.2940 85.0667 0.0000 15.5777 0.0000
# 4 0.0000 0.0000 0.0000 29.3972 0.0000 4.9875
# 5 20.0319 11.5680 15.5777 0.0000 25.8810 0.0000
# 6 0.0000 0.0000 0.0000 4.9875 0.0000 24.4277
#
#
#
# Elastic Compliance Matrix: (Units=1/GPa)
#
#
# Indices 1 2 3 4 5 6 
#
# 1 0.022249 -0.006216 -0.008662 0.000000 -0.009229 0.000000
# 2 -0.006216 0.017848 -0.007868 0.000000 0.001569 0.000000
# 3 -0.008662 -0.007868 0.023153 0.000000 -0.003715 0.000000
# 4 0.000000 0.000000 0.000000 0.035238 0.000000 -0.007195
# 5 -0.009229 0.001569 -0.003715 0.000000 0.047316 0.000000
# 6 0.000000 0.000000 0.000000 -0.007195 0.000000 0.042406
#
#
# Mechanical properties :
#
#
# Convention : Reuss Voigt Hill
#
# Bulk Modulus (GPa) = 56.31009 66.77384 61.54196
# Shear Modulus (GPa) = 20.86621 23.19456 22.03038
#
# Velocity S-wave (km/s) = 3.57473 3.76890 3.67310
# Velocity P-wave (km/s) = 7.17796 7.73515 7.46176
#
# Compressibility (1/GPa) = 0.01775881
#
# Stress axis : x y z
#
# Youngs Moduli (GPa) = 44.94521 56.02739 43.19091
#
# Poissons Ratio (x) = 0.34828 0.37411
# Poissons Ratio (y) = 0.27939 0.33982
# Poissons Ratio (z) = 0.38931 0.44081
#
# Static dielectric constant tensor:
#      x y z
#    x 3.263910 0.000000 0.431110 
#    y 0.000000 3.188330 0.000000 
#    z 0.431110 0.000000 2.898230 
# 
# 
# High freq. dielectric constant tensor:
#      x y z
#    x 1.610670 0.000000 0.040410 
#    y 0.000000 1.640870 0.000000 
#    z 0.040410 0.000000 1.601170 
# 
# From -- ./inp_files/179335.got.cif
#   From: 2010.06.25/outbox.cif.g09.slc.cpg/sg12_90_cif.got.tgz:179335.got - 2010.06.28 00:19:55.
