data_PCOD8078357
_publ_section_title
;
Structure prediction by ZEFSAII (Michael W. Deem and Ramdas Pophale) SiO2 
 PCOD8078357
Probable space group: C 2/M
;
_chemical_formula_sum "Si O2"
_cell_formula_units_Z 48
_cell_length_a 9.493365
_cell_length_b 20.085257
_cell_length_c 26.221507
_cell_angle_alpha 90.000000
_cell_angle_beta 142.781213
_cell_angle_gamma 90.000000
_cell_volume 3024.198349
_symmetry_space_group_name_H-M "C 2/M"
_symmetry_group_IT_number 12
_symmetry_cell_setting 'monoclinic'
loop_
_space_group_symop_operation_xyz
x,y,z
-x,y,-z
-x,-y,-z
x,-y,z
1/2+x,1/2+y,z
1/2-x,1/2+y,-z
1/2-x,1/2-y,-z
1/2+x,1/2-y,z
loop_
_atom_site_type_symbol
_atom_site_label
_atom_site_fract_x
_atom_site_fract_y
_atom_site_fract_z
Si Si1 0.182793 0.078927 0.011244
Si Si2 0.790270 0.314332 0.274983
Si Si3 0.290414 0.076471 0.829948
Si Si4 0.253154 0.768376 0.559090
Si Si5 0.977494 0.076322 0.144843
Si Si6 0.508370 0.305104 0.713319
O O1 0.121171 0.104522 0.936845
O O2 0.171906 0.000000 0.008049
O O3 0.444522 0.101315 0.100398
O O4 0.000000 0.108197 0.000000
O O5 0.708442 0.382145 0.225019
O O6 0.617649 0.292253 0.269819
O O7 0.795843 0.252897 0.236316
O O8 0.052232 0.325194 0.373214
O O9 0.127722 0.122075 0.747029
O O10 0.220643 0.084539 0.869233
O O11 0.257944 0.000000 0.803013
O O12 0.250000 0.750000 0.500000
O O13 0.322529 0.702658 0.613031
O O14 0.000000 0.796519 0.500000
O O15 0.057642 0.000000 0.163127
#
# Coordination Sequence:
#
# PCOD8078357 Si02
#       6
#     8   8   8   8   8   8
#     4   9  17  29  46  69  96 127 160 189 224 275
#     4   9  18  30  48  73  94 119 157 192 234 274
#     4   9  17  31  50  70  95 125 157 192 230 273
#     4  10  16  30  50  71  89 120 156 192 224 283
#     4   9  17  31  50  70  94 125 159 192 228 273
#     4   9  18  30  48  73  95 118 157 193 232 275
#
# _framework density 15.871975000000001
#
# number of rings (size 3 to 8) (size 9 to 14) (size 15 to 20)
#    1.000    1.833    1.667    0.500    0.000    3.333 
#    0.000    0.833    0.000    2.000    0.000    0.000 
#    0.000    0.000    0.000    0.000    0.000    0.000 
#
# Total GULP energy -297348.329013 kJ/mol
# GULP energy per Si atom -12389.513709 kJ/mol
# Density = 1.583585 g / cm^3
# Si number density = 15.871975 Si / 1000 Ang^3
#
#
#
# Elastic Constant Matrix: (Units=GPa)
#
#
# Indices 1 2 3 4 5 6 
#
# 1 89.2138 35.2036 42.0862 -0.0008 12.4811 -0.0005
# 2 35.2036 64.3910 41.8273 0.0009 7.8882 0.0000
# 3 42.0862 41.8273 91.5924 0.0000 12.5915 -0.0007
# 4 -0.0008 0.0009 0.0000 28.2341 -0.0005 1.3529
# 5 12.4811 7.8882 12.5915 -0.0005 30.0506 0.0001
# 6 -0.0005 0.0000 -0.0007 1.3529 0.0001 19.0570
#
#
#
# Elastic Compliance Matrix: (Units=1/GPa)
#
#
# Indices 1 2 3 4 5 6 
#
# 1 0.015877 -0.005446 -0.004349 0.000001 -0.003343 0.000000
# 2 -0.005446 0.024027 -0.008398 -0.000001 -0.000527 0.000000
# 3 -0.004349 -0.008398 0.017190 0.000000 -0.003192 0.000000
# 4 0.000001 -0.000001 0.000000 0.035539 0.000001 -0.002523
# 5 -0.003343 -0.000527 -0.003192 0.000001 0.036141 0.000000
# 6 0.000000 0.000000 0.000000 -0.002523 0.000000 0.052653
#
#
# Mechanical properties :
#
#
# Convention : Reuss Voigt Hill
#
# Bulk Modulus (GPa) = 48.28765 53.71459 51.00112
# Shear Modulus (GPa) = 22.25033 23.87366 23.06200
#
# Velocity S-wave (km/s) = 3.74821 3.88253 3.81596
# Velocity P-wave (km/s) = 7.01579 7.34946 7.18457
#
# Compressibility (1/GPa) = 0.02070923
#
# Stress axis : x y z
#
# Youngs Moduli (GPa) = 62.98343 41.62011 58.17313
#
# Poissons Ratio (x) = 0.22665 0.25300
# Poissons Ratio (y) = 0.34299 0.48852
# Poissons Ratio (z) = 0.27392 0.34951
#
# Static dielectric constant tensor:
#      x y z
#    x 3.106360 0.000000 -0.038190 
#    y 0.000000 2.749870 0.000000 
#    z -0.038190 0.000000 2.912290 
# 
# 
# High freq. dielectric constant tensor:
#      x y z
#    x 1.624080 0.000000 0.004360 
#    y 0.000000 1.570740 0.000000 
#    z 0.004360 0.000000 1.602350 
# 
# From -- ./inp_files/333141.got.cif
#   From: 2010.06.25/outbox.cif.g09.slc.cpg/sg12_167_cif.got.tgz:333141.got - 2010.06.28 00:19:55.
