data_PCOD8078927
_publ_section_title
;
Structure prediction by ZEFSAII (Michael W. Deem and Ramdas Pophale) SiO2 
 PCOD8078927
Probable space group: C 2/M
;
_chemical_formula_sum "Si O2"
_cell_formula_units_Z 64
_cell_length_a 25.165145
_cell_length_b 9.424925
_cell_length_c 15.382421
_cell_angle_alpha 90.000000
_cell_angle_beta 105.924612
_cell_angle_gamma 90.000000
_cell_volume 3508.383977
_symmetry_space_group_name_H-M "C 2/M"
_symmetry_group_IT_number 12
_symmetry_cell_setting 'monoclinic'
loop_
_space_group_symop_operation_xyz
x,y,z
-x,y,-z
-x,-y,-z
x,-y,z
1/2+x,1/2+y,z
1/2-x,1/2+y,-z
1/2-x,1/2-y,-z
1/2+x,1/2-y,z
loop_
_atom_site_type_symbol
_atom_site_label
_atom_site_fract_x
_atom_site_fract_y
_atom_site_fract_z
Si Si1 0.940197 0.832298 0.804159
Si Si2 0.758462 0.831667 0.823101
Si Si3 0.120821 0.167770 0.394608
Si Si4 0.933416 0.831837 0.137337
Si Si5 0.644039 0.164508 0.561939
Si Si6 0.872663 0.831315 0.938498
Si Si7 0.233185 0.832562 0.364003
Si Si8 0.136101 0.334007 0.760443
O O1 0.918744 0.777718 0.700855
O O2 0.904181 0.769037 0.867789
O O3 0.003234 0.785675 0.845416
O O4 0.933572 0.000000 0.802642
O O5 0.807926 0.782879 0.909784
O O6 0.773397 0.767678 0.735491
O O7 0.696734 0.782059 0.822326
O O8 0.756581 0.000000 0.815572
O O9 0.105488 0.244895 0.478758
O O10 0.182896 0.220296 0.400323
O O11 0.115781 0.000000 0.406100
O O12 0.909997 0.756923 0.212131
O O13 0.927368 0.000000 0.145982
O O14 0.900827 0.773324 0.038546
O O15 0.707408 0.211300 0.571319
O O16 0.629275 0.197935 0.655065
O O17 0.634537 0.000000 0.537453
O O18 0.877572 0.000000 0.939072
O O19 0.229711 0.000000 0.353313
O O20 0.127274 0.500000 0.775556
#
# Coordination Sequence:
#
# PCOD8078927 Si02
#       8
#     8   8   8   8   8   8   8   8
#     4   9  17  30  48  74 104 126 153 196 244 291
#     4   8  13  25  47  73  97 125 159 193 231 286
#     4  10  17  27  48  74  96 122 155 193 241 287
#     4  10  20  32  50  75  98 125 162 204 241 273
#     4   9  18  31  47  68  95 126 160 195 233 282
#     4   9  15  27  50  77 100 122 155 199 244 287
#     4   8  13  24  43  69  98 124 150 186 236 290
#     4   9  19  35  51  67  95 134 168 194 231 286
#
# _framework density 18.242016
#
# number of rings (size 3 to 8) (size 9 to 14) (size 15 to 20)
#    0.000    3.000    1.250    2.250    0.000    2.500 
#    0.000    1.250    0.000    6.750    0.000    0.000 
#    0.000    0.000    0.000    0.000    0.000    0.000 
#
# Total GULP energy -396521.747378 kJ/mol
# GULP energy per Si atom -12391.304606 kJ/mol
# Density = 1.820050 g / cm^3
# Si number density = 18.242016 Si / 1000 Ang^3
#
#
#
# Elastic Constant Matrix: (Units=GPa)
#
#
# Indices 1 2 3 4 5 6 
#
# 1 44.4057 14.1702 22.2093 0.0000 -7.3238 0.0000
# 2 14.1702 22.5700 26.2029 0.0000 -2.0274 0.0000
# 3 22.2093 26.2029 102.9542 0.0000 6.4257 0.0000
# 4 0.0000 0.0000 0.0000 22.2338 0.0000 -3.2514
# 5 -7.3238 -2.0274 6.4257 0.0000 19.2987 0.0000
# 6 0.0000 0.0000 0.0000 -3.2514 0.0000 16.7302
#
#
#
# Elastic Compliance Matrix: (Units=1/GPa)
#
#
# Indices 1 2 3 4 5 6 
#
# 1 0.030741 -0.013820 -0.003831 0.000000 0.011490 0.000000
# 2 -0.013820 0.072041 -0.015828 0.000000 0.007593 0.000000
# 3 -0.003831 -0.015828 0.015076 0.000000 -0.008136 0.000000
# 4 0.000000 0.000000 0.000000 0.046292 0.000000 0.008997
# 5 0.011490 0.007593 -0.008136 0.000000 0.059684 0.000000
# 6 0.000000 0.000000 0.000000 0.008997 0.000000 0.061520
#
#
# Mechanical properties :
#
#
# Convention : Reuss Voigt Hill
#
# Bulk Modulus (GPa) = 19.64669 32.78829 26.21749
# Shear Modulus (GPa) = 13.53990 18.80906 16.17448
#
# Velocity S-wave (km/s) = 2.72736 3.21453 2.98092
# Velocity P-wave (km/s) = 4.55098 5.63832 5.12358
#
# Compressibility (1/GPa) = 0.05089917
#
# Stress axis : x y z
#
# Youngs Moduli (GPa) = 32.52992 13.88102 66.33212
#
# Poissons Ratio (x) = 0.19184 0.25413
# Poissons Ratio (y) = 0.44957 1.04989
# Poissons Ratio (z) = 0.12463 0.21971
#
# Static dielectric constant tensor:
#      x y z
#    x 3.471680 0.000000 0.129640 
#    y 0.000000 2.746100 0.000000 
#    z 0.129640 0.000000 3.451960 
# 
# 
# High freq. dielectric constant tensor:
#      x y z
#    x 1.699810 0.000000 0.007200 
#    y 0.000000 1.644730 0.000000 
#    z 0.007200 0.000000 1.716590 
# 
# From -- ./inp_files/182056.got.cif
#   From: 2010.06.25/outbox.cif.g09.slc.cpg/sg12_92_cif.got.tgz:182056.got - 2010.06.28 00:19:55.
