data_PCOD8078618
_publ_section_title
;
Structure prediction by ZEFSAII (Michael W. Deem and Ramdas Pophale) SiO2 
 PCOD8078618
Probable space group: C 2/M
;
_chemical_formula_sum "Si O2"
_cell_formula_units_Z 48
_cell_length_a 12.110059
_cell_length_b 8.696130
_cell_length_c 20.737576
_cell_angle_alpha 90.000000
_cell_angle_beta 119.449166
_cell_angle_gamma 90.000000
_cell_volume 1901.712338
_symmetry_space_group_name_H-M "C 2/M"
_symmetry_group_IT_number 12
_symmetry_cell_setting 'monoclinic'
loop_
_space_group_symop_operation_xyz
x,y,z
-x,y,-z
-x,-y,-z
x,-y,z
1/2+x,1/2+y,z
1/2-x,1/2+y,-z
1/2-x,1/2-y,-z
1/2+x,1/2-y,z
loop_
_atom_site_type_symbol
_atom_site_label
_atom_site_fract_x
_atom_site_fract_y
_atom_site_fract_z
Si Si1 0.199730 0.673512 0.421753
Si Si2 0.780300 0.179038 0.132277
Si Si3 0.614861 0.676957 0.986627
Si Si4 0.965890 0.320878 0.276766
Si Si5 0.917726 0.178441 0.825527
Si Si6 0.726293 0.672517 0.691212
O O1 0.166843 0.500000 0.431389
O O2 0.250000 0.750000 0.500000
O O3 0.303673 0.680772 0.393788
O O4 0.076634 0.752304 0.354031
O O5 0.924303 0.227155 0.198823
O O6 0.682020 0.274780 0.147362
O O7 0.762190 0.000000 0.138762
O O8 0.738596 0.219526 0.045346
O O9 0.649735 0.500000 0.008840
O O10 0.561257 0.700766 0.897076
O O11 0.500000 0.728292 0.000000
O O12 0.989972 0.500000 0.268889
O O13 0.846318 0.301564 0.290335
O O14 0.877672 0.286602 0.750751
O O15 0.898182 0.000000 0.803146
O O16 0.697549 0.500000 0.708327
#
# Coordination Sequence:
#
# PCOD8078618 Si02
#       6
#     8   8   8   8   8   8
#     4  10  24  42  61  84 111 142 177 220 273 330
#     4  10  17  25  43  73 105 140 181 225 269 310
#     4   8  14  24  39  64 101 141 181 222 263 312
#     4  10  20  37  58  81 110 147 184 218 266 328
#     4   9  16  27  45  71 103 143 184 220 264 318
#     4  10  20  36  57  84 113 142 179 226 274 316
#
# _framework density 25.240409
#
# number of rings (size 3 to 8) (size 9 to 14) (size 15 to 20)
#    0.000    2.500    0.000    6.000    0.000    7.000 
#    0.000    3.333    0.000    1.000    0.000    0.000 
#    0.000    0.000    0.000    0.000    0.000    0.000 
#
# Total GULP energy -297515.347939 kJ/mol
# GULP energy per Si atom -12396.472831 kJ/mol
# Density = 2.518296 g / cm^3
# Si number density = 25.240409 Si / 1000 Ang^3
#
#
#
# Elastic Constant Matrix: (Units=GPa)
#
#
# Indices 1 2 3 4 5 6 
#
# 1 68.8411 30.3801 69.4066 0.0000 7.0879 0.0000
# 2 30.3801 114.9119 79.6986 0.0000 -2.8304 0.0000
# 3 69.4066 79.6986 266.5308 0.0000 -9.8390 0.0000
# 4 0.0000 0.0000 0.0000 50.5486 0.0000 1.9848
# 5 7.0879 -2.8304 -9.8390 0.0000 37.9928 0.0000
# 6 0.0000 0.0000 0.0000 1.9848 0.0000 33.2053
#
#
#
# Elastic Compliance Matrix: (Units=1/GPa)
#
#
# Indices 1 2 3 4 5 6 
#
# 1 0.021150 -0.002229 -0.005041 0.000000 -0.005417 0.000000
# 2 -0.002229 0.011214 -0.002753 0.000000 0.000538 0.000000
# 3 -0.005041 -0.002753 0.005972 0.000000 0.002282 0.000000
# 4 0.000000 0.000000 0.000000 0.019829 0.000000 -0.001185
# 5 -0.005417 0.000538 0.002282 0.000000 0.027963 0.000000
# 6 0.000000 0.000000 0.000000 -0.001185 0.000000 0.030187
#
#
# Mechanical properties :
#
#
# Convention : Reuss Voigt Hill
#
# Bulk Modulus (GPa) = 54.67282 89.91715 72.29498
# Shear Modulus (GPa) = 35.09812 42.40257 38.75035
#
# Velocity S-wave (km/s) = 3.73306 4.10316 3.92248
# Velocity P-wave (km/s) = 6.34735 7.62559 7.01564
#
# Compressibility (1/GPa) = 0.01829063
#
# Stress axis : x y z
#
# Youngs Moduli (GPa) = 47.28099 89.17259 167.44382
#
# Poissons Ratio (x) = 0.19873 0.84412
# Poissons Ratio (y) = 0.10537 0.46098
# Poissons Ratio (z) = 0.23835 0.24550
#
# Static dielectric constant tensor:
#      x y z
#    x 5.232800 0.000000 0.156840 
#    y 0.000000 4.071480 0.000000 
#    z 0.156840 0.000000 5.286240 
# 
# 
# High freq. dielectric constant tensor:
#      x y z
#    x 2.075180 0.000000 -0.014580 
#    y 0.000000 1.979210 0.000000 
#    z -0.014580 0.000000 2.043820 
# 
# From -- ./inp_files/314496.got.cif
#   From: 2010.06.25/outbox.cif.g09.slc.cpg/sg12_158_cif.got.tgz:314496.got - 2010.06.28 00:19:55.
