data_PCOD8078611
_publ_section_title
;
Structure prediction by ZEFSAII (Michael W. Deem and Ramdas Pophale) SiO2 
 PCOD8078611
Probable space group: C 2/M
;
_chemical_formula_sum "Si O2"
_cell_formula_units_Z 48
_cell_length_a 18.385620
_cell_length_b 8.772794
_cell_length_c 20.660072
_cell_angle_alpha 90.000000
_cell_angle_beta 130.634439
_cell_angle_gamma 90.000000
_cell_volume 2528.838840
_symmetry_space_group_name_H-M "C 2/M"
_symmetry_group_IT_number 12
_symmetry_cell_setting 'monoclinic'
loop_
_space_group_symop_operation_xyz
x,y,z
-x,y,-z
-x,-y,-z
x,-y,z
1/2+x,1/2+y,z
1/2-x,1/2+y,-z
1/2-x,1/2-y,-z
1/2+x,1/2-y,z
loop_
_atom_site_type_symbol
_atom_site_label
_atom_site_fract_x
_atom_site_fract_y
_atom_site_fract_z
Si Si1 0.222640 0.679075 0.745982
Si Si2 0.010742 0.823368 0.916920
Si Si3 0.150292 0.678755 0.422094
Si Si4 0.645009 0.178901 0.081552
Si Si5 0.621085 0.325932 0.270819
Si Si6 0.516515 0.818469 0.581610
O O1 0.223684 0.500000 0.759929
O O2 0.254594 0.760911 0.831264
O O3 0.293102 0.719968 0.727666
O O4 0.117785 0.741667 0.667295
O O5 0.936617 0.723024 0.914777
O O6 0.981928 0.804164 0.824832
O O7 0.000673 0.000000 0.931146
O O8 0.117116 0.759912 0.996364
O O9 0.158958 0.500000 0.435699
O O10 0.250000 0.750000 0.500000
O O11 0.122863 0.716042 0.332851
O O12 0.067792 0.743931 0.421329
O O13 0.651066 0.000000 0.073880
O O14 0.634588 0.500000 0.301836
O O15 0.500000 0.753374 0.500000
O O16 0.517680 0.000000 0.580789
#
# Coordination Sequence:
#
# PCOD8078611 Si02
#       6
#     8   8   8   8   8   8
#     4   9  17  32  53  73  98 134 173 207 242 294
#     4   9  16  28  46  68  97 136 176 205 238 290
#     4  11  22  35  54  77 101 130 163 204 251 298
#     4  10  17  25  42  72 106 132 161 208 257 292
#     4   9  18  32  52  76 101 131 166 207 250 292
#     4   9  18  34  55  75  95 126 170 209 240 288
#
# _framework density 18.981043
#
# number of rings (size 3 to 8) (size 9 to 14) (size 15 to 20)
#    0.000    2.500    0.000    5.500    0.000    6.000 
#    0.000    1.667    0.000    4.500    0.000    0.000 
#    0.000    0.000    0.000    0.000    0.000    0.000 
#
# Total GULP energy -297481.284703 kJ/mol
# GULP energy per Si atom -12395.053529 kJ/mol
# Density = 1.893784 g / cm^3
# Si number density = 18.981043 Si / 1000 Ang^3
#
#
#
# Elastic Constant Matrix: (Units=GPa)
#
#
# Indices 1 2 3 4 5 6 
#
# 1 81.7570 26.3388 65.9056 0.0000 7.0664 0.0000
# 2 26.3388 60.7196 48.0436 0.0000 0.3503 0.0000
# 3 65.9056 48.0436 196.5099 0.0000 13.6184 0.0000
# 4 0.0000 0.0000 0.0000 33.0625 0.0000 -3.4395
# 5 7.0664 0.3503 13.6184 0.0000 25.0463 0.0000
# 6 0.0000 0.0000 0.0000 -3.4395 0.0000 16.1365
#
#
#
# Elastic Compliance Matrix: (Units=1/GPa)
#
#
# Indices 1 2 3 4 5 6 
#
# 1 0.017510 -0.003795 -0.004786 0.000000 -0.002285 0.000000
# 2 -0.003795 0.021396 -0.004169 0.000000 0.003038 0.000000
# 3 -0.004786 -0.004169 0.007914 0.000000 -0.002894 0.000000
# 4 0.000000 0.000000 0.000000 0.030932 0.000000 0.006593
# 5 -0.002285 0.003038 -0.002894 0.000000 0.042102 0.000000
# 6 0.000000 0.000000 0.000000 0.006593 0.000000 0.063377
#
#
# Mechanical properties :
#
#
# Convention : Reuss Voigt Hill
#
# Bulk Modulus (GPa) = 46.90528 68.84028 57.87278
# Shear Modulus (GPa) = 23.16564 28.09562 25.63063
#
# Velocity S-wave (km/s) = 3.49730 3.85150 3.67867
# Velocity P-wave (km/s) = 6.40886 7.49169 6.97133
#
# Compressibility (1/GPa) = 0.02131956
#
# Stress axis : x y z
#
# Youngs Moduli (GPa) = 57.11113 46.73688 126.36133
#
# Poissons Ratio (x) = 0.17737 0.60480
# Poissons Ratio (y) = 0.21674 0.52678
# Poissons Ratio (z) = 0.27335 0.19484
#
# Static dielectric constant tensor:
#      x y z
#    x 3.177810 0.000000 0.107570 
#    y 0.000000 3.245050 0.000000 
#    z 0.107570 0.000000 4.209370 
# 
# 
# High freq. dielectric constant tensor:
#      x y z
#    x 1.685310 0.000000 0.004660 
#    y 0.000000 1.721050 0.000000 
#    z 0.004660 0.000000 1.769290 
# 
# From -- ./inp_files/314485.got.cif
#   From: 2010.06.25/outbox.cif.g09.slc.cpg/sg12_158_cif.got.tgz:314485.got - 2010.06.28 00:19:55.
