data_PCOD8078558
_publ_section_title
;
Structure prediction by ZEFSAII (Michael W. Deem and Ramdas Pophale) SiO2 
 PCOD8078558
Probable space group: C 2/M
;
_chemical_formula_sum "Si O2"
_cell_formula_units_Z 56
_cell_length_a 23.899444
_cell_length_b 9.398983
_cell_length_c 17.468988
_cell_angle_alpha 90.000000
_cell_angle_beta 116.292562
_cell_angle_gamma 90.000000
_cell_volume 3518.098447
_symmetry_space_group_name_H-M "C 2/M"
_symmetry_group_IT_number 12
_symmetry_cell_setting 'monoclinic'
loop_
_space_group_symop_operation_xyz
x,y,z
-x,y,-z
-x,-y,-z
x,-y,z
1/2+x,1/2+y,z
1/2-x,1/2+y,-z
1/2-x,1/2-y,-z
1/2+x,1/2-y,z
loop_
_atom_site_type_symbol
_atom_site_label
_atom_site_fract_x
_atom_site_fract_y
_atom_site_fract_z
Si Si1 0.040049 0.166345 0.783841
Si Si2 0.406528 0.836597 0.492480
Si Si3 0.897539 0.836270 0.731798
Si Si4 0.561012 0.160923 0.937800
Si Si5 0.958502 0.337383 0.361508
Si Si6 0.685305 0.668887 0.462928
Si Si7 0.915077 0.659681 0.882039
O O1 0.077787 0.234075 0.878174
O O2 0.064821 0.235762 0.720575
O O3 0.966883 0.202569 0.745988
O O4 0.054015 0.000000 0.790710
O O5 0.412194 0.815611 0.404789
O O6 0.471574 0.796317 0.571690
O O7 0.353917 0.728893 0.489596
O O8 0.388394 0.000000 0.500305
O O9 0.850010 0.792345 0.636775
O O10 0.878587 0.755435 0.798387
O O11 0.892575 0.000000 0.749530
O O12 0.487932 0.167135 0.909167
O O13 0.580736 0.000000 0.928338
O O14 0.596547 0.210773 0.037181
O O15 0.956625 0.500000 0.331843
O O16 0.694439 0.500000 0.478363
O O17 0.750000 0.750000 0.500000
O O18 0.890069 0.500000 0.857264
#
# Coordination Sequence:
#
# PCOD8078558 Si02
#       7
#     8   8   8   8   8   8   8
#     4  10  17  25  39  62  89 117 148 179 216 263
#     4   9  18  32  48  66  86 114 150 186 226 268
#     4   9  18  29  40  58  85 113 145 183 223 263
#     4   8  14  24  36  55  82 112 144 177 212 254
#     4   9  17  29  46  66  89 116 148 183 221 269
#     4  11  22  35  48  65  89 118 153 192 229 266
#     4   8  14  24  39  56  77 109 147 179 211 257
#
# _framework density 15.91769
#
# number of rings (size 3 to 8) (size 9 to 14) (size 15 to 20)
#    0.000    2.857    1.429    2.571    0.000    2.857 
#    0.000    4.286    0.000    0.000    0.000    0.000 
#    0.000    1.143    0.000    3.714    0.000    4.571 
#
# Total GULP energy -347086.850837 kJ/mol
# GULP energy per Si atom -12395.958958 kJ/mol
# Density = 1.588146 g / cm^3
# Si number density = 15.917690 Si / 1000 Ang^3
#
#
#
# Elastic Constant Matrix: (Units=GPa)
#
#
# Indices 1 2 3 4 5 6 
#
# 1 55.2628 40.2726 35.8091 0.0000 -9.4450 0.0000
# 2 40.2726 90.4044 61.7081 0.0000 -19.3999 0.0000
# 3 35.8091 61.7081 103.7197 0.0000 -29.4374 0.0000
# 4 0.0000 0.0000 0.0000 30.3041 0.0000 -5.8259
# 5 -9.4450 -19.3999 -29.4374 0.0000 22.0675 0.0000
# 6 0.0000 0.0000 0.0000 -5.8259 0.0000 20.6805
#
#
#
# Elastic Compliance Matrix: (Units=1/GPa)
#
#
# Indices 1 2 3 4 5 6 
#
# 1 0.027733 -0.009896 -0.004486 0.000000 -0.002814 0.000000
# 2 -0.009896 0.022247 -0.008804 0.000000 0.003578 0.000000
# 3 -0.004486 -0.008804 0.022025 0.000000 0.019721 0.000000
# 4 0.000000 0.000000 0.000000 0.034888 0.000000 0.009828
# 5 -0.002814 0.003578 0.019721 0.000000 0.073565 0.000000
# 6 0.000000 0.000000 0.000000 0.009828 0.000000 0.051123
#
#
# Mechanical properties :
#
#
# Convention : Reuss Voigt Hill
#
# Bulk Modulus (GPa) = 39.01068 58.32962 48.67015
# Shear Modulus (GPa) = 17.45220 22.05021 19.75121
#
# Velocity S-wave (km/s) = 3.31479 3.72595 3.52637
# Velocity P-wave (km/s) = 6.26190 7.43198 6.87189
#
# Compressibility (1/GPa) = 0.02563401
#
# Stress axis : x y z
#
# Youngs Moduli (GPa) = 36.05829 44.95001 45.40306
#
# Poissons Ratio (x) = 0.44484 0.20366
# Poissons Ratio (y) = 0.35684 0.39971
# Poissons Ratio (z) = 0.16174 0.39572
#
# Static dielectric constant tensor:
#      x y z
#    x 2.611030 0.000000 -0.271470 
#    y 0.000000 3.066340 0.000000 
#    z -0.271470 0.000000 3.231660 
# 
# 
# High freq. dielectric constant tensor:
#      x y z
#    x 1.554290 0.000000 -0.031980 
#    y 0.000000 1.616790 0.000000 
#    z -0.031980 0.000000 1.611860 
# 
# From -- ./inp_files/287399.got.cif
#   From: 2010.06.25/outbox.cif.g09.slc.cpg/sg12_144_cif.got.tgz:287399.got - 2010.06.28 00:19:55.
