data_PCOD8078759
_publ_section_title
;
Structure prediction by ZEFSAII (Michael W. Deem and Ramdas Pophale) SiO2 
 PCOD8078759
Probable space group: C 2/M
;
_chemical_formula_sum "Si O2"
_cell_formula_units_Z 64
_cell_length_a 19.084076
_cell_length_b 9.013349
_cell_length_c 22.844176
_cell_angle_alpha 90.000000
_cell_angle_beta 67.364296
_cell_angle_gamma 90.000000
_cell_volume 3626.775493
_symmetry_space_group_name_H-M "C 2/M"
_symmetry_group_IT_number 12
_symmetry_cell_setting 'monoclinic'
loop_
_space_group_symop_operation_xyz
x,y,z
-x,y,-z
-x,-y,-z
x,-y,z
1/2+x,1/2+y,z
1/2-x,1/2+y,-z
1/2-x,1/2-y,-z
1/2+x,1/2-y,z
loop_
_atom_site_type_symbol
_atom_site_label
_atom_site_fract_x
_atom_site_fract_y
_atom_site_fract_z
Si Si1 0.193584 0.329285 0.642199
Si Si2 0.151056 0.176278 0.461464
Si Si3 0.262287 0.671984 0.744872
Si Si4 0.685924 0.675121 0.059056
Si Si5 0.080093 0.824106 0.603452
Si Si6 0.582199 0.326117 0.990978
Si Si7 0.229489 0.175758 0.872893
Si Si8 0.586569 0.676320 0.362836
O O1 0.176501 0.500000 0.634851
O O2 0.262878 0.273264 0.579052
O O3 0.210067 0.303921 0.704968
O O4 0.120362 0.233942 0.648784
O O5 0.121102 0.242297 0.532315
O O6 0.099455 0.237022 0.424601
O O7 0.146192 0.000000 0.464519
O O8 0.262117 0.500000 0.764309
O O9 0.228145 0.774173 0.806336
O O10 0.347304 0.728724 0.702526
O O11 0.699611 0.500000 0.059205
O O12 0.696233 0.748971 0.119768
O O13 0.750000 0.750000 0.000000
O O14 0.605192 0.707398 0.051895
O O15 0.993980 0.764883 0.633902
O O16 0.081957 0.000000 0.601878
O O17 0.575790 0.500000 0.982786
O O18 0.650252 0.267570 0.927244
O O19 0.500000 0.253653 0.000000
O O20 0.237917 0.000000 0.875602
O O21 0.590140 0.500000 0.364759
#
# Coordination Sequence:
#
# PCOD8078759 Si02
#       8
#     8   8   8   8   8   8   8   8
#     4   9  18  31  45  63  92 126 153 182 230 288
#     4   8  14  26  45  67  89 116 151 190 231 279
#     4   9  18  34  51  63  84 124 165 191 220 272
#     4   9  16  28  49  74 100 128 156 187 222 263
#     4  10  17  26  46  72  91 110 146 197 242 277
#     4   8  15  29  49  74 100 122 146 180 222 262
#     4  10  19  31  51  74  94 120 156 196 231 269
#     4   8  15  28  46  67  88 114 153 196 232 270
#
# _framework density 17.646529000000001
#
# number of rings (size 3 to 8) (size 9 to 14) (size 15 to 20)
#    0.000    3.125    0.000    3.750    0.000    2.000 
#    0.000    1.875    0.000   22.500    0.000    0.000 
#    0.000    0.000    0.000    0.000    0.000    0.000 
#
# Total GULP energy -396522.172530 kJ/mol
# GULP energy per Si atom -12391.317892 kJ/mol
# Density = 1.760637 g / cm^3
# Si number density = 17.646529 Si / 1000 Ang^3
#
#
#
# Elastic Constant Matrix: (Units=GPa)
#
#
# Indices 1 2 3 4 5 6 
#
# 1 142.3365 32.0315 48.2502 -0.0001 13.6723 -0.0001
# 2 32.0315 39.8363 24.6645 -0.0002 5.9598 -0.0005
# 3 48.2502 24.6645 87.3347 0.0000 6.0680 0.0000
# 4 -0.0001 -0.0002 0.0000 23.6614 0.0000 6.0748
# 5 13.6723 5.9598 6.0680 0.0000 15.1306 -0.0001
# 6 -0.0001 -0.0005 0.0000 6.0748 -0.0001 23.1413
#
#
#
# Elastic Compliance Matrix: (Units=1/GPa)
#
#
# Indices 1 2 3 4 5 6 
#
# 1 0.009909 -0.004830 -0.003724 0.000000 -0.005558 0.000000
# 2 -0.004830 0.033955 -0.006475 0.000000 -0.006413 0.000001
# 3 -0.003724 -0.006475 0.015353 0.000000 -0.000241 0.000000
# 4 0.000000 0.000000 0.000000 0.045317 0.000000 -0.011896
# 5 -0.005558 -0.006413 -0.000241 0.000000 0.073736 0.000000
# 6 0.000000 0.000001 0.000000 -0.011896 0.000000 0.046336
#
#
# Mechanical properties :
#
#
# Convention : Reuss Voigt Hill
#
# Bulk Modulus (GPa) = 34.29588 53.26665 43.78127
# Shear Modulus (GPa) = 18.91181 23.35741 21.13461
#
# Velocity S-wave (km/s) = 3.27724 3.64211 3.46448
# Velocity P-wave (km/s) = 5.81356 6.92369 6.39277
#
# Compressibility (1/GPa) = 0.02915802
#
# Stress axis : x y z
#
# Youngs Moduli (GPa) = 100.91940 29.45051 65.13317
#
# Poissons Ratio (x) = 0.14225 0.24256
# Poissons Ratio (y) = 0.48747 0.42175
# Poissons Ratio (z) = 0.37584 0.19070
#
# Static dielectric constant tensor:
#      x y z
#    x 3.595580 0.000000 0.132570 
#    y 0.000000 2.923620 0.000000 
#    z 0.132570 0.000000 3.206260 
# 
# 
# High freq. dielectric constant tensor:
#      x y z
#    x 1.684610 0.000000 0.015930 
#    y 0.000000 1.645870 0.000000 
#    z 0.015930 0.000000 1.668670 
# 
# From -- ./inp_files/341966.got.cif
#   From: 2010.06.25/outbox.cif.g09.slc.cpg/sg12_171_cif.got.tgz:341966.got - 2010.06.28 00:19:55.
