data_PCOD8078915
_publ_section_title
;
Structure prediction by ZEFSAII (Michael W. Deem and Ramdas Pophale) SiO2 
 PCOD8078915
Probable space group: C 2/M
;
_chemical_formula_sum "Si O2"
_cell_formula_units_Z 64
_cell_length_a 29.806392
_cell_length_b 8.932658
_cell_length_c 30.782352
_cell_angle_alpha 90.000000
_cell_angle_beta 28.890257
_cell_angle_gamma 90.000000
_cell_volume 3959.670726
_symmetry_space_group_name_H-M "C 2/M"
_symmetry_group_IT_number 12
_symmetry_cell_setting 'monoclinic'
loop_
_space_group_symop_operation_xyz
x,y,z
-x,y,-z
-x,-y,-z
x,-y,z
1/2+x,1/2+y,z
1/2-x,1/2+y,-z
1/2-x,1/2-y,-z
1/2+x,1/2-y,z
loop_
_atom_site_type_symbol
_atom_site_label
_atom_site_fract_x
_atom_site_fract_y
_atom_site_fract_z
Si Si1 0.327432 0.671930 0.109156
Si Si2 0.824715 0.826015 0.880729
Si Si3 0.972921 0.323667 0.924003
Si Si4 0.982344 0.322487 0.582240
Si Si5 0.355908 0.177461 0.612375
Si Si6 0.132281 0.174069 0.059318
Si Si7 0.623774 0.174287 0.246073
Si Si8 0.344998 0.675296 0.195485
O O1 0.353471 0.500000 0.077659
O O2 0.222578 0.706678 0.184419
O O3 0.339721 0.710313 0.149052
O O4 0.396737 0.774835 0.023538
O O5 0.878279 0.794827 0.880400
O O6 0.889435 0.769799 0.786624
O O7 0.800221 0.000000 0.896545
O O8 0.730086 0.733240 0.958652
O O9 0.972834 0.500000 0.920641
O O10 0.950406 0.256916 0.895567
O O11 0.073718 0.269007 0.852130
O O12 0.972117 0.500000 0.590137
O O13 0.909761 0.256137 0.608600
O O14 0.955618 0.267151 0.653198
O O15 0.087434 0.274961 0.479392
O O16 0.249972 0.234029 0.701236
O O17 0.354189 0.000000 0.618574
O O18 0.128006 0.000000 0.051730
O O19 0.611698 0.000000 0.245038
O O20 0.362082 0.500000 0.189325
#
# Coordination Sequence:
#
# PCOD8078915 Si02
#       8
#     8   8   8   8   8   8   8   8
#     4  10  19  31  46  67  95 130 167 194 223 274
#     4  10  20  32  49  72  95 120 152 191 237 284
#     4  12  24  34  46  66  93 127 165 202 238 274
#     4   8  13  23  43  72  98 120 153 195 232 269
#     4   8  13  24  44  69  95 121 156 199 232 264
#     4  10  20  35  51  67  90 121 157 196 236 281
#     4  10  17  27  47  73 100 129 156 186 230 278
#     4  10  19  32  49  68  93 130 168 198 232 273
#
# _framework density 16.162960000000002
#
# number of rings (size 3 to 8) (size 9 to 14) (size 15 to 20)
#    0.000    2.250    2.500    3.000    0.000    3.500 
#    0.000    0.000    0.000    0.750    0.000    2.625 
#    0.000    0.000    0.000    0.000    0.000    0.000 
#
# Total GULP energy -396707.740043 kJ/mol
# GULP energy per Si atom -12397.116876 kJ/mol
# Density = 1.612617 g / cm^3
# Si number density = 16.162960 Si / 1000 Ang^3
#
#
#
# Elastic Constant Matrix: (Units=GPa)
#
#
# Indices 1 2 3 4 5 6 
#
# 1 97.5657 47.9167 58.9992 0.0029 13.0656 0.0043
# 2 47.9167 72.1345 41.4663 0.0082 3.0949 -0.0241
# 3 58.9992 41.4663 103.4842 -0.0073 15.9353 -0.0035
# 4 0.0029 0.0082 -0.0073 8.1752 0.0011 5.4022
# 5 13.0656 3.0949 15.9353 0.0011 22.8782 -0.0018
# 6 0.0043 -0.0241 -0.0035 5.4022 -0.0018 20.2921
#
#
#
# Elastic Compliance Matrix: (Units=1/GPa)
#
#
# Indices 1 2 3 4 5 6 
#
# 1 0.019282 -0.008737 -0.006697 0.000009 -0.005165 -0.000018
# 2 -0.008737 0.022145 -0.004704 -0.000051 0.005270 0.000041
# 3 -0.006697 -0.004704 0.016443 0.000029 -0.006992 -0.000010
# 4 0.000009 -0.000051 0.000029 0.148433 -0.000029 -0.039516
# 5 -0.005165 0.005270 -0.006992 -0.000029 0.050817 0.000018
# 6 -0.000018 0.000041 -0.000010 -0.039516 0.000018 0.059800
#
#
# Mechanical properties :
#
#
# Convention : Reuss Voigt Hill
#
# Bulk Modulus (GPa) = 56.83703 63.32763 60.08233
# Shear Modulus (GPa) = 13.77185 18.58927 16.18056
#
# Velocity S-wave (km/s) = 2.92218 3.39501 3.16743
# Velocity P-wave (km/s) = 6.82838 7.39148 7.11550
#
# Compressibility (1/GPa) = 0.01759416
#
# Stress axis : x y z
#
# Youngs Moduli (GPa) = 51.86242 45.15785 60.81703
#
# Poissons Ratio (x) = 0.39455 0.40727
# Poissons Ratio (y) = 0.45313 0.28606
# Poissons Ratio (z) = 0.34731 0.21241
#
# Static dielectric constant tensor:
#      x y z
#    x 3.070870 -0.000030 0.153350 
#    y -0.000030 2.844020 0.000010 
#    z 0.153350 0.000010 3.284940 
# 
# 
# High freq. dielectric constant tensor:
#      x y z
#    x 1.606600 0.000000 0.014070 
#    y 0.000000 1.600780 0.000000 
#    z 0.014070 0.000000 1.613490 
# 
# From -- ./inp_files/384519.got.cif
#   From: 2010.06.25/outbox.cif.g09.slc.cpg/sg12_193_cif.got.tgz:384519.got - 2010.06.28 00:19:55.
