data_PCOD8078447
_publ_section_title
;
Structure prediction by ZEFSAII (Michael W. Deem and Ramdas Pophale) SiO2 
 PCOD8078447
Probable space group: C 2/M
;
_chemical_formula_sum "Si O2"
_cell_formula_units_Z 52
_cell_length_a 28.351009
_cell_length_b 19.769987
_cell_length_c 14.791642
_cell_angle_alpha 90.000000
_cell_angle_beta 159.976641
_cell_angle_gamma 90.000000
_cell_volume 2838.762962
_symmetry_space_group_name_H-M "C 2/M"
_symmetry_group_IT_number 12
_symmetry_cell_setting 'monoclinic'
loop_
_space_group_symop_operation_xyz
x,y,z
-x,y,-z
-x,-y,-z
x,-y,z
1/2+x,1/2+y,z
1/2-x,1/2+y,-z
1/2-x,1/2-y,-z
1/2+x,1/2-y,z
loop_
_atom_site_type_symbol
_atom_site_label
_atom_site_fract_x
_atom_site_fract_y
_atom_site_fract_z
Si Si1 0.648241 0.145400 0.811889
Si Si2 0.594198 0.000000 0.757134
Si Si3 0.147082 0.500000 0.209371
Si Si4 0.391250 0.266003 0.545302
Si Si5 0.687172 0.736705 0.020230
Si Si6 0.529223 0.000000 0.267672
Si Si7 0.705402 0.856149 0.327366
Si Si8 0.918422 0.358300 0.710599
O O1 0.500000 0.143110 0.500000
O O2 0.759742 0.172293 0.940865
O O3 0.685162 0.069576 0.916024
O O4 0.642378 0.198691 0.881775
O O5 0.500000 0.000000 0.500000
O O6 0.499222 0.000000 0.676228
O O7 0.239936 0.435601 0.399364
O O8 0.116721 0.500000 0.047188
O O9 0.000000 0.500000 0.000000
O O10 0.302767 0.266477 0.294852
O O11 0.332262 0.315642 0.515386
O O12 0.387629 0.189211 0.571334
O O13 0.548271 0.290650 0.816421
O O14 0.612251 0.933565 0.382907
O O15 0.678345 0.833531 0.381489
O O16 0.574557 0.849206 0.025756
#
# Coordination Sequence:
#
# PCOD8078447 Si02
#       8
#     8   4   4   8   8   4   8   8
#     4  10  21  40  60  86 117 148 198 249 302 347
#     4  10  22  34  59  91 116 141 198 258 292 341
#     4  10  16  34  59  86 115 154 201 243 285 341
#     4  12  22  36  57  89 119 156 197 235 295 349
#     4  11  23  38  60  83 118 160 194 237 297 365
#     4  10  18  32  60  84 115 149 199 244 292 339
#     4  10  19  34  56  87 122 151 195 248 285 337
#     4  10  19  34  56  88 117 153 193 242 290 334
#
# _framework density 18.317837999999998
#
# number of rings (size 3 to 8) (size 9 to 14) (size 15 to 20)
#    0.000    1.538    6.154    1.385    4.308    0.000 
#    0.000    0.769    0.000    0.923    0.000    2.154 
#    0.000    0.000    0.000    0.000    0.000    0.000 
#
# Total GULP energy -322213.869782 kJ/mol
# GULP energy per Si atom -12392.841145 kJ/mol
# Density = 1.827615 g / cm^3
# Si number density = 18.317838 Si / 1000 Ang^3
#
#
#
# Elastic Constant Matrix: (Units=GPa)
#
#
# Indices 1 2 3 4 5 6 
#
# 1 97.9223 45.7790 21.0609 0.0000 10.1590 0.0000
# 2 45.7790 134.7527 29.0336 0.0000 23.3114 0.0000
# 3 21.0609 29.0336 51.2151 0.0000 10.8379 0.0000
# 4 0.0000 0.0000 0.0000 15.0047 0.0000 -4.6940
# 5 10.1590 23.3114 10.8379 0.0000 32.7205 0.0000
# 6 0.0000 0.0000 0.0000 -4.6940 0.0000 21.8912
#
#
#
# Elastic Compliance Matrix: (Units=1/GPa)
#
#
# Indices 1 2 3 4 5 6 
#
# 1 0.012569 -0.003544 -0.003084 0.000000 -0.000356 0.000000
# 2 -0.003544 0.010207 -0.003251 0.000000 -0.005095 0.000000
# 3 -0.003084 -0.003251 0.023598 0.000000 -0.004543 0.000000
# 4 0.000000 0.000000 0.000000 0.071438 0.000000 0.015318
# 5 -0.000356 -0.005095 -0.004543 0.000000 0.035807 0.000000
# 6 0.000000 0.000000 0.000000 0.015318 0.000000 0.048965
#
#
# Mechanical properties :
#
#
# Convention : Reuss Voigt Hill
#
# Bulk Modulus (GPa) = 37.57149 52.84854 45.21001
# Shear Modulus (GPa) = 21.62498 26.45770 24.04134
#
# Velocity S-wave (km/s) = 3.43963 3.80461 3.62671
# Velocity P-wave (km/s) = 6.02745 6.94360 6.50168
#
# Compressibility (1/GPa) = 0.02661593
#
# Stress axis : x y z
#
# Youngs Moduli (GPa) = 79.55877 97.97482 42.37650
#
# Poissons Ratio (x) = 0.34722 0.13071
# Poissons Ratio (y) = 0.28195 0.13775
# Poissons Ratio (z) = 0.24539 0.31848
#
# Static dielectric constant tensor:
#      x y z
#    x 3.589390 0.000000 -0.016820 
#    y 0.000000 3.800940 0.000000 
#    z -0.016820 0.000000 3.063000 
# 
# 
# High freq. dielectric constant tensor:
#      x y z
#    x 1.729770 0.000000 -0.008660 
#    y 0.000000 1.720790 0.000000 
#    z -0.008660 0.000000 1.661870 
# 
# From -- ./inp_files/247245.got.cif
#   From: 2010.06.25/outbox.cif.g09.slc.cpg/sg12_124_cif.got.tgz:247245.got - 2010.06.28 00:19:55.
