data_PCOD8078400
_publ_section_title
;
Structure prediction by ZEFSAII (Michael W. Deem and Ramdas Pophale) SiO2 
 PCOD8078400
Probable space group: C 2/M
;
_chemical_formula_sum "Si O2"
_cell_formula_units_Z 48
_cell_length_a 7.239687
_cell_length_b 18.917209
_cell_length_c 16.561267
_cell_angle_alpha 90.000000
_cell_angle_beta 98.191203
_cell_angle_gamma 90.000000
_cell_volume 2245.003565
_symmetry_space_group_name_H-M "C 2/M"
_symmetry_group_IT_number 12
_symmetry_cell_setting 'monoclinic'
loop_
_space_group_symop_operation_xyz
x,y,z
-x,y,-z
-x,-y,-z
x,-y,z
1/2+x,1/2+y,z
1/2-x,1/2+y,-z
1/2-x,1/2-y,-z
1/2+x,1/2-y,z
loop_
_atom_site_type_symbol
_atom_site_label
_atom_site_fract_x
_atom_site_fract_y
_atom_site_fract_z
Si Si1 0.737100 0.917613 0.322296
Si Si2 0.082560 0.675756 0.647630
Si Si3 0.235595 0.845597 0.838499
Si Si4 0.783699 0.168212 0.990022
Si Si5 0.695636 0.315310 0.180666
Si Si6 0.047445 0.173924 0.410124
O O1 0.589204 0.877966 0.371050
O O2 0.698913 0.900833 0.225456
O O3 0.940947 0.891956 0.363575
O O4 0.719357 0.000000 0.336692
O O5 0.182298 0.658435 0.737937
O O6 0.007042 0.755741 0.642767
O O7 0.229825 0.662476 0.584471
O O8 0.321911 0.769571 0.822440
O O9 0.012079 0.844076 0.822921
O O10 0.302582 0.869206 0.934468
O O11 0.705475 0.151546 0.894885
O O12 0.750000 0.250000 0.000000
O O13 0.000000 0.150043 0.000000
O O14 0.000000 0.184027 0.500000
#
# Coordination Sequence:
#
# PCOD8078400 Si02
#       6
#     8   8   8   8   8   8
#     4  12  27  43  64  96 135 176 215 263 327 390
#     4  12  22  41  69 100 128 165 214 270 320 385
#     4  10  17  33  54  87 130 164 206 261 315 367
#     4   8  16  25  48  85 123 154 200 262 310 356
#     4  10  16  31  59  92 117 161 215 264 312 365
#     4  12  25  44  74 100 126 164 218 271 327 390
#
# _framework density 21.38081
#
# number of rings (size 3 to 8) (size 9 to 14) (size 15 to 20)
#    0.000    1.333    5.000    1.500    0.000    2.333 
#    0.000    0.833    0.000    6.500    0.000    0.000 
#    0.000    0.000    0.000    0.000    0.000    0.000 
#
# Total GULP energy -297429.127125 kJ/mol
# GULP energy per Si atom -12392.880297 kJ/mol
# Density = 2.133215 g / cm^3
# Si number density = 21.380810 Si / 1000 Ang^3
#
#
#
# Elastic Constant Matrix: (Units=GPa)
#
#
# Indices 1 2 3 4 5 6 
#
# 1 70.8191 27.6886 9.8856 0.0000 -31.7491 0.0000
# 2 27.6886 86.0131 22.0138 0.0000 -4.5506 0.0000
# 3 9.8856 22.0138 95.9773 0.0000 -15.7875 0.0000
# 4 0.0000 0.0000 0.0000 8.6647 0.0000 -1.1291
# 5 -31.7491 -4.5506 -15.7875 0.0000 28.5403 0.0000
# 6 0.0000 0.0000 0.0000 -1.1291 0.0000 19.5435
#
#
#
# Elastic Compliance Matrix: (Units=1/GPa)
#
#
# Indices 1 2 3 4 5 6 
#
# 1 0.036359 -0.010936 0.005643 0.000000 0.041825 0.000000
# 2 -0.010936 0.015646 -0.004459 0.000000 -0.012137 0.000000
# 3 0.005643 -0.004459 0.012955 0.000000 0.012733 0.000000
# 4 0.000000 0.000000 0.000000 0.116286 0.000000 0.006718
# 5 0.041825 -0.012137 0.012733 0.000000 0.086674 0.000000
# 6 0.000000 0.000000 0.000000 0.006718 0.000000 0.051556
#
#
# Mechanical properties :
#
#
# Convention : Reuss Voigt Hill
#
# Bulk Modulus (GPa) = 21.99884 41.33173 31.66528
# Shear Modulus (GPa) = 14.11908 24.23113 19.17510
#
# Velocity S-wave (km/s) = 2.57254 3.37012 2.99797
# Velocity P-wave (km/s) = 4.37440 5.87510 5.17939
#
# Compressibility (1/GPa) = 0.04545695
#
# Stress axis : x y z
#
# Youngs Moduli (GPa) = 27.50347 63.91605 77.19015
#
# Poissons Ratio (x) = 0.69898 -0.43560
# Poissons Ratio (y) = 0.30078 0.34416
# Poissons Ratio (z) = -0.15521 0.28498
#
# Static dielectric constant tensor:
#      x y z
#    x 4.171620 0.000000 -0.176340 
#    y 0.000000 3.137110 0.000000 
#    z -0.176340 0.000000 4.473280 
# 
# 
# High freq. dielectric constant tensor:
#      x y z
#    x 1.853880 0.000000 -0.012410 
#    y 0.000000 1.751940 0.000000 
#    z -0.012410 0.000000 1.864630 
# 
# From -- ./inp_files/256214.got.cif
#   From: 2010.06.25/outbox.cif.g09.slc.cpg/sg12_129_cif.got.tgz:256214.got - 2010.06.28 00:19:55.
