data_PCOD8078483
_publ_section_title
;
Structure prediction by ZEFSAII (Michael W. Deem and Ramdas Pophale) SiO2 
 PCOD8078483
Probable space group: C 2/M
;
_chemical_formula_sum "Si O2"
_cell_formula_units_Z 48
_cell_length_a 22.077954
_cell_length_b 29.085277
_cell_length_c 9.125969
_cell_angle_alpha 90.000000
_cell_angle_beta 26.321350
_cell_angle_gamma 90.000000
_cell_volume 2598.434747
_symmetry_space_group_name_H-M "C 2/M"
_symmetry_group_IT_number 12
_symmetry_cell_setting 'monoclinic'
loop_
_space_group_symop_operation_xyz
x,y,z
-x,y,-z
-x,-y,-z
x,-y,z
1/2+x,1/2+y,z
1/2-x,1/2+y,-z
1/2-x,1/2-y,-z
1/2+x,1/2-y,z
loop_
_atom_site_type_symbol
_atom_site_label
_atom_site_fract_x
_atom_site_fract_y
_atom_site_fract_z
Si Si1 0.257184 0.400043 0.784082
Si Si2 0.148198 0.307848 0.116996
Si Si3 0.949921 0.116136 0.775275
Si Si4 0.455873 0.053466 0.939672
Si Si5 0.367506 0.708795 0.882382
Si Si6 0.218108 0.553977 0.181365
O O1 0.421630 0.399277 0.404176
O O2 0.198868 0.348575 0.903413
O O3 0.189080 0.425975 0.795674
O O4 0.218341 0.425599 0.018658
O O5 0.162203 0.260303 0.990882
O O6 0.000000 0.319207 0.500000
O O7 0.242389 0.307444 0.055592
O O8 0.894720 0.167458 0.940985
O O9 0.000000 0.122047 0.500000
O O10 0.831936 0.077813 0.038473
O O11 0.570259 0.063814 0.569948
O O12 0.430943 0.000000 0.014812
O O13 0.500000 0.075189 0.000000
O O14 0.500000 0.718404 0.500000
O O15 0.251693 0.500000 0.102374
#
# Coordination Sequence:
#
# PCOD8078483 Si02
#       6
#     8   8   8   8   8   8
#     4  11  19  31  51  78 102 130 165 207 251 296
#     4  10  17  23  44  71 103 135 164 195 248 296
#     4   9  17  30  45  72 109 131 158 202 250 299
#     4  10  22  38  52  70 100 134 169 209 250 296
#     4   9  15  28  39  66 112 136 154 198 250 293
#     4  10  19  32  52  76 100 127 162 206 254 299
#
# _framework density 18.472660000000001
#
# number of rings (size 3 to 8) (size 9 to 14) (size 15 to 20)
#    0.000    2.167    5.000    2.000    0.000    5.000 
#    0.000    0.833    0.000    3.000    0.000    4.667 
#    0.000    0.000    0.000    0.000    0.000    0.000 
#
# Total GULP energy -297415.604356 kJ/mol
# GULP energy per Si atom -12392.316848 kJ/mol
# Density = 1.843062 g / cm^3
# Si number density = 18.472660 Si / 1000 Ang^3
#
#
#
# Elastic Constant Matrix: (Units=GPa)
#
#
# Indices 1 2 3 4 5 6 
#
# 1 101.8819 40.7344 36.1569 0.0006 -32.3672 0.0001
# 2 40.7344 118.7134 28.5987 -0.0005 -14.1226 0.0003
# 3 36.1569 28.5987 40.6802 0.0019 -31.4902 0.0002
# 4 0.0006 -0.0005 0.0019 19.2809 -0.0004 -13.7482
# 5 -32.3672 -14.1226 -31.4902 -0.0004 33.7373 -0.0001
# 6 0.0001 0.0003 0.0002 -13.7482 -0.0001 21.7860
#
#
#
# Elastic Compliance Matrix: (Units=1/GPa)
#
#
# Indices 1 2 3 4 5 6 
#
# 1 0.015690 -0.003260 -0.003811 0.000000 0.010130 0.000000
# 2 -0.003260 0.011577 -0.014095 0.000003 -0.011438 0.000001
# 3 -0.003811 -0.014095 0.109853 -0.000016 0.092980 -0.000010
# 4 0.000000 0.000003 -0.000016 0.094295 -0.000012 0.059506
# 5 0.010130 -0.011438 0.092980 -0.000012 0.121358 -0.000007
# 6 0.000000 0.000001 -0.000010 0.059506 -0.000007 0.083452
#
#
# Mechanical properties :
#
#
# Convention : Reuss Voigt Hill
#
# Bulk Modulus (GPa) = 10.55000 52.47284 31.51142
# Shear Modulus (GPa) = 9.80092 25.34654 17.57373
#
# Velocity S-wave (km/s) = 2.30590 3.70822 3.08772
# Velocity P-wave (km/s) = 3.57954 6.84119 5.45962
#
# Compressibility (1/GPa) = 0.09478669
#
# Stress axis : x y z
#
# Youngs Moduli (GPa) = 63.73572 86.37602 9.10304
#
# Poissons Ratio (x) = 0.28162 0.03469
# Poissons Ratio (y) = 0.20780 0.12831
# Poissons Ratio (z) = 0.24291 1.21749
#
# Static dielectric constant tensor:
#      x y z
#    x 3.152430 0.000000 -0.500820 
#    y 0.000000 3.877640 0.000000 
#    z -0.500820 0.000000 3.251800 
# 
# 
# High freq. dielectric constant tensor:
#      x y z
#    x 1.673250 0.000000 -0.057390 
#    y 0.000000 1.740570 0.000000 
#    z -0.057390 0.000000 1.694710 
# 
# From -- ./inp_files/91381.got.cif
#   From: 2010.06.25/outbox.cif.g09.slc.cpg/sg12_46_cif.got.tgz:91381.got - 2010.06.28 00:19:55.
