data_PCOD8078765
_publ_section_title
;
Structure prediction by ZEFSAII (Michael W. Deem and Ramdas Pophale) SiO2 
 PCOD8078765
Probable space group: C 2/M
;
_chemical_formula_sum "Si O2"
_cell_formula_units_Z 56
_cell_length_a 14.378221
_cell_length_b 9.013328
_cell_length_c 26.739803
_cell_angle_alpha 90.000000
_cell_angle_beta 124.589478
_cell_angle_gamma 90.000000
_cell_volume 2852.826321
_symmetry_space_group_name_H-M "C 2/M"
_symmetry_group_IT_number 12
_symmetry_cell_setting 'monoclinic'
loop_
_space_group_symop_operation_xyz
x,y,z
-x,y,-z
-x,-y,-z
x,-y,z
1/2+x,1/2+y,z
1/2-x,1/2+y,-z
1/2-x,1/2-y,-z
1/2+x,1/2-y,z
loop_
_atom_site_type_symbol
_atom_site_label
_atom_site_fract_x
_atom_site_fract_y
_atom_site_fract_z
Si Si1 0.261821 0.670317 0.683558
Si Si2 0.453127 0.829015 0.320103
Si Si3 0.840523 0.823443 0.432541
Si Si4 0.938707 0.325603 0.547212
Si Si5 0.987881 0.169806 0.227293
Si Si6 0.901318 0.674206 0.006506
Si Si7 0.352498 0.325299 0.092227
O O1 0.240077 0.500000 0.660928
O O2 0.164825 0.724405 0.691618
O O3 0.264556 0.771082 0.633767
O O4 0.381144 0.689797 0.747851
O O5 0.556789 0.801534 0.391234
O O6 0.467937 0.739808 0.274613
O O7 0.446698 0.000000 0.303556
O O8 0.834206 0.760161 0.487903
O O9 0.947886 0.746345 0.439893
O O10 0.849553 0.000000 0.436663
O O11 0.933813 0.500000 0.533308
O O12 0.910886 0.240443 0.160083
O O13 0.953655 0.000000 0.222603
O O14 0.912973 0.500000 0.018910
O O15 0.779948 0.715643 0.945683
O O16 0.914250 0.752219 0.063828
O O17 0.000000 0.732620 0.000000
O O18 0.371952 0.500000 0.093606
#
# Coordination Sequence:
#
# PCOD8078765 Si02
#       7
#     8   8   8   8   8   8   8
#     4   9  19  36  52  69  99 139 173 207 263 323
#     4   9  19  34  52  73  99 132 172 213 256 312
#     4  10  17  26  46  75  99 124 168 223 266 306
#     4   9  16  29  48  69  98 136 170 208 266 325
#     4  10  21  36  54  75 104 139 174 214 256 301
#     4   9  18  34  56  81 110 141 171 207 253 301
#     4   9  19  35  53  78 109 139 174 212 250 298
#
# _framework density 19.629656000000001
#
# number of rings (size 3 to 8) (size 9 to 14) (size 15 to 20)
#    0.000    2.714    0.000    3.429    0.000    5.429 
#    0.000    0.714    0.000    0.000    0.000    0.000 
#    0.000    0.000    0.000    0.000    0.000    0.000 
#
# Total GULP energy -347034.602910 kJ/mol
# GULP energy per Si atom -12394.092961 kJ/mol
# Density = 1.958498 g / cm^3
# Si number density = 19.629656 Si / 1000 Ang^3
#
#
#
# Elastic Constant Matrix: (Units=GPa)
#
#
# Indices 1 2 3 4 5 6 
#
# 1 61.6678 18.6133 33.1377 0.0000 -13.3358 0.0000
# 2 18.6133 73.5623 45.7623 0.0000 -6.0676 0.0000
# 3 33.1377 45.7623 150.1133 0.0000 -9.8785 0.0000
# 4 0.0000 0.0000 0.0000 29.6082 0.0000 -10.6891
# 5 -13.3358 -6.0676 -9.8785 0.0000 23.3658 0.0000
# 6 0.0000 0.0000 0.0000 -10.6891 0.0000 17.2361
#
#
#
# Elastic Compliance Matrix: (Units=1/GPa)
#
#
# Indices 1 2 3 4 5 6 
#
# 1 0.020814 -0.002465 -0.003193 0.000000 0.009890 0.000000
# 2 -0.002465 0.017184 -0.004622 0.000000 0.001101 0.000000
# 3 -0.003193 -0.004622 0.008822 0.000000 0.000707 0.000000
# 4 0.000000 0.000000 0.000000 0.043518 0.000000 0.026988
# 5 0.009890 0.001101 0.000707 0.000000 0.049027 0.000000
# 6 0.000000 0.000000 0.000000 0.026988 0.000000 0.074755
#
#
# Mechanical properties :
#
#
# Convention : Reuss Voigt Hill
#
# Bulk Modulus (GPa) = 38.07887 53.37442 45.72665
# Shear Modulus (GPa) = 20.53970 26.56403 23.55186
#
# Velocity S-wave (km/s) = 3.23826 3.68266 3.46759
# Velocity P-wave (km/s) = 5.78122 6.73293 6.27515
#
# Compressibility (1/GPa) = 0.02626128
#
# Stress axis : x y z
#
# Youngs Moduli (GPa) = 48.04446 58.19485 113.35395
#
# Poissons Ratio (x) = 0.14344 0.36189
# Poissons Ratio (y) = 0.11842 0.52391
# Poissons Ratio (z) = 0.15338 0.26897
#
# Static dielectric constant tensor:
#      x y z
#    x 3.461310 0.000000 0.101640 
#    y 0.000000 3.446410 0.000000 
#    z 0.101640 0.000000 4.134760 
# 
# 
# High freq. dielectric constant tensor:
#      x y z
#    x 1.749960 0.000000 0.002170 
#    y 0.000000 1.755540 0.000000 
#    z 0.002170 0.000000 1.771870 
# 
# From -- ./inp_files/360030.got.cif
#   From: 2010.06.25/outbox.cif.g09.slc.cpg/sg12_181_cif.got.tgz:360030.got - 2010.06.28 00:19:55.
