data_PCOD8078997
_publ_section_title
;
Structure prediction by ZEFSAII (Michael W. Deem and Ramdas Pophale) SiO2 
 PCOD8078997
Probable space group: C 2/M
;
_chemical_formula_sum "Si O2"
_cell_formula_units_Z 56
_cell_length_a 18.205643
_cell_length_b 17.642930
_cell_length_c 11.921578
_cell_angle_alpha 90.000000
_cell_angle_beta 62.278502
_cell_angle_gamma 90.000000
_cell_volume 3389.700116
_symmetry_space_group_name_H-M "C 2/M"
_symmetry_group_IT_number 12
_symmetry_cell_setting 'monoclinic'
loop_
_space_group_symop_operation_xyz
x,y,z
-x,y,-z
-x,-y,-z
x,-y,z
1/2+x,1/2+y,z
1/2-x,1/2+y,-z
1/2-x,1/2-y,-z
1/2+x,1/2-y,z
loop_
_atom_site_type_symbol
_atom_site_label
_atom_site_fract_x
_atom_site_fract_y
_atom_site_fract_z
Si Si1 0.567637 0.417481 0.856720
Si Si2 0.142433 0.414022 0.075188
Si Si3 0.001548 0.363304 0.324301
Si Si4 0.517047 0.735244 0.818096
Si Si5 0.377174 0.088556 0.574696
Si Si6 0.737617 0.360779 0.812370
Si Si7 0.368364 0.776744 0.068777
O O1 0.562688 0.500000 0.801122
O O2 0.551475 0.350548 0.778096
O O3 0.654678 0.409322 0.858197
O O4 0.500000 0.408733 0.000000
O O5 0.156570 0.500000 0.025566
O O6 0.207872 0.393097 0.125019
O O7 0.047580 0.405390 0.187914
O O8 0.156764 0.360046 0.957327
O O9 0.984616 0.276069 0.301249
O O10 0.912813 0.401138 0.422601
O O11 0.061421 0.365972 0.387737
O O12 0.579260 0.783038 0.853943
O O13 0.424538 0.734027 0.935670
O O14 0.287733 0.127383 0.659032
O O15 0.374647 0.000000 0.609104
O O16 0.715000 0.272698 0.851115
#
# Coordination Sequence:
#
# PCOD8078997 Si02
#       7
#     8   8   8   8   8   8   8
#     4  10  17  28  46  65  89 117 148 189 227 256
#     4  10  18  28  44  67  93 120 148 181 218 266
#     4   9  17  29  47  64  91 123 146 180 223 262
#     4   9  16  31  45  64  92 121 151 179 218 274
#     4  10  18  30  47  71  93 112 152 194 220 259
#     4  10  17  29  46  66  90 116 147 187 231 263
#     4   9  17  30  43  63  93 121 149 178 218 272
#
# _framework density 16.520636
#
# number of rings (size 3 to 8) (size 9 to 14) (size 15 to 20)
#    0.000    2.429    2.857    4.286    0.000    0.000 
#    0.000   10.000    0.000    0.000    0.000    3.000 
#    0.000    0.000    0.000    0.000    0.000    0.000 
#
# Total GULP energy -346923.466021 kJ/mol
# GULP energy per Si atom -12390.123786 kJ/mol
# Density = 1.648303 g / cm^3
# Si number density = 16.520636 Si / 1000 Ang^3
#
#
#
# Elastic Constant Matrix: (Units=GPa)
#
#
# Indices 1 2 3 4 5 6 
#
# 1 57.5668 47.2762 34.3383 0.0000 -19.3794 0.0000
# 2 47.2762 150.6444 46.7842 0.0000 -1.5896 0.0000
# 3 34.3383 46.7842 73.8098 0.0000 -19.3124 0.0000
# 4 0.0000 0.0000 0.0000 24.7756 0.0000 1.9042
# 5 -19.3794 -1.5896 -19.3124 0.0000 22.6562 0.0000
# 6 0.0000 0.0000 0.0000 1.9042 0.0000 9.2657
#
#
#
# Elastic Compliance Matrix: (Units=1/GPa)
#
#
# Indices 1 2 3 4 5 6 
#
# 1 0.037559 -0.010427 -0.003410 0.000000 0.028489 0.000000
# 2 -0.010427 0.011625 -0.005969 0.000000 -0.013192 0.000000
# 3 -0.003410 -0.005969 0.023226 0.000000 0.016462 0.000000
# 4 0.000000 0.000000 0.000000 0.041010 0.000000 -0.008428
# 5 0.028489 -0.013192 0.016462 0.000000 0.081613 0.000000
# 6 0.000000 0.000000 0.000000 -0.008428 0.000000 0.109657
#
#
# Mechanical properties :
#
#
# Convention : Reuss Voigt Hill
#
# Bulk Modulus (GPa) = 30.49087 59.86870 45.17978
# Shear Modulus (GPa) = 14.07519 21.58100 17.82809
#
# Velocity S-wave (km/s) = 2.92203 3.61821 3.28859
# Velocity P-wave (km/s) = 5.46632 7.33298 6.46735
#
# Compressibility (1/GPa) = 0.03279670
#
# Stress axis : x y z
#
# Youngs Moduli (GPa) = 26.62475 86.02079 43.05593
#
# Poissons Ratio (x) = 0.89697 0.14682
# Poissons Ratio (y) = 0.27763 0.25700
# Poissons Ratio (z) = 0.09079 0.51346
#
# Static dielectric constant tensor:
#      x y z
#    x 3.100360 0.000000 -0.383620 
#    y 0.000000 3.306700 0.000000 
#    z -0.383620 0.000000 3.376130 
# 
# 
# High freq. dielectric constant tensor:
#      x y z
#    x 1.620890 0.000000 -0.025300 
#    y 0.000000 1.634620 0.000000 
#    z -0.025300 0.000000 1.606740 
# 
# From -- ./inp_files/158820.got.cif
#   From: 2010.06.25/outbox.cif.g09.slc.cpg/sg12_80_cif.got.tgz:158820.got - 2010.06.28 00:19:55.
