data_PCOD8078384
_publ_section_title
;
Structure prediction by ZEFSAII (Michael W. Deem and Ramdas Pophale) SiO2 
 PCOD8078384
Probable space group: C 2/M
;
_chemical_formula_sum "Si O2"
_cell_formula_units_Z 44
_cell_length_a 18.813280
_cell_length_b 12.126558
_cell_length_c 13.963716
_cell_angle_alpha 90.000000
_cell_angle_beta 133.777907
_cell_angle_gamma 90.000000
_cell_volume 2300.152074
_symmetry_space_group_name_H-M "C 2/M"
_symmetry_group_IT_number 12
_symmetry_cell_setting 'monoclinic'
loop_
_space_group_symop_operation_xyz
x,y,z
-x,y,-z
-x,-y,-z
x,-y,z
1/2+x,1/2+y,z
1/2-x,1/2+y,-z
1/2-x,1/2-y,-z
1/2+x,1/2-y,z
loop_
_atom_site_type_symbol
_atom_site_label
_atom_site_fract_x
_atom_site_fract_y
_atom_site_fract_z
Si Si1 0.451252 0.500000 0.053747
Si Si2 0.451921 0.741785 0.247242
Si Si3 0.472840 0.500000 0.684349
Si Si4 0.914087 0.375080 0.497300
Si Si5 0.701026 0.725716 0.739453
Si Si6 0.086495 0.763999 0.001876
Si Si7 0.615513 0.500000 0.584426
O O1 0.543202 0.500000 0.215754
O O2 0.385353 0.390701 0.998269
O O3 0.500000 0.500000 0.000000
O O4 0.464467 0.610858 0.276117
O O5 0.547161 0.807661 0.374839
O O6 0.353028 0.769582 0.214742
O O7 0.443074 0.785242 0.129343
O O8 0.376967 0.500000 0.526058
O O9 0.885370 0.500000 0.499515
O O10 0.818718 0.313809 0.363996
O O11 0.000000 0.373596 0.500000
O O12 0.664628 0.607028 0.672806
O O13 0.816499 0.709043 0.865173
O O14 0.000000 0.751052 0.000000
O O15 0.500000 0.500000 0.500000
#
# Coordination Sequence:
#
# PCOD8078384 Si02
#       7
#     4   8   4   8   8   8   4
#     4   8  18  36  58  74 106 154 188 224 269 318
#     4  10  18  35  58  83 111 142 185 231 279 330
#     4  10  16  30  60  86 106 137 181 235 279 316
#     4   9  18  32  54  82 113 142 172 227 286 328
#     4  11  20  33  59  87 109 143 187 232 277 337
#     4  10  22  38  55  78 116 152 188 229 278 328
#     4  12  18  34  59  90 114 135 182 241 286 326
#
# _framework density 19.129170999999999
#
# number of rings (size 3 to 8) (size 9 to 14) (size 15 to 20)
#    0.000    2.000    3.636    1.091    1.273    0.000 
#    1.636    1.364    0.000    0.000    0.000    0.000 
#    0.000    0.000    0.000    0.000    0.000    0.000 
#
# Total GULP energy -272538.228248 kJ/mol
# GULP energy per Si atom -12388.101284 kJ/mol
# Density = 1.908563 g / cm^3
# Si number density = 19.129171 Si / 1000 Ang^3
#
#
#
# Elastic Constant Matrix: (Units=GPa)
#
#
# Indices 1 2 3 4 5 6 
#
# 1 75.9872 23.0386 67.4494 0.0000 -11.9205 0.0000
# 2 23.0386 113.0183 61.8696 0.0000 -1.6747 0.0000
# 3 67.4494 61.8696 173.3181 0.0000 -14.9436 0.0000
# 4 0.0000 0.0000 0.0000 28.1631 0.0000 -2.2405
# 5 -11.9205 -1.6747 -14.9436 0.0000 26.3741 0.0000
# 6 0.0000 0.0000 0.0000 -2.2405 0.0000 12.1406
#
#
#
# Elastic Compliance Matrix: (Units=1/GPa)
#
#
# Indices 1 2 3 4 5 6 
#
# 1 0.020724 0.000034 -0.007643 0.000000 0.005039 0.000000
# 2 0.000034 0.011062 -0.004101 0.000000 -0.001606 0.000000
# 3 -0.007643 -0.004101 0.010395 0.000000 0.002175 0.000000
# 4 0.000000 0.000000 0.000000 0.036036 0.000000 0.006650
# 5 0.005039 -0.001606 0.002175 0.000000 0.041324 0.000000
# 6 0.000000 0.000000 0.000000 0.006650 0.000000 0.083596
#
#
# Mechanical properties :
#
#
# Convention : Reuss Voigt Hill
#
# Bulk Modulus (GPa) = 53.29621 74.11541 63.70581
# Shear Modulus (GPa) = 21.47660 27.33330 24.40495
#
# Velocity S-wave (km/s) = 3.35433 3.78415 3.57571
# Velocity P-wave (km/s) = 6.55162 7.61064 7.10090
#
# Compressibility (1/GPa) = 0.01876306
#
# Stress axis : x y z
#
# Youngs Moduli (GPa) = 48.25226 90.39828 96.19620
#
# Poissons Ratio (x) = -0.00307 0.73522
# Poissons Ratio (y) = -0.00164 0.39446
# Poissons Ratio (z) = 0.36879 0.37068
#
# Static dielectric constant tensor:
#      x y z
#    x 3.171100 0.000000 -0.457180 
#    y 0.000000 3.253610 0.000000 
#    z -0.457180 0.000000 3.776920 
# 
# 
# High freq. dielectric constant tensor:
#      x y z
#    x 1.700480 0.000000 -0.031150 
#    y 0.000000 1.744250 0.000000 
#    z -0.031150 0.000000 1.755780 
# 
# From -- ./inp_files/223511.got.cif
#   From: 2010.06.25/outbox.cif.g09.slc.cpg/sg12_112_cif.got.tgz:223511.got - 2010.06.28 00:19:55.
