data_PCOD8078671
_publ_section_title
;
Structure prediction by ZEFSAII (Michael W. Deem and Ramdas Pophale) SiO2 
 PCOD8078671
Probable space group: C 2/M
;
_chemical_formula_sum "Si O2"
_cell_formula_units_Z 56
_cell_length_a 25.346361
_cell_length_b 8.496702
_cell_length_c 15.241974
_cell_angle_alpha 90.000000
_cell_angle_beta 85.293309
_cell_angle_gamma 90.000000
_cell_volume 3271.449506
_symmetry_space_group_name_H-M "C 2/M"
_symmetry_group_IT_number 12
_symmetry_cell_setting 'monoclinic'
loop_
_space_group_symop_operation_xyz
x,y,z
-x,y,-z
-x,-y,-z
x,-y,z
1/2+x,1/2+y,z
1/2-x,1/2+y,-z
1/2-x,1/2-y,-z
1/2+x,1/2-y,z
loop_
_atom_site_type_symbol
_atom_site_label
_atom_site_fract_x
_atom_site_fract_y
_atom_site_fract_z
Si Si1 0.866793 0.684024 0.923707
Si Si2 0.238461 0.814232 0.097567
Si Si3 0.057417 0.816203 0.569119
Si Si4 0.557563 0.816647 0.394405
Si Si5 0.570816 0.316610 0.757706
Si Si6 0.549206 0.314107 0.213568
Si Si7 0.345319 0.685954 0.116834
O O1 0.862894 0.500000 0.941868
O O2 0.818120 0.739973 0.867303
O O3 0.921462 0.727631 0.869753
O O4 0.864581 0.771366 0.017072
O O5 0.287950 0.759128 0.150153
O O6 0.233544 0.000000 0.099200
O O7 0.250000 0.750000 0.000000
O O8 0.087459 0.757031 0.476626
O O9 0.090253 0.784976 0.654425
O O10 0.004280 0.715431 0.584853
O O11 0.042628 0.000000 0.563799
O O12 0.576687 0.733311 0.302234
O O13 0.570316 0.000000 0.386408
O O14 0.568189 0.500000 0.777688
O O15 0.511348 0.251141 0.780573
O O16 0.612634 0.240866 0.819518
O O17 0.553308 0.500000 0.200614
O O18 0.340605 0.500000 0.126254
#
# Coordination Sequence:
#
# PCOD8078671 Si02
#       7
#     8   8   8   8   8   8   8
#     4  11  21  33  47  68  93 121 154 193 233 273
#     4  10  18  31  49  69  88 114 151 194 234 271
#     4   9  15  27  44  63  87 121 157 189 222 267
#     4  10  17  26  41  65  91 118 150 191 233 269
#     4   8  17  30  47  68  93 124 159 188 222 270
#     4  10  19  33  48  66  92 126 159 189 224 275
#     4  10  18  32  50  69  92 122 155 192 229 269
#
# _framework density 17.117794
#
# number of rings (size 3 to 8) (size 9 to 14) (size 15 to 20)
#    0.000    2.286    0.000    8.571    0.000    0.571 
#    0.000   11.429    0.000    0.000    0.000    1.000 
#    0.000    0.000    0.000    0.000    0.000    0.000 
#
# Total GULP energy -346965.259044 kJ/mol
# GULP energy per Si atom -12391.616394 kJ/mol
# Density = 1.707883 g / cm^3
# Si number density = 17.117794 Si / 1000 Ang^3
#
#
#
# Elastic Constant Matrix: (Units=GPa)
#
#
# Indices 1 2 3 4 5 6 
#
# 1 81.1040 17.8561 38.7941 0.0000 21.0203 0.0000
# 2 17.8561 65.8030 5.2681 0.0000 3.9942 0.0000
# 3 38.7941 5.2681 74.1354 0.0000 23.6047 0.0000
# 4 0.0000 0.0000 0.0000 19.4103 0.0000 -3.4294
# 5 21.0203 3.9942 23.6047 0.0000 12.7672 0.0000
# 6 0.0000 0.0000 0.0000 -3.4294 0.0000 20.1679
#
#
#
# Elastic Compliance Matrix: (Units=1/GPa)
#
#
# Indices 1 2 3 4 5 6 
#
# 1 0.022461 -0.003932 -0.000222 0.000000 -0.035340 0.000000
# 2 -0.003932 0.016215 0.001117 0.000000 -0.000663 0.000000
# 3 -0.000222 0.001117 0.032871 0.000000 -0.060757 0.000000
# 4 0.000000 0.000000 0.000000 0.053115 0.000000 0.009032
# 5 -0.035340 -0.000663 -0.060757 0.000000 0.249048 0.000000
# 6 0.000000 0.000000 0.000000 0.009032 0.000000 0.051119
#
#
# Mechanical properties :
#
#
# Convention : Reuss Voigt Hill
#
# Bulk Modulus (GPa) = 15.27386 38.31989 26.79687
# Shear Modulus (GPa) = 11.04419 21.07737 16.06078
#
# Velocity S-wave (km/s) = 2.54281 3.51281 3.06641
# Velocity P-wave (km/s) = 4.19086 6.23600 5.31277
#
# Compressibility (1/GPa) = 0.06547134
#
# Stress axis : x y z
#
# Youngs Moduli (GPa) = 44.52171 61.67225 30.42233
#
# Poissons Ratio (x) = 0.24250 0.00675
# Poissons Ratio (y) = 0.17506 -0.03397
# Poissons Ratio (z) = 0.00988 -0.06886
#
# Static dielectric constant tensor:
#      x y z
#    x 3.454690 0.000000 0.244290 
#    y 0.000000 3.144620 0.000000 
#    z 0.244290 0.000000 3.539120 
# 
# 
# High freq. dielectric constant tensor:
#      x y z
#    x 1.623950 0.000000 0.013020 
#    y 0.000000 1.666300 0.000000 
#    z 0.013020 0.000000 1.651700 
# 
# From -- ./inp_files/247776.got.cif
#   From: 2010.06.25/outbox.cif.g09.slc.cpg/sg12_124_cif.got.tgz:247776.got - 2010.06.28 00:19:55.
