data_PCOD8078209
_publ_section_title
;
Structure prediction by ZEFSAII (Michael W. Deem and Ramdas Pophale) SiO2 
 PCOD8078209
Probable space group: C 2/M
;
_chemical_formula_sum "Si O2"
_cell_formula_units_Z 56
_cell_length_a 18.556417
_cell_length_b 17.426793
_cell_length_c 12.541659
_cell_angle_alpha 90.000000
_cell_angle_beta 54.256239
_cell_angle_gamma 90.000000
_cell_volume 3291.764374
_symmetry_space_group_name_H-M "C 2/M"
_symmetry_group_IT_number 12
_symmetry_cell_setting 'monoclinic'
loop_
_space_group_symop_operation_xyz
x,y,z
-x,y,-z
-x,-y,-z
x,-y,z
1/2+x,1/2+y,z
1/2-x,1/2+y,-z
1/2-x,1/2-y,-z
1/2+x,1/2-y,z
loop_
_atom_site_type_symbol
_atom_site_label
_atom_site_fract_x
_atom_site_fract_y
_atom_site_fract_z
Si Si1 0.370551 0.090775 0.799759
Si Si2 0.388737 0.346337 0.524222
Si Si3 0.212574 0.410105 0.708113
Si Si4 0.945323 0.912536 0.690203
Si Si5 0.100292 0.670866 0.433353
Si Si6 0.072174 0.411021 0.662038
Si Si7 0.744369 0.408996 0.094773
O O1 0.344690 0.134818 0.712712
O O2 0.468974 0.112542 0.756601
O O3 0.361069 0.000000 0.788935
O O4 0.302500 0.122981 0.947113
O O5 0.289899 0.368042 0.570994
O O6 0.413075 0.406910 0.595788
O O7 0.466431 0.359101 0.367316
O O8 0.389568 0.261712 0.572069
O O9 0.231231 0.500000 0.688310
O O10 0.117827 0.390716 0.736046
O O11 0.215426 0.378414 0.827239
O O12 0.859241 0.884353 0.832944
O O13 0.969524 0.000000 0.697677
O O14 0.127062 0.634702 0.523751
O O15 0.000000 0.644796 0.500000
O O16 0.082110 0.500000 0.625732
O O17 0.751282 0.500000 0.090951
#
# Coordination Sequence:
#
# PCOD8078209 Si02
#       7
#     8   8   8   8   8   8   8
#     4   9  17  30  47  66  89 119 149 183 218 253
#     4  10  16  26  44  64  91 115 141 183 226 259
#     4   9  17  29  44  66  91 115 147 181 219 270
#     4   9  15  26  44  66  89 115 143 180 226 265
#     4  10  18  29  44  64  92 115 152 183 215 260
#     4   9  18  30  45  63  87 120 152 183 218 253
#     4   8  15  27  45  69  91 110 145 184 220 266
#
# _framework density 17.012153000000001
#
# number of rings (size 3 to 8) (size 9 to 14) (size 15 to 20)
#    0.000    2.857    1.429    3.000    0.000    2.857 
#    0.000    5.714    0.000    0.000    0.000    1.000 
#    0.000    5.714    0.000    0.000    0.000    1.000 
#
# Total GULP energy -346914.439680 kJ/mol
# GULP energy per Si atom -12389.801417 kJ/mol
# Density = 1.697343 g / cm^3
# Si number density = 17.012153 Si / 1000 Ang^3
#
#
#
# Elastic Constant Matrix: (Units=GPa)
#
#
# Indices 1 2 3 4 5 6 
#
# 1 38.1300 25.7998 46.5139 0.0000 -11.8794 0.0000
# 2 25.7998 50.8529 38.6552 0.0000 -3.0215 0.0000
# 3 46.5139 38.6552 132.3676 0.0000 -14.2223 0.0000
# 4 0.0000 0.0000 0.0000 11.4942 0.0000 -0.4325
# 5 -11.8794 -3.0215 -14.2223 0.0000 21.1459 0.0000
# 6 0.0000 0.0000 0.0000 -0.4325 0.0000 11.9383
#
#
#
# Elastic Compliance Matrix: (Units=1/GPa)
#
#
# Indices 1 2 3 4 5 6 
#
# 1 0.065176 -0.020813 -0.014239 0.000000 0.024064 0.000000
# 2 -0.020813 0.031963 -0.003003 0.000000 -0.009145 0.000000
# 3 -0.014239 -0.003003 0.013506 0.000000 0.000655 0.000000
# 4 0.000000 0.000000 0.000000 0.087119 0.000000 0.003156
# 5 0.024064 -0.009145 0.000655 0.000000 0.059943 0.000000
# 6 0.000000 0.000000 0.000000 0.003156 0.000000 0.083879
#
#
# Mechanical properties :
#
#
# Convention : Reuss Voigt Hill
#
# Bulk Modulus (GPa) = 28.95670 49.25426 39.10548
# Shear Modulus (GPa) = 11.64936 16.27443 13.96190
#
# Velocity S-wave (km/s) = 2.61964 3.09631 2.86790
# Velocity P-wave (km/s) = 5.11939 6.46514 5.83122
#
# Compressibility (1/GPa) = 0.03453432
#
# Stress axis : x y z
#
# Youngs Moduli (GPa) = 15.34310 31.28585 74.04228
#
# Poissons Ratio (x) = 0.65115 1.05431
# Poissons Ratio (y) = 0.31933 0.22236
# Poissons Ratio (z) = 0.21847 0.09396
#
# Static dielectric constant tensor:
#      x y z
#    x 3.187760 0.000000 -0.289770 
#    y 0.000000 2.908340 0.000000 
#    z -0.289770 0.000000 3.463300 
# 
# 
# High freq. dielectric constant tensor:
#      x y z
#    x 1.628700 0.000000 -0.021510 
#    y 0.000000 1.638270 0.000000 
#    z -0.021510 0.000000 1.641560 
# 
# From -- ./inp_files/157750.got.cif
#   From: 2010.06.25/outbox.cif.g09.slc.cpg/sg12_79_cif.got.tgz:157750.got - 2010.06.28 00:19:55.
