data_PCOD8078276
_publ_section_title
;
Structure prediction by ZEFSAII (Michael W. Deem and Ramdas Pophale) SiO2 
 PCOD8078276
Probable space group: C 2/M
;
_chemical_formula_sum "Si O2"
_cell_formula_units_Z 48
_cell_length_a 14.823895
_cell_length_b 13.554686
_cell_length_c 13.329932
_cell_angle_alpha 90.000000
_cell_angle_beta 53.352142
_cell_angle_gamma 90.000000
_cell_volume 2148.952917
_symmetry_space_group_name_H-M "C 2/M"
_symmetry_group_IT_number 12
_symmetry_cell_setting 'monoclinic'
loop_
_space_group_symop_operation_xyz
x,y,z
-x,y,-z
-x,-y,-z
x,-y,z
1/2+x,1/2+y,z
1/2-x,1/2+y,-z
1/2-x,1/2-y,-z
1/2+x,1/2-y,z
loop_
_atom_site_type_symbol
_atom_site_label
_atom_site_fract_x
_atom_site_fract_y
_atom_site_fract_z
Si Si1 0.490295 0.607977 0.388846
Si Si2 0.235886 0.882427 0.170991
Si Si3 0.871813 0.385170 0.671556
Si Si4 0.378413 0.116848 0.262505
Si Si5 0.880950 0.695065 0.464516
Si Si6 0.133403 0.617449 0.106951
O O1 0.500000 0.594354 0.500000
O O2 0.460233 0.500000 0.361796
O O3 0.606953 0.651719 0.267427
O O4 0.395480 0.688840 0.431261
O O5 0.310100 0.840183 0.213478
O O6 0.240220 0.000000 0.170984
O O7 0.284321 0.840824 0.033786
O O8 0.850492 0.500000 0.665835
O O9 0.817516 0.324209 0.613513
O O10 0.818225 0.351552 0.814758
O O11 0.004181 0.365373 0.596201
O O12 0.319090 0.153998 0.405967
O O13 0.506495 0.157156 0.172483
O O14 0.373750 0.000000 0.264913
O O15 0.127681 0.500000 0.105079
#
# Coordination Sequence:
#
# PCOD8078276 Si02
#       6
#     8   8   8   8   8   8
#     4  10  20  34  50  65  92 134 175 210 232 262
#     4   9  17  30  48  72  99 127 163 199 238 287
#     4   9  15  25  45  70  98 128 152 185 240 300
#     4   9  16  27  48  78 105 126 147 190 254 307
#     4  10  16  28  47  69  97 125 162 195 238 287
#     4   8  14  25  45  72 100 127 152 188 243 298
#
# _framework density 22.336459999999999
#
# number of rings (size 3 to 8) (size 9 to 14) (size 15 to 20)
#    0.000    2.833    1.667    3.500    0.000    2.000 
#    0.000    4.167    0.000    0.000    0.000    1.167 
#    0.000   12.167    0.000    6.000    0.000    0.000 
#
# Total GULP energy -297360.974465 kJ/mol
# GULP energy per Si atom -12390.040603 kJ/mol
# Density = 2.228562 g / cm^3
# Si number density = 22.336460 Si / 1000 Ang^3
#
#
#
# Elastic Constant Matrix: (Units=GPa)
#
#
# Indices 1 2 3 4 5 6 
#
# 1 63.3479 19.2230 64.7946 0.0000 35.6329 0.0000
# 2 19.2230 60.2866 39.8031 0.0000 7.9612 0.0000
# 3 64.7946 39.8031 144.3358 0.0000 37.0027 0.0000
# 4 0.0000 0.0000 0.0000 -4.0852 0.0000 -13.7344
# 5 35.6329 7.9612 37.0027 0.0000 40.1531 0.0000
# 6 0.0000 0.0000 0.0000 -13.7344 0.0000 -21.6561
#
#
#
# Elastic Compliance Matrix: (Units=1/GPa)
#
#
# Indices 1 2 3 4 5 6 
#
# 1 0.044826 -0.002505 -0.012257 0.000000 -0.027987 0.000000
# 2 -0.002505 0.020487 -0.005308 0.000000 0.003052 0.000000
# 3 -0.012257 -0.005308 0.014188 0.000000 -0.001145 0.000000
# 4 0.000000 0.000000 0.000000 0.216206 0.000000 -0.137119
# 5 -0.027987 0.003052 -0.001145 0.000000 0.050191 0.000000
# 6 0.000000 0.000000 0.000000 -0.137119 0.000000 0.040785
#
#
# Mechanical properties :
#
#
# Convention : Reuss Voigt Hill
#
# Bulk Modulus (GPa) = 25.40532 57.29020 41.34776
# Shear Modulus (GPa) = 11.36509 12.49233 11.92871
#
# Velocity S-wave (km/s) = 2.25814 2.36747 2.31345
# Velocity P-wave (km/s) = 4.26586 5.76001 5.06829
#
# Compressibility (1/GPa) = 0.03936183
#
# Stress axis : x y z
#
# Youngs Moduli (GPa) = 22.30847 48.81042 70.48163
#
# Poissons Ratio (x) = 0.12225 0.86392
# Poissons Ratio (y) = 0.05587 0.37410
# Poissons Ratio (z) = 0.27344 0.25908
#
# Static dielectric constant tensor:
#      x y z
#    x 3.862180 0.000000 0.528540 
#    y 0.000000 4.081190 0.000000 
#    z 0.528540 0.000000 4.674330 
# 
# 
# High freq. dielectric constant tensor:
#      x y z
#    x 1.841000 0.000000 0.026850 
#    y 0.000000 1.872410 0.000000 
#    z 0.026850 0.000000 1.880830 
# 
# From -- ./inp_files/214660.got.cif
#   From: 2010.06.25/outbox.cif.g09.slc.cpg/sg12_108_cif.got.tgz:214660.got - 2010.06.28 00:19:55.
