data_PCOD8078314
_publ_section_title
;
Structure prediction by ZEFSAII (Michael W. Deem and Ramdas Pophale) SiO2 
 PCOD8078314
Probable space group: C 2/M
;
_chemical_formula_sum "Si O2"
_cell_formula_units_Z 60
_cell_length_a 14.939544
_cell_length_b 27.199705
_cell_length_c 8.865594
_cell_angle_alpha 90.000000
_cell_angle_beta 74.135688
_cell_angle_gamma 90.000000
_cell_volume 3465.330100
_symmetry_space_group_name_H-M "C 2/M"
_symmetry_group_IT_number 12
_symmetry_cell_setting 'monoclinic'
loop_
_space_group_symop_operation_xyz
x,y,z
-x,y,-z
-x,-y,-z
x,-y,z
1/2+x,1/2+y,z
1/2-x,1/2+y,-z
1/2-x,1/2-y,-z
1/2+x,1/2-y,z
loop_
_atom_site_type_symbol
_atom_site_label
_atom_site_fract_x
_atom_site_fract_y
_atom_site_fract_z
Si Si1 0.418258 0.713261 0.356906
Si Si2 0.892924 0.383507 0.072847
Si Si3 0.165493 0.443694 0.624094
Si Si4 0.615873 0.740104 0.294414
Si Si5 0.229442 0.140292 0.564550
Si Si6 0.359015 0.851115 0.769396
Si Si7 0.192005 0.704396 0.725979
Si Si8 0.000000 0.594249 0.500000
O O1 0.527344 0.711576 0.261344
O O2 0.403676 0.743424 0.518215
O O3 0.379070 0.657085 0.385901
O O4 0.357361 0.742636 0.261776
O O5 0.852379 0.427026 0.195333
O O6 0.879727 0.331282 0.159062
O O7 0.843547 0.380396 0.932767
O O8 0.000000 0.394430 0.000000
O O9 0.196283 0.500000 0.611706
O O10 0.253563 0.412518 0.520780
O O11 0.075112 0.438041 0.557726
O O12 0.623957 0.793267 0.213195
O O13 0.711744 0.710027 0.223532
O O14 0.265917 0.138913 0.718162
O O15 0.287244 0.182266 0.449089
O O16 0.450044 0.871470 0.644184
#
# Coordination Sequence:
#
# PCOD8078314 Si02
#       8
#     8   8   8   8   8   8   8   4
#     4  10  16  29  49  76  99 134 178 207 245 292
#     4  11  22  33  46  71 103 138 167 207 249 301
#     4  10  21  36  52  72  97 130 167 216 263 303
#     4  10  18  26  51  73 101 143 174 204 238 293
#     4   9  18  32  51  70  97 130 169 212 246 297
#     4  11  18  31  47  72 100 139 168 200 251 290
#     4  10  18  33  46  72 105 137 175 207 244 292
#     4  10  19  32  54  70  94 126 170 216 249 306
#
# _framework density 17.314368999999999
#
# number of rings (size 3 to 8) (size 9 to 14) (size 15 to 20)
#    0.000    1.867    4.000    2.600    1.867    0.800 
#    0.000    0.667    0.000    0.000    0.000   16.800 
#    0.000    0.000    0.000   33.467    0.000    0.000 
#
# Total GULP energy -371851.351263 kJ/mol
# GULP energy per Si atom -12395.045042 kJ/mol
# Density = 1.727496 g / cm^3
# Si number density = 17.314369 Si / 1000 Ang^3
#
#
#
# Elastic Constant Matrix: (Units=GPa)
#
#
# Indices 1 2 3 4 5 6 
#
# 1 92.5038 45.7379 22.8067 0.0000 1.9587 0.0000
# 2 45.7379 112.6713 25.3516 0.0000 -1.1964 0.0000
# 3 22.8067 25.3516 56.4229 0.0000 19.0959 0.0000
# 4 0.0000 0.0000 0.0000 13.8830 0.0000 0.5762
# 5 1.9587 -1.1964 19.0959 0.0000 19.5471 0.0000
# 6 0.0000 0.0000 0.0000 0.5762 0.0000 18.5340
#
#
#
# Elastic Compliance Matrix: (Units=1/GPa)
#
#
# Indices 1 2 3 4 5 6 
#
# 1 0.014205 -0.004714 -0.004548 0.000000 0.002731 0.000000
# 2 -0.004714 0.012205 -0.005963 0.000000 0.007045 0.000000
# 3 -0.004548 -0.005963 0.033181 0.000000 -0.032324 0.000000
# 4 0.000000 0.000000 0.000000 0.072124 0.000000 -0.002242
# 5 0.002731 0.007045 -0.032324 0.000000 0.082894 0.000000
# 6 0.000000 0.000000 0.000000 -0.002242 0.000000 0.054025
#
#
# Mechanical properties :
#
#
# Convention : Reuss Voigt Hill
#
# Bulk Modulus (GPa) = 34.31565 49.93229 42.12397
# Shear Modulus (GPa) = 16.19194 21.57293 18.88243
#
# Velocity S-wave (km/s) = 3.06138 3.53364 3.30595
# Velocity P-wave (km/s) = 5.68843 6.74908 6.24133
#
# Compressibility (1/GPa) = 0.02914123
#
# Stress axis : x y z
#
# Youngs Moduli (GPa) = 70.39978 81.93074 30.13810
#
# Poissons Ratio (x) = 0.38622 0.13707
# Poissons Ratio (y) = 0.33186 0.17971
# Poissons Ratio (z) = 0.32017 0.48854
#
# Static dielectric constant tensor:
#      x y z
#    x 3.343310 0.000000 0.089370 
#    y 0.000000 2.960670 0.000000 
#    z 0.089370 0.000000 3.189980 
# 
# 
# High freq. dielectric constant tensor:
#      x y z
#    x 1.659980 0.000000 0.010300 
#    y 0.000000 1.633730 0.000000 
#    z 0.010300 0.000000 1.652920 
# 
# From -- ./inp_files/67821.got.cif
#   From: 2010.06.25/outbox.cif.g09.slc.cpg/sg12_34_cif.got.tgz:67821.got - 2010.06.28 00:19:55.
