data_PCOD8078770
_publ_section_title
;
Structure prediction by ZEFSAII (Michael W. Deem and Ramdas Pophale) SiO2 
 PCOD8078770
Probable space group: C 2/M
;
_chemical_formula_sum "Si O2"
_cell_formula_units_Z 48
_cell_length_a 12.894519
_cell_length_b 19.245809
_cell_length_c 14.386701
_cell_angle_alpha 90.000000
_cell_angle_beta 128.791638
_cell_angle_gamma 90.000000
_cell_volume 2782.782876
_symmetry_space_group_name_H-M "C 2/M"
_symmetry_group_IT_number 12
_symmetry_cell_setting 'monoclinic'
loop_
_space_group_symop_operation_xyz
x,y,z
-x,y,-z
-x,-y,-z
x,-y,z
1/2+x,1/2+y,z
1/2-x,1/2+y,-z
1/2-x,1/2-y,-z
1/2+x,1/2-y,z
loop_
_atom_site_type_symbol
_atom_site_label
_atom_site_fract_x
_atom_site_fract_y
_atom_site_fract_z
Si Si1 0.923263 0.185351 0.051199
Si Si2 0.891825 0.579457 0.729032
Si Si3 0.509361 0.421062 0.762130
Si Si4 0.874807 0.332804 0.098171
Si Si5 0.385726 0.582456 0.503797
Si Si6 0.189041 0.423192 0.106495
O O1 0.002467 0.126526 0.153227
O O2 0.919171 0.253137 0.113984
O O3 0.773127 0.161129 0.941588
O O4 0.000000 0.200695 0.000000
O O5 0.918509 0.500000 0.713412
O O6 0.760855 0.610366 0.605291
O O7 0.873072 0.586251 0.828132
O O8 0.020904 0.626546 0.776489
O O9 0.479007 0.500000 0.776224
O O10 0.409402 0.396589 0.624557
O O11 0.653533 0.414291 0.796534
O O12 0.874610 0.366285 0.995805
O O13 0.500000 0.614150 0.500000
O O14 0.387623 0.500000 0.492047
O O15 0.154836 0.500000 0.047500
#
# Coordination Sequence:
#
# PCOD8078770 Si02
#       6
#     8   8   8   8   8   8
#     4  10  21  36  51  67  94 130 163 201 244 289
#     4  10  17  26  47  76 104 129 152 196 249 289
#     4   9  17  30  48  71  96 127 168 201 232 282
#     4  10  20  32  48  72  97 124 162 197 247 294
#     4   9  15  27  47  74 105 130 156 194 242 291
#     4   9  15  25  45  73 103 126 150 192 243 294
#
# _framework density 17.248919999999998
#
# number of rings (size 3 to 8) (size 9 to 14) (size 15 to 20)
#    0.000    2.500    1.667    2.000    0.000    2.333 
#    0.000    0.833    0.000    1.000    0.000    3.500 
#    0.000    0.000    0.000    0.000    0.000    0.000 
#
# Total GULP energy -297529.189159 kJ/mol
# GULP energy per Si atom -12397.049548 kJ/mol
# Density = 1.720966 g / cm^3
# Si number density = 17.248920 Si / 1000 Ang^3
#
#
#
# Elastic Constant Matrix: (Units=GPa)
#
#
# Indices 1 2 3 4 5 6 
#
# 1 65.9424 16.5835 40.9381 0.0000 16.3620 0.0000
# 2 16.5835 64.1441 36.0259 0.0000 9.9789 0.0000
# 3 40.9381 36.0259 82.3102 0.0000 27.2735 0.0000
# 4 0.0000 0.0000 0.0000 8.2996 0.0000 7.6689
# 5 16.3620 9.9789 27.2735 0.0000 29.2630 0.0000
# 6 0.0000 0.0000 0.0000 7.6689 0.0000 18.9011
#
#
#
# Elastic Compliance Matrix: (Units=1/GPa)
#
#
# Indices 1 2 3 4 5 6 
#
# 1 0.022138 0.000489 -0.010226 0.000000 -0.003014 0.000000
# 2 0.000489 0.020763 -0.009975 0.000000 0.001943 0.000000
# 3 -0.010226 -0.009975 0.026881 0.000000 -0.015934 0.000000
# 4 0.000000 0.000000 0.000000 0.192750 0.000000 -0.078206
# 5 -0.003014 0.001943 -0.015934 0.000000 0.050046 0.000000
# 6 0.000000 0.000000 0.000000 -0.078206 0.000000 0.084638
#
#
# Mechanical properties :
#
#
# Convention : Reuss Voigt Hill
#
# Bulk Modulus (GPa) = 32.93955 44.38797 38.66376
# Shear Modulus (GPa) = 11.19170 19.21603 15.20387
#
# Velocity S-wave (km/s) = 2.54999 3.34135 2.97212
# Velocity P-wave (km/s) = 5.27332 6.37776 5.85166
#
# Compressibility (1/GPa) = 0.03035864
#
# Stress axis : x y z
#
# Youngs Moduli (GPa) = 45.17098 48.16154 37.20156
#
# Poissons Ratio (x) = -0.02354 0.38042
# Poissons Ratio (y) = -0.02207 0.37107
# Poissons Ratio (z) = 0.46191 0.48039
#
# Static dielectric constant tensor:
#      x y z
#    x 3.093410 0.000000 0.357700 
#    y 0.000000 3.146900 0.000000 
#    z 0.357700 0.000000 3.254460 
# 
# 
# High freq. dielectric constant tensor:
#      x y z
#    x 1.644230 0.000000 0.027050 
#    y 0.000000 1.648090 0.000000 
#    z 0.027050 0.000000 1.655310 
# 
# From -- ./inp_files/132657.got.cif
#   From: 2010.06.25/outbox.cif.g09.slc.cpg/sg12_67_cif.got.tgz:132657.got - 2010.06.28 00:19:55.
