data_PCOD8078341
_publ_section_title
;
Structure prediction by ZEFSAII (Michael W. Deem and Ramdas Pophale) SiO2 
 PCOD8078341
Probable space group: C 2/M
;
_chemical_formula_sum "Si O2"
_cell_formula_units_Z 44
_cell_length_a 5.211234
_cell_length_b 17.423414
_cell_length_c 27.379353
_cell_angle_alpha 90.000000
_cell_angle_beta 106.887042
_cell_angle_gamma 90.000000
_cell_volume 2378.779427
_symmetry_space_group_name_H-M "C 2/M"
_symmetry_group_IT_number 12
_symmetry_cell_setting 'monoclinic'
loop_
_space_group_symop_operation_xyz
x,y,z
-x,y,-z
-x,-y,-z
x,-y,z
1/2+x,1/2+y,z
1/2-x,1/2+y,-z
1/2-x,1/2-y,-z
1/2+x,1/2-y,z
loop_
_atom_site_type_symbol
_atom_site_label
_atom_site_fract_x
_atom_site_fract_y
_atom_site_fract_z
Si Si1 0.592234 0.409891 0.231947
Si Si2 0.500000 0.300606 0.500000
Si Si3 0.318214 0.697860 0.389463
Si Si4 0.978233 0.200159 0.138623
Si Si5 0.187021 0.590059 0.294622
Si Si6 0.715987 0.664216 0.977679
O O1 0.578085 0.500000 0.220912
O O2 0.504903 0.368661 0.177880
O O3 0.389870 0.384752 0.263356
O O4 0.889642 0.383700 0.263323
O O5 0.250000 0.250000 0.500000
O O6 0.585270 0.345024 0.554526
O O7 0.543087 0.756163 0.382393
O O8 0.272845 0.630480 0.348937
O O9 0.267557 0.237898 0.146692
O O10 0.873427 0.162941 0.083044
O O11 0.200570 0.500000 0.305319
O O12 0.500000 0.620883 0.000000
O O13 0.750000 0.750000 0.000000
O O14 0.000000 0.620869 0.000000
#
# Coordination Sequence:
#
# PCOD8078341 Si02
#       6
#     8   4   8   8   8   8
#     4  10  23  39  52  71 108 142 168 206 265 314
#     4   8  16  30  47  76 107 136 164 204 268 310
#     4  10  19  32  55  79 106 136 173 218 256 301
#     4  12  21  32  55  83  99 129 171 217 245 297
#     4  10  21  38  54  72 102 144 175 208 260 310
#     4  10  16  30  48  73 102 127 154 199 256 297
#
# _framework density 18.496880999999998
#
# number of rings (size 3 to 8) (size 9 to 14) (size 15 to 20)
#    0.000    1.818    3.636    2.182    0.000    4.364 
#    0.000    0.455    0.000    1.091    0.000   11.455 
#    0.000    0.000    0.000    0.000    0.000    0.000 
#
# Total GULP energy -272678.565482 kJ/mol
# GULP energy per Si atom -12394.480249 kJ/mol
# Density = 1.845478 g / cm^3
# Si number density = 18.496881 Si / 1000 Ang^3
#
#
#
# Elastic Constant Matrix: (Units=GPa)
#
#
# Indices 1 2 3 4 5 6 
#
# 1 148.6698 16.8866 53.9407 0.0000 -2.8293 0.0000
# 2 16.8866 29.6044 55.4073 0.0000 -4.1908 0.0000
# 3 53.9407 55.4073 199.5537 0.0000 -8.6715 0.0000
# 4 0.0000 0.0000 0.0000 4.8945 0.0000 1.5699
# 5 -2.8293 -4.1908 -8.6715 0.0000 29.5929 0.0000
# 6 0.0000 0.0000 0.0000 1.5699 0.0000 3.6266
#
#
#
# Elastic Compliance Matrix: (Units=1/GPa)
#
#
# Indices 1 2 3 4 5 6 
#
# 1 0.007472 -0.000995 -0.001741 0.000000 0.000063 0.000000
# 2 -0.000995 0.070998 -0.019256 0.000000 0.004316 0.000000
# 3 -0.001741 -0.019256 0.010841 0.000000 0.000283 0.000000
# 4 0.000000 0.000000 0.000000 0.237252 0.000000 -0.102704
# 5 0.000063 0.004316 0.000283 0.000000 0.034492 0.000000
# 6 0.000000 0.000000 0.000000 -0.102704 0.000000 0.320196
#
#
# Mechanical properties :
#
#
# Convention : Reuss Voigt Hill
#
# Bulk Modulus (GPa) = 22.06258 70.03301 46.04780
# Shear Modulus (GPa) = 6.75362 24.39571 15.57466
#
# Velocity S-wave (km/s) = 1.91289 3.63562 2.90490
# Velocity P-wave (km/s) = 4.10274 7.45439 6.01666
#
# Compressibility (1/GPa) = 0.04532561
#
# Stress axis : x y z
#
# Youngs Moduli (GPa) = 133.83077 14.08498 92.24568
#
# Poissons Ratio (x) = 0.01402 0.16056
# Poissons Ratio (y) = 0.13323 1.77631
# Poissons Ratio (z) = 0.23295 0.27122
#
# Static dielectric constant tensor:
#      x y z
#    x 3.123590 0.000000 -0.014140 
#    y 0.000000 2.822030 0.000000 
#    z -0.014140 0.000000 3.742690 
# 
# 
# High freq. dielectric constant tensor:
#      x y z
#    x 1.753830 0.000000 -0.000420 
#    y 0.000000 1.659770 0.000000 
#    z -0.000420 0.000000 1.738780 
# 
# From -- ./inp_files/331073.got.cif
#   From: 2010.06.25/outbox.cif.g09.slc.cpg/sg12_166_cif.got.tgz:331073.got - 2010.06.28 00:19:55.
