data_PCOD8078976
_publ_section_title
;
Structure prediction by ZEFSAII (Michael W. Deem and Ramdas Pophale) SiO2 
 PCOD8078976
Probable space group: C 2/M
;
_chemical_formula_sum "Si O2"
_cell_formula_units_Z 56
_cell_length_a 24.655031
_cell_length_b 12.922509
_cell_length_c 22.335522
_cell_angle_alpha 90.000000
_cell_angle_beta 151.511914
_cell_angle_gamma 90.000000
_cell_volume 3394.259477
_symmetry_space_group_name_H-M "C 2/M"
_symmetry_group_IT_number 12
_symmetry_cell_setting 'monoclinic'
loop_
_space_group_symop_operation_xyz
x,y,z
-x,y,-z
-x,-y,-z
x,-y,z
1/2+x,1/2+y,z
1/2-x,1/2+y,-z
1/2-x,1/2-y,-z
1/2+x,1/2-y,z
loop_
_atom_site_type_symbol
_atom_site_label
_atom_site_fract_x
_atom_site_fract_y
_atom_site_fract_z
Si Si1 0.821861 0.383654 0.297531
Si Si2 0.503820 0.878632 0.091362
Si Si3 0.704999 0.883027 0.511209
Si Si4 0.835643 0.316646 0.660677
Si Si5 0.322740 0.192205 0.836286
Si Si6 0.953811 0.678921 0.541049
Si Si7 0.344099 0.385190 0.416654
O O1 0.780231 0.500000 0.245510
O O2 0.711790 0.310954 0.184979
O O3 0.876320 0.376517 0.416159
O O4 0.915288 0.352795 0.338201
O O5 0.536810 0.835911 0.189475
O O6 0.580089 0.812912 0.119511
O O7 0.530951 0.000000 0.111503
O O8 0.371708 0.856876 0.945839
O O9 0.807527 0.805701 0.628643
O O10 0.671662 0.871169 0.410018
O O11 0.591584 0.856802 0.438605
O O12 0.746281 0.000000 0.563511
O O13 0.748943 0.372206 0.621618
O O14 0.212809 0.131323 0.704110
O O15 0.945220 0.803225 0.524616
O O16 0.396527 0.500000 0.470411
#
# Coordination Sequence:
#
# PCOD8078976 Si02
#       7
#     8   8   8   8   8   8   8
#     4  10  18  31  44  60  86 115 141 180 215 244
#     4  10  17  30  46  64  89 114 135 172 213 252
#     4  10  17  28  44  66  89 114 142 176 209 250
#     4   9  18  27  43  67  90 113 143 170 210 260
#     4   9  17  27  44  64  82 110 148 168 204 260
#     4   9  18  28  44  64  85 113 149 173 208 260
#     4   9  15  27  42  64  92 114 134 174 217 252
#
# _framework density 16.498445
#
# number of rings (size 3 to 8) (size 9 to 14) (size 15 to 20)
#    0.000    2.571    0.000    6.429    0.000    0.000 
#    0.000    9.286    0.000    0.857    0.000    0.000 
#    0.000    0.000    0.000    0.000    0.000    0.000 
#
# Total GULP energy -347046.210937 kJ/mol
# GULP energy per Si atom -12394.507533 kJ/mol
# Density = 1.646089 g / cm^3
# Si number density = 16.498445 Si / 1000 Ang^3
#
#
#
# Elastic Constant Matrix: (Units=GPa)
#
#
# Indices 1 2 3 4 5 6 
#
# 1 55.7538 34.4467 30.8973 0.0000 -6.8343 0.0000
# 2 34.4467 161.7861 46.9070 0.0000 0.1715 0.0000
# 3 30.8973 46.9070 70.6788 0.0000 -13.7871 0.0000
# 4 0.0000 0.0000 0.0000 18.0311 0.0000 3.2317
# 5 -6.8343 0.1715 -13.7871 0.0000 17.4057 0.0000
# 6 0.0000 0.0000 0.0000 3.2317 0.0000 15.7693
#
#
#
# Elastic Compliance Matrix: (Units=1/GPa)
#
#
# Indices 1 2 3 4 5 6 
#
# 1 0.024674 -0.002859 -0.008272 0.000000 0.003164 0.000000
# 2 -0.002859 0.008347 -0.005352 0.000000 -0.005444 0.000000
# 3 -0.008272 -0.005352 0.024475 0.000000 0.016191 0.000000
# 4 0.000000 0.000000 0.000000 0.057574 0.000000 -0.011799
# 5 0.003164 -0.005444 0.016191 0.000000 0.071574 0.000000
# 6 0.000000 0.000000 0.000000 -0.011799 0.000000 0.065832
#
#
# Mechanical properties :
#
#
# Convention : Reuss Voigt Hill
#
# Bulk Modulus (GPa) = 40.76458 56.96899 48.86679
# Shear Modulus (GPa) = 17.02888 21.97240 19.50064
#
# Velocity S-wave (km/s) = 3.21620 3.65332 3.44171
# Velocity P-wave (km/s) = 6.20916 7.23882 6.74367
#
# Compressibility (1/GPa) = 0.02453110
#
# Stress axis : x y z
#
# Youngs Moduli (GPa) = 40.52835 119.80192 40.85804
#
# Poissons Ratio (x) = 0.34246 0.33798
# Poissons Ratio (y) = 0.11585 0.21867
# Poissons Ratio (z) = 0.33525 0.64118
#
# Static dielectric constant tensor:
#      x y z
#    x 3.004600 0.000000 -0.180640 
#    y 0.000000 3.230230 0.000000 
#    z -0.180640 0.000000 3.197240 
# 
# 
# High freq. dielectric constant tensor:
#      x y z
#    x 1.611110 0.000000 -0.012170 
#    y 0.000000 1.647240 0.000000 
#    z -0.012170 0.000000 1.602660 
# 
# From -- ./inp_files/351631.got.cif
#   From: 2010.06.25/outbox.cif.g09.slc.cpg/sg12_176_cif.got.tgz:351631.got - 2010.06.28 00:19:55.
