data_PCOD8078012
_publ_section_title
;
Structure prediction by ZEFSAII (Michael W. Deem and Ramdas Pophale) SiO2 
 PCOD8078012
Probable space group: P 21/M
;
_chemical_formula_sum "Si O2"
_cell_formula_units_Z 32
_cell_length_a 30.000000
_cell_length_b 9.000000
_cell_length_c 12.000000
_cell_angle_alpha 90.000000
_cell_angle_beta 150.000000
_cell_angle_gamma 90.000000
_cell_volume 1620.000000
_symmetry_space_group_name_H-M "P 21/M"
_symmetry_group_IT_number 11
_symmetry_cell_setting 'monoclinic'
loop_
_space_group_symop_operation_xyz
x,y,z
-x,1/2+y,-z
-x,-y,-z
x,1/2-y,z
loop_
_atom_site_type_symbol
_atom_site_label
_atom_site_fract_x
_atom_site_fract_y
_atom_site_fract_z
Si Si1 0.852072 0.918108 0.952180
Si Si2 0.758624 0.427747 0.152340
Si Si3 0.743053 0.422724 0.379508
Si Si4 0.590493 0.583695 0.188801
Si Si5 0.078141 0.924080 0.101156
Si Si6 0.406167 0.071036 0.331088
Si Si7 0.665136 0.915896 0.588854
Si Si8 0.091729 0.419031 0.674602
O O1 0.853993 0.750000 0.907578
O O2 0.754975 0.997116 0.739940
O O3 0.918784 0.013700 0.019237
O O4 0.867652 0.917271 0.116232
O O5 0.755864 0.250000 0.127434
O O6 0.760196 0.467078 0.287518
O O7 0.846443 0.492957 0.280609
O O8 0.670582 0.506057 0.914044
O O9 0.720000 0.250000 0.337396
O O10 0.661568 0.508011 0.260684
O O11 0.830751 0.463986 0.638796
O O12 0.580046 0.750000 0.119685
O O13 0.605158 0.585347 0.351948
O O14 0.500000 0.500000 0.000000
O O15 0.059623 0.750000 0.055938
O O16 0.000000 0.000000 0.000000
O O17 0.411336 0.250000 0.331916
O O18 0.384533 0.015577 0.410797
O O19 0.500000 0.000000 0.500000
O O20 0.694153 0.750000 0.688791
O O21 0.078203 0.250000 0.601093
O O22 0.000000 0.500000 0.500000
#
# Coordination Sequence:
#
# PCOD8078012 Si02
#       8
#     4   4   4   4   4   4   4   4
#     4  10  20  41  66  88 120 161 202 253 311 365
#     4  11  24  43  64  89 125 168 208 255 313 370
#     4  10  24  44  62  86 125 166 204 253 311 364
#     4  11  23  40  64  92 122 160 203 250 305 366
#     4  11  24  41  63  93 124 161 207 257 307 367
#     4  11  23  42  64  93 126 164 208 254 310 371
#     4   9  19  39  64  86 118 159 198 247 309 362
#     4  11  24  42  65  93 126 163 206 257 312 373
#
# _framework density 19.753086
#
# number of rings (size 3 to 8) (size 9 to 14) (size 15 to 20)
#    0.000    1.500    2.500    1.875    3.500    2.500 
#    0.000    1.875    0.000    0.000    0.000    0.000 
#    0.000    0.000    0.000    0.000    0.000    0.000 
#
# Total GULP energy -396500.695152 kJ/mol
# GULP energy per Si atom -12390.646723 kJ/mol
# Density = 1.970813 g / cm^3
# Si number density = 19.753086 Si / 1000 Ang^3
#
#
#
# Elastic Constant Matrix: (Units=GPa)
#
#
# Indices 1 2 3 4 5 6 
#
# 1 184.6041 69.7879 37.2475 0.0000 14.3305 0.0000
# 2 69.7879 122.9013 45.2926 0.0000 14.3159 0.0000
# 3 37.2475 45.2926 66.0501 0.0000 17.4317 0.0000
# 4 0.0000 0.0000 0.0000 33.0014 0.0000 5.3214
# 5 14.3305 14.3159 17.4317 0.0000 42.7382 0.0000
# 6 0.0000 0.0000 0.0000 5.3214 0.0000 44.0412
#
#
#
# Elastic Compliance Matrix: (Units=1/GPa)
#
#
# Indices 1 2 3 4 5 6 
#
# 1 0.007043 -0.003377 -0.001492 0.000000 -0.000622 0.000000
# 2 -0.003377 0.012525 -0.006585 0.000000 -0.000377 0.000000
# 3 -0.001492 -0.006585 0.022169 0.000000 -0.006336 0.000000
# 4 0.000000 0.000000 0.000000 0.030904 0.000000 -0.003734
# 5 -0.000622 -0.000377 -0.006336 0.000000 0.026318 0.000000
# 6 0.000000 0.000000 0.000000 -0.003734 0.000000 0.023157
#
#
# Mechanical properties :
#
#
# Convention : Reuss Voigt Hill
#
# Bulk Modulus (GPa) = 53.10814 75.35683 64.23249
# Shear Modulus (GPa) = 33.04723 38.70466 35.87595
#
# Velocity S-wave (km/s) = 4.09469 4.43134 4.26634
# Velocity P-wave (km/s) = 7.02137 8.02587 7.54037
#
# Compressibility (1/GPa) = 0.01882951
#
# Stress axis : x y z
#
# Youngs Moduli (GPa) = 141.98633 79.84167 45.10841
#
# Poissons Ratio (x) = 0.26963 0.06730
# Poissons Ratio (y) = 0.47949 0.29702
# Poissons Ratio (z) = 0.21182 0.52573
#
# Static dielectric constant tensor:
#      x y z
#    x 4.517830 0.000000 1.165540 
#    y 0.000000 3.894300 0.000000 
#    z 1.165540 0.000000 5.648880 
# 
# 
# High freq. dielectric constant tensor:
#      x y z
#    x 1.806500 0.000000 0.003910 
#    y 0.000000 1.772230 0.000000 
#    z 0.003910 0.000000 1.770340 
# 
# From -- ./inp_files/45242.got.cif
#   From: 2010.06.25/outbox.ucp.g09.slc.cvg/sg11_23_cif.got.tgz:45242.got - 2010.06.28 13:43:20.
