data_PCOD8078883
_publ_section_title
;
Structure prediction by ZEFSAII (Michael W. Deem and Ramdas Pophale) SiO2 
 PCOD8078883
Probable space group: C 2/M
;
_chemical_formula_sum "Si O2"
_cell_formula_units_Z 56
_cell_length_a 20.211793
_cell_length_b 20.132300
_cell_length_c 11.388729
_cell_angle_alpha 90.000000
_cell_angle_beta 136.025853
_cell_angle_gamma 90.000000
_cell_volume 3217.671846
_symmetry_space_group_name_H-M "C 2/M"
_symmetry_group_IT_number 12
_symmetry_cell_setting 'monoclinic'
loop_
_space_group_symop_operation_xyz
x,y,z
-x,y,-z
-x,-y,-z
x,-y,z
1/2+x,1/2+y,z
1/2-x,1/2+y,-z
1/2-x,1/2-y,-z
1/2+x,1/2-y,z
loop_
_atom_site_type_symbol
_atom_site_label
_atom_site_fract_x
_atom_site_fract_y
_atom_site_fract_z
Si Si1 0.866043 0.650135 0.587002
Si Si2 0.692002 0.843108 0.993984
Si Si3 0.471841 0.078209 0.334403
Si Si4 0.871382 0.807793 0.083584
Si Si5 0.727739 0.163694 0.297166
Si Si6 0.678750 0.683008 0.236332
Si Si7 0.915743 0.196330 0.647836
O O1 0.839397 0.632920 0.687810
O O2 0.771881 0.639732 0.387518
O O3 0.904614 0.724586 0.622578
O O4 0.945939 0.598246 0.651258
O O5 0.628134 0.890805 0.833055
O O6 0.644892 0.770877 0.934571
O O7 0.798303 0.843127 0.077551
O O8 0.701403 0.870247 0.139508
O O9 0.500000 0.104477 0.500000
O O10 0.459038 0.000000 0.317814
O O11 0.979037 0.823324 0.261737
O O12 0.860058 0.839022 0.939306
O O13 0.710978 0.241524 0.270263
O O14 0.839892 0.155964 0.471617
O O15 0.598420 0.675284 0.233970
#
# Coordination Sequence:
#
# PCOD8078883 Si02
#       7
#     8   8   8   8   8   8   8
#     4   9  16  32  48  66  97 131 158 197 240 285
#     4  10  20  32  43  70 100 127 162 203 240 285
#     4  11  23  37  52  69  92 129 170 203 241 287
#     4  10  17  27  45  72 100 131 158 196 244 286
#     4   8  17  29  46  68  98 127 156 193 243 292
#     4   8  15  26  45  69  98 128 160 190 238 290
#     4   9  15  27  46  73  98 130 157 188 242 298
#
# _framework density 17.403888999999999
#
# number of rings (size 3 to 8) (size 9 to 14) (size 15 to 20)
#    0.000    2.714    1.429    3.000    0.000    2.286 
#    0.000    1.429    0.000    0.000    0.000    6.000 
#    0.000   14.857    0.000    0.000    0.000    0.000 
#
# Total GULP energy -347081.594930 kJ/mol
# GULP energy per Si atom -12395.771247 kJ/mol
# Density = 1.736428 g / cm^3
# Si number density = 17.403889 Si / 1000 Ang^3
#
#
#
# Elastic Constant Matrix: (Units=GPa)
#
#
# Indices 1 2 3 4 5 6 
#
# 1 118.9098 23.3346 71.1375 0.0000 8.4597 0.0000
# 2 23.3346 28.7518 24.8424 0.0000 -2.6491 0.0000
# 3 71.1375 24.8424 119.4301 0.0000 -2.9409 0.0000
# 4 0.0000 0.0000 0.0000 15.8708 0.0000 0.2862
# 5 8.4597 -2.6491 -2.9409 0.0000 38.3752 0.0000
# 6 0.0000 0.0000 0.0000 0.2862 0.0000 13.4893
#
#
#
# Elastic Compliance Matrix: (Units=1/GPa)
#
#
# Indices 1 2 3 4 5 6 
#
# 1 0.014224 -0.005502 -0.007429 0.000000 -0.004085 0.000000
# 2 -0.005502 0.044725 -0.005931 0.000000 0.003846 0.000000
# 3 -0.007429 -0.005931 0.014088 0.000000 0.002308 0.000000
# 4 0.000000 0.000000 0.000000 0.063033 0.000000 -0.001337
# 5 -0.004085 0.003846 0.002308 0.000000 0.027401 0.000000
# 6 0.000000 0.000000 0.000000 -0.001337 0.000000 0.074161
#
#
# Mechanical properties :
#
#
# Convention : Reuss Voigt Hill
#
# Bulk Modulus (GPa) = 28.31751 56.19118 42.25435
# Shear Modulus (GPa) = 17.41386 23.39890 20.40638
#
# Velocity S-wave (km/s) = 3.16662 3.67067 3.42792
# Velocity P-wave (km/s) = 5.44757 7.09378 6.32447
#
# Compressibility (1/GPa) = 0.03531383
#
# Stress axis : x y z
#
# Youngs Moduli (GPa) = 70.30263 22.35895 70.97988
#
# Poissons Ratio (x) = 0.12302 0.52729
# Poissons Ratio (y) = 0.38680 0.42100
# Poissons Ratio (z) = 0.52226 0.13262
#
# Static dielectric constant tensor:
#      x y z
#    x 3.427960 0.000000 -0.168990 
#    y 0.000000 2.584820 0.000000 
#    z -0.168990 0.000000 3.578210 
# 
# 
# High freq. dielectric constant tensor:
#      x y z
#    x 1.684640 0.000000 0.000150 
#    y 0.000000 1.593670 0.000000 
#    z 0.000150 0.000000 1.684250 
# 
# From -- ./inp_files/169496.got.cif
#   From: 2010.06.25/outbox.cif.g09.slc.cpg/sg12_85_cif.got.tgz:169496.got - 2010.06.28 00:19:55.
