data_PCOD8078943
_publ_section_title
;
Structure prediction by ZEFSAII (Michael W. Deem and Ramdas Pophale) SiO2 
 PCOD8078943
Probable space group: C 2/M
;
_chemical_formula_sum "Si O2"
_cell_formula_units_Z 48
_cell_length_a 18.610681
_cell_length_b 13.639203
_cell_length_c 19.996441
_cell_angle_alpha 90.000000
_cell_angle_beta 150.989451
_cell_angle_gamma 90.000000
_cell_volume 2461.610943
_symmetry_space_group_name_H-M "C 2/M"
_symmetry_group_IT_number 12
_symmetry_cell_setting 'monoclinic'
loop_
_space_group_symop_operation_xyz
x,y,z
-x,y,-z
-x,-y,-z
x,-y,z
1/2+x,1/2+y,z
1/2-x,1/2+y,-z
1/2-x,1/2-y,-z
1/2+x,1/2-y,z
loop_
_atom_site_type_symbol
_atom_site_label
_atom_site_fract_x
_atom_site_fract_y
_atom_site_fract_z
Si Si1 0.898587 0.736025 0.355942
Si Si2 0.004460 0.113932 0.667440
Si Si3 0.612501 0.612832 0.150877
Si Si4 0.574810 0.308303 0.256388
Si Si5 0.618342 0.893414 0.464509
Si Si6 0.335229 0.893720 0.647226
O O1 0.885361 0.826101 0.292180
O O2 0.741309 0.694762 0.252626
O O3 0.000000 0.772687 0.500000
O O4 0.970608 0.642761 0.379184
O O5 0.018390 0.156768 0.754547
O O6 0.839002 0.128513 0.504742
O O7 0.050646 0.000000 0.706099
O O8 0.669558 0.500000 0.194818
O O9 0.525495 0.632025 0.150259
O O10 0.500000 0.633645 0.000000
O O11 0.747578 0.322320 0.411347
O O12 0.572337 0.190886 0.239321
O O13 0.585986 0.898953 0.360131
O O14 0.660241 0.000000 0.527695
O O15 0.353928 0.000000 0.698769
#
# Coordination Sequence:
#
# PCOD8078943 Si02
#       6
#     8   8   8   8   8   8
#     4  12  21  34  56  87 117 143 182 238 279 325
#     4  10  19  32  54  84 115 150 188 228 277 332
#     4  11  25  41  57  81 114 150 184 228 289 339
#     4  11  17  35  57  80 113 150 187 226 277 334
#     4  10  17  27  50  84 114 140 177 229 276 322
#     4   9  16  28  51  85 119 143 177 229 283 328
#
# _framework density 19.499424999999999
#
# number of rings (size 3 to 8) (size 9 to 14) (size 15 to 20)
#    0.000    1.500    5.000    4.000    0.000    1.000 
#    0.000    1.667    0.000    2.000    0.000    0.000 
#    0.000    0.000    0.000    0.000    0.000    0.000 
#
# Total GULP energy -297374.529094 kJ/mol
# GULP energy per Si atom -12390.605379 kJ/mol
# Density = 1.945504 g / cm^3
# Si number density = 19.499425 Si / 1000 Ang^3
#
#
#
# Elastic Constant Matrix: (Units=GPa)
#
#
# Indices 1 2 3 4 5 6 
#
# 1 88.9341 42.9849 24.4137 0.0031 -16.5261 0.0020
# 2 42.9849 139.7051 27.0100 0.0042 -16.9039 0.0033
# 3 24.4137 27.0100 51.0909 0.0005 -17.1428 0.0007
# 4 0.0031 0.0042 0.0005 10.7629 0.0016 -4.5050
# 5 -16.5261 -16.9039 -17.1428 0.0016 17.7224 0.0013
# 6 0.0020 0.0033 0.0007 -4.5050 0.0013 23.5417
#
#
#
# Elastic Compliance Matrix: (Units=1/GPa)
#
#
# Indices 1 2 3 4 5 6 
#
# 1 0.015054 -0.003081 -0.002725 -0.000005 0.008463 -0.000002
# 2 -0.003081 0.008944 -0.002010 -0.000004 0.003713 -0.000002
# 3 -0.002725 -0.002010 0.030265 -0.000005 0.024817 -0.000003
# 4 -0.000005 -0.000004 -0.000005 0.101001 -0.000023 0.019328
# 5 0.008463 0.003713 0.024817 -0.000023 0.091865 -0.000011
# 6 -0.000002 -0.000002 -0.000003 0.019328 -0.000011 0.046176
#
#
# Mechanical properties :
#
#
# Convention : Reuss Voigt Hill
#
# Bulk Modulus (GPa) = 25.88630 52.06082 38.97356
# Shear Modulus (GPa) = 15.53690 22.76016 19.14853
#
# Velocity S-wave (km/s) = 2.82580 3.42017 3.13710
# Velocity P-wave (km/s) = 4.89399 6.50795 5.75780
#
# Compressibility (1/GPa) = 0.03863047
#
# Stress axis : x y z
#
# Youngs Moduli (GPa) = 66.42663 111.80878 33.04184
#
# Poissons Ratio (x) = 0.34449 0.09004
# Poissons Ratio (y) = 0.20466 0.06642
# Poissons Ratio (z) = 0.18101 0.22474
#
# Static dielectric constant tensor:
#      x y z
#    x 3.730250 0.000000 -0.260800 
#    y 0.000000 3.910020 0.000000 
#    z -0.260800 0.000000 2.904880 
# 
# 
# High freq. dielectric constant tensor:
#      x y z
#    x 1.761630 0.000000 -0.020950 
#    y 0.000000 1.780080 0.000000 
#    z -0.020950 0.000000 1.681810 
# 
# From -- ./inp_files/104957.got.cif
#   From: 2010.06.25/outbox.cif.g09.slc.cpg/sg12_53_cif.got.tgz:104957.got - 2010.06.28 00:19:55.
