data_PCOD8078906
_publ_section_title
;
Structure prediction by ZEFSAII (Michael W. Deem and Ramdas Pophale) SiO2 
 PCOD8078906
Probable space group: C 2/M
;
_chemical_formula_sum "Si O2"
_cell_formula_units_Z 56
_cell_length_a 19.826156
_cell_length_b 8.830360
_cell_length_c 20.744311
_cell_angle_alpha 90.000000
_cell_angle_beta 118.671991
_cell_angle_gamma 90.000000
_cell_volume 3186.427764
_symmetry_space_group_name_H-M "C 2/M"
_symmetry_group_IT_number 12
_symmetry_cell_setting 'monoclinic'
loop_
_space_group_symop_operation_xyz
x,y,z
-x,y,-z
-x,-y,-z
x,-y,z
1/2+x,1/2+y,z
1/2-x,1/2+y,-z
1/2-x,1/2-y,-z
1/2+x,1/2-y,z
loop_
_atom_site_type_symbol
_atom_site_label
_atom_site_fract_x
_atom_site_fract_y
_atom_site_fract_z
Si Si1 0.517812 0.327214 0.579785
Si Si2 0.578570 0.832340 0.804407
Si Si3 0.286823 0.322220 0.079315
Si Si4 0.197114 0.827033 0.660522
Si Si5 0.063421 0.321099 0.340614
Si Si6 0.275009 0.168540 0.200823
Si Si7 0.725479 0.320933 0.421467
O O1 0.500000 0.269155 0.500000
O O2 0.489104 0.500000 0.575171
O O3 0.607633 0.315312 0.635462
O O4 0.468914 0.222666 0.604598
O O5 0.621753 0.721930 0.875351
O O6 0.496107 0.770423 0.743105
O O7 0.632445 0.843542 0.765270
O O8 0.570070 0.000000 0.831537
O O9 0.276901 0.500000 0.072055
O O10 0.242717 0.256569 0.122554
O O11 0.250000 0.250000 0.000000
O O12 0.244240 0.759614 0.742869
O O13 0.214142 0.730721 0.604741
O O14 0.223041 0.000000 0.661558
O O15 0.077367 0.500000 0.345586
O O16 0.141722 0.234619 0.361567
O O17 0.238468 0.000000 0.188091
O O18 0.726903 0.500000 0.428775
O O19 0.750000 0.250000 0.500000
#
# Coordination Sequence:
#
# PCOD8078906 Si02
#       7
#     8   8   8   8   8   8   8
#     4  10  20  32  49  73 100 130 167 214 265 317
#     4   8  17  31  49  74 105 136 171 212 257 311
#     4  10  17  27  46  76 113 146 176 216 265 314
#     4  11  21  35  55  78 105 138 177 221 269 322
#     4  11  21  36  56  77 103 136 175 220 268 321
#     4   9  17  31  49  74 106 138 173 212 257 308
#     4  12  26  42  57  75 104 140 182 230 279 327
#
# _framework density 17.574539000000001
#
# number of rings (size 3 to 8) (size 9 to 14) (size 15 to 20)
#    0.857    1.000    1.429    4.286    0.000    3.143 
#    0.000    0.000    0.000    0.000    0.000    1.000 
#    0.000    8.000    0.000    0.000    0.000    0.000 
#
# Total GULP energy -347040.243976 kJ/mol
# GULP energy per Si atom -12394.294428 kJ/mol
# Density = 1.753454 g / cm^3
# Si number density = 17.574539 Si / 1000 Ang^3
#
#
#
# Elastic Constant Matrix: (Units=GPa)
#
#
# Indices 1 2 3 4 5 6 
#
# 1 31.2734 16.9536 5.1537 0.0000 0.5407 0.0000
# 2 16.9536 132.5062 52.2218 0.0000 -1.2656 0.0000
# 3 5.1537 52.2218 114.4798 0.0000 -4.9668 0.0000
# 4 0.0000 0.0000 0.0000 33.5246 0.0000 -2.3513
# 5 0.5407 -1.2656 -4.9668 0.0000 23.2675 0.0000
# 6 0.0000 0.0000 0.0000 -2.3513 0.0000 25.9876
#
#
#
# Elastic Compliance Matrix: (Units=1/GPa)
#
#
# Indices 1 2 3 4 5 6 
#
# 1 0.034409 -0.004614 0.000515 0.000000 -0.000941 0.000000
# 2 -0.004614 0.009823 -0.004285 0.000000 -0.000273 0.000000
# 3 0.000515 -0.004285 0.010756 0.000000 0.002051 0.000000
# 4 0.000000 0.000000 0.000000 0.030019 0.000000 0.002716
# 5 -0.000941 -0.000273 0.002051 0.000000 0.043423 0.000000
# 6 0.000000 0.000000 0.000000 0.002716 0.000000 0.038726
#
#
# Mechanical properties :
#
#
# Convention : Reuss Voigt Hill
#
# Bulk Modulus (GPa) = 26.16503 47.43530 36.80017
# Shear Modulus (GPa) = 25.42393 30.15131 27.78762
#
# Velocity S-wave (km/s) = 3.80759 4.14650 3.98066
# Velocity P-wave (km/s) = 5.85241 7.06924 6.48941
#
# Compressibility (1/GPa) = 0.03821894
#
# Stress axis : x y z
#
# Youngs Moduli (GPa) = 29.06219 101.79712 92.97365
#
# Poissons Ratio (x) = 0.46974 -0.04789
# Poissons Ratio (y) = 0.13411 0.39841
# Poissons Ratio (z) = -0.01497 0.43623
#
# Static dielectric constant tensor:
#      x y z
#    x 3.048350 0.000000 0.055050 
#    y 0.000000 3.353490 0.000000 
#    z 0.055050 0.000000 3.190200 
# 
# 
# High freq. dielectric constant tensor:
#      x y z
#    x 1.639610 0.000000 0.000810 
#    y 0.000000 1.692980 0.000000 
#    z 0.000810 0.000000 1.673860 
# 
# From -- ./inp_files/319329.got.cif
#   From: 2010.06.25/outbox.cif.g09.slc.cpg/sg12_160_cif.got.tgz:319329.got - 2010.06.28 00:19:55.
