data_PCOD8078038
_publ_section_title
;
Structure prediction by ZEFSAII (Michael W. Deem and Ramdas Pophale) SiO2 
 PCOD8078038
Probable space group: C 2/M
;
_chemical_formula_sum "Si O2"
_cell_formula_units_Z 48
_cell_length_a 5.226005
_cell_length_b 16.647562
_cell_length_c 30.398631
_cell_angle_alpha 90.000000
_cell_angle_beta 69.725969
_cell_angle_gamma 90.000000
_cell_volume 2480.839469
_symmetry_space_group_name_H-M "C 2/M"
_symmetry_group_IT_number 12
_symmetry_cell_setting 'monoclinic'
loop_
_space_group_symop_operation_xyz
x,y,z
-x,y,-z
-x,-y,-z
x,-y,z
1/2+x,1/2+y,z
1/2-x,1/2+y,-z
1/2-x,1/2-y,-z
1/2+x,1/2-y,z
loop_
_atom_site_type_symbol
_atom_site_label
_atom_site_fract_x
_atom_site_fract_y
_atom_site_fract_z
Si Si1 0.518679 0.095636 0.867535
Si Si2 0.226715 0.302413 0.276172
Si Si3 0.372745 0.595323 0.186344
Si Si4 0.696335 0.095839 0.026629
Si Si5 0.209619 0.658494 0.520028
Si Si6 0.443951 0.200972 0.378065
O O1 0.322696 0.127966 0.840670
O O2 0.410317 0.129267 0.920426
O O3 0.823683 0.127943 0.841321
O O4 0.516743 0.000000 0.868374
O O5 0.520617 0.264618 0.269699
O O6 0.265391 0.372861 0.239047
O O7 0.095870 0.342708 0.328112
O O8 0.368009 0.500000 0.188823
O O9 0.696026 0.000000 0.026794
O O10 0.500000 0.128805 0.000000
O O11 0.000000 0.128824 0.000000
O O12 0.500000 0.613911 0.500000
O O13 0.250000 0.750000 0.500000
O O14 0.000000 0.613926 0.500000
O O15 0.091821 0.648000 0.576237
O O16 0.141632 0.225641 0.380364
#
# Coordination Sequence:
#
# PCOD8078038 Si02
#       6
#     8   8   8   8   8   8
#     4   9  17  28  45  67  93 125 158 192 229 277
#     4  10  21  33  48  68  97 124 154 200 242 278
#     4  10  19  33  50  68  93 127 164 194 228 277
#     4   9  15  23  37  61  94 123 144 177 234 287
#     4  10  14  20  34  53  79 110 139 170 213 278
#     4  10  16  25  37  57  84 117 140 177 230 273
#
# _framework density 19.348289999999999
#
# number of rings (size 3 to 8) (size 9 to 14) (size 15 to 20)
#    0.000    2.333    3.333    2.000    0.000    4.000 
#    0.000    0.000    0.000    0.000    0.000    0.000 
#    0.000   48.000    0.000    0.000    0.000    6.667 
#
# Total GULP energy -297429.830343 kJ/mol
# GULP energy per Si atom -12392.909598 kJ/mol
# Density = 1.930425 g / cm^3
# Si number density = 19.348290 Si / 1000 Ang^3
#
#
#
# Elastic Constant Matrix: (Units=GPa)
#
#
# Indices 1 2 3 4 5 6 
#
# 1 175.7390 8.6783 78.1763 0.0000 2.5187 0.0000
# 2 8.6783 6.1989 19.0837 0.0000 0.1804 0.0000
# 3 78.1763 19.0837 214.4330 0.0000 6.2981 0.0000
# 4 0.0000 0.0000 0.0000 13.9930 0.0000 0.5099
# 5 2.5187 0.1804 6.2981 0.0000 37.7605 0.0000
# 6 0.0000 0.0000 0.0000 0.5099 0.0000 5.5402
#
#
#
# Elastic Compliance Matrix: (Units=1/GPa)
#
#
# Indices 1 2 3 4 5 6 
#
# 1 0.006822 -0.002614 -0.002253 0.000000 -0.000067 0.000000
# 2 -0.002614 0.223389 -0.018994 0.000000 0.002275 0.000000
# 3 -0.002253 -0.018994 0.007203 0.000000 -0.000960 0.000000
# 4 0.000000 0.000000 0.000000 0.071705 0.000000 -0.006599
# 5 -0.000067 0.002275 -0.000960 0.000000 0.026636 0.000000
# 6 0.000000 0.000000 0.000000 -0.006599 0.000000 0.181107
#
#
# Mechanical properties :
#
#
# Convention : Reuss Voigt Hill
#
# Bulk Modulus (GPa) = 5.27172 67.58304 36.42738
# Shear Modulus (GPa) = 7.96412 30.82091 19.39251
#
# Velocity S-wave (km/s) = 2.03104 3.99551 3.16932
# Velocity P-wave (km/s) = 2.86892 7.50274 5.67987
#
# Compressibility (1/GPa) = 0.18969143
#
# Stress axis : x y z
#
# Youngs Moduli (GPa) = 146.57645 4.47651 138.82445
#
# Poissons Ratio (x) = 0.01170 0.31272
# Poissons Ratio (y) = 0.38320 2.63689
# Poissons Ratio (z) = 0.33018 0.08503
#
# Static dielectric constant tensor:
#      x y z
#    x 4.547610 0.000000 -0.009420 
#    y 0.000000 2.573270 0.000000 
#    z -0.009420 0.000000 3.920210 
# 
# 
# High freq. dielectric constant tensor:
#      x y z
#    x 1.786290 0.000000 0.001030 
#    y 0.000000 1.650120 0.000000 
#    z 0.001030 0.000000 1.778530 
# 
# From -- ./inp_files/297784.got.cif
#   From: 2010.06.25/outbox.cif.g09.slc.cpg/sg12_149_cif.got.tgz:297784.got - 2010.06.28 00:19:55.
