data_PCOD8078993
_publ_section_title
;
Structure prediction by ZEFSAII (Michael W. Deem and Ramdas Pophale) SiO2 
 PCOD8078993
Probable space group: C 2/M
;
_chemical_formula_sum "Si O2"
_cell_formula_units_Z 64
_cell_length_a 8.511093
_cell_length_b 24.744269
_cell_length_c 20.998470
_cell_angle_alpha 90.000000
_cell_angle_beta 123.111819
_cell_angle_gamma 90.000000
_cell_volume 3704.140244
_symmetry_space_group_name_H-M "C 2/M"
_symmetry_group_IT_number 12
_symmetry_cell_setting 'monoclinic'
loop_
_space_group_symop_operation_xyz
x,y,z
-x,y,-z
-x,-y,-z
x,-y,z
1/2+x,1/2+y,z
1/2-x,1/2+y,-z
1/2-x,1/2-y,-z
1/2+x,1/2-y,z
loop_
_atom_site_type_symbol
_atom_site_label
_atom_site_fract_x
_atom_site_fract_y
_atom_site_fract_z
Si Si1 0.884566 0.636180 0.729237
Si Si2 0.573261 0.938379 0.154098
Si Si3 0.259670 0.279226 0.203055
Si Si4 0.655737 0.629782 0.869516
Si Si5 0.812937 0.937434 0.999091
Si Si6 0.730878 0.667419 0.242239
Si Si7 0.155927 0.782509 0.353283
Si Si8 0.427952 0.318956 0.415974
O O1 0.905441 0.578826 0.768105
O O2 0.861830 0.683314 0.776949
O O3 0.703022 0.634570 0.643351
O O4 0.071493 0.642854 0.730927
O O5 0.735496 0.910772 0.150612
O O6 0.364732 0.924455 0.084094
O O7 0.618166 0.000000 0.157713
O O8 0.278905 0.308698 0.137890
O O9 0.169546 0.219412 0.183993
O O10 0.459733 0.264118 0.279008
O O11 0.433851 0.624147 0.807307
O O12 0.697101 0.609909 0.950142
O O13 0.803714 0.000000 0.023260
O O14 0.000000 0.929374 0.000000
O O15 0.747024 0.677524 0.321758
O O16 0.299300 0.733924 0.396046
O O17 0.109983 0.809559 0.411304
O O18 0.500000 0.339000 0.500000
#
# Coordination Sequence:
#
# PCOD8078993 Si02
#       8
#     8   8   8   8   8   8   8   8
#     4  10  18  32  51  72 100 137 172 211 251 310
#     4  10  21  37  57  77 100 130 169 218 268 314
#     4   9  17  30  49  72 101 141 175 203 247 293
#     4  10  20  30  53  80 101 136 175 212 262 309
#     4  10  20  36  56  79 104 129 165 222 278 311
#     4  11  17  31  51  75 105 142 177 207 248 296
#     4  10  17  28  45  70 104 143 175 208 246 294
#     4  11  19  29  46  75 108 138 174 213 258 303
#
# _framework density 17.277964000000001
#
# number of rings (size 3 to 8) (size 9 to 14) (size 15 to 20)
#    0.000    1.875    3.750    3.375    0.000    1.000 
#    0.000    0.625    0.000   19.125    0.000    0.000 
#    0.000    2.000    0.000    0.000    0.000    0.000 
#
# Total GULP energy -396453.788854 kJ/mol
# GULP energy per Si atom -12389.180902 kJ/mol
# Density = 1.723864 g / cm^3
# Si number density = 17.277964 Si / 1000 Ang^3
#
#
#
# Elastic Constant Matrix: (Units=GPa)
#
#
# Indices 1 2 3 4 5 6 
#
# 1 117.1171 22.5378 34.4624 0.0000 -8.2384 0.0000
# 2 22.5378 39.5770 38.7504 0.0000 -8.5184 0.0000
# 3 34.4624 38.7504 98.8272 0.0000 -13.1162 0.0000
# 4 0.0000 0.0000 0.0000 20.0418 0.0000 0.2621
# 5 -8.2384 -8.5184 -13.1162 0.0000 25.8033 0.0000
# 6 0.0000 0.0000 0.0000 0.2621 0.0000 27.9882
#
#
#
# Elastic Compliance Matrix: (Units=1/GPa)
#
#
# Indices 1 2 3 4 5 6 
#
# 1 0.009851 -0.003507 -0.001926 0.000000 0.001008 0.000000
# 2 -0.003507 0.043073 -0.014935 0.000000 0.005508 0.000000
# 3 -0.001926 -0.014935 0.017062 0.000000 0.003127 0.000000
# 4 0.000000 0.000000 0.000000 0.049902 0.000000 -0.000467
# 5 0.001008 0.005508 0.003127 0.000000 0.042485 0.000000
# 6 0.000000 0.000000 0.000000 -0.000467 0.000000 0.035734
#
#
# Mechanical properties :
#
#
# Convention : Reuss Voigt Hill
#
# Bulk Modulus (GPa) = 34.18907 49.66919 41.92913
# Shear Modulus (GPa) = 20.11330 25.41805 22.76568
#
# Velocity S-wave (km/s) = 3.41559 3.83969 3.63383
# Velocity P-wave (km/s) = 5.94859 6.96183 6.47506
#
# Compressibility (1/GPa) = 0.02924912
#
# Stress axis : x y z
#
# Youngs Moduli (GPa) = 101.51190 23.21646 58.61129
#
# Poissons Ratio (x) = 0.08141 0.11291
# Poissons Ratio (y) = 0.35597 0.87537
# Poissons Ratio (z) = 0.19555 0.34674
#
# Static dielectric constant tensor:
#      x y z
#    x 3.988100 0.000000 -0.331370 
#    y 0.000000 3.293370 0.000000 
#    z -0.331370 0.000000 3.340100 
# 
# 
# High freq. dielectric constant tensor:
#      x y z
#    x 1.699830 0.000000 0.000280 
#    y 0.000000 1.631240 0.000000 
#    z 0.000280 0.000000 1.639070 
# 
# From -- ./inp_files/302659.got.cif
#   From: 2010.06.25/outbox.cif.g09.slc.cpg/sg12_152_cif.got.tgz:302659.got - 2010.06.28 00:19:55.
