data_PCOD8078583
_publ_section_title
;
Structure prediction by ZEFSAII (Michael W. Deem and Ramdas Pophale) SiO2 
 PCOD8078583
Probable space group: C 2/M
;
_chemical_formula_sum "Si O2"
_cell_formula_units_Z 56
_cell_length_a 28.739935
_cell_length_b 8.887035
_cell_length_c 29.010025
_cell_angle_alpha 90.000000
_cell_angle_beta 151.411648
_cell_angle_gamma 90.000000
_cell_volume 3545.560013
_symmetry_space_group_name_H-M "C 2/M"
_symmetry_group_IT_number 12
_symmetry_cell_setting 'monoclinic'
loop_
_space_group_symop_operation_xyz
x,y,z
-x,y,-z
-x,-y,-z
x,-y,z
1/2+x,1/2+y,z
1/2-x,1/2+y,-z
1/2-x,1/2-y,-z
1/2+x,1/2-y,z
loop_
_atom_site_type_symbol
_atom_site_label
_atom_site_fract_x
_atom_site_fract_y
_atom_site_fract_z
Si Si1 0.584741 0.178564 0.470904
Si Si2 0.328427 0.326842 0.037202
Si Si3 0.706734 0.176666 0.850894
Si Si4 0.545880 0.325246 0.773698
Si Si5 0.841208 0.177022 0.555002
Si Si6 0.877005 0.176523 0.304981
Si Si7 0.615368 0.165809 0.597719
O O1 0.648691 0.251174 0.486587
O O2 0.476739 0.245632 0.376198
O O3 0.640189 0.218709 0.567235
O O4 0.576165 0.000000 0.457098
O O5 0.302609 0.500000 0.016931
O O6 0.308162 0.278746 0.966203
O O7 0.250000 0.250000 0.000000
O O8 0.432856 0.294742 0.152621
O O9 0.613902 0.223102 0.800930
O O10 0.706538 0.267669 0.802742
O O11 0.700395 0.000000 0.834511
O O12 0.566308 0.500000 0.779141
O O13 0.434585 0.283493 0.667510
O O14 0.750000 0.250000 0.500000
O O15 0.825710 0.000000 0.536315
O O16 0.844621 0.220135 0.328812
O O17 0.891115 0.000000 0.314054
O O18 0.500000 0.157711 0.500000
O O19 0.659156 0.000000 0.645635
#
# Coordination Sequence:
#
# PCOD8078583 Si02
#       7
#     8   8   8   8   8   8   8
#     4  10  19  32  47  61  83 112 146 185 223 260
#     4   8  15  26  40  59  81 108 142 176 213 256
#     4  10  17  25  41  62  86 116 145 175 212 258
#     4   9  17  30  44  59  82 111 145 184 221 255
#     4  11  22  33  47  65  87 116 151 188 222 256
#     4  11  19  26  40  63  90 118 146 176 210 257
#     4   8  16  29  43  60  82 111 143 177 215 258
#
# _framework density 15.794402
#
# number of rings (size 3 to 8) (size 9 to 14) (size 15 to 20)
#    0.000    2.429    1.429    3.429    0.000    4.286 
#    0.000    0.000    0.000    0.000    0.000    0.000 
#    0.000    1.143    0.000   13.143    0.000    3.714 
#
# Total GULP energy -346882.122233 kJ/mol
# GULP energy per Si atom -12388.647223 kJ/mol
# Density = 1.575845 g / cm^3
# Si number density = 15.794402 Si / 1000 Ang^3
#
#
#
# Elastic Constant Matrix: (Units=GPa)
#
#
# Indices 1 2 3 4 5 6 
#
# 1 89.5816 42.0760 56.4553 0.0000 -25.1020 0.0000
# 2 42.0760 79.1323 40.1323 -0.0001 -17.3520 -0.0003
# 3 56.4553 40.1323 93.2255 0.0000 -31.5776 0.0000
# 4 0.0000 -0.0001 0.0000 17.8079 0.0000 -5.0457
# 5 -25.1020 -17.3520 -31.5776 0.0000 28.1749 0.0000
# 6 0.0000 -0.0003 0.0000 -5.0457 0.0000 22.2287
#
#
#
# Elastic Compliance Matrix: (Units=1/GPa)
#
#
# Indices 1 2 3 4 5 6 
#
# 1 0.020452 -0.005523 -0.008040 0.000000 0.005809 0.000000
# 2 -0.005523 0.017872 -0.003687 0.000000 0.001953 0.000000
# 3 -0.008040 -0.003687 0.022547 0.000000 0.015836 0.000000
# 4 0.000000 0.000000 0.000000 0.060015 0.000000 0.013623
# 5 0.005809 0.001953 0.015836 0.000000 0.059619 0.000000
# 6 0.000000 0.000000 0.000000 0.013623 0.000000 0.048079
#
#
# Mechanical properties :
#
#
# Convention : Reuss Voigt Hill
#
# Bulk Modulus (GPa) = 37.92225 59.91849 48.92037
# Shear Modulus (GPa) = 18.39080 21.86069 20.12575
#
# Velocity S-wave (km/s) = 3.41601 3.72436 3.57351
# Velocity P-wave (km/s) = 6.29452 7.51753 6.93305
#
# Compressibility (1/GPa) = 0.02636974
#
# Stress axis : x y z
#
# Youngs Moduli (GPa) = 48.89546 55.95249 44.35231
#
# Poissons Ratio (x) = 0.30905 0.35659
# Poissons Ratio (y) = 0.27007 0.16354
# Poissons Ratio (z) = 0.39311 0.20631
#
# Static dielectric constant tensor:
#      x y z
#    x 2.930620 0.000000 -0.601230 
#    y 0.000000 3.089510 0.000000 
#    z -0.601230 0.000000 3.342410 
# 
# 
# High freq. dielectric constant tensor:
#      x y z
#    x 1.565120 0.000000 -0.052020 
#    y 0.000000 1.618440 0.000000 
#    z -0.052020 0.000000 1.593170 
# 
# From -- ./inp_files/247824.got.cif
#   From: 2010.06.25/outbox.cif.g09.slc.cpg/sg12_124_cif.got.tgz:247824.got - 2010.06.28 00:19:55.
