data_PCOD8078730
_publ_section_title
;
Structure prediction by ZEFSAII (Michael W. Deem and Ramdas Pophale) SiO2 
 PCOD8078730
Probable space group: C 2/M
;
_chemical_formula_sum "Si O2"
_cell_formula_units_Z 56
_cell_length_a 20.515408
_cell_length_b 8.874923
_cell_length_c 16.278757
_cell_angle_alpha 90.000000
_cell_angle_beta 76.313142
_cell_angle_gamma 90.000000
_cell_volume 2879.751589
_symmetry_space_group_name_H-M "C 2/M"
_symmetry_group_IT_number 12
_symmetry_cell_setting 'monoclinic'
loop_
_space_group_symop_operation_xyz
x,y,z
-x,y,-z
-x,-y,-z
x,-y,z
1/2+x,1/2+y,z
1/2-x,1/2+y,-z
1/2-x,1/2-y,-z
1/2+x,1/2-y,z
loop_
_atom_site_type_symbol
_atom_site_label
_atom_site_fract_x
_atom_site_fract_y
_atom_site_fract_z
Si Si1 0.848506 0.828949 0.177574
Si Si2 0.770066 0.830565 0.368387
Si Si3 0.402338 0.677876 0.419269
Si Si4 0.250011 0.178464 0.088776
Si Si5 0.118983 0.821097 0.222686
Si Si6 0.633987 0.677201 0.399103
Si Si7 0.973045 0.820866 0.239633
O O1 0.798573 0.821958 0.268365
O O2 0.818170 0.726458 0.114547
O O3 0.921690 0.763446 0.184272
O O4 0.855609 0.000000 0.142548
O O5 0.826880 0.780802 0.415357
O O6 0.710924 0.712155 0.395776
O O7 0.744442 0.000000 0.393745
O O8 0.411976 0.500000 0.416799
O O9 0.411727 0.738911 0.510552
O O10 0.453853 0.745461 0.336240
O O11 0.183818 0.242045 0.155673
O O12 0.247853 0.000000 0.082023
O O13 0.250000 0.250000 0.000000
O O14 0.114547 0.752193 0.316505
O O15 0.049839 0.774164 0.196723
O O16 0.124904 0.000000 0.226166
O O17 0.624687 0.500000 0.397056
O O18 0.963894 0.000000 0.246211
#
# Coordination Sequence:
#
# PCOD8078730 Si02
#       7
#     8   8   8   8   8   8   8
#     4   9  17  32  55  77  99 133 171 205 247 297
#     4   9  16  27  43  67  99 135 171 203 243 295
#     4   8  15  25  41  68 101 135 170 208 246 285
#     4  11  22  37  57  81 105 127 159 205 255 307
#     4   9  18  31  49  75 104 132 165 210 256 296
#     4  10  17  26  43  71 103 132 168 212 251 284
#     4   8  15  30  50  74 105 137 170 206 246 295
#
# _framework density 19.446121000000002
#
# number of rings (size 3 to 8) (size 9 to 14) (size 15 to 20)
#    0.000    2.857    1.429    2.571    0.000    0.571 
#    0.000    3.571    0.000    6.857    0.000    1.000 
#    0.000    0.000    0.000    0.000    0.000    0.000 
#
# Total GULP energy -346880.631374 kJ/mol
# GULP energy per Si atom -12388.593978 kJ/mol
# Density = 1.940186 g / cm^3
# Si number density = 19.446121 Si / 1000 Ang^3
#
#
#
# Elastic Constant Matrix: (Units=GPa)
#
#
# Indices 1 2 3 4 5 6 
#
# 1 110.6421 17.5819 64.4311 0.0000 4.8299 0.0000
# 2 17.5819 18.9181 23.4724 0.0000 5.0737 0.0000
# 3 64.4311 23.4724 116.8014 0.0000 23.0813 0.0000
# 4 0.0000 0.0000 0.0000 18.5341 0.0000 3.0789
# 5 4.8299 5.0737 23.0813 0.0000 15.5722 0.0000
# 6 0.0000 0.0000 0.0000 3.0789 0.0000 19.5118
#
#
#
# Elastic Compliance Matrix: (Units=1/GPa)
#
#
# Indices 1 2 3 4 5 6 
#
# 1 0.014770 -0.005151 -0.009248 0.000000 0.010804 0.000000
# 2 -0.005151 0.072299 -0.010393 0.000000 -0.006555 0.000000
# 3 -0.009248 -0.010393 0.020528 0.000000 -0.024172 0.000000
# 4 0.000000 0.000000 0.000000 0.055407 0.000000 -0.008743
# 5 0.010804 -0.006555 -0.024172 0.000000 0.098830 0.000000
# 6 0.000000 0.000000 0.000000 -0.008743 0.000000 0.052631
#
#
# Mechanical properties :
#
#
# Convention : Reuss Voigt Hill
#
# Bulk Modulus (GPa) = 17.23680 50.81469 34.02575
# Shear Modulus (GPa) = 13.04172 20.11539 16.57856
#
# Velocity S-wave (km/s) = 2.59252 3.21972 2.92299
# Velocity P-wave (km/s) = 4.22429 6.32534 5.37841
#
# Compressibility (1/GPa) = 0.05801541
#
# Stress axis : x y z
#
# Youngs Moduli (GPa) = 67.70392 13.83147 48.71400
#
# Poissons Ratio (x) = 0.07124 0.45048
# Poissons Ratio (y) = 0.34872 0.50626
# Poissons Ratio (z) = 0.62609 0.14374
#
# Static dielectric constant tensor:
#      x y z
#    x 3.712310 0.000000 0.074590 
#    y 0.000000 3.040610 0.000000 
#    z 0.074590 0.000000 3.691190 
# 
# 
# High freq. dielectric constant tensor:
#      x y z
#    x 1.757870 0.000000 0.009160 
#    y 0.000000 1.696410 0.000000 
#    z 0.009160 0.000000 1.751950 
# 
# From -- ./inp_files/280245.got.cif
#   From: 2010.06.25/outbox.cif.g09.slc.cpg/sg12_141_cif.got.tgz:280245.got - 2010.06.28 00:19:55.
