data_PCOD8078232
_publ_section_title
;
Structure prediction by ZEFSAII (Michael W. Deem and Ramdas Pophale) SiO2 
 PCOD8078232
Probable space group: C 2/M
;
_chemical_formula_sum "Si O2"
_cell_formula_units_Z 56
_cell_length_a 13.480621
_cell_length_b 25.923068
_cell_length_c 8.619676
_cell_angle_alpha 90.000000
_cell_angle_beta 118.251148
_cell_angle_gamma 90.000000
_cell_volume 2653.411504
_symmetry_space_group_name_H-M "C 2/M"
_symmetry_group_IT_number 12
_symmetry_cell_setting 'monoclinic'
loop_
_space_group_symop_operation_xyz
x,y,z
-x,y,-z
-x,-y,-z
x,-y,z
1/2+x,1/2+y,z
1/2-x,1/2+y,-z
1/2-x,1/2-y,-z
1/2+x,1/2-y,z
loop_
_atom_site_type_symbol
_atom_site_label
_atom_site_fract_x
_atom_site_fract_y
_atom_site_fract_z
Si Si1 0.775992 0.216121 0.368532
Si Si2 0.250774 0.374789 0.545388
Si Si3 0.886713 0.691360 0.329460
Si Si4 0.458117 0.941661 0.637046
Si Si5 0.807618 0.557532 0.018400
Si Si6 0.618853 0.441375 0.140452
Si Si7 0.621998 0.840964 0.033057
O O1 0.750000 0.250000 0.500000
O O2 0.812157 0.159962 0.459889
O O3 0.869282 0.246620 0.338020
O O4 0.670008 0.205076 0.176113
O O5 0.214845 0.339580 0.665427
O O6 0.143320 0.403803 0.388260
O O7 0.343116 0.414689 0.672968
O O8 0.000000 0.674516 0.500000
O O9 0.888720 0.678892 0.150653
O O10 0.500000 0.924632 0.500000
O O11 0.564999 0.936614 0.826396
O O12 0.410858 0.000000 0.599271
O O13 0.794335 0.500000 0.931214
O O14 0.716077 0.563658 0.084774
O O15 0.798295 0.607007 0.897613
O O16 0.596372 0.500000 0.169257
O O17 0.500000 0.416278 0.000000
O O18 0.500000 0.856660 0.000000
#
# Coordination Sequence:
#
# PCOD8078232 Si02
#       7
#     8   8   8   8   8   8   8
#     4  10  24  41  58  85 121 160 214 267 313 372
#     4  11  19  37  61  92 123 163 210 261 317 375
#     4  11  22  41  63  90 124 160 205 268 325 383
#     4  10  16  26  53  91 127 160 197 246 303 368
#     4  10  20  35  57  94 132 162 201 253 312 381
#     4  10  20  36  60  91 130 170 211 252 300 380
#     4  12  22  39  66  92 124 171 206 253 331 384
#
# _framework density 21.104907000000001
#
# number of rings (size 3 to 8) (size 9 to 14) (size 15 to 20)
#    0.000    1.429    2.857    4.714    0.000    0.286 
#    2.571    4.286    0.000    0.000    0.000    3.000 
#    0.000    0.000    0.000    0.000    0.000    0.000 
#
# Total GULP energy -346963.583514 kJ/mol
# GULP energy per Si atom -12391.556554 kJ/mol
# Density = 2.105687 g / cm^3
# Si number density = 21.104907 Si / 1000 Ang^3
#
#
#
# Elastic Constant Matrix: (Units=GPa)
#
#
# Indices 1 2 3 4 5 6 
#
# 1 60.1334 50.2291 29.3039 0.0000 3.4229 0.0000
# 2 50.2291 126.2903 38.8054 0.0000 -3.5655 0.0000
# 3 29.3039 38.8054 100.8266 0.0000 3.0916 0.0000
# 4 0.0000 0.0000 0.0000 37.4581 0.0000 -1.1010
# 5 3.4229 -3.5655 3.0916 0.0000 34.6118 0.0000
# 6 0.0000 0.0000 0.0000 -1.1010 0.0000 36.6566
#
#
#
# Elastic Compliance Matrix: (Units=1/GPa)
#
#
# Indices 1 2 3 4 5 6 
#
# 1 0.026680 -0.009471 -0.004009 0.000000 -0.003256 0.000000
# 2 -0.009471 0.012396 -0.002092 0.000000 0.002400 0.000000
# 3 -0.004009 -0.002092 0.011915 0.000000 -0.000883 0.000000
# 4 0.000000 0.000000 0.000000 0.026720 0.000000 0.000803
# 5 -0.003256 0.002400 -0.000883 0.000000 0.029540 0.000000
# 6 0.000000 0.000000 0.000000 0.000803 0.000000 0.027304
#
#
# Mechanical properties :
#
#
# Convention : Reuss Voigt Hill
#
# Bulk Modulus (GPa) = 50.38580 58.21412 54.29996
# Shear Modulus (GPa) = 29.01648 33.00609 31.01128
#
# Velocity S-wave (km/s) = 3.71195 3.95892 3.83742
# Velocity P-wave (km/s) = 6.50363 6.96710 6.73935
#
# Compressibility (1/GPa) = 0.01984686
#
# Stress axis : x y z
#
# Youngs Moduli (GPa) = 37.48101 80.67248 83.92567
#
# Poissons Ratio (x) = 0.76409 0.33647
# Poissons Ratio (y) = 0.35500 0.17554
# Poissons Ratio (z) = 0.15026 0.16874
#
# Static dielectric constant tensor:
#      x y z
#    x 3.644490 0.000000 -0.050050 
#    y 0.000000 4.575960 0.000000 
#    z -0.050050 0.000000 3.784520 
# 
# 
# High freq. dielectric constant tensor:
#      x y z
#    x 1.794790 0.000000 -0.007500 
#    y 0.000000 1.849250 0.000000 
#    z -0.007500 0.000000 1.815770 
# 
# From -- ./inp_files/67067.got.cif
#   From: 2010.06.25/outbox.cif.g09.slc.cpg/sg12_34_cif.got.tgz:67067.got - 2010.06.28 00:19:55.
