data_PCOD8078560
_publ_section_title
;
Structure prediction by ZEFSAII (Michael W. Deem and Ramdas Pophale) SiO2 
 PCOD8078560
Probable space group: C 2/M
;
_chemical_formula_sum "Si O2"
_cell_formula_units_Z 48
_cell_length_a 33.660733
_cell_length_b 8.518913
_cell_length_c 10.370594
_cell_angle_alpha 90.000000
_cell_angle_beta 115.689685
_cell_angle_gamma 90.000000
_cell_volume 2679.852673
_symmetry_space_group_name_H-M "C 2/M"
_symmetry_group_IT_number 12
_symmetry_cell_setting 'monoclinic'
loop_
_space_group_symop_operation_xyz
x,y,z
-x,y,-z
-x,-y,-z
x,-y,z
1/2+x,1/2+y,z
1/2-x,1/2+y,-z
1/2-x,1/2-y,-z
1/2+x,1/2-y,z
loop_
_atom_site_type_symbol
_atom_site_label
_atom_site_fract_x
_atom_site_fract_y
_atom_site_fract_z
Si Si1 0.538305 0.817785 0.206786
Si Si2 0.227912 0.813854 0.096370
Si Si3 0.723069 0.185905 0.581245
Si Si4 0.866503 0.685948 0.654071
Si Si5 0.548433 0.682880 0.941770
Si Si6 0.637878 0.813942 0.059550
O O1 0.585439 0.760090 0.333246
O O2 0.543822 0.789125 0.062223
O O3 0.530134 0.000000 0.223308
O O4 0.496223 0.720859 0.203826
O O5 0.256643 0.749690 0.257410
O O6 0.178673 0.747626 0.034204
O O7 0.226646 0.000000 0.092575
O O8 0.250000 0.750000 0.000000
O O9 0.750000 0.250000 0.500000
O O10 0.672281 0.245010 0.495472
O O11 0.725241 0.000000 0.580426
O O12 0.866569 0.500000 0.664406
O O13 0.857498 0.748848 0.786692
O O14 0.550111 0.500000 0.978237
O O15 0.593300 0.738508 0.934553
O O16 0.635404 0.000000 0.045759
#
# Coordination Sequence:
#
# PCOD8078560 Si02
#       6
#     8   8   8   8   8   8
#     4   9  15  25  40  62  93 129 163 197 245 298
#     4  11  23  36  52  74 103 136 173 212 253 301
#     4  10  19  33  52  76 100 131 170 210 253 300
#     4   8  15  27  46  70  97 126 160 203 248 294
#     4  10  17  25  39  63  96 128 161 201 245 296
#     4  10  18  31  50  69  95 130 167 207 253 301
#
# _framework density 17.911434
#
# number of rings (size 3 to 8) (size 9 to 14) (size 15 to 20)
#    0.000    2.333    1.667    5.000    0.000    0.667 
#    0.000    0.833    0.000    0.000    0.000    1.167 
#    0.000    9.333    0.000    0.000    0.000    0.000 
#
# Total GULP energy -297393.320746 kJ/mol
# GULP energy per Si atom -12391.388364 kJ/mol
# Density = 1.787067 g / cm^3
# Si number density = 17.911434 Si / 1000 Ang^3
#
#
#
# Elastic Constant Matrix: (Units=GPa)
#
#
# Indices 1 2 3 4 5 6 
#
# 1 169.4847 36.7574 72.3321 0.0000 39.4575 0.0000
# 2 36.7574 56.0696 21.4317 0.0000 7.7265 0.0000
# 3 72.3321 21.4317 76.3081 0.0000 15.9983 0.0000
# 4 0.0000 0.0000 0.0000 13.4667 0.0000 3.4502
# 5 39.4575 7.7265 15.9983 0.0000 34.0761 0.0000
# 6 0.0000 0.0000 0.0000 3.4502 0.0000 30.5781
#
#
#
# Elastic Compliance Matrix: (Units=1/GPa)
#
#
# Indices 1 2 3 4 5 6 
#
# 1 0.012848 -0.003589 -0.009120 0.000000 -0.009782 0.000000
# 2 -0.003589 0.021119 -0.002659 0.000000 0.000615 0.000000
# 3 -0.009120 -0.002659 0.022356 0.000000 0.000667 0.000000
# 4 0.000000 0.000000 0.000000 0.076468 0.000000 -0.008628
# 5 -0.009782 0.000615 0.000667 0.000000 0.040220 0.000000
# 6 0.000000 0.000000 0.000000 -0.008628 0.000000 0.033677
#
#
# Mechanical properties :
#
#
# Convention : Reuss Voigt Hill
#
# Bulk Modulus (GPa) = 39.07955 62.54497 50.81226
# Shear Modulus (GPa) = 20.32920 27.04691 23.68806
#
# Velocity S-wave (km/s) = 3.37261 3.89013 3.64058
# Velocity P-wave (km/s) = 6.08536 7.42781 6.78984
#
# Compressibility (1/GPa) = 0.02558883
#
# Stress axis : x y z
#
# Youngs Moduli (GPa) = 77.83361 47.35036 44.73024
#
# Poissons Ratio (x) = 0.16993 0.40793
# Poissons Ratio (y) = 0.27933 0.11892
# Poissons Ratio (z) = 0.70983 0.12589
#
# Static dielectric constant tensor:
#      x y z
#    x 3.883970 0.000000 0.763390 
#    y 0.000000 3.131760 0.000000 
#    z 0.763390 0.000000 3.247720 
# 
# 
# High freq. dielectric constant tensor:
#      x y z
#    x 1.701460 0.000000 0.051250 
#    y 0.000000 1.688150 0.000000 
#    z 0.051250 0.000000 1.640810 
# 
# From -- ./inp_files/185946.got.cif
#   From: 2010.06.25/outbox.cif.g09.slc.cpg/sg12_93_cif.got.tgz:185946.got - 2010.06.28 00:19:55.
