data_PCOD8078192
_publ_section_title
;
Structure prediction by ZEFSAII (Michael W. Deem and Ramdas Pophale) SiO2 
 PCOD8078192
Probable space group: C 2/M
;
_chemical_formula_sum "Si O2"
_cell_formula_units_Z 56
_cell_length_a 28.735231
_cell_length_b 9.092893
_cell_length_c 17.297740
_cell_angle_alpha 90.000000
_cell_angle_beta 129.279996
_cell_angle_gamma 90.000000
_cell_volume 3498.496892
_symmetry_space_group_name_H-M "C 2/M"
_symmetry_group_IT_number 12
_symmetry_cell_setting 'monoclinic'
loop_
_space_group_symop_operation_xyz
x,y,z
-x,y,-z
-x,-y,-z
x,-y,z
1/2+x,1/2+y,z
1/2-x,1/2+y,-z
1/2-x,1/2-y,-z
1/2+x,1/2-y,z
loop_
_atom_site_type_symbol
_atom_site_label
_atom_site_fract_x
_atom_site_fract_y
_atom_site_fract_z
Si Si1 0.235243 0.328401 0.867436
Si Si2 0.710430 0.826300 0.394366
Si Si3 0.050165 0.326237 0.869596
Si Si4 0.843281 0.172082 0.093350
Si Si5 0.578980 0.826608 0.228374
Si Si6 0.269183 0.164719 0.757446
Si Si7 0.908858 0.335534 0.925704
O O1 0.220736 0.500000 0.854682
O O2 0.182792 0.243453 0.856692
O O3 0.233923 0.274369 0.777314
O O4 0.299416 0.293310 0.974964
O O5 0.750000 0.750000 0.500000
O O6 0.641270 0.768632 0.331235
O O7 0.736003 0.781781 0.336815
O O8 0.713980 0.000000 0.409673
O O9 0.064050 0.500000 0.878398
O O10 0.090980 0.241755 0.850828
O O11 0.979161 0.292455 0.779507
O O12 0.065108 0.258675 0.970141
O O13 0.850518 0.000000 0.114848
O O14 0.569844 0.758461 0.132120
O O15 0.587752 0.000000 0.224688
O O16 0.337594 0.165081 0.855568
O O17 0.242713 0.000000 0.738282
O O18 0.934937 0.500000 0.955115
#
# Coordination Sequence:
#
# PCOD8078192 Si02
#       7
#     8   8   8   8   8   8   8
#     4  10  19  30  44  63  87 120 160 192 221 261
#     4   9  18  32  49  70  94 119 150 188 229 271
#     4  10  16  25  44  65  87 119 156 187 217 258
#     4  10  20  30  41  60  92 126 155 188 223 261
#     4   8  15  26  42  66  90 115 151 189 220 260
#     4   9  16  28  46  67  91 118 150 189 229 266
#     4   8  13  22  39  63  88 115 148 182 215 255
#
# _framework density 16.006874
#
# number of rings (size 3 to 8) (size 9 to 14) (size 15 to 20)
#    0.000    2.857    1.429    3.000    0.000    3.429 
#    0.000    0.714    0.000    2.571    0.000    1.000 
#    0.000    8.000    0.000    0.000    0.000    0.000 
#
# Total GULP energy -346971.726091 kJ/mol
# GULP energy per Si atom -12391.847360 kJ/mol
# Density = 1.597044 g / cm^3
# Si number density = 16.006874 Si / 1000 Ang^3
#
#
#
# Elastic Constant Matrix: (Units=GPa)
#
#
# Indices 1 2 3 4 5 6 
#
# 1 128.0061 52.2723 50.4268 0.0000 -4.9262 0.0000
# 2 52.2723 57.2493 30.7457 0.0000 -6.2090 0.0000
# 3 50.4268 30.7457 80.8977 0.0000 -5.5678 0.0000
# 4 0.0000 0.0000 0.0000 20.6781 0.0000 -3.3166
# 5 -4.9262 -6.2090 -5.5678 0.0000 15.1211 0.0000
# 6 0.0000 0.0000 0.0000 -3.3166 0.0000 21.9463
#
#
#
# Elastic Compliance Matrix: (Units=1/GPa)
#
#
# Indices 1 2 3 4 5 6 
#
# 1 0.013820 -0.010173 -0.004849 0.000000 -0.001460 0.000000
# 2 -0.010173 0.029997 -0.004555 0.000000 0.007326 0.000000
# 3 -0.004849 -0.004555 0.017316 0.000000 0.002926 0.000000
# 4 0.000000 0.000000 0.000000 0.049562 0.000000 0.007490
# 5 -0.001460 0.007326 0.002926 0.000000 0.069743 0.000000
# 6 0.000000 0.000000 0.000000 0.007490 0.000000 0.046698
#
#
# Mechanical properties :
#
#
# Convention : Reuss Voigt Hill
#
# Bulk Modulus (GPa) = 45.49681 59.22695 52.36188
# Shear Modulus (GPa) = 18.27375 20.39632 19.33504
#
# Velocity S-wave (km/s) = 3.38245 3.57350 3.47929
# Velocity P-wave (km/s) = 6.61359 7.35580 6.99455
#
# Compressibility (1/GPa) = 0.02197956
#
# Stress axis : x y z
#
# Youngs Moduli (GPa) = 72.35668 33.33669 57.74877
#
# Poissons Ratio (x) = 0.33914 0.28002
# Poissons Ratio (y) = 0.73610 0.26304
# Poissons Ratio (z) = 0.35085 0.15185
#
# Static dielectric constant tensor:
#      x y z
#    x 3.085640 0.000000 -0.019570 
#    y 0.000000 2.761110 0.000000 
#    z -0.019570 0.000000 2.810020 
# 
# 
# High freq. dielectric constant tensor:
#      x y z
#    x 1.617930 0.000000 -0.006200 
#    y 0.000000 1.587580 0.000000 
#    z -0.006200 0.000000 1.574890 
# 
# From -- ./inp_files/244297.got.cif
#   From: 2010.06.25/outbox.cif.g09.slc.cpg/sg12_123_cif.got.tgz:244297.got - 2010.06.28 00:19:55.
