data_PCOD8078815
_publ_section_title
;
Structure prediction by ZEFSAII (Michael W. Deem and Ramdas Pophale) SiO2 
 PCOD8078815
Probable space group: C 2/M
;
_chemical_formula_sum "Si O2"
_cell_formula_units_Z 64
_cell_length_a 27.068782
_cell_length_b 9.029336
_cell_length_c 17.188757
_cell_angle_alpha 90.000000
_cell_angle_beta 101.110558
_cell_angle_gamma 90.000000
_cell_volume 4122.416278
_symmetry_space_group_name_H-M "C 2/M"
_symmetry_group_IT_number 12
_symmetry_cell_setting 'monoclinic'
loop_
_space_group_symop_operation_xyz
x,y,z
-x,y,-z
-x,-y,-z
x,-y,z
1/2+x,1/2+y,z
1/2-x,1/2+y,-z
1/2-x,1/2-y,-z
1/2+x,1/2-y,z
loop_
_atom_site_type_symbol
_atom_site_label
_atom_site_fract_x
_atom_site_fract_y
_atom_site_fract_z
Si Si1 0.058551 0.671445 0.530537
Si Si2 0.211549 0.674032 0.159215
Si Si3 0.801642 0.826566 0.993342
Si Si4 0.366706 0.673393 0.562564
Si Si5 0.824188 0.172564 0.166133
Si Si6 0.707699 0.328175 0.590610
Si Si7 0.186316 0.325510 0.324788
Si Si8 0.618537 0.324584 0.672477
O O1 0.073795 0.500000 0.533722
O O2 0.087217 0.753756 0.469362
O O3 0.071544 0.739755 0.619521
O O4 0.000000 0.695880 0.500000
O O5 0.210742 0.500000 0.142740
O O6 0.178645 0.753306 0.080872
O O7 0.269045 0.736845 0.173352
O O8 0.185513 0.713169 0.233110
O O9 0.793476 0.000000 0.978131
O O10 0.750000 0.750000 0.000000
O O11 0.837916 0.796752 0.079400
O O12 0.378084 0.500000 0.572648
O O13 0.314019 0.705437 0.501569
O O14 0.360241 0.744338 0.646325
O O15 0.869962 0.229530 0.235236
O O16 0.819517 0.000000 0.182200
O O17 0.714917 0.500000 0.608535
O O18 0.762271 0.257272 0.622637
O O19 0.667575 0.270089 0.640607
O O20 0.180730 0.500000 0.337070
O O21 0.608409 0.500000 0.661909
#
# Coordination Sequence:
#
# PCOD8078815 Si02
#       8
#     8   8   8   8   8   8   8   8
#     4  10  21  36  50  64  85 110 137 174 222 269
#     4   9  16  26  40  57  83 120 153 178 210 248
#     4   9  16  25  38  55  80 114 150 184 216 248
#     4  10  20  31  45  64  84 108 144 182 214 252
#     4   8  13  24  41  59  82 113 146 180 215 248
#     4   8  14  25  41  59  82 113 144 175 209 245
#     4  10  17  27  43  60  86 120 149 176 211 251
#     4   9  15  27  47  67  85 109 146 182 214 254
#
# _framework density 15.524874000000001
#
# number of rings (size 3 to 8) (size 9 to 14) (size 15 to 20)
#    0.000    2.875    1.250    3.000    0.000    1.500 
#    0.000    5.625    0.000    0.000    0.000    0.000 
#    0.000    1.000    0.000   11.250    0.000    5.000 
#
# Total GULP energy -396439.335395 kJ/mol
# GULP energy per Si atom -12388.729231 kJ/mol
# Density = 1.548954 g / cm^3
# Si number density = 15.524874 Si / 1000 Ang^3
#
#
#
# Elastic Constant Matrix: (Units=GPa)
#
#
# Indices 1 2 3 4 5 6 
#
# 1 44.6617 31.0520 43.8071 0.0000 2.6664 0.0000
# 2 31.0520 66.7111 59.0576 0.0000 -1.5827 0.0000
# 3 43.8071 59.0576 135.3001 0.0000 3.9667 0.0000
# 4 0.0000 0.0000 0.0000 25.9526 0.0000 -1.9640
# 5 2.6664 -1.5827 3.9667 0.0000 14.5023 0.0000
# 6 0.0000 0.0000 0.0000 -1.9640 0.0000 15.9616
#
#
#
# Elastic Compliance Matrix: (Units=1/GPa)
#
#
# Indices 1 2 3 4 5 6 
#
# 1 0.037580 -0.011459 -0.006982 0.000000 -0.006250 0.000000
# 2 -0.011459 0.028389 -0.008905 0.000000 0.007641 0.000000
# 3 -0.006982 -0.008905 0.013639 0.000000 -0.003419 0.000000
# 4 0.000000 0.000000 0.000000 0.038894 0.000000 0.004786
# 5 -0.006250 0.007641 -0.003419 0.000000 0.071873 0.000000
# 6 0.000000 0.000000 0.000000 0.004786 0.000000 0.063239
#
#
# Mechanical properties :
#
#
# Convention : Reuss Voigt Hill
#
# Bulk Modulus (GPa) = 40.13834 57.16738 48.65286
# Shear Modulus (GPa) = 15.79218 18.80035 17.29627
#
# Velocity S-wave (km/s) = 3.19285 3.48369 3.34144
# Velocity P-wave (km/s) = 6.28512 7.28591 6.80394
#
# Compressibility (1/GPa) = 0.02491384
#
# Stress axis : x y z
#
# Youngs Moduli (GPa) = 26.61008 35.22500 73.31881
#
# Poissons Ratio (x) = 0.40365 0.51194
# Poissons Ratio (y) = 0.30493 0.65293
# Poissons Ratio (z) = 0.18580 0.31369
#
# Static dielectric constant tensor:
#      x y z
#    x 2.551280 0.000000 0.216040 
#    y 0.000000 2.866610 0.000000 
#    z 0.216040 0.000000 3.180110 
# 
# 
# High freq. dielectric constant tensor:
#      x y z
#    x 1.534870 0.000000 0.001270 
#    y 0.000000 1.583280 0.000000 
#    z 0.001270 0.000000 1.606800 
# 
# From -- ./inp_files/291609.got.cif
#   From: 2010.06.25/outbox.cif.g09.slc.cpg/sg12_146_cif.got.tgz:291609.got - 2010.06.28 00:19:55.
