data_PCOD8078810
_publ_section_title
;
Structure prediction by ZEFSAII (Michael W. Deem and Ramdas Pophale) SiO2 
 PCOD8078810
Probable space group: C 2/M
;
_chemical_formula_sum "Si O2"
_cell_formula_units_Z 56
_cell_length_a 27.665570
_cell_length_b 8.730797
_cell_length_c 14.590572
_cell_angle_alpha 90.000000
_cell_angle_beta 76.708629
_cell_angle_gamma 90.000000
_cell_volume 3429.840778
_symmetry_space_group_name_H-M "C 2/M"
_symmetry_group_IT_number 12
_symmetry_cell_setting 'monoclinic'
loop_
_space_group_symop_operation_xyz
x,y,z
-x,y,-z
-x,-y,-z
x,-y,z
1/2+x,1/2+y,z
1/2-x,1/2+y,-z
1/2-x,1/2-y,-z
1/2+x,1/2-y,z
loop_
_atom_site_type_symbol
_atom_site_label
_atom_site_fract_x
_atom_site_fract_y
_atom_site_fract_z
Si Si1 0.067322 0.682786 0.899489
Si Si2 0.959093 0.681762 0.894557
Si Si3 0.624096 0.827381 0.709321
Si Si4 0.956009 0.327629 0.405721
Si Si5 0.117713 0.178267 0.430206
Si Si6 0.435238 0.180202 0.705896
Si Si7 0.304361 0.817429 0.474215
O O1 0.066793 0.500000 0.890157
O O2 0.111922 0.748667 0.814478
O O3 0.014436 0.747227 0.886912
O O4 0.075044 0.730271 0.002779
O O5 0.962617 0.500000 0.886204
O O6 0.935677 0.744708 0.810178
O O7 0.571963 0.820972 0.678701
O O8 0.667489 0.749479 0.629066
O O9 0.641871 0.000000 0.717496
O O10 0.952278 0.500000 0.448006
O O11 0.931324 0.213363 0.488908
O O12 0.012560 0.279694 0.365042
O O13 0.108344 0.234013 0.330226
O O14 0.165560 0.266109 0.449086
O O15 0.129534 0.000000 0.426043
O O16 0.424921 0.000000 0.708871
O O17 0.250000 0.750000 0.500000
O O18 0.303008 0.000000 0.473264
#
# Coordination Sequence:
#
# PCOD8078810 Si02
#       7
#     8   8   8   8   8   8   8
#     4   8  11  19  35  62  93 119 149 185 217 251
#     4   8  13  19  35  62  93 122 151 186 217 248
#     4   8  13  23  41  64  91 119 146 177 220 266
#     4   9  16  27  42  61  88 123 157 187 219 261
#     4  11  22  32  43  62  88 119 154 189 224 266
#     4  10  17  27  42  63  91 125 158 186 221 262
#     4  10  20  35  53  71  90 113 142 183 230 276
#
# _framework density 16.327289
#
# number of rings (size 3 to 8) (size 9 to 14) (size 15 to 20)
#    0.000    2.857    1.429    3.857    0.000    2.286 
#    0.000    0.000    0.000    0.000    0.000    8.000 
#    0.000    0.000    0.000    0.000    0.000    0.000 
#
# Total GULP energy -346890.022611 kJ/mol
# GULP energy per Si atom -12388.929379 kJ/mol
# Density = 1.629013 g / cm^3
# Si number density = 16.327289 Si / 1000 Ang^3
#
#
#
# Elastic Constant Matrix: (Units=GPa)
#
#
# Indices 1 2 3 4 5 6 
#
# 1 89.1368 23.1546 60.8333 0.0000 -0.2031 0.0000
# 2 23.1546 41.7066 26.7276 0.0000 1.7494 0.0000
# 3 60.8333 26.7276 128.9111 0.0000 10.5690 0.0000
# 4 0.0000 0.0000 0.0000 3.8311 0.0000 1.8264
# 5 -0.2031 1.7494 10.5690 0.0000 18.2720 0.0000
# 6 0.0000 0.0000 0.0000 1.8264 0.0000 19.3768
#
#
#
# Elastic Compliance Matrix: (Units=1/GPa)
#
#
# Indices 1 2 3 4 5 6 
#
# 1 0.017894 -0.005152 -0.007803 0.000000 0.005206 0.000000
# 2 -0.005152 0.029143 -0.003546 0.000000 -0.000797 0.000000
# 3 -0.007803 -0.003546 0.012759 0.000000 -0.007127 0.000000
# 4 0.000000 0.000000 0.000000 0.273303 0.000000 -0.025760
# 5 0.005206 -0.000797 -0.007127 0.000000 0.058985 0.000000
# 6 0.000000 0.000000 0.000000 -0.025760 0.000000 0.054036
#
#
# Mechanical properties :
#
#
# Convention : Reuss Voigt Hill
#
# Bulk Modulus (GPa) = 37.32094 53.46505 45.39299
# Shear Modulus (GPa) = 10.24477 18.23191 14.23834
#
# Velocity S-wave (km/s) = 2.50764 3.34526 2.95627
# Velocity P-wave (km/s) = 5.59392 6.90926 6.28609
#
# Compressibility (1/GPa) = 0.02679461
#
# Stress axis : x y z
#
# Youngs Moduli (GPa) = 55.88416 34.31341 78.37664
#
# Poissons Ratio (x) = 0.17680 0.61156
# Poissons Ratio (y) = 0.28794 0.27789
# Poissons Ratio (z) = 0.43605 0.12166
#
# Static dielectric constant tensor:
#      x y z
#    x 2.841060 0.000000 0.004920 
#    y 0.000000 2.667200 0.000000 
#    z 0.004920 0.000000 3.555530 
# 
# 
# High freq. dielectric constant tensor:
#      x y z
#    x 1.586080 0.000000 0.006590 
#    y 0.000000 1.585670 0.000000 
#    z 0.006590 0.000000 1.637950 
# 
# From -- ./inp_files/247801.got.cif
#   From: 2010.06.25/outbox.cif.g09.slc.cpg/sg12_124_cif.got.tgz:247801.got - 2010.06.28 00:19:55.
