data_PCOD8078201
_publ_section_title
;
Structure prediction by ZEFSAII (Michael W. Deem and Ramdas Pophale) SiO2 
 PCOD8078201
Probable space group: C 2/M
;
_chemical_formula_sum "Si O2"
_cell_formula_units_Z 64
_cell_length_a 24.173097
_cell_length_b 13.362097
_cell_length_c 17.293680
_cell_angle_alpha 90.000000
_cell_angle_beta 138.809154
_cell_angle_gamma 90.000000
_cell_volume 3678.711888
_symmetry_space_group_name_H-M "C 2/M"
_symmetry_group_IT_number 12
_symmetry_cell_setting 'monoclinic'
loop_
_space_group_symop_operation_xyz
x,y,z
-x,y,-z
-x,-y,-z
x,-y,z
1/2+x,1/2+y,z
1/2-x,1/2+y,-z
1/2-x,1/2-y,-z
1/2+x,1/2-y,z
loop_
_atom_site_type_symbol
_atom_site_label
_atom_site_fract_x
_atom_site_fract_y
_atom_site_fract_z
Si Si1 0.412388 0.714265 0.951333
Si Si2 0.713180 0.116082 0.177020
Si Si3 0.376550 0.615391 0.636299
Si Si4 0.566257 0.615229 0.864037
Si Si5 0.682285 0.703111 0.576706
Si Si6 0.013453 0.109378 0.428071
Si Si7 0.704341 0.615842 0.289894
Si Si8 0.656664 0.616998 0.810810
O O1 0.374368 0.825556 0.910418
O O2 0.348573 0.637296 0.843164
O O3 0.500000 0.715032 0.000000
O O4 0.425035 0.683783 0.052748
O O5 0.763528 0.131432 0.310063
O O6 0.763752 0.158975 0.153790
O O7 0.691722 0.000000 0.144444
O O8 0.354973 0.500000 0.605349
O O9 0.476321 0.638416 0.726589
O O10 0.315070 0.671478 0.510942
O O11 0.353486 0.649306 0.698790
O O12 0.565164 0.500000 0.889752
O O13 0.648082 0.636128 0.894509
O O14 0.585724 0.691455 0.497779
O O15 0.711180 0.817677 0.618525
O O16 0.000000 0.077479 0.500000
O O17 0.929290 0.164226 0.311012
O O18 0.032958 0.000000 0.405852
O O19 0.730956 0.500000 0.319426
O O20 0.654339 0.500000 0.789464
#
# Coordination Sequence:
#
# PCOD8078201 Si02
#       8
#     8   8   8   8   8   8   8   8
#     4  11  22  36  55  75  97 137 184 217 255 301
#     4  10  21  35  52  77 109 137 164 209 260 312
#     4  10  18  30  51  78 105 130 161 211 264 305
#     4  10  19  31  53  80 102 128 170 220 259 296
#     4  11  19  30  52  80 105 132 165 203 256 318
#     4  10  16  25  47  78 107 128 154 198 252 309
#     4  10  22  36  50  71 103 138 173 215 254 298
#     4   9  17  30  49  78 107 131 162 205 260 306
#
# _framework density 17.397393000000001
#
# number of rings (size 3 to 8) (size 9 to 14) (size 15 to 20)
#    0.000    1.875    3.750    1.875    0.000    1.250 
#    0.000    0.000    0.000    1.125    0.000    0.000 
#    0.000    0.000    0.000    0.000    0.000    0.000 
#
# Total GULP energy -396462.660994 kJ/mol
# GULP energy per Si atom -12389.458156 kJ/mol
# Density = 1.735780 g / cm^3
# Si number density = 17.397393 Si / 1000 Ang^3
#
#
#
# Elastic Constant Matrix: (Units=GPa)
#
#
# Indices 1 2 3 4 5 6 
#
# 1 59.2940 27.4746 18.9474 0.0000 -15.5624 0.0000
# 2 27.4746 74.9416 34.8837 0.0000 0.0942 0.0000
# 3 18.9474 34.8837 76.3191 0.0000 -12.8271 0.0000
# 4 0.0000 0.0000 0.0000 19.2301 0.0000 1.6731
# 5 -15.5624 0.0942 -12.8271 0.0000 23.0924 0.0000
# 6 0.0000 0.0000 0.0000 1.6731 0.0000 22.2962
#
#
#
# Elastic Compliance Matrix: (Units=1/GPa)
#
#
# Indices 1 2 3 4 5 6 
#
# 1 0.025930 -0.010107 0.001242 0.000000 0.018206 0.000000
# 2 -0.010107 0.021391 -0.009295 0.000000 -0.012062 0.000000
# 3 0.001242 -0.009295 0.018960 0.000000 0.011407 0.000000
# 4 0.000000 0.000000 0.000000 0.052344 0.000000 -0.003928
# 5 0.018206 -0.012062 0.011407 0.000000 0.061959 0.000000
# 6 0.000000 0.000000 0.000000 -0.003928 0.000000 0.045145
#
#
# Mechanical properties :
#
#
# Convention : Reuss Voigt Hill
#
# Bulk Modulus (GPa) = 33.37743 41.46291 37.42017
# Shear Modulus (GPa) = 18.37985 21.54035 19.96010
#
# Velocity S-wave (km/s) = 3.25387 3.52253 3.39086
# Velocity P-wave (km/s) = 5.77441 6.35837 6.07341
#
# Compressibility (1/GPa) = 0.02996037
#
# Stress axis : x y z
#
# Youngs Moduli (GPa) = 38.56569 46.74820 52.74150
#
# Poissons Ratio (x) = 0.47250 -0.06552
# Poissons Ratio (y) = 0.38980 0.49025
# Poissons Ratio (z) = -0.04791 0.43454
#
# Static dielectric constant tensor:
#      x y z
#    x 3.541430 0.000000 -0.138740 
#    y 0.000000 2.904380 0.000000 
#    z -0.138740 0.000000 3.143570 
# 
# 
# High freq. dielectric constant tensor:
#      x y z
#    x 1.689170 0.000000 -0.015220 
#    y 0.000000 1.634460 0.000000 
#    z -0.015220 0.000000 1.664090 
# 
# From -- ./inp_files/283333.got.cif
#   From: 2010.06.25/outbox.cif.g09.slc.cpg/sg12_142_cif.got.tgz:283333.got - 2010.06.28 00:19:55.
