data_PCOD8078170
_publ_section_title
;
Structure prediction by ZEFSAII (Michael W. Deem and Ramdas Pophale) SiO2 
 PCOD8078170
Probable space group: C 2/M
;
_chemical_formula_sum "Si O2"
_cell_formula_units_Z 64
_cell_length_a 28.416475
_cell_length_b 13.798602
_cell_length_c 10.945641
_cell_angle_alpha 90.000000
_cell_angle_beta 69.491887
_cell_angle_gamma 90.000000
_cell_volume 4019.861779
_symmetry_space_group_name_H-M "C 2/M"
_symmetry_group_IT_number 12
_symmetry_cell_setting 'monoclinic'
loop_
_space_group_symop_operation_xyz
x,y,z
-x,y,-z
-x,-y,-z
x,-y,z
1/2+x,1/2+y,z
1/2-x,1/2+y,-z
1/2-x,1/2-y,-z
1/2+x,1/2-y,z
loop_
_atom_site_type_symbol
_atom_site_label
_atom_site_fract_x
_atom_site_fract_y
_atom_site_fract_z
Si Si1 0.514833 0.107462 0.127267
Si Si2 0.248214 0.893759 0.836729
Si Si3 0.637787 0.392297 0.841605
Si Si4 0.406085 0.113122 0.277148
Si Si5 0.739191 0.713991 0.324771
Si Si6 0.331601 0.730553 0.402946
Si Si7 0.609145 0.199887 0.969464
Si Si8 0.712190 0.111522 0.935969
O O1 0.465112 0.138064 0.248499
O O2 0.531434 0.000000 0.151486
O O3 0.500000 0.110268 0.000000
O O4 0.563252 0.176441 0.104264
O O5 0.188868 0.893447 0.871072
O O6 0.273796 0.818057 0.722317
O O7 0.270707 0.000000 0.786530
O O8 0.258030 0.865248 0.967569
O O9 0.613265 0.500000 0.864246
O O10 0.646249 0.359609 0.693422
O O11 0.602444 0.312949 0.939241
O O12 0.373294 0.185920 0.390727
O O13 0.392828 0.131482 0.147596
O O14 0.394876 0.000000 0.317257
O O15 0.690360 0.687457 0.450460
O O16 0.788076 0.717100 0.365417
O O17 0.749959 0.635762 0.209724
O O18 0.663052 0.179834 0.981590
O O19 0.695834 0.000000 0.941394
#
# Coordination Sequence:
#
# PCOD8078170 Si02
#       8
#     8   8   8   8   8   8   8   8
#     4   8  14  23  39  61  86 110 133 169 216 256
#     4   9  18  30  42  59  85 116 142 171 213 252
#     4   9  17  30  43  57  84 117 143 171 212 254
#     4   9  15  26  42  62  87 111 137 173 213 255
#     4  10  18  29  41  60  86 112 145 175 206 245
#     4   9  18  28  42  61  81 114 146 173 207 246
#     4  10  16  25  41  62  84 110 144 174 208 252
#     4  11  19  27  43  63  87 113 141 179 215 249
#
# _framework density 15.920945
#
# number of rings (size 3 to 8) (size 9 to 14) (size 15 to 20)
#    0.000    2.625    3.750    2.250    0.000    1.000 
#    0.000    2.500    0.000    9.375    0.000    0.875 
#    0.000    4.000    0.000    4.500    0.000    0.375 
#
# Total GULP energy -396531.534892 kJ/mol
# GULP energy per Si atom -12391.610465 kJ/mol
# Density = 1.588471 g / cm^3
# Si number density = 15.920945 Si / 1000 Ang^3
#
#
#
# Elastic Constant Matrix: (Units=GPa)
#
#
# Indices 1 2 3 4 5 6 
#
# 1 46.5629 34.9485 38.8439 0.0000 -13.2029 0.0000
# 2 34.9485 106.0022 36.0307 0.0000 -15.9329 0.0000
# 3 38.8439 36.0307 63.6992 0.0000 -11.0496 0.0000
# 4 0.0000 0.0000 0.0000 17.5674 0.0000 -2.2909
# 5 -13.2029 -15.9329 -11.0496 0.0000 19.0658 0.0000
# 6 0.0000 0.0000 0.0000 -2.2909 0.0000 19.0236
#
#
#
# Elastic Compliance Matrix: (Units=1/GPa)
#
#
# Indices 1 2 3 4 5 6 
#
# 1 0.051671 -0.006012 -0.025318 0.000000 0.016084 0.000000
# 2 -0.006012 0.013175 -0.002889 0.000000 0.005173 0.000000
# 3 -0.025318 -0.002889 0.032588 0.000000 -0.001060 0.000000
# 4 0.000000 0.000000 0.000000 0.057832 0.000000 0.006964
# 5 0.016084 0.005173 -0.001060 0.000000 0.067296 0.000000
# 6 0.000000 0.000000 0.000000 0.006964 0.000000 0.053405
#
#
# Mechanical properties :
#
#
# Convention : Reuss Voigt Hill
#
# Bulk Modulus (GPa) = 34.48823 48.43450 41.46137
# Shear Modulus (GPa) = 14.12148 18.22744 16.17446
#
# Velocity S-wave (km/s) = 2.98144 3.38727 3.19081
# Velocity P-wave (km/s) = 5.79320 6.76654 6.29870
#
# Compressibility (1/GPa) = 0.02899540
#
# Stress axis : x y z
#
# Youngs Moduli (GPa) = 19.35338 75.89867 30.68622
#
# Poissons Ratio (x) = 0.45633 0.77691
# Poissons Ratio (y) = 0.11636 0.08865
# Poissons Ratio (z) = 0.48999 0.21927
#
# Static dielectric constant tensor:
#      x y z
#    x 2.995420 0.000000 -0.228860 
#    y 0.000000 3.207650 0.000000 
#    z -0.228860 0.000000 2.931110 
# 
# 
# High freq. dielectric constant tensor:
#      x y z
#    x 1.583100 0.000000 -0.011580 
#    y 0.000000 1.613140 0.000000 
#    z -0.011580 0.000000 1.578340 
# 
# From -- ./inp_files/183004.got.cif
#   From: 2010.06.25/outbox.cif.g09.slc.cpg/sg12_92_cif.got.tgz:183004.got - 2010.06.28 00:19:55.
