data_PCOD8078118
_publ_section_title
;
Structure prediction by ZEFSAII (Michael W. Deem and Ramdas Pophale) SiO2 
 PCOD8078118
Probable space group: C 2/M
;
_chemical_formula_sum "Si O2"
_cell_formula_units_Z 48
_cell_length_a 19.178220
_cell_length_b 8.811801
_cell_length_c 21.321156
_cell_angle_alpha 90.000000
_cell_angle_beta 48.125866
_cell_angle_gamma 90.000000
_cell_volume 2682.960732
_symmetry_space_group_name_H-M "C 2/M"
_symmetry_group_IT_number 12
_symmetry_cell_setting 'monoclinic'
loop_
_space_group_symop_operation_xyz
x,y,z
-x,y,-z
-x,-y,-z
x,-y,z
1/2+x,1/2+y,z
1/2-x,1/2+y,-z
1/2-x,1/2-y,-z
1/2+x,1/2-y,z
loop_
_atom_site_type_symbol
_atom_site_label
_atom_site_fract_x
_atom_site_fract_y
_atom_site_fract_z
Si Si1 0.102425 0.821778 0.426209
Si Si2 0.722498 0.831727 0.260217
Si Si3 0.984840 0.679689 0.914598
Si Si4 0.393030 0.327999 0.254109
Si Si5 0.261651 0.819942 0.425283
Si Si6 0.631863 0.679571 0.920736
O O1 0.140316 0.777392 0.334238
O O2 0.173686 0.762490 0.436536
O O3 0.000000 0.749405 0.500000
O O4 0.095230 0.000000 0.433075
O O5 0.812308 0.822489 0.250908
O O6 0.761053 0.789211 0.167185
O O7 0.679723 0.000000 0.286000
O O8 0.973275 0.500000 0.917103
O O9 0.014315 0.745048 0.828774
O O10 0.063739 0.725575 0.916832
O O11 0.886831 0.756952 0.997544
O O12 0.418964 0.500000 0.256635
O O13 0.358096 0.240514 0.337133
O O14 0.250000 0.750000 0.500000
O O15 0.265634 0.000000 0.426855
O O16 0.609456 0.500000 0.929397
#
# Coordination Sequence:
#
# PCOD8078118 Si02
#       6
#     8   8   8   8   8   8
#     4   9  18  31  46  64  87 116 148 182 220 261
#     4   8  15  25  38  56  78 107 141 176 214 256
#     4  10  16  21  32  52  76 104 139 174 211 255
#     4   9  16  27  40  55  79 110 142 175 215 259
#     4  10  19  31  47  66  89 116 148 184 221 262
#     4   9  15  23  33  48  74 107 140 172 210 256
#
# _framework density 17.890682000000002
#
# number of rings (size 3 to 8) (size 9 to 14) (size 15 to 20)
#    0.000    2.833    0.000    5.000    0.000    5.667 
#    0.000    0.000    0.000    0.000    0.000    0.000 
#    0.000    1.333    0.000    4.000    0.000   11.833 
#
# Total GULP energy -297359.114628 kJ/mol
# GULP energy per Si atom -12389.963109 kJ/mol
# Density = 1.784996 g / cm^3
# Si number density = 17.890682 Si / 1000 Ang^3
#
#
#
# Elastic Constant Matrix: (Units=GPa)
#
#
# Indices 1 2 3 4 5 6 
#
# 1 19.7174 16.7588 34.7999 -0.0001 -4.0875 -0.0001
# 2 16.7588 80.9616 56.9471 -0.0002 -0.2638 -0.0005
# 3 34.7999 56.9471 206.3253 0.0000 -7.1667 0.0000
# 4 -0.0001 -0.0002 0.0000 39.6468 0.0001 -0.2051
# 5 -4.0875 -0.2638 -7.1667 0.0001 17.1245 -0.0001
# 6 -0.0001 -0.0005 0.0000 -0.2051 -0.0001 8.5547
#
#
#
# Elastic Compliance Matrix: (Units=1/GPa)
#
#
# Indices 1 2 3 4 5 6 
#
# 1 0.079970 -0.009151 -0.010456 0.000000 0.014571 0.000000
# 2 -0.009151 0.016415 -0.003099 0.000000 -0.003229 0.000001
# 3 -0.010456 -0.003099 0.007486 0.000000 0.000589 0.000000
# 4 0.000000 0.000000 0.000000 0.025226 0.000000 0.000605
# 5 0.014571 -0.003229 0.000589 0.000000 0.062071 0.000001
# 6 0.000000 0.000001 0.000000 0.000605 0.000001 0.116909
#
#
# Mechanical properties :
#
#
# Convention : Reuss Voigt Hill
#
# Bulk Modulus (GPa) = 17.10643 58.22400 37.66521
# Shear Modulus (GPa) = 13.40566 26.29844 19.85205
#
# Velocity S-wave (km/s) = 2.74032 3.83815 3.33473
# Velocity P-wave (km/s) = 4.42661 7.22889 5.99382
#
# Compressibility (1/GPa) = 0.05845756
#
# Stress axis : x y z
#
# Youngs Moduli (GPa) = 12.50474 60.91853 133.57868
#
# Poissons Ratio (x) = 0.55749 1.39672
# Poissons Ratio (y) = 0.11444 0.41401
# Poissons Ratio (z) = 0.13075 0.18881
#
# Static dielectric constant tensor:
#      x y z
#    x 2.656220 0.000000 -0.201870 
#    y 0.000000 3.322030 0.000000 
#    z -0.201870 0.000000 4.239830 
# 
# 
# High freq. dielectric constant tensor:
#      x y z
#    x 1.590840 0.000000 -0.009540 
#    y 0.000000 1.699360 0.000000 
#    z -0.009540 0.000000 1.728040 
# 
# From -- ./inp_files/291333.got.cif
#   From: 2010.06.25/outbox.cif.g09.slc.cpg/sg12_146_cif.got.tgz:291333.got - 2010.06.28 00:19:55.
