data_PCOD8078885
_publ_section_title
;
Structure prediction by ZEFSAII (Michael W. Deem and Ramdas Pophale) SiO2 
 PCOD8078885
Probable space group: C 2/M
;
_chemical_formula_sum "Si O2"
_cell_formula_units_Z 56
_cell_length_a 26.803536
_cell_length_b 9.089271
_cell_length_c 13.489571
_cell_angle_alpha 90.000000
_cell_angle_beta 63.167054
_cell_angle_gamma 90.000000
_cell_volume 2932.533812
_symmetry_space_group_name_H-M "C 2/M"
_symmetry_group_IT_number 12
_symmetry_cell_setting 'monoclinic'
loop_
_space_group_symop_operation_xyz
x,y,z
-x,y,-z
-x,-y,-z
x,-y,z
1/2+x,1/2+y,z
1/2-x,1/2+y,-z
1/2-x,1/2-y,-z
1/2+x,1/2-y,z
loop_
_atom_site_type_symbol
_atom_site_label
_atom_site_fract_x
_atom_site_fract_y
_atom_site_fract_z
Si Si1 0.272792 0.675017 0.199581
Si Si2 0.063277 0.169110 0.042295
Si Si3 0.878149 0.833037 0.220175
Si Si4 0.032465 0.324611 0.374140
Si Si5 0.471156 0.825825 0.229859
Si Si6 0.156050 0.334085 0.258099
Si Si7 0.335499 0.832632 0.973488
O O1 0.277355 0.500000 0.177975
O O2 0.314416 0.719671 0.252577
O O3 0.208081 0.724576 0.279840
O O4 0.290825 0.751442 0.081460
O O5 0.104943 0.252209 0.078654
O O6 0.003874 0.249665 0.109098
O O7 0.056644 0.000000 0.079948
O O8 0.085834 0.182235 0.911563
O O9 0.906620 0.729827 0.278366
O O10 0.878003 0.000000 0.259444
O O11 0.035674 0.500000 0.366490
O O12 0.095583 0.254317 0.322014
O O13 0.000000 0.268474 0.500000
O O14 0.998153 0.270015 0.308814
O O15 0.472901 0.000000 0.217660
O O16 0.143958 0.500000 0.301534
O O17 0.182447 0.326655 0.124657
O O18 0.342584 0.000000 0.004222
#
# Coordination Sequence:
#
# PCOD8078885 Si02
#       7
#     8   8   8   8   8   8   8
#     4   9  18  31  47  69 100 136 169 196 235 295
#     4  10  19  31  47  69 101 138 171 198 237 296
#     4   9  19  32  45  67  99 136 169 193 232 296
#     4   9  18  33  53  77 100 122 159 213 262 298
#     4  11  20  31  50  74  97 126 164 209 255 291
#     4   9  16  29  49  71  97 128 165 208 246 291
#     4  10  17  27  45  72 104 131 165 205 243 287
#
# _framework density 19.096114
#
# number of rings (size 3 to 8) (size 9 to 14) (size 15 to 20)
#    0.000    2.429    1.429    3.000    0.000    4.571 
#    0.000    0.714    0.000    2.571    0.000    0.000 
#    0.000    0.000    0.000    0.000    0.000    0.429 
#
# Total GULP energy -346903.014904 kJ/mol
# GULP energy per Si atom -12389.393389 kJ/mol
# Density = 1.905265 g / cm^3
# Si number density = 19.096114 Si / 1000 Ang^3
#
#
#
# Elastic Constant Matrix: (Units=GPa)
#
#
# Indices 1 2 3 4 5 6 
#
# 1 191.2332 43.2142 45.7497 0.0000 -20.1638 0.0000
# 2 43.2142 63.1787 12.8868 0.0000 -2.8567 0.0000
# 3 45.7497 12.8868 43.6757 0.0000 -9.8668 0.0000
# 4 0.0000 0.0000 0.0000 8.6549 0.0000 0.3405
# 5 -20.1638 -2.8567 -9.8668 0.0000 17.1871 0.0000
# 6 0.0000 0.0000 0.0000 0.3405 0.0000 26.4987
#
#
#
# Elastic Compliance Matrix: (Units=1/GPa)
#
#
# Indices 1 2 3 4 5 6 
#
# 1 0.008200 -0.004109 -0.006157 0.000000 0.005403 0.000000
# 2 -0.004109 0.018901 -0.001898 0.000000 -0.002769 0.000000
# 3 -0.006157 -0.001898 0.032405 0.000000 0.011064 0.000000
# 4 0.000000 0.000000 0.000000 0.115599 0.000000 -0.001485
# 5 0.005403 -0.002769 0.011064 0.000000 0.070414 0.000000
# 6 0.000000 0.000000 0.000000 -0.001485 0.000000 0.037757
#
#
# Mechanical properties :
#
#
# Convention : Reuss Voigt Hill
#
# Bulk Modulus (GPa) = 28.42688 55.75434 42.09061
# Shear Modulus (GPa) = 15.65781 23.55061 19.60421
#
# Velocity S-wave (km/s) = 2.86658 3.51560 3.20755
# Velocity P-wave (km/s) = 5.08674 6.76309 5.98390
#
# Compressibility (1/GPa) = 0.03517798
#
# Stress axis : x y z
#
# Youngs Moduli (GPa) = 121.94568 52.90839 30.85959
#
# Poissons Ratio (x) = 0.21740 0.19000
# Poissons Ratio (y) = 0.50106 0.05858
# Poissons Ratio (z) = 0.75080 0.10043
#
# Static dielectric constant tensor:
#      x y z
#    x 4.104130 0.000000 -0.173120 
#    y 0.000000 3.271850 0.000000 
#    z -0.173120 0.000000 3.055560 
# 
# 
# High freq. dielectric constant tensor:
#      x y z
#    x 1.771380 0.000000 -0.010560 
#    y 0.000000 1.713290 0.000000 
#    z -0.010560 0.000000 1.684110 
# 
# From -- ./inp_files/243646.got.cif
#   From: 2010.06.25/outbox.cif.g09.slc.cpg/sg12_122_cif.got.tgz:243646.got - 2010.06.28 00:19:55.
