data_PCOD8078249
_publ_section_title
;
Structure prediction by ZEFSAII (Michael W. Deem and Ramdas Pophale) SiO2 
 PCOD8078249
Probable space group: C 2/M
;
_chemical_formula_sum "Si O2"
_cell_formula_units_Z 64
_cell_length_a 30.486469
_cell_length_b 8.799406
_cell_length_c 15.055229
_cell_angle_alpha 90.000000
_cell_angle_beta 78.501921
_cell_angle_gamma 90.000000
_cell_volume 3957.705892
_symmetry_space_group_name_H-M "C 2/M"
_symmetry_group_IT_number 12
_symmetry_cell_setting 'monoclinic'
loop_
_space_group_symop_operation_xyz
x,y,z
-x,y,-z
-x,-y,-z
x,-y,z
1/2+x,1/2+y,z
1/2-x,1/2+y,-z
1/2-x,1/2-y,-z
1/2+x,1/2-y,z
loop_
_atom_site_type_symbol
_atom_site_label
_atom_site_fract_x
_atom_site_fract_y
_atom_site_fract_z
Si Si1 0.850029 0.680683 0.916518
Si Si2 0.209802 0.819964 0.207153
Si Si3 0.554561 0.819714 0.065706
Si Si4 0.369616 0.819664 0.252940
Si Si5 0.686959 0.678188 0.577522
Si Si6 0.307582 0.180101 0.117033
Si Si7 0.783890 0.321773 0.608629
Si Si8 0.542487 0.819901 0.873111
O O1 0.845911 0.500000 0.909099
O O2 0.829054 0.759370 0.839931
O O3 0.901750 0.736758 0.899058
O O4 0.825129 0.740293 0.015297
O O5 0.257584 0.756971 0.153139
O O6 0.199924 0.760528 0.309333
O O7 0.209498 0.000000 0.208190
O O8 0.508118 0.767020 0.132457
O O9 0.556440 0.000000 0.059397
O O10 0.555307 0.754403 0.965011
O O11 0.354828 0.735978 0.348371
O O12 0.339484 0.761184 0.182966
O O13 0.420845 0.767001 0.213779
O O14 0.364988 0.000000 0.267677
O O15 0.683569 0.500000 0.561785
O O16 0.732368 0.722187 0.610920
O O17 0.685269 0.762710 0.483959
O O18 0.308420 0.000000 0.116516
O O19 0.790595 0.500000 0.616836
O O20 0.544274 0.000000 0.878856
#
# Coordination Sequence:
#
# PCOD8078249 Si02
#       8
#     8   8   8   8   8   8   8   8
#     4  10  18  30  46  65  92 127 165 199 230 266
#     4  11  21  32  45  64  93 127 162 196 230 271
#     4   8  13  23  41  67  93 118 154 200 236 265
#     4  10  16  27  47  70  95 125 156 188 229 277
#     4  10  20  32  48  70  95 120 149 188 233 280
#     4   9  17  28  43  64  92 126 161 194 225 261
#     4  10  20  34  50  68  89 119 156 193 231 273
#     4   8  13  22  42  69  93 118 153 195 236 271
#
# _framework density 16.170983
#
# number of rings (size 3 to 8) (size 9 to 14) (size 15 to 20)
#    0.000    2.500    2.500    2.250    0.000    1.000 
#    0.000    1.250    0.000    0.750    0.000    2.625 
#    0.000    7.000    0.000    0.000    0.000    0.000 
#
# Total GULP energy -396697.170020 kJ/mol
# GULP energy per Si atom -12396.786563 kJ/mol
# Density = 1.613418 g / cm^3
# Si number density = 16.170983 Si / 1000 Ang^3
#
#
#
# Elastic Constant Matrix: (Units=GPa)
#
#
# Indices 1 2 3 4 5 6 
#
# 1 125.5346 25.3955 69.9691 0.0000 -9.2986 0.0000
# 2 25.3955 33.2892 24.3976 0.0000 0.6343 0.0000
# 3 69.9691 24.3976 112.7637 0.0000 -5.7055 0.0000
# 4 0.0000 0.0000 0.0000 21.0426 0.0000 0.7233
# 5 -9.2986 0.6343 -5.7055 0.0000 24.7487 0.0000
# 6 0.0000 0.0000 0.0000 0.7233 0.0000 15.5815
#
#
#
# Elastic Compliance Matrix: (Units=1/GPa)
#
#
# Indices 1 2 3 4 5 6 
#
# 1 0.013045 -0.005007 -0.006836 0.000000 0.003454 0.000000
# 2 -0.005007 0.037806 -0.005278 0.000000 -0.004067 0.000000
# 3 -0.006836 -0.005278 0.014296 0.000000 0.000862 0.000000
# 4 0.000000 0.000000 0.000000 0.047599 0.000000 -0.002210
# 5 0.003454 -0.004067 0.000862 0.000000 0.042007 0.000000
# 6 0.000000 0.000000 0.000000 -0.002210 0.000000 0.064281
#
#
# Mechanical properties :
#
#
# Convention : Reuss Voigt Hill
#
# Bulk Modulus (GPa) = 32.35984 56.79019 44.57502
# Shear Modulus (GPa) = 18.96975 22.39627 20.68301
#
# Velocity S-wave (km/s) = 3.42873 3.72555 3.58022
# Velocity P-wave (km/s) = 5.97741 7.32811 6.68695
#
# Compressibility (1/GPa) = 0.03090250
#
# Stress axis : x y z
#
# Youngs Moduli (GPa) = 76.65777 26.45097 69.95155
#
# Poissons Ratio (x) = 0.13245 0.47820
# Poissons Ratio (y) = 0.38385 0.36924
# Poissons Ratio (z) = 0.52405 0.13962
#
# Static dielectric constant tensor:
#      x y z
#    x 3.252560 0.000000 -0.182900 
#    y 0.000000 2.718530 0.000000 
#    z -0.182900 0.000000 3.019370 
# 
# 
# High freq. dielectric constant tensor:
#      x y z
#    x 1.609850 0.000000 -0.012450 
#    y 0.000000 1.593710 0.000000 
#    z -0.012450 0.000000 1.610470 
# 
# From -- ./inp_files/248232.got.cif
#   From: 2010.06.25/outbox.cif.g09.slc.cpg/sg12_125_cif.got.tgz:248232.got - 2010.06.28 00:19:55.
