data_PCOD8078862
_publ_section_title
;
Structure prediction by ZEFSAII (Michael W. Deem and Ramdas Pophale) SiO2 
 PCOD8078862
Probable space group: C 2/M
;
_chemical_formula_sum "Si O2"
_cell_formula_units_Z 64
_cell_length_a 25.456748
_cell_length_b 9.255046
_cell_length_c 23.719766
_cell_angle_alpha 90.000000
_cell_angle_beta 46.408199
_cell_angle_gamma 90.000000
_cell_volume 4047.554683
_symmetry_space_group_name_H-M "C 2/M"
_symmetry_group_IT_number 12
_symmetry_cell_setting 'monoclinic'
loop_
_space_group_symop_operation_xyz
x,y,z
-x,y,-z
-x,-y,-z
x,-y,z
1/2+x,1/2+y,z
1/2-x,1/2+y,-z
1/2-x,1/2-y,-z
1/2+x,1/2-y,z
loop_
_atom_site_type_symbol
_atom_site_label
_atom_site_fract_x
_atom_site_fract_y
_atom_site_fract_z
Si Si1 0.556842 0.167437 0.341067
Si Si2 0.030318 0.327748 0.917615
Si Si3 0.189690 0.670196 0.811654
Si Si4 0.837867 0.169889 0.654289
Si Si5 0.228824 0.671715 0.906493
Si Si6 0.910267 0.329635 0.923156
Si Si7 0.374260 0.832942 0.826709
Si Si8 0.552755 0.660219 0.514340
O O1 0.620896 0.245337 0.327163
O O2 0.569161 0.193522 0.265729
O O3 0.477634 0.231401 0.415843
O O4 0.557634 0.000000 0.356798
O O5 0.030464 0.500000 0.915828
O O6 0.112239 0.266196 0.848830
O O7 0.979476 0.264149 0.905420
O O8 0.000000 0.273661 0.000000
O O9 0.181331 0.500000 0.823654
O O10 0.252724 0.711076 0.720115
O O11 0.211595 0.730776 0.856697
O O12 0.868850 0.209534 0.568954
O O13 0.850345 0.000000 0.657066
O O14 0.237408 0.500000 0.901121
O O15 0.303002 0.738693 0.873093
O O16 0.164661 0.727412 0.994567
O O17 0.912191 0.500000 0.929784
O O18 0.914626 0.285364 0.854372
O O19 0.350434 0.000000 0.847080
O O20 0.500000 0.659941 0.500000
O O21 0.557697 0.500000 0.537298
#
# Coordination Sequence:
#
# PCOD8078862 Si02
#       8
#     8   8   8   8   8   8   8   8
#     4  10  18  26  38  57  83 114 142 166 197 245
#     4   9  14  23  40  63  86 107 136 177 218 246
#     4   9  15  23  40  65  87 106 135 174 212 248
#     4   9  16  27  41  60  86 108 131 169 213 250
#     4  10  17  27  45  64  83 112 145 175 206 245
#     4   9  17  28  41  60  87 114 142 177 213 245
#     4  10  20  30  39  59  91 119 141 170 207 248
#     4   8  15  26  40  57  80 109 134 165 210 250
#
# _framework density 15.812016
#
# number of rings (size 3 to 8) (size 9 to 14) (size 15 to 20)
#    0.000    2.750    2.500    1.500    0.000    2.750 
#    0.000    0.000    0.000    0.000    0.000    5.250 
#    0.000    0.000    0.000    0.000    0.000    0.000 
#
# Total GULP energy -396587.924342 kJ/mol
# GULP energy per Si atom -12393.372636 kJ/mol
# Density = 1.577603 g / cm^3
# Si number density = 15.812016 Si / 1000 Ang^3
#
#
#
# Elastic Constant Matrix: (Units=GPa)
#
#
# Indices 1 2 3 4 5 6 
#
# 1 104.7778 25.0750 68.3566 -0.0028 -3.7541 0.0059
# 2 25.0750 34.4764 36.6617 -0.0033 -0.9307 0.0144
# 3 68.3566 36.6617 145.9571 0.0014 -15.0393 -0.0006
# 4 -0.0028 -0.0033 0.0014 13.7130 -0.0004 1.0131
# 5 -3.7541 -0.9307 -15.0393 -0.0004 20.1907 -0.0013
# 6 0.0059 0.0144 -0.0006 1.0131 -0.0013 10.1222
#
#
#
# Elastic Compliance Matrix: (Units=1/GPa)
#
#
# Indices 1 2 3 4 5 6 
#
# 1 0.014290 -0.004260 -0.005815 0.000003 -0.001871 -0.000003
# 2 -0.004260 0.041539 -0.009015 0.000014 -0.005592 -0.000059
# 3 -0.005815 -0.009015 0.012656 -0.000006 0.007930 0.000019
# 4 0.000003 0.000014 -0.000006 0.073467 -0.000002 -0.007353
# 5 -0.001871 -0.005592 0.007930 -0.000002 0.054829 0.000017
# 6 -0.000003 -0.000059 0.000019 -0.007353 0.000017 0.099529
#
#
# Mechanical properties :
#
#
# Convention : Reuss Voigt Hill
#
# Bulk Modulus (GPa) = 32.99772 60.59979 46.79876
# Shear Modulus (GPa) = 14.50985 19.14636 16.82810
#
# Velocity S-wave (km/s) = 3.03256 3.48354 3.26584
# Velocity P-wave (km/s) = 5.75985 7.38840 6.62436
#
# Compressibility (1/GPa) = 0.03030512
#
# Stress axis : x y z
#
# Youngs Moduli (GPa) = 69.97685 24.07371 79.01122
#
# Poissons Ratio (x) = 0.10255 0.45948
# Poissons Ratio (y) = 0.29810 0.71228
# Poissons Ratio (z) = 0.40695 0.21702
#
# Static dielectric constant tensor:
#      x y z
#    x 2.973580 -0.000010 -0.158860 
#    y -0.000010 2.711720 0.000000 
#    z -0.158860 0.000000 3.421540 
# 
# 
# High freq. dielectric constant tensor:
#      x y z
#    x 1.573300 0.000000 -0.009980 
#    y 0.000000 1.571050 0.000000 
#    z -0.009980 0.000000 1.619130 
# 
# From -- ./inp_files/326621.got.cif
#   From: 2010.06.25/outbox.cif.g09.slc.cpg/sg12_164_cif.got.tgz:326621.got - 2010.06.28 00:19:55.
