data_PCOD8078785
_publ_section_title
;
Structure prediction by ZEFSAII (Michael W. Deem and Ramdas Pophale) SiO2 
 PCOD8078785
Probable space group: C 2/M
;
_chemical_formula_sum "Si O2"
_cell_formula_units_Z 64
_cell_length_a 27.300005
_cell_length_b 9.038941
_cell_length_c 17.056044
_cell_angle_alpha 90.000000
_cell_angle_beta 102.296412
_cell_angle_gamma 90.000000
_cell_volume 4112.248366
_symmetry_space_group_name_H-M "C 2/M"
_symmetry_group_IT_number 12
_symmetry_cell_setting 'monoclinic'
loop_
_space_group_symop_operation_xyz
x,y,z
-x,y,-z
-x,-y,-z
x,-y,z
1/2+x,1/2+y,z
1/2-x,1/2+y,-z
1/2-x,1/2-y,-z
1/2+x,1/2-y,z
loop_
_atom_site_type_symbol
_atom_site_label
_atom_site_fract_x
_atom_site_fract_y
_atom_site_fract_z
Si Si1 0.057658 0.327064 0.516822
Si Si2 0.300295 0.669119 0.999379
Si Si3 0.675286 0.673567 0.827318
Si Si4 0.632731 0.328972 0.431257
Si Si5 0.186272 0.329195 0.317813
Si Si6 0.130166 0.671840 0.678034
Si Si7 0.281082 0.674397 0.825375
Si Si8 0.296547 0.666751 0.404204
O O1 0.064984 0.500000 0.501303
O O2 0.083683 0.236224 0.456449
O O3 0.081790 0.286224 0.609354
O O4 0.000000 0.280300 0.500000
O O5 0.285522 0.500000 0.999684
O O6 0.316337 0.704976 0.915077
O O7 0.250000 0.750000 0.000000
O O8 0.338103 0.706157 0.084792
O O9 0.680953 0.500000 0.812596
O O10 0.629570 0.739207 0.760079
O O11 0.726782 0.751972 0.818313
O O12 0.622970 0.500000 0.409539
O O13 0.641764 0.243799 0.352958
O O14 0.681652 0.305027 0.502047
O O15 0.173501 0.500000 0.298533
O O16 0.189380 0.247395 0.235918
O O17 0.237214 0.309381 0.384777
O O18 0.131965 0.500000 0.698151
O O19 0.180192 0.716515 0.648148
O O20 0.273826 0.500000 0.807659
O O21 0.310202 0.500000 0.381003
#
# Coordination Sequence:
#
# PCOD8078785 Si02
#       8
#     8   8   8   8   8   8   8   8
#     4   9  19  36  53  67  87 114 143 179 225 270
#     4   8  16  27  39  55  79 113 150 184 217 251
#     4  10  17  27  41  59  86 117 148 183 220 258
#     4  10  20  32  46  65  86 112 147 184 219 257
#     4  11  20  29  42  61  88 121 151 180 216 258
#     4  10  18  27  44  67  87 113 148 183 218 258
#     4  10  18  28  41  59  83 116 155 188 216 249
#     4   9  18  30  42  58  85 117 147 180 216 253
#
# _framework density 15.563262
#
# number of rings (size 3 to 8) (size 9 to 14) (size 15 to 20)
#    0.000    2.375    1.250    2.250    0.000    2.750 
#    0.000    0.000    0.000    0.000    0.000    0.000 
#    0.000    1.000    0.000   11.500    0.000    3.500 
#
# Total GULP energy -396559.451604 kJ/mol
# GULP energy per Si atom -12392.482863 kJ/mol
# Density = 1.552784 g / cm^3
# Si number density = 15.563262 Si / 1000 Ang^3
#
#
#
# Elastic Constant Matrix: (Units=GPa)
#
#
# Indices 1 2 3 4 5 6 
#
# 1 59.6478 37.3449 46.8213 0.0000 -2.0245 0.0000
# 2 37.3449 88.6458 61.8760 0.0000 -4.0126 0.0000
# 3 46.8213 61.8760 130.0503 0.0000 -5.7684 0.0000
# 4 0.0000 0.0000 0.0000 25.3649 0.0000 -2.1502
# 5 -2.0245 -4.0126 -5.7684 0.0000 12.6597 0.0000
# 6 0.0000 0.0000 0.0000 -2.1502 0.0000 16.7149
#
#
#
# Elastic Compliance Matrix: (Units=1/GPa)
#
#
# Indices 1 2 3 4 5 6 
#
# 1 0.025677 -0.006552 -0.006162 0.000000 -0.000778 0.000000
# 2 -0.006552 0.018599 -0.006405 0.000000 0.001929 0.000000
# 3 -0.006162 -0.006405 0.013086 0.000000 0.002947 0.000000
# 4 0.000000 0.000000 0.000000 0.039859 0.000000 0.005127
# 5 -0.000778 0.001929 0.002947 0.000000 0.080821 0.000000
# 6 0.000000 0.000000 0.000000 0.005127 0.000000 0.060486
#
#
# Mechanical properties :
#
#
# Convention : Reuss Voigt Hill
#
# Bulk Modulus (GPa) = 52.28597 63.38091 57.83344
# Shear Modulus (GPa) = 17.65912 19.76802 18.71357
#
# Velocity S-wave (km/s) = 3.37214 3.56781 3.47135
# Velocity P-wave (km/s) = 6.98788 7.60168 7.30123
#
# Compressibility (1/GPa) = 0.01912559
#
# Stress axis : x y z
#
# Youngs Moduli (GPa) = 38.94481 53.76680 76.41900
#
# Poissons Ratio (x) = 0.35226 0.47088
# Poissons Ratio (y) = 0.25515 0.48944
# Poissons Ratio (z) = 0.23997 0.34436
#
# Static dielectric constant tensor:
#      x y z
#    x 2.498390 0.000000 0.137750 
#    y 0.000000 3.083150 0.000000 
#    z 0.137750 0.000000 3.526020 
# 
# 
# High freq. dielectric constant tensor:
#      x y z
#    x 1.529200 0.000000 0.001810 
#    y 0.000000 1.614360 0.000000 
#    z 0.001810 0.000000 1.608650 
# 
# From -- ./inp_files/287581.got.cif
#   From: 2010.06.25/outbox.cif.g09.slc.cpg/sg12_144_cif.got.tgz:287581.got - 2010.06.28 00:19:55.
