data_PCOD8078762
_publ_section_title
;
Structure prediction by ZEFSAII (Michael W. Deem and Ramdas Pophale) SiO2 
 PCOD8078762
Probable space group: C 2/M
;
_chemical_formula_sum "Si O2"
_cell_formula_units_Z 40
_cell_length_a 19.729233
_cell_length_b 22.978765
_cell_length_c 9.079424
_cell_angle_alpha 90.000000
_cell_angle_beta 153.387637
_cell_angle_gamma 90.000000
_cell_volume 1843.854622
_symmetry_space_group_name_H-M "C 2/M"
_symmetry_group_IT_number 12
_symmetry_cell_setting 'monoclinic'
loop_
_space_group_symop_operation_xyz
x,y,z
-x,y,-z
-x,-y,-z
x,-y,z
1/2+x,1/2+y,z
1/2-x,1/2+y,-z
1/2-x,1/2-y,-z
1/2+x,1/2-y,z
loop_
_atom_site_type_symbol
_atom_site_label
_atom_site_fract_x
_atom_site_fract_y
_atom_site_fract_z
Si Si1 0.177286 0.431958 0.049430
Si Si2 0.988839 0.669505 0.155304
Si Si3 0.964153 0.880518 0.765679
Si Si4 0.646894 0.564038 0.885972
Si Si5 0.700216 0.265072 0.564975
O O1 0.138735 0.500000 0.990914
O O2 0.317916 0.416678 0.428856
O O3 0.215768 0.415911 0.953830
O O4 0.028740 0.394795 0.808842
O O5 0.133519 0.704484 0.502526
O O6 0.842031 0.706794 0.924355
O O7 0.000000 0.664319 0.000000
O O8 0.936667 0.811522 0.704915
O O9 0.113729 0.892813 0.957305
O O10 0.000000 0.900868 0.000000
O O11 0.500000 0.560760 0.500000
O O12 0.682024 0.500000 0.018804
O O13 0.750000 0.250000 0.500000
#
# Coordination Sequence:
#
# PCOD8078762 Si02
#       5
#     8   8   8   8   8
#     4   9  18  31  46  68  99 130 159 198 248 292
#     4   9  17  30  50  72  97 129 165 201 240 291
#     4  10  17  26  46  72  96 125 164 204 240 284
#     4   8  15  28  43  62  94 130 159 194 242 289
#     4   9  17  30  47  71 101 130 159 199 251 292
#
# _framework density 21.693684999999999
#
# number of rings (size 3 to 8) (size 9 to 14) (size 15 to 20)
#    0.000    3.000    0.000    3.600    0.000    2.000 
#    0.000    1.000    0.000    4.800    0.000   15.400 
#    0.000   53.600    0.000    0.400    0.000    0.000 
#
# Total GULP energy -247777.144383 kJ/mol
# GULP energy per Si atom -12388.857219 kJ/mol
# Density = 2.164431 g / cm^3
# Si number density = 21.693685 Si / 1000 Ang^3
#
#
#
# Elastic Constant Matrix: (Units=GPa)
#
#
# Indices 1 2 3 4 5 6 
#
# 1 127.6001 80.4299 25.4117 0.0000 14.3681 0.0000
# 2 80.4299 151.7684 27.0860 0.0000 25.2733 0.0000
# 3 25.4117 27.0860 17.8047 0.0000 9.2714 0.0000
# 4 0.0000 0.0000 0.0000 21.6913 0.0000 20.7279
# 5 14.3681 25.2733 9.2714 0.0000 27.4768 0.0000
# 6 0.0000 0.0000 0.0000 20.7279 0.0000 41.1722
#
#
#
# Elastic Compliance Matrix: (Units=1/GPa)
#
#
# Indices 1 2 3 4 5 6 
#
# 1 0.013314 -0.005223 -0.012051 0.000000 0.001908 0.000000
# 2 -0.005223 0.011568 -0.007309 0.000000 -0.005443 0.000000
# 3 -0.012051 -0.007309 0.094264 0.000000 -0.018782 0.000000
# 4 0.000000 0.000000 0.000000 0.088842 0.000000 -0.044727
# 5 0.001908 -0.005443 -0.018782 0.000000 0.046740 0.000000
# 6 0.000000 0.000000 0.000000 -0.044727 0.000000 0.046806
#
#
# Mechanical properties :
#
#
# Convention : Reuss Voigt Hill
#
# Bulk Modulus (GPa) = 14.28976 62.55871 38.42424
# Shear Modulus (GPa) = 13.36804 29.01777 21.19291
#
# Velocity S-wave (km/s) = 2.48507 3.66131 3.12896
# Velocity P-wave (km/s) = 3.85168 6.83911 5.55018
#
# Compressibility (1/GPa) = 0.06998016
#
# Stress axis : x y z
#
# Youngs Moduli (GPa) = 75.10794 86.44767 10.60853
#
# Poissons Ratio (x) = 0.45151 0.12784
# Poissons Ratio (y) = 0.39228 0.07754
# Poissons Ratio (z) = 0.90509 0.63187
#
# Static dielectric constant tensor:
#      x y z
#    x 4.157380 0.000000 0.449480 
#    y 0.000000 4.182000 0.000000 
#    z 0.449480 0.000000 3.878400 
# 
# 
# High freq. dielectric constant tensor:
#      x y z
#    x 1.837730 0.000000 0.027650 
#    y 0.000000 1.857190 0.000000 
#    z 0.027650 0.000000 1.815680 
# 
# From -- ./inp_files/39414.got.cif
#   From: 2010.06.25/outbox.cif.g09.slc.cpg/sg12_20_cif.got.tgz:39414.got - 2010.06.28 00:19:55.
