data_PCOD8078428
_publ_section_title
;
Structure prediction by ZEFSAII (Michael W. Deem and Ramdas Pophale) SiO2 
 PCOD8078428
Probable space group: C 2/M
;
_chemical_formula_sum "Si O2"
_cell_formula_units_Z 44
_cell_length_a 14.362860
_cell_length_b 17.873927
_cell_length_c 15.081458
_cell_angle_alpha 90.000000
_cell_angle_beta 38.603120
_cell_angle_gamma 90.000000
_cell_volume 2415.653514
_symmetry_space_group_name_H-M "C 2/M"
_symmetry_group_IT_number 12
_symmetry_cell_setting 'monoclinic'
loop_
_space_group_symop_operation_xyz
x,y,z
-x,y,-z
-x,-y,-z
x,-y,z
1/2+x,1/2+y,z
1/2-x,1/2+y,-z
1/2-x,1/2-y,-z
1/2+x,1/2-y,z
loop_
_atom_site_type_symbol
_atom_site_label
_atom_site_fract_x
_atom_site_fract_y
_atom_site_fract_z
Si Si1 0.242481 0.317372 0.573172
Si Si2 0.086035 0.306943 0.210550
Si Si3 0.386778 0.655439 0.917708
Si Si4 0.487065 0.414837 0.676116
Si Si5 0.500000 0.723866 0.000000
Si Si6 0.694881 0.712840 0.273550
O O1 0.250000 0.250000 0.500000
O O2 0.345263 0.385105 0.464288
O O3 0.297225 0.285095 0.626487
O O4 0.070028 0.345353 0.701235
O O5 0.109975 0.228197 0.145379
O O6 0.095537 0.282552 0.308311
O O7 0.220345 0.361620 0.079921
O O8 0.445207 0.588263 0.812186
O O9 0.498823 0.669198 0.915958
O O10 0.479069 0.500000 0.649804
O O11 0.370117 0.367829 0.704785
O O12 0.357900 0.778498 0.108047
#
# Coordination Sequence:
#
# PCOD8078428 Si02
#       6
#     8   8   8   8   4   8
#     4  12  20  34  56  84 110 146 187 230 276 324
#     4   9  18  32  55  82 108 137 181 241 273 313
#     4   9  17  34  55  81 108 139 185 233 279 316
#     4  11  24  38  52  77 121 157 181 220 277 343
#     4  10  16  32  62  90 104 132 182 258 274 310
#     4  10  20  32  56  83 114 138 185 229 280 323
#
# _framework density 18.214531999999998
#
# number of rings (size 3 to 8) (size 9 to 14) (size 15 to 20)
#    0.000    1.818    5.455    1.636    0.000    1.455 
#    0.000    1.818    0.000    0.000    0.000   12.727 
#    0.000    0.000    0.000    0.000    0.000    0.000 
#
# Total GULP energy -272658.768970 kJ/mol
# GULP energy per Si atom -12393.580408 kJ/mol
# Density = 1.817307 g / cm^3
# Si number density = 18.214532 Si / 1000 Ang^3
#
#
#
# Elastic Constant Matrix: (Units=GPa)
#
#
# Indices 1 2 3 4 5 6 
#
# 1 131.5850 36.2686 61.0110 0.0002 -2.1339 0.0001
# 2 36.2686 47.4377 30.2992 -0.0003 3.9286 0.0001
# 3 61.0110 30.2992 97.5782 0.0009 -1.5930 -0.0001
# 4 0.0002 -0.0003 0.0009 15.9366 0.0000 -2.9215
# 5 -2.1339 3.9286 -1.5930 0.0000 37.4099 -0.0001
# 6 0.0001 0.0001 -0.0001 -2.9215 -0.0001 13.6330
#
#
#
# Elastic Compliance Matrix: (Units=1/GPa)
#
#
# Indices 1 2 3 4 5 6 
#
# 1 0.011727 -0.005459 -0.005621 0.000000 0.001003 0.000000
# 2 -0.005459 0.029203 -0.005714 0.000001 -0.003621 0.000000
# 3 -0.005621 -0.005714 0.015552 -0.000001 0.000942 0.000000
# 4 0.000000 0.000001 -0.000001 0.065314 0.000000 0.013997
# 5 0.001003 -0.003621 0.000942 0.000000 0.027209 0.000000
# 6 0.000000 0.000000 0.000000 0.013997 0.000000 0.076351
#
#
# Mechanical properties :
#
#
# Convention : Reuss Voigt Hill
#
# Bulk Modulus (GPa) = 43.67722 59.08427 51.38074
# Shear Modulus (GPa) = 18.75647 23.33070 21.04359
#
# Velocity S-wave (km/s) = 3.21246 3.58283 3.40269
# Velocity P-wave (km/s) = 6.14746 7.04443 6.61117
#
# Compressibility (1/GPa) = 0.02289523
#
# Stress axis : x y z
#
# Youngs Moduli (GPa) = 85.27641 34.24283 64.29940
#
# Poissons Ratio (x) = 0.18692 0.36141
# Poissons Ratio (y) = 0.46549 0.36741
# Poissons Ratio (z) = 0.47932 0.19567
#
# Static dielectric constant tensor:
#      x y z
#    x 4.056140 0.000000 -0.116020 
#    y 0.000000 2.768890 0.000000 
#    z -0.116020 0.000000 4.068580 
# 
# 
# High freq. dielectric constant tensor:
#      x y z
#    x 1.725580 0.000000 0.001240 
#    y 0.000000 1.632140 0.000000 
#    z 0.001240 0.000000 1.724370 
# 
# From -- ./inp_files/215779.got.cif
#   From: 2010.06.25/outbox.cif.g09.slc.cpg/sg12_108_cif.got.tgz:215779.got - 2010.06.28 00:19:55.
