data_PCOD8078956
_publ_section_title
;
Structure prediction by ZEFSAII (Michael W. Deem and Ramdas Pophale) SiO2 
 PCOD8078956
Probable space group: C 2/M
;
_chemical_formula_sum "Si O2"
_cell_formula_units_Z 64
_cell_length_a 24.330091
_cell_length_b 8.897138
_cell_length_c 24.432759
_cell_angle_alpha 90.000000
_cell_angle_beta 131.022307
_cell_angle_gamma 90.000000
_cell_volume 3990.243454
_symmetry_space_group_name_H-M "C 2/M"
_symmetry_group_IT_number 12
_symmetry_cell_setting 'monoclinic'
loop_
_space_group_symop_operation_xyz
x,y,z
-x,y,-z
-x,-y,-z
x,-y,z
1/2+x,1/2+y,z
1/2-x,1/2+y,-z
1/2-x,1/2-y,-z
1/2+x,1/2-y,z
loop_
_atom_site_type_symbol
_atom_site_label
_atom_site_fract_x
_atom_site_fract_y
_atom_site_fract_z
Si Si1 0.425634 0.821852 0.008268
Si Si2 0.288331 0.824228 0.759238
Si Si3 0.450283 0.330686 0.521068
Si Si4 0.426128 0.320665 0.890821
Si Si5 0.167993 0.330268 0.617999
Si Si6 0.774228 0.675971 0.960164
Si Si7 0.690123 0.324397 0.799203
Si Si8 0.068490 0.331178 0.659741
O O1 0.496949 0.743985 0.080840
O O2 0.437041 0.000000 0.008511
O O3 0.409086 0.751053 0.938497
O O4 0.358423 0.784834 0.003982
O O5 0.363778 0.732296 0.808153
O O6 0.240297 0.766929 0.676785
O O7 0.247299 0.787621 0.788853
O O8 0.304125 0.000000 0.762636
O O9 0.500000 0.326856 0.500000
O O10 0.429886 0.500000 0.523782
O O11 0.375565 0.240576 0.461503
O O12 0.493383 0.257259 0.600012
O O13 0.429228 0.500000 0.896969
O O14 0.190361 0.500000 0.617798
O O15 0.116909 0.326328 0.637311
O O16 0.763035 0.500000 0.957932
O O17 0.724076 0.736865 0.877848
O O18 0.750000 0.750000 0.000000
O O19 0.673863 0.500000 0.790627
O O20 0.613251 0.242636 0.738744
O O21 0.048279 0.500000 0.663145
#
# Coordination Sequence:
#
# PCOD8078956 Si02
#       8
#     8   8   8   8   8   8   8   8
#     4  10  19  34  49  64  86 115 146 178 222 273
#     4  10  17  28  43  59  83 115 146 177 216 264
#     4   9  15  23  34  49  71 105 141 171 207 253
#     4  11  20  29  45  69  90 111 143 186 226 260
#     4   9  16  24  34  53  79 105 138 178 213 249
#     4  10  21  35  50  67  87 115 148 185 227 270
#     4   9  17  30  43  58  80 108 144 179 215 264
#     4   9  16  24  36  54  74 101 136 178 218 248
#
# _framework density 16.039121999999999
#
# number of rings (size 3 to 8) (size 9 to 14) (size 15 to 20)
#    0.000    2.375    1.250    3.750    0.000    6.500 
#    0.000    0.000    0.000    0.000    0.000    0.000 
#    0.000    0.000    0.000    1.125    0.000   15.375 
#
# Total GULP energy -396761.633084 kJ/mol
# GULP energy per Si atom -12398.801034 kJ/mol
# Density = 1.600262 g / cm^3
# Si number density = 16.039122 Si / 1000 Ang^3
#
#
#
# Elastic Constant Matrix: (Units=GPa)
#
#
# Indices 1 2 3 4 5 6 
#
# 1 53.3109 32.5455 41.4300 0.0000 10.2254 0.0000
# 2 32.5455 109.7725 60.6753 0.0000 15.6912 0.0000
# 3 41.4300 60.6753 132.4947 0.0000 30.1426 0.0000
# 4 0.0000 0.0000 0.0000 32.1590 0.0000 5.2021
# 5 10.2254 15.6912 30.1426 0.0000 18.4306 0.0000
# 6 0.0000 0.0000 0.0000 5.2021 0.0000 16.2755
#
#
#
# Elastic Compliance Matrix: (Units=1/GPa)
#
#
# Indices 1 2 3 4 5 6 
#
# 1 0.026255 -0.004321 -0.005978 0.000000 -0.001110 0.000000
# 2 -0.004321 0.012954 -0.004169 0.000000 -0.001814 0.000000
# 3 -0.005978 -0.004169 0.015549 0.000000 -0.018564 0.000000
# 4 0.000000 0.000000 0.000000 0.032791 0.000000 -0.010481
# 5 -0.001110 -0.001814 -0.018564 0.000000 0.086779 0.000000
# 6 0.000000 0.000000 0.000000 -0.010481 0.000000 0.064792
#
#
# Mechanical properties :
#
#
# Convention : Reuss Voigt Hill
#
# Bulk Modulus (GPa) = 38.72567 62.76439 50.74503
# Shear Modulus (GPa) = 18.07251 24.10150 21.08700
#
# Velocity S-wave (km/s) = 3.36039 3.88063 3.62984
# Velocity P-wave (km/s) = 6.26524 7.70040 7.01959
#
# Compressibility (1/GPa) = 0.02582267
#
# Stress axis : x y z
#
# Youngs Moduli (GPa) = 38.08854 77.19496 64.31209
#
# Poissons Ratio (x) = 0.33355 0.38448
# Poissons Ratio (y) = 0.16458 0.26809
# Poissons Ratio (z) = 0.22770 0.32179
#
# Static dielectric constant tensor:
#      x y z
#    x 2.626300 0.000000 0.191690 
#    y 0.000000 3.159860 0.000000 
#    z 0.191690 0.000000 3.425670 
# 
# 
# High freq. dielectric constant tensor:
#      x y z
#    x 1.542830 0.000000 0.036240 
#    y 0.000000 1.632120 0.000000 
#    z 0.036240 0.000000 1.623090 
# 
# From -- ./inp_files/348570.got.cif
#   From: 2010.06.25/outbox.cif.g09.slc.cpg/sg12_175_cif.got.tgz:348570.got - 2010.06.28 00:19:55.
