data_PCOD8078244
_publ_section_title
;
Structure prediction by ZEFSAII (Michael W. Deem and Ramdas Pophale) SiO2 
 PCOD8078244
Probable space group: C 2/M
;
_chemical_formula_sum "Si O2"
_cell_formula_units_Z 64
_cell_length_a 19.746792
_cell_length_b 25.204095
_cell_length_c 12.452730
_cell_angle_alpha 90.000000
_cell_angle_beta 143.462700
_cell_angle_gamma 90.000000
_cell_volume 3689.790048
_symmetry_space_group_name_H-M "C 2/M"
_symmetry_group_IT_number 12
_symmetry_cell_setting 'monoclinic'
loop_
_space_group_symop_operation_xyz
x,y,z
-x,y,-z
-x,-y,-z
x,-y,z
1/2+x,1/2+y,z
1/2-x,1/2+y,-z
1/2-x,1/2-y,-z
1/2+x,1/2-y,z
loop_
_atom_site_type_symbol
_atom_site_label
_atom_site_fract_x
_atom_site_fract_y
_atom_site_fract_z
Si Si1 0.968643 0.651384 0.582915
Si Si2 0.915487 0.748286 0.640167
Si Si3 0.834711 0.764952 0.973548
Si Si4 0.189827 0.286653 0.276020
Si Si5 0.692076 0.058112 0.048801
Si Si6 0.924397 0.440940 0.662041
Si Si7 0.629874 0.904560 0.184124
Si Si8 0.284214 0.836813 0.028100
O O1 0.898834 0.703468 0.526758
O O2 0.900254 0.598420 0.531088
O O3 0.000000 0.648683 0.500000
O O4 0.081801 0.655804 0.796844
O O5 0.887864 0.725766 0.721494
O O6 0.822087 0.790996 0.482006
O O7 0.042677 0.771102 0.811621
O O8 0.837681 0.758596 0.848599
O O9 0.770090 0.819692 0.925864
O O10 0.762700 0.713161 0.921317
O O11 0.151662 0.343295 0.184017
O O12 0.707826 0.063736 0.197991
O O13 0.740177 0.000000 0.074714
O O14 0.557928 0.060504 0.856158
O O15 0.760134 0.105910 0.073481
O O16 0.885163 0.500000 0.579615
O O17 0.845900 0.421213 0.662028
O O18 0.500000 0.919543 0.000000
#
# Coordination Sequence:
#
# PCOD8078244 Si02
#       8
#     8   8   8   8   8   8   8   8
#     4  10  18  30  43  61  95 127 156 190 231 279
#     4  10  21  31  45  71  94 125 157 196 236 279
#     4  10  18  32  48  66  99 125 158 192 233 283
#     4  11  19  30  49  70  95 124 157 192 239 285
#     4   9  16  27  45  70  94 118 157 195 233 284
#     4   9  17  27  42  65  91 123 159 193 231 283
#     4  10  16  27  46  67  95 125 150 193 241 280
#     4   9  18  29  46  67  90 128 156 188 232 278
#
# _framework density 17.345161000000001
#
# number of rings (size 3 to 8) (size 9 to 14) (size 15 to 20)
#    0.000    2.250    2.500    2.250    0.000    1.750 
#    0.000    0.000    0.000    0.000    0.000    2.625 
#    0.000    1.000    0.000    0.000    0.000    0.000 
#
# Total GULP energy -396441.059008 kJ/mol
# GULP energy per Si atom -12388.783094 kJ/mol
# Density = 1.730568 g / cm^3
# Si number density = 17.345161 Si / 1000 Ang^3
#
#
#
# Elastic Constant Matrix: (Units=GPa)
#
#
# Indices 1 2 3 4 5 6 
#
# 1 65.0171 44.4672 3.8618 0.0000 -19.6123 0.0000
# 2 44.4672 102.9237 2.9908 0.0000 -10.6393 0.0000
# 3 3.8618 2.9908 22.1500 0.0000 -4.2300 0.0000
# 4 0.0000 0.0000 0.0000 13.1243 0.0000 -4.9069
# 5 -19.6123 -10.6393 -4.2300 0.0000 29.3858 0.0000
# 6 0.0000 0.0000 0.0000 -4.9069 0.0000 25.4549
#
#
#
# Elastic Compliance Matrix: (Units=1/GPa)
#
#
# Indices 1 2 3 4 5 6 
#
# 1 0.026439 -0.009963 -0.000600 0.000000 0.013952 0.000000
# 2 -0.009963 0.013858 -0.000458 0.000000 -0.001698 0.000000
# 3 -0.000600 -0.000458 0.046483 0.000000 0.006125 0.000000
# 4 0.000000 0.000000 0.000000 0.082112 0.000000 0.015829
# 5 0.013952 -0.001698 0.006125 0.000000 0.043609 0.000000
# 6 0.000000 0.000000 0.000000 0.015829 0.000000 0.042337
#
#
# Mechanical properties :
#
#
# Convention : Reuss Voigt Hill
#
# Bulk Modulus (GPa) = 15.44704 32.52558 23.98631
# Shear Modulus (GPa) = 16.75273 22.84439 19.79856
#
# Velocity S-wave (km/s) = 3.11118 3.63305 3.38219
# Velocity P-wave (km/s) = 4.67235 6.03253 5.39548
#
# Compressibility (1/GPa) = 0.06473733
#
# Stress axis : x y z
#
# Youngs Moduli (GPa) = 37.82335 72.15977 21.51327
#
# Poissons Ratio (x) = 0.71892 0.01291
# Poissons Ratio (y) = 0.37683 0.00986
# Poissons Ratio (z) = 0.02269 0.03308
#
# Static dielectric constant tensor:
#      x y z
#    x 3.248930 0.000000 -0.195010 
#    y 0.000000 3.437910 0.000000 
#    z -0.195010 0.000000 2.898940 
# 
# 
# High freq. dielectric constant tensor:
#      x y z
#    x 1.662430 0.000000 -0.029820 
#    y 0.000000 1.661320 0.000000 
#    z -0.029820 0.000000 1.625940 
# 
# From -- ./inp_files/170177.got.cif
#   From: 2010.06.25/outbox.cif.g09.slc.cpg/sg12_86_cif.got.tgz:170177.got - 2010.06.28 00:19:55.
