data_PCOD8078218
_publ_section_title
;
Structure prediction by ZEFSAII (Michael W. Deem and Ramdas Pophale) SiO2 
 PCOD8078218
Probable space group: C 2/M
;
_chemical_formula_sum "Si O2"
_cell_formula_units_Z 44
_cell_length_a 13.310926
_cell_length_b 20.272786
_cell_length_c 17.591476
_cell_angle_alpha 90.000000
_cell_angle_beta 36.724665
_cell_angle_gamma 90.000000
_cell_volume 2838.595819
_symmetry_space_group_name_H-M "C 2/M"
_symmetry_group_IT_number 12
_symmetry_cell_setting 'monoclinic'
loop_
_space_group_symop_operation_xyz
x,y,z
-x,y,-z
-x,-y,-z
x,-y,z
1/2+x,1/2+y,z
1/2-x,1/2+y,-z
1/2-x,1/2-y,-z
1/2+x,1/2-y,z
loop_
_atom_site_type_symbol
_atom_site_label
_atom_site_fract_x
_atom_site_fract_y
_atom_site_fract_z
Si Si1 0.678895 0.727874 0.122613
Si Si2 0.453725 0.179271 0.353524
Si Si3 0.614124 0.321668 0.781122
Si Si4 0.343563 0.724179 0.552640
Si Si5 0.000000 0.750704 0.000000
Si Si6 0.385576 0.075096 0.643098
O O1 0.597650 0.791025 0.212842
O O2 0.534854 0.672757 0.192876
O O3 0.838209 0.704320 0.077567
O O4 0.750000 0.750000 0.000000
O O5 0.420712 0.228017 0.442910
O O6 0.280840 0.170495 0.410083
O O7 0.517718 0.109213 0.345262
O O8 0.746801 0.267148 0.673816
O O9 0.705615 0.391596 0.734834
O O10 0.538793 0.299088 0.906738
O O11 0.500000 0.688076 0.500000
O O12 0.500000 0.080487 0.500000
O O13 0.350850 0.000000 0.687497
#
# Coordination Sequence:
#
# PCOD8078218 Si02
#       6
#     8   8   8   8   4   8
#     4   9  18  26  45  65  93 121 143 192 236 280
#     4  10  17  28  45  67  93 121 153 188 237 286
#     4  10  17  29  42  68  93 120 154 182 232 276
#     4  10  16  26  46  69  94 115 145 197 240 278
#     4  10  16  28  45  64  97 120 142 192 238 274
#     4  11  20  32  48  67  97 129 157 191 225 277
#
# _framework density 15.500621000000001
#
# number of rings (size 3 to 8) (size 9 to 14) (size 15 to 20)
#    0.000    2.000    5.455    0.000    0.000    0.000 
#    0.000    0.455    0.000    0.545    0.000    0.636 
#    0.000    0.000    0.000    2.182    0.000    0.000 
#
# Total GULP energy -272561.941080 kJ/mol
# GULP energy per Si atom -12389.179140 kJ/mol
# Density = 1.546534 g / cm^3
# Si number density = 15.500621 Si / 1000 Ang^3
#
#
#
# Elastic Constant Matrix: (Units=GPa)
#
#
# Indices 1 2 3 4 5 6 
#
# 1 168.3200 57.3631 34.2299 -0.0077 -40.2403 0.0057
# 2 57.3631 82.3612 25.7713 -0.0090 -9.5158 0.0101
# 3 34.2299 25.7713 82.9842 -0.0123 1.6999 0.0171
# 4 -0.0077 -0.0090 -0.0123 11.1888 0.0059 -0.0830
# 5 -40.2403 -9.5158 1.6999 0.0059 37.5778 -0.0056
# 6 0.0057 0.0101 0.0171 -0.0830 -0.0056 20.9233
#
#
#
# Elastic Compliance Matrix: (Units=1/GPa)
#
#
# Indices 1 2 3 4 5 6 
#
# 1 0.010906 -0.005445 -0.003022 -0.000006 0.010437 0.000005
# 2 -0.005445 0.016671 -0.002901 0.000007 -0.001478 -0.000005
# 3 -0.003022 -0.002901 0.014292 0.000014 -0.004617 -0.000011
# 4 -0.000006 0.000007 0.000014 0.089378 -0.000019 0.000355
# 5 0.010437 -0.001478 -0.004617 -0.000019 0.037622 0.000012
# 6 0.000005 -0.000005 -0.000011 0.000355 0.000012 0.047795
#
#
# Mechanical properties :
#
#
# Convention : Reuss Voigt Hill
#
# Bulk Modulus (GPa) = 52.26111 63.15491 57.70801
# Shear Modulus (GPa) = 20.34356 28.35804 24.35080
#
# Velocity S-wave (km/s) = 3.62669 4.28188 3.96783
# Velocity P-wave (km/s) = 7.16420 8.07947 7.63557
#
# Compressibility (1/GPa) = 0.01913469
#
# Stress axis : x y z
#
# Youngs Moduli (GPa) = 91.69084 59.98514 69.96726
#
# Poissons Ratio (x) = 0.32660 0.21141
# Poissons Ratio (y) = 0.49923 0.20298
# Poissons Ratio (z) = 0.27705 0.17402
#
# Static dielectric constant tensor:
#      x y z
#    x 3.726020 -0.000010 -0.217200 
#    y -0.000010 2.521600 0.000090 
#    z -0.217200 0.000090 3.655540 
# 
# 
# High freq. dielectric constant tensor:
#      x y z
#    x 1.620040 0.000000 -0.005980 
#    y 0.000000 1.513590 0.000000 
#    z -0.005980 0.000000 1.619640 
# 
# From -- ./inp_files/134287.got.cif
#   From: 2010.06.25/outbox.cif.g09.slc.cpg/sg12_68_cif.got.tgz:134287.got - 2010.06.28 00:19:55.
