data_PCOD8078284
_publ_section_title
;
Structure prediction by ZEFSAII (Michael W. Deem and Ramdas Pophale) SiO2 
 PCOD8078284
Probable space group: C 2/M
;
_chemical_formula_sum "Si O2"
_cell_formula_units_Z 40
_cell_length_a 16.319480
_cell_length_b 25.128467
_cell_length_c 8.879325
_cell_angle_alpha 90.000000
_cell_angle_beta 145.741817
_cell_angle_gamma 90.000000
_cell_volume 2049.751619
_symmetry_space_group_name_H-M "C 2/M"
_symmetry_group_IT_number 12
_symmetry_cell_setting 'monoclinic'
loop_
_space_group_symop_operation_xyz
x,y,z
-x,y,-z
-x,-y,-z
x,-y,z
1/2+x,1/2+y,z
1/2-x,1/2+y,-z
1/2-x,1/2-y,-z
1/2+x,1/2-y,z
loop_
_atom_site_type_symbol
_atom_site_label
_atom_site_fract_x
_atom_site_fract_y
_atom_site_fract_z
Si Si1 0.127734 0.000000 0.905451
Si Si2 0.343240 0.594907 0.838478
Si Si3 0.295542 0.283039 0.421491
Si Si4 0.797324 0.000000 0.324190
Si Si5 0.589317 0.291382 0.980621
Si Si6 0.169425 0.397724 0.280871
O O1 0.194029 0.000000 0.841342
O O2 0.953509 0.000000 0.640175
O O3 0.186720 0.948649 0.081038
O O4 0.213225 0.590202 0.519774
O O5 0.500000 0.585720 0.000000
O O6 0.335664 0.651083 0.913837
O O7 0.250000 0.250000 0.500000
O O8 0.471169 0.281837 0.668283
O O9 0.253276 0.344621 0.360387
O O10 0.214174 0.253965 0.159014
O O11 0.712173 0.947208 0.242207
O O12 0.500000 0.287763 0.000000
O O13 0.000000 0.386911 0.000000
#
# Coordination Sequence:
#
# PCOD8078284 Si02
#       6
#     4   8   8   4   8   8
#     4  11  22  38  62  76 108 148 181 234 273 327
#     4  11  18  35  57  84 107 140 191 225 266 324
#     4  10  16  28  48  81 113 137 169 227 277 309
#     4  11  24  39  54  85 110 141 188 224 283 323
#     4   9  16  26  46  80 112 133 173 222 267 325
#     4  12  22  35  56  85 115 142 180 232 271 321
#
# _framework density 19.514558999999998
#
# number of rings (size 3 to 8) (size 9 to 14) (size 15 to 20)
#    0.000    1.400    8.000    3.000    0.000    0.000 
#    0.000    2.000    0.000    1.200    0.000    0.000 
#    0.000    0.000    0.000    0.000    0.000    0.000 
#
# Total GULP energy -247926.145901 kJ/mol
# GULP energy per Si atom -12396.307295 kJ/mol
# Density = 1.947014 g / cm^3
# Si number density = 19.514559 Si / 1000 Ang^3
#
#
#
# Elastic Constant Matrix: (Units=GPa)
#
#
# Indices 1 2 3 4 5 6 
#
# 1 16.3008 23.0225 27.1643 0.0000 -2.8465 0.0000
# 2 23.0225 155.1063 54.8496 0.0000 -8.6233 0.0000
# 3 27.1643 54.8496 179.9290 0.0000 7.3579 0.0000
# 4 0.0000 0.0000 0.0000 35.5229 0.0000 4.5073
# 5 -2.8465 -8.6233 7.3579 0.0000 15.3676 0.0000
# 6 0.0000 0.0000 0.0000 4.5073 0.0000 -0.9604
#
#
#
# Elastic Compliance Matrix: (Units=1/GPa)
#
#
# Indices 1 2 3 4 5 6 
#
# 1 0.099228 -0.009036 -0.013026 0.000000 0.019546 0.000000
# 2 -0.009036 0.008483 -0.001375 0.000000 0.003745 0.000000
# 3 -0.013026 -0.001375 0.008235 0.000000 -0.007127 0.000000
# 4 0.000000 0.000000 0.000000 0.017644 0.000000 0.082807
# 5 0.019546 0.003745 -0.007127 0.000000 0.074206 0.000000
# 6 0.000000 0.000000 0.000000 0.082807 0.000000 -0.652625
#
#
# Mechanical properties :
#
#
# Convention : Reuss Voigt Hill
#
# Bulk Modulus (GPa) = 14.47736 62.37878 38.42807
# Shear Modulus (GPa) = -13.33571 26.40599 6.53514
#
# Velocity S-wave (km/s) = -2.61698 3.68250 1.83197
# Velocity P-wave (km/s) = 1.30252 7.07925 4.92032
#
# Compressibility (1/GPa) = 0.06907336
#
# Stress axis : x y z
#
# Youngs Moduli (GPa) = 10.07781 117.88670 121.43547
#
# Poissons Ratio (x) = 1.06517 1.58177
# Poissons Ratio (y) = 0.09106 0.16696
# Poissons Ratio (z) = 0.13127 0.16208
#
# Static dielectric constant tensor:
#      x y z
#    x 2.857660 0.000000 0.194310 
#    y 0.000000 3.830930 0.000000 
#    z 0.194310 0.000000 4.625170 
# 
# 
# High freq. dielectric constant tensor:
#      x y z
#    x 1.681920 0.000000 0.004170 
#    y 0.000000 1.783660 0.000000 
#    z 0.004170 0.000000 1.783000 
# 
# From -- ./inp_files/79964.got.cif
#   From: 2010.06.25/outbox.cif.g09.slc.cpg/sg12_40_cif.got.tgz:79964.got - 2010.06.28 00:19:55.
