data_PCOD8078429
_publ_section_title
;
Structure prediction by ZEFSAII (Michael W. Deem and Ramdas Pophale) SiO2 
 PCOD8078429
Probable space group: C 2/M
;
_chemical_formula_sum "Si O2"
_cell_formula_units_Z 40
_cell_length_a 10.174000
_cell_length_b 26.255639
_cell_length_c 15.750819
_cell_angle_alpha 90.000000
_cell_angle_beta 29.578685
_cell_angle_gamma 90.000000
_cell_volume 2076.867433
_symmetry_space_group_name_H-M "C 2/M"
_symmetry_group_IT_number 12
_symmetry_cell_setting 'monoclinic'
loop_
_space_group_symop_operation_xyz
x,y,z
-x,y,-z
-x,-y,-z
x,-y,z
1/2+x,1/2+y,z
1/2-x,1/2+y,-z
1/2-x,1/2-y,-z
1/2+x,1/2-y,z
loop_
_atom_site_type_symbol
_atom_site_label
_atom_site_fract_x
_atom_site_fract_y
_atom_site_fract_z
Si Si1 0.043064 0.801087 0.876942
Si Si2 0.542955 0.000000 0.075297
Si Si3 0.796014 0.595294 0.308180
Si Si4 0.227747 0.602727 0.207301
Si Si5 0.982954 0.310742 0.109848
Si Si6 0.596559 0.500000 0.848623
O O1 0.265603 0.845685 0.738230
O O2 0.127015 0.744763 0.796877
O O3 0.000000 0.792390 0.000000
O O4 0.776472 0.820274 0.981503
O O5 0.415667 0.050091 0.185963
O O6 0.500000 0.000000 0.000000
O O7 0.856566 0.000000 0.917397
O O8 0.500000 0.580004 0.500000
O O9 0.787221 0.646775 0.257726
O O10 0.966933 0.603662 0.296735
O O11 0.227030 0.551145 0.264576
O O12 0.500000 0.604318 0.000000
O O13 0.000000 0.317069 0.000000
O O14 0.500000 0.500000 0.000000
#
# Coordination Sequence:
#
# PCOD8078429 Si02
#       6
#     8   4   8   8   8   4
#     4   9  16  31  58  80 105 149 209 238 269 333
#     4  12  23  38  62  94 117 148 197 248 282 336
#     4  12  23  37  57  90 124 154 184 240 308 354
#     4  10  16  33  59  82 106 153 210 225 259 358
#     4  10  19  32  56  87 109 145 199 250 282 327
#     4  10  16  32  63  89  99 147 207 229 265 341
#
# _framework density 19.259775000000001
#
# number of rings (size 3 to 8) (size 9 to 14) (size 15 to 20)
#    0.000    1.600    8.000    0.900    0.000    0.000 
#    0.000    1.000    0.000    4.800    0.000    0.000 
#    0.000    0.000    0.000    0.000    0.000    0.000 
#
# Total GULP energy -247858.783328 kJ/mol
# GULP energy per Si atom -12392.939166 kJ/mol
# Density = 1.921594 g / cm^3
# Si number density = 19.259775 Si / 1000 Ang^3
#
#
#
# Elastic Constant Matrix: (Units=GPa)
#
#
# Indices 1 2 3 4 5 6 
#
# 1 137.5340 39.4264 31.2808 -0.0036 -24.9039 -0.0028
# 2 39.4264 193.8544 26.1746 0.0001 -7.9328 0.0000
# 3 31.2808 26.1746 39.7219 -0.0015 -17.5242 -0.0019
# 4 -0.0036 0.0001 -0.0015 -123.0596 0.0036 -100.2350
# 5 -24.9039 -7.9328 -17.5242 0.0036 21.8152 0.0029
# 6 -0.0028 0.0000 -0.0019 -100.2350 0.0029 -35.2923
#
#
#
# Elastic Compliance Matrix: (Units=1/GPa)
#
#
# Indices 1 2 3 4 5 6 
#
# 1 0.009855 -0.001215 -0.003395 0.000000 0.008081 0.000000
# 2 -0.001215 0.005842 -0.003977 0.000000 -0.002457 0.000000
# 3 -0.003395 -0.003977 0.043558 0.000000 0.029668 0.000001
# 4 0.000000 0.000000 0.000000 0.006187 0.000001 -0.017573
# 5 0.008081 -0.002457 0.029668 0.000001 0.078004 0.000000
# 6 0.000000 0.000000 0.000001 -0.017573 0.000000 0.021574
#
#
# Mechanical properties :
#
#
# Convention : Reuss Voigt Hill
#
# Bulk Modulus (GPa) = 23.76360 62.76377 43.26368
# Shear Modulus (GPa) = 25.48164 -9.02543 8.22810
#
# Velocity S-wave (km/s) = 3.64132 -2.16710 2.06917
# Velocity P-wave (km/s) = 5.48126 5.13780 5.31231
#
# Compressibility (1/GPa) = 0.04208117
#
# Stress axis : x y z
#
# Youngs Moduli (GPa) = 101.47513 171.17270 22.95814
#
# Poissons Ratio (x) = 0.20801 0.07793
# Poissons Ratio (y) = 0.12331 0.09130
# Poissons Ratio (z) = 0.34446 0.68071
#
# Static dielectric constant tensor:
#      x y z
#    x 3.376680 0.000000 -0.237400 
#    y 0.000000 5.079780 0.000000 
#    z -0.237400 0.000000 2.847500 
# 
# 
# High freq. dielectric constant tensor:
#      x y z
#    x 1.757610 0.000000 -0.029230 
#    y 0.000000 1.792050 0.000000 
#    z -0.029230 0.000000 1.669970 
# 
# From -- ./inp_files/201133.got.cif
#   From: 2010.06.25/outbox.cif.g09.slc.cpg/sg12_101_cif.got.tgz:201133.got - 2010.06.28 00:19:55.
