data_PCOD8078708
_publ_section_title
;
Structure prediction by ZEFSAII (Michael W. Deem and Ramdas Pophale) SiO2 
 PCOD8078708
Probable space group: C 2/M
;
_chemical_formula_sum "Si O2"
_cell_formula_units_Z 60
_cell_length_a 23.389444
_cell_length_b 14.177349
_cell_length_c 22.103045
_cell_angle_alpha 90.000000
_cell_angle_beta 32.105305
_cell_angle_gamma 90.000000
_cell_volume 3895.395167
_symmetry_space_group_name_H-M "C 2/M"
_symmetry_group_IT_number 12
_symmetry_cell_setting 'monoclinic'
loop_
_space_group_symop_operation_xyz
x,y,z
-x,y,-z
-x,-y,-z
x,-y,z
1/2+x,1/2+y,z
1/2-x,1/2+y,-z
1/2-x,1/2-y,-z
1/2+x,1/2-y,z
loop_
_atom_site_type_symbol
_atom_site_label
_atom_site_fract_x
_atom_site_fract_y
_atom_site_fract_z
Si Si1 0.617506 0.224175 0.005513
Si Si2 0.853536 0.723567 0.788380
Si Si3 0.500000 0.743826 0.000000
Si Si4 0.011378 0.894575 0.832125
Si Si5 0.919049 0.894312 0.793813
Si Si6 0.399573 0.110078 0.629465
Si Si7 0.682398 0.891389 0.057499
Si Si8 0.667760 0.607764 0.792529
O O1 0.738202 0.235079 0.872986
O O2 0.539626 0.189911 0.020135
O O3 0.577086 0.327465 0.059655
O O4 0.610205 0.151717 0.067856
O O5 0.930066 0.814903 0.732313
O O6 0.903638 0.664777 0.689131
O O7 0.845808 0.660599 0.855334
O O8 0.399362 0.676561 0.104674
O O9 0.128717 0.878656 0.757546
O O10 0.016257 0.880924 0.754992
O O11 0.969098 0.000000 0.883929
O O12 0.920713 0.000000 0.764039
O O13 0.807717 0.876485 0.930158
O O14 0.500000 0.144861 0.500000
O O15 0.293147 0.133427 0.685931
O O16 0.408267 0.000000 0.637124
O O17 0.651050 0.000000 0.092319
O O18 0.648435 0.500000 0.831165
#
# Coordination Sequence:
#
# PCOD8078708 Si02
#       8
#     8   8   4   8   8   8   8   8
#     4  10  17  27  40  66  92 120 146 179 221 273
#     4  11  17  29  45  65  89 122 153 180 221 271
#     4  10  17  26  43  66  92 118 144 184 226 274
#     4   9  15  24  41  66  93 113 135 174 227 272
#     4   9  16  26  43  69  96 116 140 183 231 272
#     4  10  21  34  46  64  91 123 157 187 216 261
#     4  10  18  27  40  63  94 125 153 180 213 268
#     4   9  17  27  42  65  91 119 146 181 224 268
#
# _framework density 15.402801999999999
#
# number of rings (size 3 to 8) (size 9 to 14) (size 15 to 20)
#    0.000    2.267    4.000    1.400    0.000    1.067 
#    0.000    0.333    0.000    1.200    0.000    0.000 
#    0.000    0.000    0.000    0.000    0.000    0.000 
#
# Total GULP energy -371795.381973 kJ/mol
# GULP energy per Si atom -12393.179399 kJ/mol
# Density = 1.536774 g / cm^3
# Si number density = 15.402802 Si / 1000 Ang^3
#
#
#
# Elastic Constant Matrix: (Units=GPa)
#
#
# Indices 1 2 3 4 5 6 
#
# 1 123.4474 46.9382 29.5524 0.0000 5.0029 0.0000
# 2 46.9382 69.8048 22.9025 0.0000 7.1557 0.0000
# 3 29.5524 22.9025 55.5065 0.0000 1.9066 0.0000
# 4 0.0000 0.0000 0.0000 12.9475 0.0000 6.4334
# 5 5.0029 7.1557 1.9066 0.0000 16.3816 0.0000
# 6 0.0000 0.0000 0.0000 6.4334 0.0000 23.0794
#
#
#
# Elastic Compliance Matrix: (Units=1/GPa)
#
#
# Indices 1 2 3 4 5 6 
#
# 1 0.011402 -0.006539 -0.003364 0.000000 -0.000234 0.000000
# 2 -0.006539 0.021031 -0.004969 0.000000 -0.006611 0.000000
# 3 -0.003364 -0.004969 0.021835 0.000000 0.000657 0.000000
# 4 0.000000 0.000000 0.000000 0.089652 0.000000 -0.024991
# 5 -0.000234 -0.006611 0.000657 0.000000 0.063927 0.000000
# 6 0.000000 0.000000 0.000000 -0.024991 0.000000 0.050295
#
#
# Mechanical properties :
#
#
# Convention : Reuss Voigt Hill
#
# Bulk Modulus (GPa) = 40.77857 49.72721 45.25289
# Shear Modulus (GPa) = 16.88846 20.43941 18.66393
#
# Velocity S-wave (km/s) = 3.31487 3.64674 3.48476
# Velocity P-wave (km/s) = 6.41743 7.07716 6.75535
#
# Compressibility (1/GPa) = 0.02452268
#
# Stress axis : x y z
#
# Youngs Moduli (GPa) = 87.70534 47.54982 45.79837
#
# Poissons Ratio (x) = 0.31093 0.15408
# Poissons Ratio (y) = 0.57350 0.22757
# Poissons Ratio (z) = 0.29508 0.23627
#
# Static dielectric constant tensor:
#      x y z
#    x 3.364640 0.000000 -0.046290 
#    y 0.000000 2.988490 0.000000 
#    z -0.046290 0.000000 2.479640 
# 
# 
# High freq. dielectric constant tensor:
#      x y z
#    x 1.612100 0.000000 -0.000880 
#    y 0.000000 1.581180 0.000000 
#    z -0.000880 0.000000 1.526390 
# 
# From -- ./inp_files/251072.got.cif
#   From: 2010.06.25/outbox.cif.g09.slc.cpg/sg12_126_cif.got.tgz:251072.got - 2010.06.28 00:19:55.
