data_PCOD8078033
_publ_section_title
;
Structure prediction by ZEFSAII (Michael W. Deem and Ramdas Pophale) SiO2 
 PCOD8078033
Probable space group: C 2/M
;
_chemical_formula_sum "Si O2"
_cell_formula_units_Z 40
_cell_length_a 5.226597
_cell_length_b 26.217244
_cell_length_c 26.650418
_cell_angle_alpha 90.000000
_cell_angle_beta 46.377997
_cell_angle_gamma 90.000000
_cell_volume 2643.582318
_symmetry_space_group_name_H-M "C 2/M"
_symmetry_group_IT_number 12
_symmetry_cell_setting 'monoclinic'
loop_
_space_group_symop_operation_xyz
x,y,z
-x,y,-z
-x,-y,-z
x,-y,z
1/2+x,1/2+y,z
1/2-x,1/2+y,-z
1/2-x,1/2-y,-z
1/2+x,1/2-y,z
loop_
_atom_site_type_symbol
_atom_site_label
_atom_site_fract_x
_atom_site_fract_y
_atom_site_fract_z
Si Si1 0.563993 0.783476 0.831485
Si Si2 0.289563 0.442667 0.917584
Si Si3 0.331051 0.719006 0.319869
Si Si4 0.710617 0.883516 0.082359
Si Si5 0.354347 0.808084 0.470340
O O1 0.249388 0.758163 0.842083
O O2 0.398618 0.826911 0.887977
O O3 0.857724 0.808342 0.754090
O O4 0.397548 0.500000 0.887431
O O5 0.635001 0.413143 0.890446
O O6 0.132419 0.413902 0.890573
O O7 0.000000 0.444644 0.000000
O O8 0.519703 0.765604 0.323685
O O9 0.151070 0.685220 0.387283
O O10 0.000000 0.878774 0.000000
O O11 0.500000 0.836396 0.500000
O O12 0.250000 0.750000 0.500000
O O13 0.000000 0.836404 0.500000
#
# Coordination Sequence:
#
# PCOD8078033 Si02
#       5
#     8   8   8   8   8
#     4  10  21  31  41  56  82 118 152 177 193 232
#     4   9  17  30  49  69  84  97 123 172 229 273
#     4  10  16  25  35  50  72  99 134 173 196 227
#     4  10  19  31  46  63  83 108 141 176 210 246
#     4  10  14  20  34  51  67  88 124 173 198 232
#
# _framework density 15.130983000000001
#
# number of rings (size 3 to 8) (size 9 to 14) (size 15 to 20)
#    0.000    2.200    4.000    1.800    0.000    3.200 
#    0.000    0.000    0.000    0.000    0.000    0.000 
#    0.000    0.000    0.000    0.000    0.000   20.000 
#
# Total GULP energy -247826.121005 kJ/mol
# GULP energy per Si atom -12391.306050 kJ/mol
# Density = 1.509654 g / cm^3
# Si number density = 15.130983 Si / 1000 Ang^3
#
#
#
# Elastic Constant Matrix: (Units=GPa)
#
#
# Indices 1 2 3 4 5 6 
#
# 1 127.1921 24.9326 25.0264 0.0000 2.5184 0.0000
# 2 24.9326 52.7254 27.0845 0.0000 1.0023 0.0000
# 3 25.0264 27.0845 50.3263 0.0000 2.0165 0.0000
# 4 0.0000 0.0000 0.0000 0.4503 0.0000 0.2557
# 5 2.5184 1.0023 2.0165 0.0000 16.2560 0.0000
# 6 0.0000 0.0000 0.0000 0.2557 0.0000 18.1100
#
#
#
# Elastic Compliance Matrix: (Units=1/GPa)
#
#
# Indices 1 2 3 4 5 6 
#
# 1 0.008996 -0.002705 -0.002983 0.000000 -0.000857 0.000000
# 2 -0.002705 0.027027 -0.013216 0.000000 0.000392 0.000000
# 3 -0.002983 -0.013216 0.028557 0.000000 -0.002265 0.000000
# 4 0.000000 0.000000 0.000000 2.238520 0.000000 -0.031612
# 5 -0.000857 0.000392 -0.002265 0.000000 0.061905 0.000000
# 6 0.000000 0.000000 0.000000 -0.031612 0.000000 0.055664
#
#
# Mechanical properties :
#
#
# Convention : Reuss Voigt Hill
#
# Bulk Modulus (GPa) = 37.35325 42.70343 40.02834
# Shear Modulus (GPa) = 2.02642 17.17661 9.60151
#
# Velocity S-wave (km/s) = 1.15852 3.37292 2.52178
# Velocity P-wave (km/s) = 5.15070 6.59186 5.91533
#
# Compressibility (1/GPa) = 0.02677143
#
# Stress axis : x y z
#
# Youngs Moduli (GPa) = 111.15518 37.00035 35.01753
#
# Poissons Ratio (x) = 0.10010 0.10447
# Poissons Ratio (y) = 0.30071 0.46278
# Poissons Ratio (z) = 0.33163 0.48898
#
# Static dielectric constant tensor:
#      x y z
#    x 3.873400 0.000000 0.015290 
#    y 0.000000 2.430280 0.000000 
#    z 0.015290 0.000000 2.944630 
# 
# 
# High freq. dielectric constant tensor:
#      x y z
#    x 1.616510 0.000000 0.001550 
#    y 0.000000 1.507440 0.000000 
#    z 0.001550 0.000000 1.566110 
# 
# From -- ./inp_files/252792.got.cif
#   From: 2010.06.25/outbox.cif.g09.slc.cpg/sg12_127_cif.got.tgz:252792.got - 2010.06.28 00:19:55.
