data_PCOD8078099
_publ_section_title
;
Structure prediction by ZEFSAII (Michael W. Deem and Ramdas Pophale) SiO2 
 PCOD8078099
Probable space group: C 2/M
;
_chemical_formula_sum "Si O2"
_cell_formula_units_Z 36
_cell_length_a 10.113270
_cell_length_b 27.700916
_cell_length_c 11.509526
_cell_angle_alpha 90.000000
_cell_angle_beta 40.767150
_cell_angle_gamma 90.000000
_cell_volume 2105.461771
_symmetry_space_group_name_H-M "C 2/M"
_symmetry_group_IT_number 12
_symmetry_cell_setting 'monoclinic'
loop_
_space_group_symop_operation_xyz
x,y,z
-x,y,-z
-x,-y,-z
x,-y,z
1/2+x,1/2+y,z
1/2-x,1/2+y,-z
1/2-x,1/2-y,-z
1/2+x,1/2-y,z
loop_
_atom_site_type_symbol
_atom_site_label
_atom_site_fract_x
_atom_site_fract_y
_atom_site_fract_z
Si Si1 0.970293 0.230931 0.388653
Si Si2 0.930323 0.054101 0.179691
Si Si3 0.500000 0.903794 0.500000
Si Si4 0.449449 0.348764 0.848736
Si Si5 0.676122 0.169569 0.229805
O O1 0.750000 0.250000 0.500000
O O2 0.000000 0.213335 0.500000
O O3 0.040934 0.184597 0.269546
O O4 0.121061 0.274811 0.269589
O O5 0.690709 0.061028 0.359079
O O6 0.042987 0.093731 0.186086
O O7 0.990336 0.000000 0.178204
O O8 0.000000 0.063351 0.000000
O O9 0.504079 0.867019 0.609688
O O10 0.640376 0.338497 0.803769
O O11 0.239025 0.340085 0.055515
#
# Coordination Sequence:
#
# PCOD8078099 Si02
#       5
#     8   8   4   8   8
#     4  12  21  34  53  77 109 147 180 215 263 324
#     4  10  18  30  50  76 105 138 178 224 273 312
#     4  10  15  30  48  74 110 136 171 218 272 312
#     4  10  19  34  51  75 112 138 179 223 268 312
#     4  10  18  33  51  76 108 144 170 221 264 320
#
# _framework density 17.098386000000001
#
# number of rings (size 3 to 8) (size 9 to 14) (size 15 to 20)
#    0.000    1.556    7.778    2.333    0.000    0.000 
#    0.000    0.000    0.000    0.667    0.000    0.000 
#    0.000    3.556    0.000    0.000    0.000    0.000 
#
# Total GULP energy -222997.830753 kJ/mol
# GULP energy per Si atom -12388.768375 kJ/mol
# Density = 1.705947 g / cm^3
# Si number density = 17.098386 Si / 1000 Ang^3
#
#
#
# Elastic Constant Matrix: (Units=GPa)
#
#
# Indices 1 2 3 4 5 6 
#
# 1 33.8626 20.2234 30.5708 0.0000 14.3310 0.0000
# 2 20.2234 169.4025 59.3564 0.0000 14.8314 0.0000
# 3 30.5708 59.3564 135.0626 0.0000 3.0095 0.0000
# 4 0.0000 0.0000 0.0000 28.3996 0.0000 0.9353
# 5 14.3310 14.8314 3.0095 0.0000 18.8935 0.0000
# 6 0.0000 0.0000 0.0000 0.9353 0.0000 11.7191
#
#
#
# Elastic Compliance Matrix: (Units=1/GPa)
#
#
# Indices 1 2 3 4 5 6 
#
# 1 0.058897 0.001325 -0.012941 0.000000 -0.043653 0.000000
# 2 0.001325 0.007514 -0.003460 0.000000 -0.006352 0.000000
# 3 -0.012941 -0.003460 0.011616 0.000000 0.010682 0.000000
# 4 0.000000 0.000000 0.000000 0.035305 0.000000 -0.002818
# 5 -0.043653 -0.006352 0.010682 0.000000 0.089324 0.000000
# 6 0.000000 0.000000 0.000000 -0.002818 0.000000 0.085555
#
#
# Mechanical properties :
#
#
# Convention : Reuss Voigt Hill
#
# Bulk Modulus (GPa) = 20.88823 62.06989 41.47906
# Shear Modulus (GPa) = 14.95573 27.01426 20.98500
#
# Velocity S-wave (km/s) = 2.96072 3.97915 3.50710
# Velocity P-wave (km/s) = 4.89191 7.58234 6.38055
#
# Compressibility (1/GPa) = 0.04787384
#
# Stress axis : x y z
#
# Youngs Moduli (GPa) = 16.97891 133.09372 86.09010
#
# Poissons Ratio (x) = -0.17634 1.11406
# Poissons Ratio (y) = -0.02250 0.29790
# Poissons Ratio (z) = 0.21972 0.46055
#
# Static dielectric constant tensor:
#      x y z
#    x 2.695030 0.000000 -0.134830 
#    y 0.000000 3.884410 0.000000 
#    z -0.134830 0.000000 3.629530 
# 
# 
# High freq. dielectric constant tensor:
#      x y z
#    x 1.589010 0.000000 -0.019400 
#    y 0.000000 1.675870 0.000000 
#    z -0.019400 0.000000 1.685400 
# 
# From -- ./inp_files/41340.got.cif
#   From: 2010.06.25/outbox.cif.g09.slc.cpg/sg12_21_cif.got.tgz:41340.got - 2010.06.28 00:19:55.
