data_PCOD8078375
_publ_section_title
;
Structure prediction by ZEFSAII (Michael W. Deem and Ramdas Pophale) SiO2 
 PCOD8078375
Probable space group: C 2/M
;
_chemical_formula_sum "Si O2"
_cell_formula_units_Z 60
_cell_length_a 21.731361
_cell_length_b 8.978493
_cell_length_c 24.839219
_cell_angle_alpha 90.000000
_cell_angle_beta 139.598592
_cell_angle_gamma 90.000000
_cell_volume 3141.204479
_symmetry_space_group_name_H-M "C 2/M"
_symmetry_group_IT_number 12
_symmetry_cell_setting 'monoclinic'
loop_
_space_group_symop_operation_xyz
x,y,z
-x,y,-z
-x,-y,-z
x,-y,z
1/2+x,1/2+y,z
1/2-x,1/2+y,-z
1/2-x,1/2-y,-z
1/2+x,1/2-y,z
loop_
_atom_site_type_symbol
_atom_site_label
_atom_site_fract_x
_atom_site_fract_y
_atom_site_fract_z
Si Si1 0.820809 0.323288 0.006986
Si Si2 0.008875 0.164416 0.124522
Si Si3 0.026805 0.828771 0.459865
Si Si4 0.796010 0.176656 0.689880
Si Si5 0.320352 0.326759 0.299881
Si Si6 0.500000 0.749761 0.000000
Si Si7 0.295784 0.836301 0.874422
Si Si8 0.722625 0.321218 0.538890
O O1 0.815481 0.500000 0.005188
O O2 0.928225 0.276045 0.091934
O O3 0.750000 0.250000 0.000000
O O4 0.786436 0.258032 0.926208
O O5 0.109061 0.222153 0.214356
O O6 0.988283 0.000000 0.133989
O O7 0.007021 0.150504 0.058435
O O8 0.117436 0.763096 0.487917
O O9 0.000000 0.754321 0.500000
O O10 0.931990 0.809679 0.360624
O O11 0.052495 0.000000 0.488382
O O12 0.706186 0.238250 0.663631
O O13 0.796862 0.257974 0.632465
O O14 0.786731 0.000000 0.676104
O O15 0.292856 0.500000 0.290576
O O16 0.261998 0.252319 0.211192
O O17 0.407481 0.853186 0.936879
O O18 0.250494 0.000000 0.847522
O O19 0.728691 0.500000 0.538662
O O20 0.750000 0.250000 0.500000
#
# Coordination Sequence:
#
# PCOD8078375 Si02
#       8
#     8   8   8   8   8   4   8   8
#     4  10  21  38  56  77 108 150 199 243 291 348
#     4  10  21  35  55  82 114 150 189 232 284 343
#     4   9  17  33  60  88 112 145 191 231 282 354
#     4  11  22  37  57  88 120 151 190 239 295 354
#     4  10  18  34  58  84 112 147 187 233 288 349
#     4  10  16  30  52  84 113 144 181 224 285 326
#     4   9  18  30  51  81 111 142 183 232 281 339
#     4  11  23  42  64  88 118 155 199 248 301 365
#
# _framework density 19.100951999999999
#
# number of rings (size 3 to 8) (size 9 to 14) (size 15 to 20)
#    0.000    2.000    2.667    1.600    0.000    1.600 
#    2.400    2.667    0.000    0.000    0.000    0.000 
#    0.000    0.000    0.000    0.000    0.000    0.000 
#
# Total GULP energy -371760.185958 kJ/mol
# GULP energy per Si atom -12392.006199 kJ/mol
# Density = 1.905748 g / cm^3
# Si number density = 19.100952 Si / 1000 Ang^3
#
#
#
# Elastic Constant Matrix: (Units=GPa)
#
#
# Indices 1 2 3 4 5 6 
#
# 1 136.8514 36.0594 63.0683 0.0000 -6.1963 0.0000
# 2 36.0594 70.6765 32.3827 0.0000 -2.8894 0.0004
# 3 63.0683 32.3827 133.7172 0.0000 -0.2339 0.0000
# 4 0.0000 0.0000 0.0000 23.1416 0.0000 -0.7084
# 5 -6.1963 -2.8894 -0.2339 0.0000 23.9546 0.0000
# 6 0.0000 0.0004 0.0000 -0.7084 0.0000 23.9438
#
#
#
# Elastic Compliance Matrix: (Units=1/GPa)
#
#
# Indices 1 2 3 4 5 6 
#
# 1 0.010089 -0.003239 -0.003970 0.000000 0.002180 0.000000
# 2 -0.003239 0.017040 -0.002597 0.000000 0.001192 0.000000
# 3 -0.003970 -0.002597 0.009978 0.000000 -0.001243 0.000000
# 4 0.000000 0.000000 0.000000 0.043251 0.000000 0.001280
# 5 0.002180 0.001192 -0.001243 0.000000 0.042441 0.000000
# 6 0.000000 0.000000 0.000000 0.001280 0.000000 0.041802
#
#
# Mechanical properties :
#
#
# Convention : Reuss Voigt Hill
#
# Bulk Modulus (GPa) = 57.16109 67.14065 62.15087
# Shear Modulus (GPa) = 26.30939 28.19032 27.24985
#
# Velocity S-wave (km/s) = 3.71534 3.84586 3.78116
# Velocity P-wave (km/s) = 6.95671 7.41266 7.18830
#
# Compressibility (1/GPa) = 0.01749442
#
# Stress axis : x y z
#
# Youngs Moduli (GPa) = 99.11612 58.68474 100.22262
#
# Poissons Ratio (x) = 0.19010 0.39792
# Poissons Ratio (y) = 0.32106 0.26026
# Poissons Ratio (z) = 0.39352 0.15239
#
# Static dielectric constant tensor:
#      x y z
#    x 3.483990 0.000000 0.021220 
#    y 0.000000 3.234250 0.000000 
#    z 0.021220 0.000000 3.726340 
# 
# 
# High freq. dielectric constant tensor:
#      x y z
#    x 1.730960 0.000000 0.004080 
#    y 0.000000 1.716650 0.000000 
#    z 0.004080 0.000000 1.754830 
# 
# From -- ./inp_files/320555.got.cif
#   From: 2010.06.25/outbox.cif.g09.slc.cpg/sg12_161_cif.got.tgz:320555.got - 2010.06.28 00:19:55.
