data_PCOD8078548
_publ_section_title
;
Structure prediction by ZEFSAII (Michael W. Deem and Ramdas Pophale) SiO2 
 PCOD8078548
Probable space group: C 2/M
;
_chemical_formula_sum "Si O2"
_cell_formula_units_Z 56
_cell_length_a 28.668371
_cell_length_b 8.968959
_cell_length_c 14.336954
_cell_angle_alpha 90.000000
_cell_angle_beta 103.383449
_cell_angle_gamma 90.000000
_cell_volume 3586.283415
_symmetry_space_group_name_H-M "C 2/M"
_symmetry_group_IT_number 12
_symmetry_cell_setting 'monoclinic'
loop_
_space_group_symop_operation_xyz
x,y,z
-x,y,-z
-x,-y,-z
x,-y,z
1/2+x,1/2+y,z
1/2-x,1/2+y,-z
1/2-x,1/2-y,-z
1/2+x,1/2-y,z
loop_
_atom_site_type_symbol
_atom_site_label
_atom_site_fract_x
_atom_site_fract_y
_atom_site_fract_z
Si Si1 0.515982 0.323742 0.226097
Si Si2 0.951414 0.164282 0.035430
Si Si3 0.528947 0.826064 0.422927
Si Si4 0.362378 0.172734 0.543940
Si Si5 0.902003 0.324316 0.856800
Si Si6 0.825088 0.175170 0.711417
Si Si7 0.231987 0.671267 0.582292
O O1 0.525617 0.500000 0.227445
O O2 0.467025 0.283767 0.146560
O O3 0.508453 0.267266 0.327055
O O4 0.561626 0.243189 0.201906
O O5 0.927531 0.000000 0.026700
O O6 0.914793 0.277806 0.968963
O O7 0.000000 0.157021 0.000000
O O8 0.500000 0.773556 0.500000
O O9 0.584659 0.788573 0.467181
O O10 0.520863 0.000000 0.398346
O O11 0.349588 0.275615 0.625689
O O12 0.325481 0.202667 0.438906
O O13 0.359016 0.000000 0.574446
O O14 0.903564 0.500000 0.849336
O O15 0.849014 0.263688 0.808235
O O16 0.767552 0.217361 0.684235
O O17 0.833970 0.000000 0.729872
O O18 0.242088 0.500000 0.569231
O O19 0.250000 0.750000 0.500000
#
# Coordination Sequence:
#
# PCOD8078548 Si02
#       7
#     8   8   8   8   8   8   8
#     4  10  19  31  45  59  80 110 143 178 212 245
#     4   8  16  29  42  58  80 107 138 171 206 247
#     4  10  20  31  44  63  86 113 145 179 212 246
#     4   9  16  28  42  56  79 110 142 175 210 245
#     4  11  19  26  40  62  86 112 139 168 205 254
#     4  10  17  25  39  59  83 110 140 171 205 246
#     4   8  15  25  38  56  77 105 139 171 203 244
#
# _framework density 15.615053
#
# number of rings (size 3 to 8) (size 9 to 14) (size 15 to 20)
#    0.000    2.571    1.429    3.000    0.000    4.000 
#    0.000    0.000    0.000    0.000    0.000    0.000 
#    0.000    1.143    0.000    2.286    0.000    3.000 
#
# Total GULP energy -346876.224325 kJ/mol
# GULP energy per Si atom -12388.436583 kJ/mol
# Density = 1.557951 g / cm^3
# Si number density = 15.615053 Si / 1000 Ang^3
#
#
#
# Elastic Constant Matrix: (Units=GPa)
#
#
# Indices 1 2 3 4 5 6 
#
# 1 63.0189 27.0188 56.4134 0.0000 20.3929 0.0000
# 2 27.0188 76.9324 53.3119 0.0000 16.4279 0.0000
# 3 56.4134 53.3119 120.8142 0.0000 31.6774 0.0000
# 4 0.0000 0.0000 0.0000 22.5216 0.0000 4.4967
# 5 20.3929 16.4279 31.6774 0.0000 26.9831 0.0000
# 6 0.0000 0.0000 0.0000 4.4967 0.0000 13.0510
#
#
#
# Elastic Compliance Matrix: (Units=1/GPa)
#
#
# Indices 1 2 3 4 5 6 
#
# 1 0.028603 -0.000749 -0.010802 0.000000 -0.008480 0.000000
# 2 -0.000749 0.018857 -0.007382 0.000000 -0.002248 0.000000
# 3 -0.010802 -0.007382 0.019156 0.000000 -0.009831 0.000000
# 4 0.000000 0.000000 0.000000 0.047682 0.000000 -0.016429
# 5 -0.008480 -0.002248 -0.009831 0.000000 0.056379 0.000000
# 6 0.000000 0.000000 0.000000 -0.016429 0.000000 0.082283
#
#
# Mechanical properties :
#
#
# Convention : Reuss Voigt Hill
#
# Bulk Modulus (GPa) = 34.78214 59.36154 47.07184
# Shear Modulus (GPa) = 16.64395 20.77924 18.71160
#
# Velocity S-wave (km/s) = 3.26834 3.65186 3.46541
# Velocity P-wave (km/s) = 6.04697 7.47526 6.79873
#
# Compressibility (1/GPa) = 0.02875038
#
# Stress axis : x y z
#
# Youngs Moduli (GPa) = 34.96080 53.03085 52.20277
#
# Poissons Ratio (x) = 0.03973 0.56390
# Poissons Ratio (y) = 0.02619 0.38534
# Poissons Ratio (z) = 0.37765 0.39146
#
# Static dielectric constant tensor:
#      x y z
#    x 2.982910 0.000000 0.624140 
#    y 0.000000 2.811960 0.000000 
#    z 0.624140 0.000000 3.292100 
# 
# 
# High freq. dielectric constant tensor:
#      x y z
#    x 1.553830 0.000000 0.051110 
#    y 0.000000 1.607340 0.000000 
#    z 0.051110 0.000000 1.588820 
# 
# From -- ./inp_files/243049.got.cif
#   From: 2010.06.25/outbox.cif.g09.slc.cpg/sg12_122_cif.got.tgz:243049.got - 2010.06.28 00:19:55.
