data_PCOD8078678
_publ_section_title
;
Structure prediction by ZEFSAII (Michael W. Deem and Ramdas Pophale) SiO2 
 PCOD8078678
Probable space group: C 2/M
;
_chemical_formula_sum "Si O2"
_cell_formula_units_Z 56
_cell_length_a 28.261133
_cell_length_b 9.064869
_cell_length_c 14.198449
_cell_angle_alpha 90.000000
_cell_angle_beta 103.427842
_cell_angle_gamma 90.000000
_cell_volume 3537.972633
_symmetry_space_group_name_H-M "C 2/M"
_symmetry_group_IT_number 12
_symmetry_cell_setting 'monoclinic'
loop_
_space_group_symop_operation_xyz
x,y,z
-x,y,-z
-x,-y,-z
x,-y,z
1/2+x,1/2+y,z
1/2-x,1/2+y,-z
1/2-x,1/2-y,-z
1/2+x,1/2-y,z
loop_
_atom_site_type_symbol
_atom_site_label
_atom_site_fract_x
_atom_site_fract_y
_atom_site_fract_z
Si Si1 0.452899 0.166541 0.543305
Si Si2 0.680712 0.174163 0.790738
Si Si3 0.764438 0.329019 0.911621
Si Si4 0.036124 0.174499 0.936516
Si Si5 0.603754 0.671996 0.633603
Si Si6 0.865324 0.668017 0.030188
Si Si7 0.010469 0.171092 0.717482
O O1 0.500000 0.169882 0.500000
O O2 0.410634 0.261815 0.474580
O O3 0.466583 0.238103 0.649889
O O4 0.434419 0.000000 0.550614
O O5 0.734864 0.247056 0.814560
O O6 0.651439 0.242902 0.690445
O O7 0.654072 0.216926 0.876031
O O8 0.685667 0.000000 0.779927
O O9 0.749035 0.500000 0.908349
O O10 0.750000 0.250000 0.000000
O O11 0.823055 0.313825 0.931214
O O12 0.089900 0.233219 0.981473
O O13 0.016164 0.228972 0.826514
O O14 0.039469 0.000000 0.939770
O O15 0.000000 0.234862 0.000000
O O16 0.615271 0.500000 0.627326
O O17 0.561126 0.700814 0.688614
O O18 0.883100 0.500000 0.044114
O O19 0.996282 0.000000 0.706059
#
# Coordination Sequence:
#
# PCOD8078678 Si02
#       7
#     8   8   8   8   8   8   8
#     4   9  17  27  40  59  82 110 141 177 214 257
#     4  10  18  27  41  63  88 115 145 177 212 258
#     4   9  17  28  41  60  83 111 144 177 214 260
#     4  10  20  32  46  64  85 113 151 189 221 254
#     4  10  17  26  42  62  85 116 145 175 212 257
#     4   9  18  30  43  59  83 113 145 181 219 256
#     4   9  17  29  42  58  81 112 146 180 217 257
#
# _framework density 15.828274
#
# number of rings (size 3 to 8) (size 9 to 14) (size 15 to 20)
#    0.000    2.571    1.429    2.571    0.000    6.000 
#    0.000    0.000    0.000    0.000    0.000    0.000 
#    0.000    1.143    0.000    3.429    0.000    5.286 
#
# Total GULP energy -347124.802300 kJ/mol
# GULP energy per Si atom -12397.314368 kJ/mol
# Density = 1.579225 g / cm^3
# Si number density = 15.828274 Si / 1000 Ang^3
#
#
#
# Elastic Constant Matrix: (Units=GPa)
#
#
# Indices 1 2 3 4 5 6 
#
# 1 59.0523 36.7049 48.2380 0.0000 18.8447 0.0000
# 2 36.7049 90.6909 51.5646 0.0000 21.6118 0.0000
# 3 48.2380 51.5646 99.4618 0.0000 29.7092 0.0000
# 4 0.0000 0.0000 0.0000 26.5921 0.0000 11.7138
# 5 18.8447 21.6118 29.7092 0.0000 28.0294 0.0000
# 6 0.0000 0.0000 0.0000 11.7138 0.0000 21.7771
#
#
#
# Elastic Compliance Matrix: (Units=1/GPa)
#
#
# Indices 1 2 3 4 5 6 
#
# 1 0.030366 -0.005029 -0.010507 0.000000 -0.005402 0.000000
# 2 -0.005029 0.016976 -0.005066 0.000000 -0.004339 0.000000
# 3 -0.010507 -0.005066 0.021217 0.000000 -0.011518 0.000000
# 4 0.000000 0.000000 0.000000 0.049282 0.000000 -0.026509
# 5 -0.005402 -0.004339 -0.011518 0.000000 0.054862 0.000000
# 6 0.000000 0.000000 0.000000 -0.026509 0.000000 0.060179
#
#
# Mechanical properties :
#
#
# Convention : Reuss Voigt Hill
#
# Bulk Modulus (GPa) = 36.55524 58.02445 47.28985
# Shear Modulus (GPa) = 17.65508 22.79289 20.22399
#
# Velocity S-wave (km/s) = 3.34341 3.79886 3.57839
# Velocity P-wave (km/s) = 6.16843 7.48199 6.85674
#
# Compressibility (1/GPa) = 0.02735586
#
# Stress axis : x y z
#
# Youngs Moduli (GPa) = 32.93108 58.90609 47.13267
#
# Poissons Ratio (x) = 0.29623 0.49521
# Poissons Ratio (y) = 0.16561 0.23878
# Poissons Ratio (z) = 0.34600 0.29843
#
# Static dielectric constant tensor:
#      x y z
#    x 2.739840 0.000000 0.337770 
#    y 0.000000 3.118170 0.000000 
#    z 0.337770 0.000000 3.070410 
# 
# 
# High freq. dielectric constant tensor:
#      x y z
#    x 1.560240 0.000000 0.043540 
#    y 0.000000 1.620570 0.000000 
#    z 0.043540 0.000000 1.594540 
# 
# From -- ./inp_files/247735.got.cif
#   From: 2010.06.25/outbox.cif.g09.slc.cpg/sg12_124_cif.got.tgz:247735.got - 2010.06.28 00:19:55.
