data_PCOD8078032
_publ_section_title
;
Structure prediction by ZEFSAII (Michael W. Deem and Ramdas Pophale) SiO2 
 PCOD8078032
Probable space group: C 2/M
;
_chemical_formula_sum "Si O2"
_cell_formula_units_Z 52
_cell_length_a 5.263770
_cell_length_b 26.573976
_cell_length_c 28.152705
_cell_angle_alpha 90.000000
_cell_angle_beta 67.522190
_cell_angle_gamma 90.000000
_cell_volume 3638.803049
_symmetry_space_group_name_H-M "C 2/M"
_symmetry_group_IT_number 12
_symmetry_cell_setting 'monoclinic'
loop_
_space_group_symop_operation_xyz
x,y,z
-x,y,-z
-x,-y,-z
x,-y,z
1/2+x,1/2+y,z
1/2-x,1/2+y,-z
1/2-x,1/2-y,-z
1/2+x,1/2-y,z
loop_
_atom_site_type_symbol
_atom_site_label
_atom_site_fract_x
_atom_site_fract_y
_atom_site_fract_z
Si Si1 0.724869 0.219074 0.883028
Si Si2 0.124744 0.385844 0.938904
Si Si3 0.000000 0.783319 0.500000
Si Si4 0.969157 0.197478 0.763095
Si Si5 0.875226 0.056625 0.061130
Si Si6 0.057614 0.690570 0.719762
Si Si7 0.319073 0.717162 0.609622
O O1 0.432726 0.246124 0.897724
O O2 0.676306 0.169469 0.916380
O O3 0.855804 0.206324 0.823258
O O4 0.413486 0.415540 0.918752
O O5 0.915744 0.414563 0.918676
O O6 0.000000 0.381823 0.000000
O O7 0.250000 0.750000 0.500000
O O8 0.102928 0.813343 0.445159
O O9 0.028054 0.249867 0.732095
O O10 0.749473 0.166396 0.747120
O O11 0.254052 0.166014 0.744761
O O12 0.827421 0.000000 0.083247
O O13 0.000000 0.055133 0.000000
O O14 0.188092 0.680321 0.658441
O O15 0.594075 0.740544 0.612754
#
# Coordination Sequence:
#
# PCOD8078032 Si02
#       7
#     8   8   4   8   8   8   8
#     4  12  21  31  43  56  83 115 136 160 187 219
#     4  10  21  33  46  67  85 103 133 156 186 242
#     4   8  16  20  24  38  56  72  92 122 192 246
#     4  10  16  25  35  49  62  87 126 156 179 205
#     4   9  17  33  54  70  83  97 118 158 201 234
#     4  10  14  23  36  46  58  80 124 159 180 213
#     4  10  14  20  29  40  55  74  97 142 184 230
#
# _framework density 14.290414
#
# number of rings (size 3 to 8) (size 9 to 14) (size 15 to 20)
#    0.000    2.000    6.154    1.385    0.000    2.462 
#    0.000    0.000    0.000    0.000    0.000    0.000 
#    0.000    0.000    0.000    0.000    0.000    0.000 
#
# Total GULP energy -322095.050182 kJ/mol
# GULP energy per Si atom -12388.271161 kJ/mol
# Density = 1.425789 g / cm^3
# Si number density = 14.290414 Si / 1000 Ang^3
#
#
#
# Elastic Constant Matrix: (Units=GPa)
#
#
# Indices 1 2 3 4 5 6 
#
# 1 124.0742 17.2847 22.0246 0.0000 12.4513 0.0000
# 2 17.2847 36.1888 24.8793 0.0000 6.3191 0.0000
# 3 22.0246 24.8793 43.5349 0.0000 2.5206 0.0000
# 4 0.0000 0.0000 0.0000 0.2416 0.0000 0.6554
# 5 12.4513 6.3191 2.5206 0.0000 15.1280 0.0000
# 6 0.0000 0.0000 0.0000 0.6554 0.0000 15.4779
#
#
#
# Elastic Compliance Matrix: (Units=1/GPa)
#
#
# Indices 1 2 3 4 5 6 
#
# 1 0.009566 -0.000497 -0.004152 0.000000 -0.006974 0.000000
# 2 -0.000497 0.049088 -0.026898 0.000000 -0.015614 0.000000
# 3 -0.004152 -0.026898 0.039979 0.000000 0.007991 0.000000
# 4 0.000000 0.000000 0.000000 4.675755 0.000000 -0.197998
# 5 -0.006974 -0.015614 0.007991 0.000000 0.077033 0.000000
# 6 0.000000 0.000000 0.000000 -0.197998 0.000000 0.072993
#
#
# Mechanical properties :
#
#
# Convention : Reuss Voigt Hill
#
# Bulk Modulus (GPa) = 28.13652 36.90835 32.52243
# Shear Modulus (GPa) = 1.00013 15.47680 8.23846
#
# Velocity S-wave (km/s) = 0.83748 3.29450 2.40365
# Velocity P-wave (km/s) = 4.54610 6.35256 5.52368
#
# Compressibility (1/GPa) = 0.03554100
#
# Stress axis : x y z
#
# Youngs Moduli (GPa) = 104.53976 20.37143 25.01303
#
# Poissons Ratio (x) = 0.01012 0.10384
# Poissons Ratio (y) = 0.05195 0.67279
# Poissons Ratio (z) = 0.43401 0.54794
#
# Static dielectric constant tensor:
#      x y z
#    x 4.441940 0.000000 0.055630 
#    y 0.000000 2.268040 0.000000 
#    z 0.055630 0.000000 3.068270 
# 
# 
# High freq. dielectric constant tensor:
#      x y z
#    x 1.586310 0.000000 0.002950 
#    y 0.000000 1.455430 0.000000 
#    z 0.002950 0.000000 1.544690 
# 
# From -- ./inp_files/355124.got.cif
#   From: 2010.06.25/outbox.cif.g09.slc.cpg/sg12_178_cif.got.tgz:355124.got - 2010.06.28 00:19:55.
