data_PCOD8078616
_publ_section_title
;
Structure prediction by ZEFSAII (Michael W. Deem and Ramdas Pophale) SiO2 
 PCOD8078616
Probable space group: C 2/M
;
_chemical_formula_sum "Si O2"
_cell_formula_units_Z 64
_cell_length_a 21.826116
_cell_length_b 14.764507
_cell_length_c 13.235305
_cell_angle_alpha 90.000000
_cell_angle_beta 59.288501
_cell_angle_gamma 90.000000
_cell_volume 3666.920055
_symmetry_space_group_name_H-M "C 2/M"
_symmetry_group_IT_number 12
_symmetry_cell_setting 'monoclinic'
loop_
_space_group_symop_operation_xyz
x,y,z
-x,y,-z
-x,-y,-z
x,-y,z
1/2+x,1/2+y,z
1/2-x,1/2+y,-z
1/2-x,1/2-y,-z
1/2+x,1/2-y,z
loop_
_atom_site_type_symbol
_atom_site_label
_atom_site_fract_x
_atom_site_fract_y
_atom_site_fract_z
Si Si1 0.641269 0.776622 0.626384
Si Si2 0.199995 0.399147 0.292368
Si Si3 0.582469 0.777122 0.461300
Si Si4 0.948853 0.217569 0.129029
Si Si5 0.234590 0.895400 0.541380
Si Si6 0.444741 0.395829 0.828183
Si Si7 0.158086 0.895102 0.914113
Si Si8 0.925451 0.902576 0.615625
O O1 0.592973 0.800711 0.569738
O O2 0.594194 0.791075 0.767775
O O3 0.706322 0.847823 0.580677
O O4 0.665965 0.670872 0.597272
O O5 0.177790 0.500000 0.279338
O O6 0.127590 0.342271 0.350325
O O7 0.234666 0.396428 0.372930
O O8 0.260241 0.359731 0.164683
O O9 0.500000 0.784424 0.500000
O O10 0.614372 0.676119 0.412978
O O11 0.893465 0.152550 0.121330
O O12 0.993665 0.160699 0.171584
O O13 0.000000 0.262947 0.000000
O O14 0.217255 0.000000 0.521413
O O15 0.468020 0.500000 0.815050
O O16 0.436166 0.365490 0.720102
O O17 0.369363 0.379753 0.948786
O O18 0.157306 0.000000 0.883151
O O19 0.000000 0.919061 0.500000
O O20 0.884019 0.000000 0.650190
#
# Coordination Sequence:
#
# PCOD8078616 Si02
#       8
#     8   8   8   8   8   8   8   8
#     4  10  19  31  49  73 100 125 158 197 237 288
#     4   9  17  31  49  69  94 122 153 193 242 285
#     4  10  20  32  47  67  95 124 159 199 229 270
#     4  10  17  25  43  71 101 127 150 186 240 293
#     4   9  18  32  51  73  96 125 157 197 246 288
#     4   9  17  27  42  66  95 126 156 188 233 287
#     4   9  16  27  43  66  95 122 151 191 238 289
#     4   9  17  30  44  60  87 122 158 188 221 269
#
# _framework density 17.453340000000001
#
# number of rings (size 3 to 8) (size 9 to 14) (size 15 to 20)
#    0.000    2.625    1.250    1.875    0.000    2.750 
#    0.000    0.625    0.000    0.375    0.000    0.000 
#    0.000    0.000    0.000    0.000    0.000    0.000 
#
# Total GULP energy -396471.756613 kJ/mol
# GULP energy per Si atom -12389.742394 kJ/mol
# Density = 1.741362 g / cm^3
# Si number density = 17.453340 Si / 1000 Ang^3
#
#
#
# Elastic Constant Matrix: (Units=GPa)
#
#
# Indices 1 2 3 4 5 6 
#
# 1 50.3925 14.4176 26.1547 0.0000 -16.4305 0.0000
# 2 14.4176 59.1357 19.9903 0.0000 -15.9567 0.0000
# 3 26.1547 19.9903 125.4368 0.0000 -17.5599 0.0000
# 4 0.0000 0.0000 0.0000 21.6303 0.0000 -7.3927
# 5 -16.4305 -15.9567 -17.5599 0.0000 25.6693 0.0000
# 6 0.0000 0.0000 0.0000 -7.3927 0.0000 -2.4562
#
#
#
# Elastic Compliance Matrix: (Units=1/GPa)
#
#
# Indices 1 2 3 4 5 6 
#
# 1 0.026506 -0.001646 -0.003354 0.000000 0.013649 0.000000
# 2 -0.001646 0.020725 -0.001442 0.000000 0.010843 0.000000
# 3 -0.003354 -0.001442 0.009373 0.000000 0.003369 0.000000
# 4 0.000000 0.000000 0.000000 0.022789 0.000000 -0.068590
# 5 0.013649 0.010843 0.003369 0.000000 0.056739 0.000000
# 6 0.000000 0.000000 0.000000 -0.068590 0.000000 -0.200687
#
#
# Mechanical properties :
#
#
# Convention : Reuss Voigt Hill
#
# Bulk Modulus (GPa) = 22.87224 39.56557 31.21891
# Shear Modulus (GPa) = -134.77128 20.59550 -57.08789
#
# Velocity S-wave (km/s) = -8.79691 3.43889 -5.72537
# Velocity P-wave (km/s) = 9.48934 6.20375 5.07746
#
# Compressibility (1/GPa) = 0.04372112
#
# Stress axis : x y z
#
# Youngs Moduli (GPa) = 37.72747 48.25149 106.69176
#
# Poissons Ratio (x) = 0.07941 0.35782
# Poissons Ratio (y) = 0.06209 0.15382
# Poissons Ratio (z) = 0.12653 0.06956
#
# Static dielectric constant tensor:
#      x y z
#    x 2.998740 0.000000 -0.216190 
#    y 0.000000 3.391270 0.000000 
#    z -0.216190 0.000000 3.585350 
# 
# 
# High freq. dielectric constant tensor:
#      x y z
#    x 1.647260 0.000000 -0.011930 
#    y 0.000000 1.647980 0.000000 
#    z -0.011930 0.000000 1.683520 
# 
# From -- ./inp_files/167244.got.cif
#   From: 2010.06.25/outbox.cif.g09.slc.cpg/sg12_84_cif.got.tgz:167244.got - 2010.06.28 00:19:55.
