data_PCOD8078656
_publ_section_title
;
Structure prediction by ZEFSAII (Michael W. Deem and Ramdas Pophale) SiO2 
 PCOD8078656
Probable space group: C 2/M
;
_chemical_formula_sum "Si O2"
_cell_formula_units_Z 56
_cell_length_a 24.503901
_cell_length_b 8.788673
_cell_length_c 23.128816
_cell_angle_alpha 90.000000
_cell_angle_beta 135.992086
_cell_angle_gamma 90.000000
_cell_volume 3460.551520
_symmetry_space_group_name_H-M "C 2/M"
_symmetry_group_IT_number 12
_symmetry_cell_setting 'monoclinic'
loop_
_space_group_symop_operation_xyz
x,y,z
-x,y,-z
-x,-y,-z
x,-y,z
1/2+x,1/2+y,z
1/2-x,1/2+y,-z
1/2-x,1/2-y,-z
1/2+x,1/2-y,z
loop_
_atom_site_type_symbol
_atom_site_label
_atom_site_fract_x
_atom_site_fract_y
_atom_site_fract_z
Si Si1 0.574464 0.676614 0.724012
Si Si2 0.475503 0.318834 0.543933
Si Si3 0.171396 0.321458 0.510341
Si Si4 0.628121 0.173732 0.933481
Si Si5 0.509926 0.678431 0.223881
Si Si6 0.165787 0.321570 0.372971
Si Si7 0.782562 0.823675 0.100459
O O1 0.556293 0.500000 0.706045
O O2 0.538628 0.749656 0.638450
O O3 0.529864 0.737975 0.747059
O O4 0.668716 0.707841 0.802760
O O5 0.500000 0.255188 0.500000
O O6 0.474109 0.500000 0.542535
O O7 0.389350 0.260188 0.493691
O O8 0.167060 0.500000 0.517078
O O9 0.151750 0.276880 0.429216
O O10 0.257597 0.262705 0.592831
O O11 0.549481 0.276769 0.873948
O O12 0.682207 0.209104 0.919568
O O13 0.600013 0.000000 0.910419
O O14 0.687859 0.203076 0.033829
O O15 0.525304 0.500000 0.234556
O O16 0.592313 0.764340 0.279182
O O17 0.177754 0.500000 0.374235
O O18 0.798641 0.000000 0.093776
#
# Coordination Sequence:
#
# PCOD8078656 Si02
#       7
#     8   8   8   8   8   8   8
#     4   8  14  25  40  57  79 110 147 180 213 253
#     4  10  19  31  47  65  87 117 153 189 220 253
#     4  10  20  32  46  64  87 114 145 182 225 263
#     4   9  15  22  34  54  80 107 140 176 210 252
#     4  10  17  26  41  59  85 116 143 173 213 259
#     4  10  19  30  46  66  87 112 146 182 217 262
#     4   8  14  24  36  51  75 110 143 175 213 253
#
# _framework density 16.182390999999999
#
# number of rings (size 3 to 8) (size 9 to 14) (size 15 to 20)
#    0.000    2.714    1.429    2.571    0.000    2.000 
#    0.000    0.000    0.000    0.000    0.000    0.000 
#    0.000    1.143    0.000   13.429    0.000    2.857 
#
# Total GULP energy -346924.311365 kJ/mol
# GULP energy per Si atom -12390.153977 kJ/mol
# Density = 1.614556 g / cm^3
# Si number density = 16.182391 Si / 1000 Ang^3
#
#
#
# Elastic Constant Matrix: (Units=GPa)
#
#
# Indices 1 2 3 4 5 6 
#
# 1 62.3862 10.3604 42.4612 0.0000 9.2084 0.0000
# 2 10.3604 26.5250 15.2447 0.0000 1.1871 -0.0001
# 3 42.4612 15.2447 118.5880 0.0000 28.3966 0.0000
# 4 0.0000 0.0000 0.0000 21.6262 0.0000 8.7872
# 5 9.2084 1.1871 28.3966 0.0000 21.1950 0.0000
# 6 0.0000 -0.0001 0.0000 8.7872 0.0000 17.4478
#
#
#
# Elastic Compliance Matrix: (Units=1/GPa)
#
#
# Indices 1 2 3 4 5 6 
#
# 1 0.021650 -0.004248 -0.007377 0.000000 0.000716 0.000000
# 2 -0.004248 0.042252 -0.005574 0.000000 0.006947 0.000000
# 3 -0.007377 -0.005574 0.016120 0.000000 -0.018080 0.000000
# 4 0.000000 0.000000 0.000000 0.058137 0.000000 -0.029280
# 5 0.000716 0.006947 -0.018080 0.000000 0.070704 0.000000
# 6 0.000000 0.000000 0.000000 -0.029280 0.000000 0.072060
#
#
# Mechanical properties :
#
#
# Convention : Reuss Voigt Hill
#
# Bulk Modulus (GPa) = 21.91874 38.18133 30.05004
# Shear Modulus (GPa) = 15.12719 21.34931 18.23825
#
# Velocity S-wave (km/s) = 3.06076 3.63615 3.36079
# Velocity P-wave (km/s) = 5.10541 6.42451 5.80257
#
# Compressibility (1/GPa) = 0.04562306
#
# Stress axis : x y z
#
# Youngs Moduli (GPa) = 46.18903 23.66733 62.03524
#
# Poissons Ratio (x) = 0.10055 0.45765
# Poissons Ratio (y) = 0.19623 0.34578
# Poissons Ratio (z) = 0.34075 0.13192
#
# Static dielectric constant tensor:
#      x y z
#    x 2.621980 0.000000 0.253110 
#    y 0.000000 2.948070 0.000000 
#    z 0.253110 0.000000 3.555550 
# 
# 
# High freq. dielectric constant tensor:
#      x y z
#    x 1.553780 0.000000 0.040790 
#    y 0.000000 1.619950 0.000000 
#    z 0.040790 0.000000 1.633340 
# 
# From -- ./inp_files/287352.got.cif
#   From: 2010.06.25/outbox.cif.g09.slc.cpg/sg12_144_cif.got.tgz:287352.got - 2010.06.28 00:19:55.
