data_PCOD8078154
_publ_section_title
;
Structure prediction by ZEFSAII (Michael W. Deem and Ramdas Pophale) SiO2 
 PCOD8078154
Probable space group: C 2/M
;
_chemical_formula_sum "Si O2"
_cell_formula_units_Z 48
_cell_length_a 28.666936
_cell_length_b 8.849121
_cell_length_c 22.017092
_cell_angle_alpha 90.000000
_cell_angle_beta 148.171183
_cell_angle_gamma 90.000000
_cell_volume 2945.558451
_symmetry_space_group_name_H-M "C 2/M"
_symmetry_group_IT_number 12
_symmetry_cell_setting 'monoclinic'
loop_
_space_group_symop_operation_xyz
x,y,z
-x,y,-z
-x,-y,-z
x,-y,z
1/2+x,1/2+y,z
1/2-x,1/2+y,-z
1/2-x,1/2-y,-z
1/2+x,1/2-y,z
loop_
_atom_site_type_symbol
_atom_site_label
_atom_site_fract_x
_atom_site_fract_y
_atom_site_fract_z
Si Si1 0.862976 0.320947 0.461206
Si Si2 0.579672 0.820636 0.167988
Si Si3 0.758913 0.679775 0.575475
Si Si4 0.301533 0.323415 0.269397
Si Si5 0.891567 0.677746 0.934995
Si Si6 0.455271 0.167111 0.385060
O O1 0.848795 0.500000 0.450909
O O2 0.822327 0.235806 0.473475
O O3 0.818144 0.265844 0.349662
O O4 0.968397 0.280905 0.577518
O O5 0.648454 0.758375 0.293935
O O6 0.607936 0.757561 0.133130
O O7 0.586107 0.000000 0.176642
O O8 0.478051 0.764139 0.068270
O O9 0.755961 0.500000 0.568128
O O10 0.750000 0.750000 0.500000
O O11 0.310901 0.500000 0.293772
O O12 0.201895 0.281270 0.136587
O O13 0.370358 0.277669 0.292328
O O14 0.902222 0.500000 0.940908
O O15 0.500000 0.165421 0.500000
O O16 0.420804 0.000000 0.330155
#
# Coordination Sequence:
#
# PCOD8078154 Si02
#       6
#     8   8   8   8   8   8
#     4  10  19  31  44  60  89 124 154 185 221 265
#     4   8  14  26  43  63  89 118 149 181 218 265
#     4  11  21  33  49  68  89 119 155 189 225 262
#     4  10  16  24  43  70  93 116 148 184 224 266
#     4   8  13  23  42  67  91 116 146 181 218 265
#     4   8  16  28  40  58  88 123 150 176 220 273
#
# _framework density 16.295719999999999
#
# number of rings (size 3 to 8) (size 9 to 14) (size 15 to 20)
#    0.000    2.833    1.667    3.500    0.000    3.667 
#    0.000    0.000    0.000    5.000    0.000    1.167 
#    0.000    0.000    0.000    0.000    0.000    0.000 
#
# Total GULP energy -297313.905652 kJ/mol
# GULP energy per Si atom -12388.079402 kJ/mol
# Density = 1.625863 g / cm^3
# Si number density = 16.295720 Si / 1000 Ang^3
#
#
#
# Elastic Constant Matrix: (Units=GPa)
#
#
# Indices 1 2 3 4 5 6 
#
# 1 102.3970 35.1190 70.1935 0.0000 24.4723 0.0000
# 2 35.1190 52.8991 31.9167 0.0000 9.9805 0.0000
# 3 70.1935 31.9167 111.3055 0.0000 23.0914 0.0000
# 4 0.0000 0.0000 0.0000 6.6450 0.0000 0.4317
# 5 24.4723 9.9805 23.0914 0.0000 30.8686 0.0000
# 6 0.0000 0.0000 0.0000 0.4317 0.0000 25.8978
#
#
#
# Elastic Compliance Matrix: (Units=1/GPa)
#
#
# Indices 1 2 3 4 5 6 
#
# 1 0.019991 -0.006330 -0.009385 0.000000 -0.006782 0.000000
# 2 -0.006330 0.025091 -0.003032 0.000000 -0.000827 0.000000
# 3 -0.009385 -0.003032 0.016602 0.000000 -0.003998 0.000000
# 4 0.000000 0.000000 0.000000 0.150652 0.000000 -0.002511
# 5 -0.006782 -0.000827 -0.003998 0.000000 0.041030 0.000000
# 6 0.000000 0.000000 0.000000 -0.002511 0.000000 0.038655
#
#
# Mechanical properties :
#
#
# Convention : Reuss Voigt Hill
#
# Bulk Modulus (GPa) = 41.33783 60.11781 50.72782
# Shear Modulus (GPa) = 14.81136 21.30712 18.05924
#
# Velocity S-wave (km/s) = 3.01809 3.61990 3.33260
# Velocity P-wave (km/s) = 6.12923 7.37858 6.78273
#
# Compressibility (1/GPa) = 0.02419092
#
# Stress axis : x y z
#
# Youngs Moduli (GPa) = 50.02189 39.85448 60.23453
#
# Poissons Ratio (x) = 0.25227 0.56532
# Poissons Ratio (y) = 0.31663 0.18261
# Poissons Ratio (z) = 0.46947 0.12082
#
# Static dielectric constant tensor:
#      x y z
#    x 3.315670 0.000000 0.572680 
#    y 0.000000 2.932660 0.000000 
#    z 0.572680 0.000000 3.278200 
# 
# 
# High freq. dielectric constant tensor:
#      x y z
#    x 1.609140 0.000000 0.043410 
#    y 0.000000 1.608910 0.000000 
#    z 0.043410 0.000000 1.604540 
# 
# From -- ./inp_files/326658.got.cif
#   From: 2010.06.25/outbox.cif.g09.slc.cpg/sg12_164_cif.got.tgz:326658.got - 2010.06.28 00:19:55.
