data_PCOD8078087
_publ_section_title
;
Structure prediction by ZEFSAII (Michael W. Deem and Ramdas Pophale) SiO2 
 PCOD8078087
Probable space group: C 2/M
;
_chemical_formula_sum "Si O2"
_cell_formula_units_Z 48
_cell_length_a 21.437616
_cell_length_b 14.899594
_cell_length_c 13.981428
_cell_angle_alpha 90.000000
_cell_angle_beta 138.941379
_cell_angle_gamma 90.000000
_cell_volume 2933.296713
_symmetry_space_group_name_H-M "C 2/M"
_symmetry_group_IT_number 12
_symmetry_cell_setting 'monoclinic'
loop_
_space_group_symop_operation_xyz
x,y,z
-x,y,-z
-x,-y,-z
x,-y,z
1/2+x,1/2+y,z
1/2-x,1/2+y,-z
1/2-x,1/2-y,-z
1/2+x,1/2-y,z
loop_
_atom_site_type_symbol
_atom_site_label
_atom_site_fract_x
_atom_site_fract_y
_atom_site_fract_z
Si Si1 0.959352 0.252038 0.557778
Si Si2 0.774652 0.295140 0.252206
Si Si3 0.552887 0.398214 0.779517
Si Si4 0.606927 0.898570 0.767884
Si Si5 0.752500 0.836243 0.069222
Si Si6 0.910800 0.104927 0.959722
O O1 0.847687 0.275164 0.423063
O O2 0.000000 0.229263 0.500000
O O3 0.973539 0.166318 0.642292
O O4 0.013399 0.337586 0.664591
O O5 0.822379 0.364003 0.232631
O O6 0.748149 0.199200 0.172956
O O7 0.680235 0.340908 0.184673
O O8 0.515022 0.500000 0.730107
O O9 0.650545 0.390888 0.833592
O O10 0.570547 0.368930 0.908960
O O11 0.575773 0.000000 0.709087
O O12 0.661880 0.896258 0.933873
O O13 0.750000 0.750000 0.000000
O O14 0.889874 0.000000 0.923771
O O15 0.000000 0.135345 0.000000
#
# Coordination Sequence:
#
# PCOD8078087 Si02
#       6
#     8   8   8   8   8   8
#     4  10  19  31  43  71 104 129 151 190 237 304
#     4  10  18  30  46  66 101 126 153 196 238 281
#     4  11  19  32  50  69 100 133 158 198 241 279
#     4  10  17  26  44  68  96 128 154 184 240 290
#     4  10  15  28  46  67  94 126 153 193 238 281
#     4  10  20  33  51  72  91 124 172 208 236 274
#
# _framework density 16.363841000000001
#
# number of rings (size 3 to 8) (size 9 to 14) (size 15 to 20)
#    0.000    1.833    8.333    1.000    0.000    4.000 
#    0.000    0.833    0.000    0.000    0.000    0.000 
#    0.000   18.667    0.000    0.000    0.000    0.000 
#
# Total GULP energy -297545.175572 kJ/mol
# GULP energy per Si atom -12397.715649 kJ/mol
# Density = 1.632660 g / cm^3
# Si number density = 16.363841 Si / 1000 Ang^3
#
#
#
# Elastic Constant Matrix: (Units=GPa)
#
#
# Indices 1 2 3 4 5 6 
#
# 1 52.9520 21.0642 38.1439 0.0000 16.7341 0.0000
# 2 21.0642 87.0715 52.9695 0.0000 4.0428 0.0000
# 3 38.1439 52.9695 138.3139 0.0000 19.2045 0.0000
# 4 0.0000 0.0000 0.0000 20.0945 0.0000 1.2237
# 5 16.7341 4.0428 19.2045 0.0000 15.7825 0.0000
# 6 0.0000 0.0000 0.0000 1.2237 0.0000 16.0051
#
#
#
# Elastic Compliance Matrix: (Units=1/GPa)
#
#
# Indices 1 2 3 4 5 6 
#
# 1 0.032119 -0.004551 -0.003066 0.000000 -0.029159 0.000000
# 2 -0.004551 0.015808 -0.005904 0.000000 0.007960 0.000000
# 3 -0.003066 -0.005904 0.011642 0.000000 -0.009403 0.000000
# 4 0.000000 0.000000 0.000000 0.049998 0.000000 -0.003823
# 5 -0.029159 0.007960 -0.009403 0.000000 0.103680 0.000000
# 6 0.000000 0.000000 0.000000 -0.003823 0.000000 0.062772
#
#
# Mechanical properties :
#
#
# Convention : Reuss Voigt Hill
#
# Bulk Modulus (GPa) = 30.74423 55.85473 43.29948
# Shear Modulus (GPa) = 15.92844 21.45377 18.69110
#
# Velocity S-wave (km/s) = 3.12331 3.62477 3.38334
# Velocity P-wave (km/s) = 5.64229 7.19206 6.46379
#
# Compressibility (1/GPa) = 0.03252643
#
# Stress axis : x y z
#
# Youngs Moduli (GPa) = 31.13426 63.25955 85.89470
#
# Poissons Ratio (x) = 0.28789 0.26337
# Poissons Ratio (y) = 0.14169 0.50713
# Poissons Ratio (z) = 0.09546 0.37349
#
# Static dielectric constant tensor:
#      x y z
#    x 2.679670 0.000000 -0.016910 
#    y 0.000000 3.159670 0.000000 
#    z -0.016910 0.000000 3.479150 
# 
# 
# High freq. dielectric constant tensor:
#      x y z
#    x 1.564070 0.000000 0.004400 
#    y 0.000000 1.627980 0.000000 
#    z 0.004400 0.000000 1.642500 
# 
# From -- ./inp_files/166551.got.cif
#   From: 2010.06.25/outbox.cif.g09.slc.cpg/sg12_84_cif.got.tgz:166551.got - 2010.06.28 00:19:55.
