data_PCOD8078546
_publ_section_title
;
Structure prediction by ZEFSAII (Michael W. Deem and Ramdas Pophale) SiO2 
 PCOD8078546
Probable space group: C 2/M
;
_chemical_formula_sum "Si O2"
_cell_formula_units_Z 64
_cell_length_a 33.104221
_cell_length_b 9.199303
_cell_length_c 14.124501
_cell_angle_alpha 90.000000
_cell_angle_beta 81.299378
_cell_angle_gamma 90.000000
_cell_volume 4251.916002
_symmetry_space_group_name_H-M "C 2/M"
_symmetry_group_IT_number 12
_symmetry_cell_setting 'monoclinic'
loop_
_space_group_symop_operation_xyz
x,y,z
-x,y,-z
-x,-y,-z
x,-y,z
1/2+x,1/2+y,z
1/2-x,1/2+y,-z
1/2-x,1/2-y,-z
1/2+x,1/2-y,z
loop_
_atom_site_type_symbol
_atom_site_label
_atom_site_fract_x
_atom_site_fract_y
_atom_site_fract_z
Si Si1 0.532487 0.330942 0.069007
Si Si2 0.491799 0.332135 0.714636
Si Si3 0.085933 0.168594 0.386435
Si Si4 0.615608 0.830734 0.042089
Si Si5 0.225232 0.665313 0.122239
Si Si6 0.854319 0.664378 0.757207
Si Si7 0.539410 0.164341 0.552088
Si Si8 0.309755 0.333797 0.036743
O O1 0.544414 0.500000 0.068307
O O2 0.512956 0.282192 0.175546
O O3 0.572744 0.240752 0.031693
O O4 0.500000 0.295411 0.000000
O O5 0.504134 0.500000 0.701078
O O6 0.449202 0.300856 0.677618
O O7 0.528417 0.239360 0.655700
O O8 0.127998 0.228983 0.328400
O O9 0.076104 0.249614 0.488263
O O10 0.091081 0.000000 0.407500
O O11 0.627717 0.795634 0.145844
O O12 0.650220 0.764204 0.959499
O O13 0.612534 0.000000 0.022557
O O14 0.218202 0.500000 0.084108
O O15 0.195189 0.683208 0.223593
O O16 0.212162 0.787345 0.052430
O O17 0.273738 0.684853 0.129583
O O18 0.866959 0.500000 0.726300
O O19 0.500000 0.170901 0.500000
O O20 0.553559 0.000000 0.566216
O O21 0.324365 0.500000 0.024302
#
# Coordination Sequence:
#
# PCOD8078546 Si02
#       8
#     8   8   8   8   8   8   8   8
#     4  10  20  33  47  62  80 104 137 175 213 249
#     4   9  17  29  42  57  77 100 130 168 205 241
#     4  10  17  25  39  58  79 104 134 166 199 236
#     4  10  19  29  41  56  77 104 136 172 209 244
#     4   8  15  25  35  53  77 103 132 165 200 235
#     4   9  16  25  37  54  79 107 134 164 198 236
#     4   9  17  27  40  57  76 100 130 162 199 241
#     4   9  15  24  39  54  73 100 134 168 200 239
#
# _framework density 15.052038
#
# number of rings (size 3 to 8) (size 9 to 14) (size 15 to 20)
#    0.000    2.750    1.250    2.250    0.000    5.250 
#    0.000    0.000    0.000    0.000    0.000    0.000 
#    0.000    0.000    0.000    1.125    0.000   12.500 
#
# Total GULP energy -396609.276145 kJ/mol
# GULP energy per Si atom -12394.039880 kJ/mol
# Density = 1.501778 g / cm^3
# Si number density = 15.052038 Si / 1000 Ang^3
#
#
#
# Elastic Constant Matrix: (Units=GPa)
#
#
# Indices 1 2 3 4 5 6 
#
# 1 95.9961 59.0707 48.6581 0.0000 -31.1628 0.0000
# 2 59.0707 89.2658 37.3643 0.0000 -21.2923 0.0000
# 3 48.6581 37.3643 58.9756 0.0000 -20.3351 0.0000
# 4 0.0000 0.0000 0.0000 18.8257 0.0000 -9.4493
# 5 -31.1628 -21.2923 -20.3351 0.0000 24.5094 0.0000
# 6 0.0000 0.0000 0.0000 -9.4493 0.0000 22.7802
#
#
#
# Elastic Compliance Matrix: (Units=1/GPa)
#
#
# Indices 1 2 3 4 5 6 
#
# 1 0.027298 -0.009460 -0.010359 0.000000 0.017896 0.000000
# 2 -0.009460 0.019524 -0.004011 0.000000 0.001606 0.000000
# 3 -0.010359 -0.004011 0.031237 0.000000 0.009262 0.000000
# 4 0.000000 0.000000 0.000000 0.067087 0.000000 0.027828
# 5 0.017896 0.001606 0.009262 0.000000 0.072635 0.000000
# 6 0.000000 0.000000 0.000000 0.027828 0.000000 0.055441
#
#
# Mechanical properties :
#
#
# Convention : Reuss Voigt Hill
#
# Bulk Modulus (GPa) = 32.89366 59.38039 46.13703
# Shear Modulus (GPa) = 15.10505 19.83268 17.46887
#
# Velocity S-wave (km/s) = 3.17128 3.63382 3.41040
# Velocity P-wave (km/s) = 5.94223 7.55923 6.79897
#
# Compressibility (1/GPa) = 0.03040099
#
# Stress axis : x y z
#
# Youngs Moduli (GPa) = 36.63253 51.21792 32.01282
#
# Poissons Ratio (x) = 0.48451 0.33161
# Poissons Ratio (y) = 0.34653 0.12841
# Poissons Ratio (z) = 0.37946 0.20545
#
# Static dielectric constant tensor:
#      x y z
#    x 2.922450 0.000000 -0.421020 
#    y 0.000000 2.993110 0.000000 
#    z -0.421020 0.000000 2.635910 
# 
# 
# High freq. dielectric constant tensor:
#      x y z
#    x 1.557300 0.000000 -0.049000 
#    y 0.000000 1.590560 0.000000 
#    z -0.049000 0.000000 1.526530 
# 
# From -- ./inp_files/248406.got.cif
#   From: 2010.06.25/outbox.cif.g09.slc.cpg/sg12_125_cif.got.tgz:248406.got - 2010.06.28 00:19:55.
