data_PCOD8078306
_publ_section_title
;
Structure prediction by ZEFSAII (Michael W. Deem and Ramdas Pophale) SiO2 
 PCOD8078306
Probable space group: C 2/M
;
_chemical_formula_sum "Si O2"
_cell_formula_units_Z 56
_cell_length_a 25.879001
_cell_length_b 12.970618
_cell_length_c 19.557377
_cell_angle_alpha 90.000000
_cell_angle_beta 33.387622
_cell_angle_gamma 90.000000
_cell_volume 3612.589275
_symmetry_space_group_name_H-M "C 2/M"
_symmetry_group_IT_number 12
_symmetry_cell_setting 'monoclinic'
loop_
_space_group_symop_operation_xyz
x,y,z
-x,y,-z
-x,-y,-z
x,-y,z
1/2+x,1/2+y,z
1/2-x,1/2+y,-z
1/2-x,1/2-y,-z
1/2+x,1/2-y,z
loop_
_atom_site_type_symbol
_atom_site_label
_atom_site_fract_x
_atom_site_fract_y
_atom_site_fract_z
Si Si1 0.597906 0.618449 0.353489
Si Si2 0.051077 0.618213 0.513697
Si Si3 0.066249 0.116632 0.133223
Si Si4 0.080572 0.878921 0.964293
Si Si5 0.941644 0.240020 0.733283
Si Si6 0.781245 0.696085 0.741114
Si Si7 0.215448 0.384903 0.112715
O O1 0.500000 0.638697 0.500000
O O2 0.629266 0.500000 0.324601
O O3 0.585827 0.647407 0.287387
O O4 0.681728 0.686213 0.294273
O O5 0.029182 0.500000 0.554347
O O6 0.161979 0.637830 0.381645
O O7 0.000000 0.654921 0.500000
O O8 0.017122 0.684828 0.615389
O O9 0.043620 0.151206 0.080720
O O10 0.015258 0.190409 0.244884
O O11 0.031590 0.000000 0.182808
O O12 0.176693 0.127982 0.026198
O O13 0.108420 0.000000 0.932273
O O14 0.170916 0.809777 0.845167
O O15 0.000000 0.851477 0.000000
O O16 0.849233 0.305162 0.857231
O O17 0.801852 0.634735 0.787955
O O18 0.181220 0.500000 0.133776
#
# Coordination Sequence:
#
# PCOD8078306 Si02
#       7
#     8   8   8   8   8   8   8
#     4  10  18  28  40  63  97 131 163 182 201 258
#     4  11  18  26  42  68  97 127 154 181 221 274
#     4   9  18  29  42  62  89 120 153 186 226 267
#     4   9  18  33  54  74  88 109 150 203 247 278
#     4  11  17  26  39  64  95 129 149 181 219 275
#     4  10  16  29  46  69  92 121 153 193 233 266
#     4   9  16  26  41  62  91 124 152 183 219 267
#
# _framework density 15.501347000000001
#
# number of rings (size 3 to 8) (size 9 to 14) (size 15 to 20)
#    0.000    2.143    4.286    3.429    0.000    0.000 
#    0.000    0.000    0.000    4.714    0.000    0.000 
#    0.000    0.000    0.000    0.000    0.000    0.000 
#
# Total GULP energy -347120.937832 kJ/mol
# GULP energy per Si atom -12397.176351 kJ/mol
# Density = 1.546606 g / cm^3
# Si number density = 15.501347 Si / 1000 Ang^3
#
#
#
# Elastic Constant Matrix: (Units=GPa)
#
#
# Indices 1 2 3 4 5 6 
#
# 1 82.0533 41.3005 41.1084 0.0000 1.8969 0.0000
# 2 41.3005 95.5287 41.8849 0.0000 4.1435 0.0000
# 3 41.1084 41.8849 65.8182 0.0000 7.6349 0.0000
# 4 0.0000 0.0000 0.0000 24.8767 0.0000 3.6709
# 5 1.8969 4.1435 7.6349 0.0000 18.8560 0.0000
# 6 0.0000 0.0000 0.0000 3.6709 0.0000 16.9109
#
#
#
# Elastic Compliance Matrix: (Units=1/GPa)
#
#
# Indices 1 2 3 4 5 6 
#
# 1 0.018997 -0.004146 -0.009560 0.000000 0.002871 0.000000
# 2 -0.004146 0.015430 -0.007224 0.000000 -0.000049 0.000000
# 3 -0.009560 -0.007224 0.026721 0.000000 -0.008270 0.000000
# 4 0.000000 0.000000 0.000000 0.041528 0.000000 -0.009015
# 5 0.002871 -0.000049 -0.008270 0.000000 0.056104 0.000000
# 6 0.000000 0.000000 0.000000 -0.009015 0.000000 0.061090
#
#
# Mechanical properties :
#
#
# Convention : Reuss Voigt Hill
#
# Bulk Modulus (GPa) = 51.84548 54.66531 53.25539
# Shear Modulus (GPa) = 18.64563 20.06917 19.35740
#
# Velocity S-wave (km/s) = 3.47196 3.60206 3.53761
# Velocity P-wave (km/s) = 7.04209 7.25543 7.14956
#
# Compressibility (1/GPa) = 0.01928809
#
# Stress axis : x y z
#
# Youngs Moduli (GPa) = 52.63971 64.80826 37.42438
#
# Poissons Ratio (x) = 0.26871 0.35776
# Poissons Ratio (y) = 0.21825 0.27036
# Poissons Ratio (z) = 0.50321 0.46818
#
# Static dielectric constant tensor:
#      x y z
#    x 2.625690 0.000000 0.084240 
#    y 0.000000 3.001060 0.000000 
#    z 0.084240 0.000000 3.048270 
# 
# 
# High freq. dielectric constant tensor:
#      x y z
#    x 1.540520 0.000000 0.018750 
#    y 0.000000 1.597190 0.000000 
#    z 0.018750 0.000000 1.595210 
# 
# From -- ./inp_files/327583.got.cif
#   From: 2010.06.25/outbox.cif.g09.slc.cpg/sg12_164_cif.got.tgz:327583.got - 2010.06.28 00:19:55.
