data_PCOD8078818
_publ_section_title
;
Structure prediction by ZEFSAII (Michael W. Deem and Ramdas Pophale) SiO2 
 PCOD8078818
Probable space group: C 2/M
;
_chemical_formula_sum "Si O2"
_cell_formula_units_Z 64
_cell_length_a 26.528330
_cell_length_b 8.949318
_cell_length_c 19.727394
_cell_angle_alpha 90.000000
_cell_angle_beta 120.871204
_cell_angle_gamma 90.000000
_cell_volume 4019.946447
_symmetry_space_group_name_H-M "C 2/M"
_symmetry_group_IT_number 12
_symmetry_cell_setting 'monoclinic'
loop_
_space_group_symop_operation_xyz
x,y,z
-x,y,-z
-x,-y,-z
x,-y,z
1/2+x,1/2+y,z
1/2-x,1/2+y,-z
1/2-x,1/2-y,-z
1/2+x,1/2-y,z
loop_
_atom_site_type_symbol
_atom_site_label
_atom_site_fract_x
_atom_site_fract_y
_atom_site_fract_z
Si Si1 0.714782 0.175713 0.035831
Si Si2 0.263246 0.823802 0.674648
Si Si3 0.800994 0.171364 0.496563
Si Si4 0.418862 0.171759 0.044019
Si Si5 0.778951 0.169478 0.821610
Si Si6 0.129892 0.824860 0.332613
Si Si7 0.917707 0.168693 0.908335
Si Si8 0.535418 0.171594 0.188713
O O1 0.738731 0.241880 0.122898
O O2 0.725845 0.000000 0.043414
O O3 0.750000 0.250000 0.000000
O O4 0.646255 0.216400 0.977015
O O5 0.205087 0.788273 0.587516
O O6 0.248877 0.748185 0.736371
O O7 0.321851 0.757321 0.680544
O O8 0.273018 0.000000 0.691668
O O9 0.750000 0.250000 0.500000
O O10 0.860890 0.208372 0.579777
O O11 0.786475 0.000000 0.495089
O O12 0.464690 0.196052 0.137707
O O13 0.419652 0.000000 0.019814
O O14 0.440780 0.274400 0.996943
O O15 0.848017 0.174735 0.859188
O O16 0.755845 0.000000 0.811522
O O17 0.064824 0.767197 0.269219
O O18 0.134112 0.000000 0.318898
O O19 0.939318 0.279921 0.865964
O O20 0.940443 0.000000 0.911755
O O21 0.551478 0.000000 0.212355
#
# Coordination Sequence:
#
# PCOD8078818 Si02
#       8
#     8   8   8   8   8   8   8   8
#     4  10  20  36  54  69  88 113 143 182 228 272
#     4  10  17  27  43  62  85 117 153 188 222 261
#     4   8  16  27  39  56  81 114 152 187 221 257
#     4   9  20  34  46  62  85 114 146 180 220 265
#     4  10  19  30  45  67  92 118 149 184 222 263
#     4  10  18  28  40  58  86 120 154 189 223 256
#     4  10  19  29  42  61  87 116 148 185 220 253
#     4  11  20  29  42  60  86 119 153 184 215 258
#
# _framework density 15.92061
#
# number of rings (size 3 to 8) (size 9 to 14) (size 15 to 20)
#    0.000    2.250    1.250    2.625    0.000    5.000 
#    0.000    0.000    0.000    0.000    0.000    0.000 
#    0.000    1.000    0.000   11.500    0.000    3.500 
#
# Total GULP energy -396555.549563 kJ/mol
# GULP energy per Si atom -12392.360924 kJ/mol
# Density = 1.588437 g / cm^3
# Si number density = 15.920610 Si / 1000 Ang^3
#
#
#
# Elastic Constant Matrix: (Units=GPa)
#
#
# Indices 1 2 3 4 5 6 
#
# 1 41.3396 27.8204 39.1044 0.0000 -9.4743 0.0000
# 2 27.8204 85.2052 56.1038 0.0000 -6.6437 0.0000
# 3 39.1044 56.1038 151.9533 0.0000 -8.1777 0.0000
# 4 0.0000 0.0000 0.0000 25.9369 0.0000 -2.5445
# 5 -9.4743 -6.6437 -8.1777 0.0000 15.8735 0.0000
# 6 0.0000 0.0000 0.0000 -2.5445 0.0000 18.6550
#
#
#
# Elastic Compliance Matrix: (Units=1/GPa)
#
#
# Indices 1 2 3 4 5 6 
#
# 1 0.039026 -0.007145 -0.006492 0.000000 0.016958 0.000000
# 2 -0.007145 0.017022 -0.004414 0.000000 0.000585 0.000000
# 3 -0.006492 -0.004414 0.009847 0.000000 -0.000650 0.000000
# 4 0.000000 0.000000 0.000000 0.039078 0.000000 0.005330
# 5 0.016958 0.000585 -0.000650 0.000000 0.073030 0.000000
# 6 0.000000 0.000000 0.000000 0.005330 0.000000 0.054332
#
#
# Mechanical properties :
#
#
# Convention : Reuss Voigt Hill
#
# Bulk Modulus (GPa) = 33.56779 58.28393 45.92586
# Shear Modulus (GPa) = 17.96178 22.45772 20.20975
#
# Velocity S-wave (km/s) = 3.36253 3.75988 3.56674
# Velocity P-wave (km/s) = 6.01712 7.45235 6.77286
#
# Compressibility (1/GPa) = 0.02979047
#
# Stress axis : x y z
#
# Youngs Moduli (GPa) = 25.62376 58.74854 101.55731
#
# Poissons Ratio (x) = 0.41977 0.65935
# Poissons Ratio (y) = 0.18309 0.44832
# Poissons Ratio (z) = 0.16636 0.25934
#
# Static dielectric constant tensor:
#      x y z
#    x 2.563140 0.000000 0.035060 
#    y 0.000000 3.203680 0.000000 
#    z 0.035060 0.000000 3.748430 
# 
# 
# High freq. dielectric constant tensor:
#      x y z
#    x 1.541730 0.000000 0.000800 
#    y 0.000000 1.630920 0.000000 
#    z 0.000800 0.000000 1.626880 
# 
# From -- ./inp_files/326985.got.cif
#   From: 2010.06.25/outbox.cif.g09.slc.cpg/sg12_164_cif.got.tgz:326985.got - 2010.06.28 00:19:55.
