data_PCOD8078462
_publ_section_title
;
Structure prediction by ZEFSAII (Michael W. Deem and Ramdas Pophale) SiO2 
 PCOD8078462
Probable space group: C 2/M
;
_chemical_formula_sum "Si O2"
_cell_formula_units_Z 32
_cell_length_a 23.666181
_cell_length_b 7.638768
_cell_length_c 12.397003
_cell_angle_alpha 90.000000
_cell_angle_beta 121.056234
_cell_angle_gamma 90.000000
_cell_volume 1919.894674
_symmetry_space_group_name_H-M "C 2/M"
_symmetry_group_IT_number 12
_symmetry_cell_setting 'monoclinic'
loop_
_space_group_symop_operation_xyz
x,y,z
-x,y,-z
-x,-y,-z
x,-y,z
1/2+x,1/2+y,z
1/2-x,1/2+y,-z
1/2-x,1/2-y,-z
1/2+x,1/2-y,z
loop_
_atom_site_type_symbol
_atom_site_label
_atom_site_fract_x
_atom_site_fract_y
_atom_site_fract_z
Si Si1 0.871900 0.693204 0.098551
Si Si2 0.181706 0.000000 0.088297
Si Si3 0.978335 0.692865 0.763788
Si Si4 0.564045 0.500000 0.137443
Si Si5 0.557523 0.000000 0.469810
Si Si6 0.669059 0.000000 0.745270
O O1 0.866453 0.500000 0.037822
O O2 0.849865 0.672615 0.202376
O O3 0.946739 0.763763 0.166435
O O4 0.824831 0.828553 0.992203
O O5 0.254287 0.000000 0.210663
O O6 0.130007 0.000000 0.133633
O O7 0.976317 0.500000 0.818040
O O8 0.934057 0.827354 0.786874
O O9 0.950617 0.672755 0.614063
O O10 0.500000 0.500000 0.000000
O O11 0.500000 0.000000 0.500000
O O12 0.628969 0.000000 0.594539
#
# Coordination Sequence:
#
# PCOD8078462 Si02
#       6
#     8   4   8   4   4   4
#     4   9  18  33  56  83 108 131 180 227 271 306
#     4  12  22  34  53  82 120 139 169 219 276 327
#     4   9  19  35  58  81 107 131 186 227 255 306
#     4  12  22  34  54  83 112 142 176 215 271 320
#     4  10  16  38  62  75 104 142 182 221 265 308
#     4  10  20  36  57  80 108 147 173 219 276 315
#
# _framework density 16.667580999999998
#
# number of rings (size 3 to 8) (size 9 to 14) (size 15 to 20)
#    1.500    0.500    5.000    0.750    0.000    1.500 
#    0.000    3.125    0.000    0.000    0.000    0.000 
#    0.000    0.000    0.000    0.000    0.000    0.000 
#
# Total GULP energy -198257.855403 kJ/mol
# GULP energy per Si atom -12391.115963 kJ/mol
# Density = 1.662965 g / cm^3
# Si number density = 16.667581 Si / 1000 Ang^3
#
#
#
# Elastic Constant Matrix: (Units=GPa)
#
#
# Indices 1 2 3 4 5 6 
#
# 1 94.6494 30.0581 40.8175 0.0000 4.4626 0.0000
# 2 30.0581 79.6640 42.2497 0.0000 -2.7676 0.0000
# 3 40.8175 42.2497 108.4194 0.0000 9.5983 0.0000
# 4 0.0000 0.0000 0.0000 55.5960 0.0000 -2.8890
# 5 4.4626 -2.7676 9.5983 0.0000 32.5649 0.0000
# 6 0.0000 0.0000 0.0000 -2.8890 0.0000 20.2127
#
#
#
# Elastic Compliance Matrix: (Units=1/GPa)
#
#
# Indices 1 2 3 4 5 6 
#
# 1 0.013168 -0.003049 -0.003683 0.000000 -0.000978 0.000000
# 2 -0.003049 0.016871 -0.005740 0.000000 0.003543 0.000000
# 3 -0.003683 -0.005740 0.013189 0.000000 -0.003871 0.000000
# 4 0.000000 0.000000 0.000000 0.018121 0.000000 0.002590
# 5 -0.000978 0.003543 -0.003871 0.000000 0.032284 0.000000
# 6 0.000000 0.000000 0.000000 0.002590 0.000000 0.049844
#
#
# Mechanical properties :
#
#
# Convention : Reuss Voigt Hill
#
# Bulk Modulus (GPa) = 54.69230 56.55370 55.62300
# Shear Modulus (GPa) = 28.65072 32.98188 30.81630
#
# Velocity S-wave (km/s) = 4.15052 4.45320 4.30452
# Velocity P-wave (km/s) = 7.47355 7.77466 7.62559
#
# Compressibility (1/GPa) = 0.01828411
#
# Stress axis : x y z
#
# Youngs Moduli (GPa) = 75.94226 59.27486 75.81915
#
# Poissons Ratio (x) = 0.18075 0.27921
# Poissons Ratio (y) = 0.23157 0.43520
# Poissons Ratio (z) = 0.27966 0.34023
#
# Static dielectric constant tensor:
#      x y z
#    x 2.972940 0.000000 -0.019290 
#    y 0.000000 2.894400 0.000000 
#    z -0.019290 0.000000 2.984320 
# 
# 
# High freq. dielectric constant tensor:
#      x y z
#    x 1.635550 0.000000 -0.000160 
#    y 0.000000 1.630700 0.000000 
#    z -0.000160 0.000000 1.621910 
# 
# From -- ./inp_files/171257.got.cif
#   From: 2010.06.25/outbox.cif.g09.slc.cpg/sg12_86_cif.got.tgz:171257.got - 2010.06.28 00:19:55.
