data_PCOD8078387
_publ_section_title
;
Structure prediction by ZEFSAII (Michael W. Deem and Ramdas Pophale) SiO2 
 PCOD8078387
Probable space group: C 2/M
;
_chemical_formula_sum "Si O2"
_cell_formula_units_Z 64
_cell_length_a 12.219260
_cell_length_b 14.171178
_cell_length_c 29.307032
_cell_angle_alpha 90.000000
_cell_angle_beta 137.001423
_cell_angle_gamma 90.000000
_cell_volume 3460.943112
_symmetry_space_group_name_H-M "C 2/M"
_symmetry_group_IT_number 12
_symmetry_cell_setting 'monoclinic'
loop_
_space_group_symop_operation_xyz
x,y,z
-x,y,-z
-x,-y,-z
x,-y,z
1/2+x,1/2+y,z
1/2-x,1/2+y,-z
1/2-x,1/2-y,-z
1/2+x,1/2-y,z
loop_
_atom_site_type_symbol
_atom_site_label
_atom_site_fract_x
_atom_site_fract_y
_atom_site_fract_z
Si Si1 0.633082 0.100066 0.956181
Si Si2 0.875154 0.104228 0.209795
Si Si3 0.206966 0.892428 0.353420
Si Si4 0.487925 0.772807 0.549534
Si Si5 0.380652 0.250882 0.862705
Si Si6 0.824220 0.890139 0.550077
Si Si7 0.323777 0.663358 0.934589
Si Si8 0.154529 0.153360 0.900885
O O1 0.511936 0.185640 0.929314
O O2 0.695186 0.099603 0.922282
O O3 0.541097 0.000000 0.934636
O O4 0.789336 0.096141 0.037269
O O5 0.759101 0.181573 0.198246
O O6 0.846584 0.097135 0.146674
O O7 0.057270 0.133756 0.275725
O O8 0.840839 0.000000 0.219918
O O9 0.348239 0.820683 0.383030
O O10 0.151847 0.880179 0.388715
O O11 0.265667 0.000000 0.363211
O O12 0.500000 0.749124 0.500000
O O13 0.348667 0.849019 0.517201
O O14 0.460238 0.673802 0.567244
O O15 0.305091 0.330047 0.873767
O O16 0.473495 0.305061 0.850844
O O17 0.838034 0.000000 0.538941
O O18 0.293066 0.768700 0.942644
O O19 0.500000 0.626670 0.000000
#
# Coordination Sequence:
#
# PCOD8078387 Si02
#       8
#     8   8   8   8   8   8   8   8
#     4  11  20  29  46  70  88 108 145 194 238 282
#     4  10  21  33  48  70  91 118 158 198 228 267
#     4   9  18  33  49  69  99 130 162 197 232 274
#     4   9  17  30  51  77 105 131 159 195 233 276
#     4  10  19  34  49  62  88 121 149 184 237 289
#     4   9  17  30  51  78 103 132 163 193 231 273
#     4  10  16  31  47  62  85 114 142 177 227 294
#     4  10  19  31  47  66  88 116 150 186 237 285
#
# _framework density 18.492069999999998
#
# number of rings (size 3 to 8) (size 9 to 14) (size 15 to 20)
#    0.000    2.250    2.500    1.875    0.000    3.000 
#    0.000    1.875    0.000    0.000    0.000    1.750 
#    0.000    0.000    0.000    0.000    0.000    0.000 
#
# Total GULP energy -396438.511299 kJ/mol
# GULP energy per Si atom -12388.703478 kJ/mol
# Density = 1.844998 g / cm^3
# Si number density = 18.492070 Si / 1000 Ang^3
#
#
#
# Elastic Constant Matrix: (Units=GPa)
#
#
# Indices 1 2 3 4 5 6 
#
# 1 73.3289 27.2676 12.5542 0.0000 12.4090 0.0000
# 2 27.2676 87.2129 23.2517 0.0000 7.2542 0.0000
# 3 12.5542 23.2517 69.4291 0.0000 14.4556 0.0000
# 4 0.0000 0.0000 0.0000 19.1019 0.0000 4.3922
# 5 12.4090 7.2542 14.4556 0.0000 19.3890 0.0000
# 6 0.0000 0.0000 0.0000 4.3922 0.0000 22.6415
#
#
#
# Elastic Compliance Matrix: (Units=1/GPa)
#
#
# Indices 1 2 3 4 5 6 
#
# 1 0.016866 -0.004612 0.000453 0.000000 -0.009407 0.000000
# 2 -0.004612 0.013908 -0.003971 0.000000 0.000709 0.000000
# 3 0.000453 -0.003971 0.018233 0.000000 -0.012398 0.000000
# 4 0.000000 0.000000 0.000000 0.054795 0.000000 -0.010629
# 5 -0.009407 0.000709 -0.012398 0.000000 0.066574 0.000000
# 6 0.000000 0.000000 0.000000 -0.010629 0.000000 0.046229
#
#
# Mechanical properties :
#
#
# Convention : Reuss Voigt Hill
#
# Bulk Modulus (GPa) = 30.53714 39.56864 35.05289
# Shear Modulus (GPa) = 20.51031 23.35298 21.93165
#
# Velocity S-wave (km/s) = 3.33399 3.55754 3.44758
# Velocity P-wave (km/s) = 5.60091 6.19022 5.90292
#
# Compressibility (1/GPa) = 0.03274701
#
# Stress axis : x y z
#
# Youngs Moduli (GPa) = 59.28961 71.90135 54.84702
#
# Poissons Ratio (x) = 0.33159 -0.02486
# Poissons Ratio (y) = 0.27343 0.21782
# Poissons Ratio (z) = -0.02688 0.28555
#
# Static dielectric constant tensor:
#      x y z
#    x 3.508980 0.000000 0.033600 
#    y 0.000000 3.359920 0.000000 
#    z 0.033600 0.000000 3.153500 
# 
# 
# High freq. dielectric constant tensor:
#      x y z
#    x 1.714900 0.000000 0.009840 
#    y 0.000000 1.711130 0.000000 
#    z 0.009840 0.000000 1.682850 
# 
# From -- ./inp_files/374114.got.cif
#   From: 2010.06.25/outbox.cif.g09.slc.cpg/sg12_188_cif.got.tgz:374114.got - 2010.06.28 00:19:55.
