data_PCOD8078465
_publ_section_title
;
Structure prediction by ZEFSAII (Michael W. Deem and Ramdas Pophale) SiO2 
 PCOD8078465
Probable space group: C 2/M
;
_chemical_formula_sum "Si O2"
_cell_formula_units_Z 64
_cell_length_a 24.268749
_cell_length_b 8.994621
_cell_length_c 20.411831
_cell_angle_alpha 90.000000
_cell_angle_beta 65.604946
_cell_angle_gamma 90.000000
_cell_volume 4057.857309
_symmetry_space_group_name_H-M "C 2/M"
_symmetry_group_IT_number 12
_symmetry_cell_setting 'monoclinic'
loop_
_space_group_symop_operation_xyz
x,y,z
-x,y,-z
-x,-y,-z
x,-y,z
1/2+x,1/2+y,z
1/2-x,1/2+y,-z
1/2-x,1/2-y,-z
1/2+x,1/2-y,z
loop_
_atom_site_type_symbol
_atom_site_label
_atom_site_fract_x
_atom_site_fract_y
_atom_site_fract_z
Si Si1 0.395843 0.172132 0.308857
Si Si2 0.423086 0.172881 0.157178
Si Si3 0.570162 0.834360 0.985733
Si Si4 0.547854 0.325984 0.120322
Si Si5 0.591037 0.672563 0.495059
Si Si6 0.037765 0.828075 0.383899
Si Si7 0.814728 0.676472 0.464378
Si Si8 0.032822 0.324380 0.256366
O O1 0.377549 0.200585 0.241072
O O2 0.347109 0.242076 0.382542
O O3 0.463392 0.234209 0.287768
O O4 0.397447 0.000000 0.325168
O O5 0.393327 0.205340 0.100137
O O6 0.479251 0.281530 0.139444
O O7 0.445838 0.000000 0.148404
O O8 0.586562 0.000000 0.000962
O O9 0.500000 0.822746 0.000000
O O10 0.587351 0.726427 0.037591
O O11 0.555405 0.500000 0.125041
O O12 0.569234 0.247249 0.177234
O O13 0.605857 0.500000 0.500660
O O14 0.529939 0.719512 0.562533
O O15 0.583165 0.702367 0.421623
O O16 0.645783 0.774712 0.492596
O O17 0.060749 0.731451 0.311125
O O18 0.038802 0.000000 0.363536
O O19 0.807290 0.500000 0.467439
O O20 0.750000 0.750000 0.500000
O O21 0.038421 0.500000 0.248143
#
# Coordination Sequence:
#
# PCOD8078465 Si02
#       8
#     8   8   8   8   8   8   8   8
#     4   8  15  27  41  57  76 101 138 178 211 250
#     4   8  14  25  38  50  68  97 133 171 208 244
#     4   8  13  22  34  47  67  98 132 165 201 242
#     4  10  17  22  31  50  76 104 134 167 203 243
#     4   9  18  32  47  65  88 111 136 172 218 265
#     4   9  17  29  46  66  88 110 135 173 219 259
#     4  11  21  33  47  64  85 113 148 184 221 259
#     4  10  17  27  41  58  80 108 142 176 208 246
#
# _framework density 15.771871000000001
#
# number of rings (size 3 to 8) (size 9 to 14) (size 15 to 20)
#    0.000    2.875    1.250    4.125    0.000    2.750 
#    0.000    1.875    0.000    0.000    0.000    0.000 
#    0.000    0.000    0.000    1.125    0.000   12.375 
#
# Total GULP energy -396457.792642 kJ/mol
# GULP energy per Si atom -12389.306020 kJ/mol
# Density = 1.573597 g / cm^3
# Si number density = 15.771871 Si / 1000 Ang^3
#
#
#
# Elastic Constant Matrix: (Units=GPa)
#
#
# Indices 1 2 3 4 5 6 
#
# 1 50.6010 27.7688 38.6948 0.0000 10.1202 0.0001
# 2 27.7688 78.1811 44.4111 0.0000 17.7735 0.0007
# 3 38.6948 44.4111 118.5028 -0.0001 35.7352 0.0000
# 4 0.0000 0.0000 -0.0001 23.7927 -0.0001 7.7444
# 5 10.1202 17.7735 35.7352 -0.0001 23.3080 0.0000
# 6 0.0001 0.0007 0.0000 7.7444 0.0000 18.6516
#
#
#
# Elastic Compliance Matrix: (Units=1/GPa)
#
#
# Indices 1 2 3 4 5 6 
#
# 1 0.028904 -0.006652 -0.008724 0.000000 0.005897 0.000000
# 2 -0.006652 0.018196 -0.002481 0.000000 -0.007183 -0.000001
# 3 -0.008724 -0.002481 0.019537 0.000000 -0.024274 0.000000
# 4 0.000000 0.000000 0.000000 0.048598 0.000000 -0.020178
# 5 0.005897 -0.007183 -0.024274 0.000000 0.083036 0.000000
# 6 0.000000 -0.000001 0.000000 -0.020178 0.000000 0.061993
#
#
# Mechanical properties :
#
#
# Convention : Reuss Voigt Hill
#
# Bulk Modulus (GPa) = 32.33697 52.11492 42.22594
# Shear Modulus (GPa) = 16.32468 22.24448 19.28458
#
# Velocity S-wave (km/s) = 3.22071 3.75959 3.50053
# Velocity P-wave (km/s) = 5.86328 7.20838 6.57034
#
# Compressibility (1/GPa) = 0.03092436
#
# Stress axis : x y z
#
# Youngs Moduli (GPa) = 34.59693 54.95784 51.18528
#
# Poissons Ratio (x) = 0.36555 0.44652
# Poissons Ratio (y) = 0.23012 0.12700
# Poissons Ratio (z) = 0.30181 0.13636
#
# Static dielectric constant tensor:
#      x y z
#    x 2.507330 0.000000 0.375040 
#    y 0.000000 2.865290 0.000000 
#    z 0.375040 0.000000 3.538900 
# 
# 
# High freq. dielectric constant tensor:
#      x y z
#    x 1.531870 0.000000 0.042690 
#    y 0.000000 1.599730 0.000000 
#    z 0.042690 0.000000 1.617300 
# 
# From -- ./inp_files/323625.got.cif
#   From: 2010.06.25/outbox.cif.g09.slc.cpg/sg12_162_cif.got.tgz:323625.got - 2010.06.28 00:19:55.
