data_PCOD8078898
_publ_section_title
;
Structure prediction by ZEFSAII (Michael W. Deem and Ramdas Pophale) SiO2 
 PCOD8078898
Probable space group: C 2/M
;
_chemical_formula_sum "Si O2"
_cell_formula_units_Z 40
_cell_length_a 16.931861
_cell_length_b 9.912918
_cell_length_c 17.000667
_cell_angle_alpha 90.000000
_cell_angle_beta 132.736878
_cell_angle_gamma 90.000000
_cell_volume 2095.805286
_symmetry_space_group_name_H-M "C 2/M"
_symmetry_group_IT_number 12
_symmetry_cell_setting 'monoclinic'
loop_
_space_group_symop_operation_xyz
x,y,z
-x,y,-z
-x,-y,-z
x,-y,z
1/2+x,1/2+y,z
1/2-x,1/2+y,-z
1/2-x,1/2-y,-z
1/2+x,1/2-y,z
loop_
_atom_site_type_symbol
_atom_site_label
_atom_site_fract_x
_atom_site_fract_y
_atom_site_fract_z
Si Si1 0.623666 0.500000 0.563355
Si Si2 0.106855 0.288615 0.020784
Si Si3 0.012406 0.500000 0.850674
Si Si4 0.512337 0.000000 0.350625
Si Si5 0.376324 0.500000 0.936602
Si Si6 0.200427 0.500000 0.191096
Si Si7 0.799548 0.500000 0.308937
Si Si8 0.106832 0.711382 0.520742
O O1 0.500000 0.500000 0.500000
O O2 0.686734 0.500000 0.688386
O O3 0.650837 0.363123 0.532661
O O4 0.195436 0.368499 0.131819
O O5 0.150873 0.136875 0.032726
O O6 0.000000 0.281217 0.000000
O O7 0.079843 0.367219 0.922021
O O8 0.895784 0.500000 0.811120
O O9 0.000072 0.500000 0.750048
O O10 0.579789 0.132780 0.421963
O O11 0.395741 0.000000 0.311126
O O12 0.313299 0.500000 0.811580
O O13 0.500000 0.500000 0.000000
O O14 0.804559 0.631502 0.368227
O O15 0.000000 0.718773 0.500000
#
# Coordination Sequence:
#
# PCOD8078898 Si02
#       8
#     4   8   4   4   4   4   4   8
#     4  10  17  27  46  72  92 110 141 188 226 253
#     4   8  16  29  47  69  88 110 147 185 219 259
#     4   9  17  32  48  62  87 123 151 175 212 263
#     4   9  17  32  48  62  87 123 151 175 212 263
#     4  10  17  27  46  72  92 110 141 188 226 253
#     4   9  16  29  48  68  89 115 146 179 216 264
#     4   9  16  29  48  68  89 115 146 179 216 264
#     4   8  16  29  47  69  88 110 147 185 219 259
#
# _framework density 19.085742
#
# number of rings (size 3 to 8) (size 9 to 14) (size 15 to 20)
#    0.000    3.200    0.000    3.600    0.000    0.000 
#    0.000    3.000    0.000    0.000    0.000    0.000 
#    0.000    0.000    0.000    0.000    0.000    0.000 
#
# Total GULP energy -247817.754549 kJ/mol
# GULP energy per Si atom -12390.887727 kJ/mol
# Density = 1.904230 g / cm^3
# Si number density = 19.085742 Si / 1000 Ang^3
#
#
#
# Elastic Constant Matrix: (Units=GPa)
#
#
# Indices 1 2 3 4 5 6 
#
# 1 24.0132 18.7102 32.1338 0.0000 -10.6677 0.0000
# 2 18.7102 219.0536 86.1678 0.0000 -16.5228 0.0000
# 3 32.1338 86.1678 177.0976 0.0000 -8.2197 0.0000
# 4 0.0000 0.0000 0.0000 19.9544 0.0000 2.7567
# 5 -10.6677 -16.5228 -8.2197 0.0000 36.2498 0.0000
# 6 0.0000 0.0000 0.0000 2.7567 0.0000 5.3449
#
#
#
# Elastic Compliance Matrix: (Units=1/GPa)
#
#
# Indices 1 2 3 4 5 6 
#
# 1 0.063151 0.000047 -0.010731 0.000000 0.016173 0.000000
# 2 0.000047 0.005789 -0.002731 0.000000 0.002033 0.000000
# 3 -0.010731 -0.002731 0.008811 0.000000 -0.002405 0.000000
# 4 0.000000 0.000000 0.000000 0.053959 0.000000 -0.027830
# 5 0.016173 0.002033 -0.002405 0.000000 0.032727 0.000000
# 6 0.000000 0.000000 0.000000 -0.027830 0.000000 0.201447
#
#
# Mechanical properties :
#
#
# Convention : Reuss Voigt Hill
#
# Bulk Modulus (GPa) = 19.63803 77.13199 48.38501
# Shear Modulus (GPa) = 12.20446 31.18667 21.69556
#
# Velocity S-wave (km/s) = 2.53149 4.04670 3.37522
# Velocity P-wave (km/s) = 4.34238 7.89528 6.37149
#
# Compressibility (1/GPa) = 0.05092160
#
# Stress axis : x y z
#
# Youngs Moduli (GPa) = 15.83500 172.75457 113.49886
#
# Poissons Ratio (x) = -0.00812 1.21794
# Poissons Ratio (y) = -0.00074 0.30992
# Poissons Ratio (z) = 0.16992 0.47173
#
# Static dielectric constant tensor:
#      x y z
#    x 2.757390 0.000000 0.114910 
#    y 0.000000 4.833700 0.000000 
#    z 0.114910 0.000000 3.536510 
# 
# 
# High freq. dielectric constant tensor:
#      x y z
#    x 1.666680 0.000000 0.014600 
#    y 0.000000 1.765910 0.000000 
#    z 0.014600 0.000000 1.751340 
# 
# From -- ./inp_files/231550.got.cif
#   From: 2010.06.25/outbox.cif.g09.slc.cpg/sg12_116_cif.got.tgz:231550.got - 2010.06.28 00:19:55.
