data_PCOD8078081
_publ_section_title
;
Structure prediction by ZEFSAII (Michael W. Deem and Ramdas Pophale) SiO2 
 PCOD8078081
Probable space group: C 2/M
;
_chemical_formula_sum "Si O2"
_cell_formula_units_Z 48
_cell_length_a 18.279256
_cell_length_b 21.739934
_cell_length_c 14.655744
_cell_angle_alpha 90.000000
_cell_angle_beta 146.582919
_cell_angle_gamma 90.000000
_cell_volume 3207.473124
_symmetry_space_group_name_H-M "C 2/M"
_symmetry_group_IT_number 12
_symmetry_cell_setting 'monoclinic'
loop_
_space_group_symop_operation_xyz
x,y,z
-x,y,-z
-x,-y,-z
x,-y,z
1/2+x,1/2+y,z
1/2-x,1/2+y,-z
1/2-x,1/2-y,-z
1/2+x,1/2-y,z
loop_
_atom_site_type_symbol
_atom_site_label
_atom_site_fract_x
_atom_site_fract_y
_atom_site_fract_z
Si Si1 0.941385 0.139745 0.763018
Si Si2 0.229999 0.570598 0.639357
Si Si3 0.501903 0.835137 0.394387
Si Si4 0.718316 0.359424 0.127268
Si Si5 0.363639 0.743363 0.828033
Si Si6 0.342536 0.276049 0.518326
O O1 0.851506 0.080864 0.694984
O O2 0.903035 0.192303 0.795032
O O3 0.911928 0.161919 0.628354
O O4 0.097091 0.123585 0.933916
O O5 0.186655 0.500000 0.592060
O O6 0.274123 0.588150 0.787590
O O7 0.105169 0.611214 0.476843
O O8 0.500000 0.822749 0.500000
O O9 0.354419 0.856438 0.210108
O O10 0.542872 0.772953 0.385636
O O11 0.700137 0.291842 0.152736
O O12 0.252572 0.788898 0.669111
O O13 0.500000 0.778580 0.000000
O O14 0.250000 0.250000 0.500000
#
# Coordination Sequence:
#
# PCOD8078081 Si02
#       6
#     8   8   8   8   8   8
#     4   9  17  27  41  61  83 116 148 178 214 254
#     4  10  18  29  44  60  86 126 159 174 200 253
#     4  10  17  28  42  63  88 114 146 183 216 255
#     4   9  17  27  39  61  89 112 145 178 211 251
#     4   8  13  24  40  58  81 111 137 167 208 258
#     4  10  15  27  44  59  84 119 141 178 224 260
#
# _framework density 14.965051000000001
#
# number of rings (size 3 to 8) (size 9 to 14) (size 15 to 20)
#    0.000    2.667    6.667    1.500    0.000    5.000 
#    0.000    0.000    0.000    0.000    0.000    0.000 
#    0.000    1.333    0.000    0.000    0.000    0.167 
#
# Total GULP energy -297376.082017 kJ/mol
# GULP energy per Si atom -12390.670084 kJ/mol
# Density = 1.493099 g / cm^3
# Si number density = 14.965051 Si / 1000 Ang^3
#
#
#
# Elastic Constant Matrix: (Units=GPa)
#
#
# Indices 1 2 3 4 5 6 
#
# 1 40.6930 20.8993 26.6517 0.0000 15.2435 0.0000
# 2 20.8993 45.3053 27.4513 0.0000 2.3370 0.0000
# 3 26.6517 27.4513 118.6478 0.0000 20.4080 0.0000
# 4 0.0000 0.0000 0.0000 10.9150 0.0000 0.1199
# 5 15.2435 2.3370 20.4080 0.0000 23.8444 0.0000
# 6 0.0000 0.0000 0.0000 0.1199 0.0000 12.8729
#
#
#
# Elastic Compliance Matrix: (Units=1/GPa)
#
#
# Indices 1 2 3 4 5 6 
#
# 1 0.044418 -0.018357 -0.001355 0.000000 -0.025437 0.000000
# 2 -0.018357 0.033443 -0.005944 0.000000 0.013545 0.000000
# 3 -0.001355 -0.005944 0.011561 0.000000 -0.008446 0.000000
# 4 0.000000 0.000000 0.000000 0.091627 0.000000 -0.000854
# 5 -0.025437 0.013545 -0.008446 0.000000 0.064101 0.000000
# 6 0.000000 0.000000 0.000000 -0.000854 0.000000 0.077690
#
#
# Mechanical properties :
#
#
# Convention : Reuss Voigt Hill
#
# Bulk Modulus (GPa) = 26.23969 39.40564 32.82266
# Shear Modulus (GPa) = 12.92469 18.16937 15.54703
#
# Velocity S-wave (km/s) = 2.94199 3.48820 3.22668
# Velocity P-wave (km/s) = 5.39560 6.52781 5.98852
#
# Compressibility (1/GPa) = 0.03811021
#
# Stress axis : x y z
#
# Youngs Moduli (GPa) = 22.51323 29.90125 86.50027
#
# Poissons Ratio (x) = 0.54890 0.11722
# Poissons Ratio (y) = 0.41327 0.51416
# Poissons Ratio (z) = 0.03051 0.17773
#
# Static dielectric constant tensor:
#      x y z
#    x 2.908910 0.000000 0.072020 
#    y 0.000000 2.544390 0.000000 
#    z 0.072020 0.000000 3.587440 
# 
# 
# High freq. dielectric constant tensor:
#      x y z
#    x 1.542760 0.000000 0.024920 
#    y 0.000000 1.515370 0.000000 
#    z 0.024920 0.000000 1.587600 
# 
# From -- ./inp_files/284855.got.cif
#   From: 2010.06.25/outbox.cif.g09.slc.cpg/sg12_143_cif.got.tgz:284855.got - 2010.06.28 00:19:55.
