data_PCOD8078322
_publ_section_title
;
Structure prediction by ZEFSAII (Michael W. Deem and Ramdas Pophale) SiO2 
 PCOD8078322
Probable space group: C 2/M
;
_chemical_formula_sum "Si O2"
_cell_formula_units_Z 56
_cell_length_a 30.752584
_cell_length_b 21.323568
_cell_length_c 8.757322
_cell_angle_alpha 90.000000
_cell_angle_beta 29.943853
_cell_angle_gamma 90.000000
_cell_volume 2866.453089
_symmetry_space_group_name_H-M "C 2/M"
_symmetry_group_IT_number 12
_symmetry_cell_setting 'monoclinic'
loop_
_space_group_symop_operation_xyz
x,y,z
-x,y,-z
-x,-y,-z
x,-y,z
1/2+x,1/2+y,z
1/2-x,1/2+y,-z
1/2-x,1/2-y,-z
1/2+x,1/2-y,z
loop_
_atom_site_type_symbol
_atom_site_label
_atom_site_fract_x
_atom_site_fract_y
_atom_site_fract_z
Si Si1 0.090941 0.568317 0.640445
Si Si2 0.461613 0.806911 0.283766
Si Si3 0.883552 0.745405 0.993796
Si Si4 0.256996 0.572170 0.333833
Si Si5 0.912584 0.863022 0.701250
Si Si6 0.587027 0.675553 0.634335
Si Si7 0.721581 0.333004 0.465857
O O1 0.114203 0.500000 0.492535
O O2 0.087007 0.626501 0.530008
O O3 0.163021 0.585510 0.548021
O O4 0.000000 0.559391 0.000000
O O5 0.396090 0.748208 0.465190
O O6 0.500000 0.820132 0.000000
O O7 0.532175 0.791197 0.199490
O O8 0.814939 0.695503 0.136401
O O9 0.840400 0.781701 0.266232
O O10 0.907711 0.792458 0.784190
O O11 0.273594 0.500000 0.317682
O O12 0.264283 0.606854 0.472668
O O13 0.328778 0.596764 0.997447
O O14 0.923855 0.864108 0.485492
O O15 0.000000 0.895563 0.500000
O O16 0.670907 0.647990 0.466251
O O17 0.500000 0.669262 0.000000
#
# Coordination Sequence:
#
# PCOD8078322 Si02
#       7
#     8   8   8   8   8   8   8
#     4   9  18  32  55  87 118 153 197 238 282 347
#     4  10  16  29  52  81 115 149 185 234 290 346
#     4  10  19  32  53  84 116 150 183 239 297 355
#     4  10  22  40  61  86 118 159 204 244 287 355
#     4  11  22  38  57  85 124 155 195 247 302 352
#     4  11  20  35  55  84 116 152 192 248 303 359
#     4  10  19  33  55  82 113 146 193 238 296 347
#
# _framework density 19.536339999999999
#
# number of rings (size 3 to 8) (size 9 to 14) (size 15 to 20)
#    0.000    1.857    4.286    2.571    4.000    0.857 
#    0.000    0.714    0.000    1.714    0.000    2.000 
#    0.000    0.429    0.000    0.000    0.000    0.000 
#
# Total GULP energy -347048.090453 kJ/mol
# GULP energy per Si atom -12394.574659 kJ/mol
# Density = 1.949187 g / cm^3
# Si number density = 19.536340 Si / 1000 Ang^3
#
#
#
# Elastic Constant Matrix: (Units=GPa)
#
#
# Indices 1 2 3 4 5 6 
#
# 1 144.8332 47.9066 47.4264 0.0000 -31.9510 0.0000
# 2 47.9066 99.4857 24.5216 0.0000 -28.8798 0.0000
# 3 47.4264 24.5216 65.7956 0.0000 -21.7126 0.0000
# 4 0.0000 0.0000 0.0000 179.5050 0.0000 23.8288
# 5 -31.9510 -28.8798 -21.7126 0.0000 29.3056 0.0000
# 6 0.0000 0.0000 0.0000 23.8288 0.0000 30.6958
#
#
#
# Elastic Compliance Matrix: (Units=1/GPa)
#
#
# Indices 1 2 3 4 5 6 
#
# 1 0.010471 -0.002207 -0.004865 0.000000 0.005637 0.000000
# 2 -0.002207 0.014584 0.000138 0.000000 0.012068 0.000000
# 3 -0.004865 0.000138 0.022433 0.000000 0.011453 0.000000
# 4 0.000000 0.000000 0.000000 0.006211 0.000000 -0.004821
# 5 0.005637 0.012068 0.011453 0.000000 0.060647 0.000000
# 6 0.000000 0.000000 0.000000 -0.004821 0.000000 0.036321
#
#
# Mechanical properties :
#
#
# Convention : Reuss Voigt Hill
#
# Bulk Modulus (GPa) = 29.74400 61.09154 45.41777
# Shear Modulus (GPa) = 28.45097 60.58528 44.51813
#
# Velocity S-wave (km/s) = 3.82030 5.57485 4.77879
# Velocity P-wave (km/s) = 5.89217 8.53095 7.33126
#
# Compressibility (1/GPa) = 0.03362022
#
# Stress axis : x y z
#
# Youngs Moduli (GPa) = 95.50122 68.57050 44.57643
#
# Poissons Ratio (x) = 0.15132 0.21686
# Poissons Ratio (y) = 0.21074 -0.00614
# Poissons Ratio (z) = 0.46461 -0.00945
#
# Static dielectric constant tensor:
#      x y z
#    x 3.535770 0.000000 -0.278660 
#    y 0.000000 3.838260 0.000000 
#    z -0.278660 0.000000 3.473730 
# 
# 
# High freq. dielectric constant tensor:
#      x y z
#    x 1.760190 0.000000 -0.026350 
#    y 0.000000 1.746960 0.000000 
#    z -0.026350 0.000000 1.744410 
# 
# From -- ./inp_files/113337.got.cif
#   From: 2010.06.25/outbox.cif.g09.slc.cpg/sg12_57_cif.got.tgz:113337.got - 2010.06.28 00:19:55.
