data_PCOD8078051
_publ_section_title
;
Structure prediction by ZEFSAII (Michael W. Deem and Ramdas Pophale) SiO2 
 PCOD8078051
Probable space group: C 2/M
;
_chemical_formula_sum "Si O2"
_cell_formula_units_Z 40
_cell_length_a 25.616303
_cell_length_b 10.505048
_cell_length_c 12.162031
_cell_angle_alpha 90.000000
_cell_angle_beta 36.737227
_cell_angle_gamma 90.000000
_cell_volume 1957.617207
_symmetry_space_group_name_H-M "C 2/M"
_symmetry_group_IT_number 12
_symmetry_cell_setting 'monoclinic'
loop_
_space_group_symop_operation_xyz
x,y,z
-x,y,-z
-x,-y,-z
x,-y,z
1/2+x,1/2+y,z
1/2-x,1/2+y,-z
1/2-x,1/2-y,-z
1/2+x,1/2-y,z
loop_
_atom_site_type_symbol
_atom_site_label
_atom_site_fract_x
_atom_site_fract_y
_atom_site_fract_z
Si Si1 0.260040 0.500000 0.701406
Si Si2 0.872552 0.000000 0.304845
Si Si3 0.854360 0.735121 0.833226
Si Si4 0.864885 0.273444 0.062582
Si Si5 0.785471 0.000000 0.237790
Si Si6 0.166385 0.500000 0.254553
Si Si7 0.000000 0.206220 0.000000
Si Si8 0.664773 0.500000 0.183404
O O1 0.342023 0.500000 0.481433
O O2 0.292893 0.500000 0.769162
O O3 0.206318 0.370959 0.769465
O O4 0.787192 0.000000 0.367865
O O5 0.930133 0.123689 0.184969
O O6 0.885132 0.690910 0.901950
O O7 0.886283 0.627007 0.692710
O O8 0.894484 0.873075 0.732748
O O9 0.750000 0.750000 0.000000
O O10 0.835245 0.126416 0.112965
O O11 0.950774 0.292240 0.992596
O O12 0.687939 0.000000 0.349462
O O13 0.259437 0.500000 0.035884
#
# Coordination Sequence:
#
# PCOD8078051 Si02
#       8
#     4   4   8   8   4   4   4   4
#     4  12  21  33  57  91 117 126 186 256 279 288
#     4   9  22  39  55  79 110 155 186 227 271 327
#     4  10  15  26  47  80 106 136 173 229 272 318
#     4  11  19  33  56  82 111 146 184 228 272 331
#     4  10  17  30  51  73 107 144 186 210 264 332
#     4  10  14  25  44  76 106 127 168 227 275 303
#     4   9  22  39  54  72 112 168 186 198 274 364
#     4  10  16  26  47  84 109 129 163 241 281 299
#
# _framework density 20.433004
#
# number of rings (size 3 to 8) (size 9 to 14) (size 15 to 20)
#    0.000    1.800    8.000    0.600    0.000    3.600 
#    0.000    0.000    0.000    3.600    0.000    0.000 
#    0.000    8.000    0.000    0.000    0.000    0.000 
#
# Total GULP energy -247833.348958 kJ/mol
# GULP energy per Si atom -12391.667448 kJ/mol
# Density = 2.038650 g / cm^3
# Si number density = 20.433004 Si / 1000 Ang^3
#
#
#
# Elastic Constant Matrix: (Units=GPa)
#
#
# Indices 1 2 3 4 5 6 
#
# 1 132.2689 14.3409 28.5219 0.0000 9.6274 0.0000
# 2 14.3409 131.0079 20.8781 0.0000 -1.7441 0.0000
# 3 28.5219 20.8781 41.9246 0.0000 0.3516 0.0000
# 4 0.0000 0.0000 0.0000 4.0411 0.0000 7.2356
# 5 9.6274 -1.7441 0.3516 0.0000 6.3943 0.0000
# 6 0.0000 0.0000 0.0000 7.2356 0.0000 26.6367
#
#
#
# Elastic Compliance Matrix: (Units=1/GPa)
#
#
# Indices 1 2 3 4 5 6 
#
# 1 0.010101 -0.000249 -0.006623 0.000000 -0.014912 0.000000
# 2 -0.000249 0.008337 -0.004007 0.000000 0.002869 0.000000
# 3 -0.006623 -0.004007 0.030293 0.000000 0.007213 0.000000
# 4 0.000000 0.000000 0.000000 0.481774 0.000000 -0.130869
# 5 -0.014912 0.002869 0.007213 0.000000 0.179225 0.000000
# 6 0.000000 0.000000 0.000000 -0.130869 0.000000 0.073091
#
#
# Mechanical properties :
#
#
# Convention : Reuss Voigt Hill
#
# Bulk Modulus (GPa) = 37.07239 48.07591 42.57415
# Shear Modulus (GPa) = 6.14576 23.51178 14.82877
#
# Velocity S-wave (km/s) = 1.73617 3.39584 2.69685
# Velocity P-wave (km/s) = 4.71188 6.24142 5.52979
#
# Compressibility (1/GPa) = 0.02697425
#
# Stress axis : x y z
#
# Youngs Moduli (GPa) = 99.00211 119.94626 33.01124
#
# Poissons Ratio (x) = 0.02984 0.21863
# Poissons Ratio (y) = 0.02463 0.13226
# Poissons Ratio (z) = 0.65567 0.48058
#
# Static dielectric constant tensor:
#      x y z
#    x 4.055090 0.000000 0.269180 
#    y 0.000000 4.832940 0.000000 
#    z 0.269180 0.000000 2.925880 
# 
# 
# High freq. dielectric constant tensor:
#      x y z
#    x 1.809850 0.000000 0.031250 
#    y 0.000000 1.817580 0.000000 
#    z 0.031250 0.000000 1.717470 
# 
# From -- ./inp_files/181865.got.cif
#   From: 2010.06.25/outbox.cif.g09.slc.cpg/sg12_91_cif.got.tgz:181865.got - 2010.06.28 00:19:55.
