data_PCOD8078435
_publ_section_title
;
Structure prediction by ZEFSAII (Michael W. Deem and Ramdas Pophale) SiO2 
 PCOD8078435
Probable space group: C 2/M
;
_chemical_formula_sum "Si O2"
_cell_formula_units_Z 64
_cell_length_a 11.769927
_cell_length_b 19.192595
_cell_length_c 26.596799
_cell_angle_alpha 90.000000
_cell_angle_beta 34.141640
_cell_angle_gamma 90.000000
_cell_volume 3371.987479
_symmetry_space_group_name_H-M "C 2/M"
_symmetry_group_IT_number 12
_symmetry_cell_setting 'monoclinic'
loop_
_space_group_symop_operation_xyz
x,y,z
-x,y,-z
-x,-y,-z
x,-y,z
1/2+x,1/2+y,z
1/2-x,1/2+y,-z
1/2-x,1/2-y,-z
1/2+x,1/2-y,z
loop_
_atom_site_type_symbol
_atom_site_label
_atom_site_fract_x
_atom_site_fract_y
_atom_site_fract_z
Si Si1 0.532619 0.418258 0.843596
Si Si2 0.680064 0.918056 0.900457
Si Si3 0.835691 0.823484 0.526421
Si Si4 0.845735 0.082623 0.015805
Si Si5 0.055624 0.824496 0.340792
Si Si6 0.110716 0.417588 0.813647
Si Si7 0.798729 0.674708 0.593820
Si Si8 0.615946 0.829224 0.321480
O O1 0.579209 0.500000 0.829915
O O2 0.396939 0.399826 0.844833
O O3 0.410270 0.391510 0.937083
O O4 0.746085 0.379112 0.762848
O O5 0.671373 0.890171 0.846878
O O6 0.641832 0.000000 0.912461
O O7 0.500000 0.884596 0.000000
O O8 0.801109 0.752994 0.570678
O O9 0.615646 0.858460 0.598445
O O10 0.000000 0.867939 0.500000
O O11 0.934364 0.808808 0.436334
O O12 0.853264 0.000000 0.013894
O O13 0.619009 0.106565 0.112514
O O14 0.000000 0.114728 0.000000
O O15 0.243054 0.877551 0.279177
O O16 0.135391 0.749219 0.293071
O O17 0.904320 0.859525 0.354991
O O18 0.139376 0.500000 0.796093
O O19 0.797359 0.670044 0.653965
O O20 0.000000 0.635112 0.500000
#
# Coordination Sequence:
#
# PCOD8078435 Si02
#       8
#     8   8   8   8   8   8   8   8
#     4  10  20  34  56  82 107 135 174 218 264 311
#     4   9  15  30  57  79  99 135 175 210 255 314
#     4  10  19  33  55  77 100 139 184 210 246 313
#     4   9  18  35  55  73 102 149 186 207 243 313
#     4  11  20  33  55  81 103 136 178 219 258 309
#     4  10  20  34  55  80 106 135 175 221 264 308
#     4  10  16  33  56  78 100 137 181 211 246 314
#     4  11  20  34  56  81 105 136 175 220 260 309
#
# _framework density 18.979904000000001
#
# number of rings (size 3 to 8) (size 9 to 14) (size 15 to 20)
#    0.000    2.000    5.000    1.500    0.000    1.000 
#    0.000    1.250    0.000    1.500    0.000    0.000 
#    0.000    0.000    0.000    0.000    0.000    0.000 
#
# Total GULP energy -396563.170647 kJ/mol
# GULP energy per Si atom -12392.599083 kJ/mol
# Density = 1.893671 g / cm^3
# Si number density = 18.979904 Si / 1000 Ang^3
#
#
#
# Elastic Constant Matrix: (Units=GPa)
#
#
# Indices 1 2 3 4 5 6 
#
# 1 108.1713 14.8461 28.6618 -0.0030 -23.4373 0.0001
# 2 14.8461 37.8208 40.2411 0.0003 -12.3666 -0.0030
# 3 28.6618 40.2411 117.0861 -0.0168 -28.8046 0.0022
# 4 -0.0030 0.0003 -0.0168 24.9439 -0.0091 -4.8364
# 5 -23.4373 -12.3666 -28.8046 -0.0091 30.4935 0.0098
# 6 0.0001 -0.0030 0.0022 -4.8364 0.0098 12.4969
#
#
#
# Elastic Compliance Matrix: (Units=1/GPa)
#
#
# Indices 1 2 3 4 5 6 
#
# 1 0.011207 -0.001543 -0.000323 0.000003 0.007682 -0.000005
# 2 -0.001543 0.042353 -0.013346 -0.000007 0.003383 0.000007
# 3 -0.000323 -0.013346 0.015391 0.000012 0.008878 -0.000008
# 4 0.000003 -0.000007 0.000012 0.043342 0.000018 0.016774
# 5 0.007682 0.003383 0.008878 0.000018 0.048457 -0.000032
# 6 -0.000005 0.000007 -0.000008 0.016774 -0.000032 0.086511
#
#
# Mechanical properties :
#
#
# Convention : Reuss Voigt Hill
#
# Bulk Modulus (GPa) = 25.95713 47.84180 36.89947
# Shear Modulus (GPa) = 17.21017 25.54214 21.37616
#
# Velocity S-wave (km/s) = 3.01451 3.67242 3.35961
# Velocity P-wave (km/s) = 5.08155 6.57598 5.87646
#
# Compressibility (1/GPa) = 0.03852505
#
# Stress axis : x y z
#
# Youngs Moduli (GPa) = 89.23375 23.61133 64.97468
#
# Poissons Ratio (x) = 0.03644 0.02098
# Poissons Ratio (y) = 0.13773 0.86715
# Poissons Ratio (z) = 0.02881 0.31512
#
# Static dielectric constant tensor:
#      x y z
#    x 4.050950 -0.000010 -0.343910 
#    y -0.000010 2.845460 0.000040 
#    z -0.343910 0.000040 3.611330 
# 
# 
# High freq. dielectric constant tensor:
#      x y z
#    x 1.756360 0.000000 -0.013500 
#    y 0.000000 1.665010 0.000000 
#    z -0.013500 0.000000 1.746870 
# 
# From -- ./inp_files/358980.got.cif
#   From: 2010.06.25/outbox.cif.g09.slc.cpg/sg12_180_cif.got.tgz:358980.got - 2010.06.28 00:19:55.
