data_PCOD8078486
_publ_section_title
;
Structure prediction by ZEFSAII (Michael W. Deem and Ramdas Pophale) SiO2 
 PCOD8078486
Probable space group: C 2/M
;
_chemical_formula_sum "Si O2"
_cell_formula_units_Z 64
_cell_length_a 32.541556
_cell_length_b 9.130136
_cell_length_c 14.445052
_cell_angle_alpha 90.000000
_cell_angle_beta 82.224511
_cell_angle_gamma 90.000000
_cell_volume 4252.293333
_symmetry_space_group_name_H-M "C 2/M"
_symmetry_group_IT_number 12
_symmetry_cell_setting 'monoclinic'
loop_
_space_group_symop_operation_xyz
x,y,z
-x,y,-z
-x,-y,-z
x,-y,z
1/2+x,1/2+y,z
1/2-x,1/2+y,-z
1/2-x,1/2-y,-z
1/2+x,1/2-y,z
loop_
_atom_site_type_symbol
_atom_site_label
_atom_site_fract_x
_atom_site_fract_y
_atom_site_fract_z
Si Si1 0.525740 0.828393 0.082249
Si Si2 0.341838 0.829460 0.761438
Si Si3 0.120044 0.330840 0.050745
Si Si4 0.306496 0.334814 0.047607
Si Si5 0.989136 0.174427 0.727633
Si Si6 0.910092 0.825151 0.633558
Si Si7 0.233188 0.165793 0.142319
Si Si8 0.959319 0.160084 0.451052
O O1 0.572986 0.777331 0.052591
O O2 0.505042 0.745497 0.174337
O O3 0.523887 0.000000 0.104062
O O4 0.500000 0.784458 0.000000
O O5 0.366663 0.801621 0.848252
O O6 0.367355 0.755057 0.670706
O O7 0.296851 0.753872 0.779421
O O8 0.335671 0.000000 0.742593
O O9 0.125642 0.500000 0.022595
O O10 0.148204 0.238232 0.971553
O O11 0.311081 0.500000 0.083128
O O12 0.277925 0.244411 0.127708
O O13 0.285775 0.332568 0.953767
O O14 0.026331 0.237794 0.649368
O O15 0.944571 0.218814 0.699138
O O16 0.992658 0.000000 0.733667
O O17 0.924421 0.764284 0.527130
O O18 0.903885 0.000000 0.634040
O O19 0.238535 0.000000 0.176584
O O20 0.000000 0.140550 0.500000
O O21 0.942065 0.000000 0.430287
#
# Coordination Sequence:
#
# PCOD8078486 Si02
#       8
#     8   8   8   8   8   8   8   8
#     4  10  20  32  43  56  77 105 136 171 210 244
#     4  10  17  24  36  54  78 104 132 164 194 226
#     4   9  17  28  39  51  70 100 132 163 199 237
#     4   9  16  25  38  54  71  93 125 162 195 229
#     4   9  16  27  43  58  74  97 130 169 203 237
#     4   9  15  24  39  57  77 102 131 160 195 239
#     4   9  16  25  36  52  74 100 128 156 189 230
#     4   7  12  23  38  56  75  97 125 158 196 238
#
# _framework density 15.050703
#
# number of rings (size 3 to 8) (size 9 to 14) (size 15 to 20)
#    0.000    3.000    1.250    2.625    0.000    4.250 
#    0.000    0.625    0.000    2.250    0.000    0.000 
#    0.000    0.000    0.000    1.125    0.000   13.500 
#
# Total GULP energy -396553.299017 kJ/mol
# GULP energy per Si atom -12392.290594 kJ/mol
# Density = 1.501645 g / cm^3
# Si number density = 15.050703 Si / 1000 Ang^3
#
#
#
# Elastic Constant Matrix: (Units=GPa)
#
#
# Indices 1 2 3 4 5 6 
#
# 1 67.6512 37.3037 53.0828 0.0000 -29.6569 0.0000
# 2 37.3037 71.2763 44.1025 0.0000 -21.8939 0.0000
# 3 53.0828 44.1025 94.4480 0.0000 -31.6127 0.0000
# 4 0.0000 0.0000 0.0000 14.3004 0.0000 -6.3503
# 5 -29.6569 -21.8939 -31.6127 0.0000 30.2263 0.0000
# 6 0.0000 0.0000 0.0000 -6.3503 0.0000 18.7381
#
#
#
# Elastic Compliance Matrix: (Units=1/GPa)
#
#
# Indices 1 2 3 4 5 6 
#
# 1 0.034220 -0.005835 -0.010285 0.000000 0.018592 0.000000
# 2 -0.005835 0.021788 -0.005429 0.000000 0.004379 0.000000
# 3 -0.010285 -0.005429 0.021863 0.000000 0.008842 0.000000
# 4 0.000000 0.000000 0.000000 0.082316 0.000000 0.027897
# 5 0.018592 0.004379 0.008842 0.000000 0.063745 0.000000
# 6 0.000000 0.000000 0.000000 0.027897 0.000000 0.062821
#
#
# Mechanical properties :
#
#
# Convention : Reuss Voigt Hill
#
# Bulk Modulus (GPa) = 28.75786 55.81704 42.28745
# Shear Modulus (GPa) = 14.64381 19.24538 16.94459
#
# Velocity S-wave (km/s) = 3.12262 3.57978 3.35899
# Velocity P-wave (km/s) = 5.67008 7.36566 6.57277
#
# Compressibility (1/GPa) = 0.03477311
#
# Stress axis : x y z
#
# Youngs Moduli (GPa) = 29.22309 45.89726 45.73935
#
# Poissons Ratio (x) = 0.26779 0.47044
# Poissons Ratio (y) = 0.17050 0.24831
# Poissons Ratio (z) = 0.30056 0.24917
#
# Static dielectric constant tensor:
#      x y z
#    x 2.747210 0.000000 -0.414950 
#    y 0.000000 2.825690 0.000000 
#    z -0.414950 0.000000 2.819820 
# 
# 
# High freq. dielectric constant tensor:
#      x y z
#    x 1.544850 0.000000 -0.048970 
#    y 0.000000 1.571340 0.000000 
#    z -0.048970 0.000000 1.546600 
# 
# From -- ./inp_files/248302.got.cif
#   From: 2010.06.25/outbox.cif.g09.slc.cpg/sg12_125_cif.got.tgz:248302.got - 2010.06.28 00:19:55.
