data_PCOD8078499
_publ_section_title
;
Structure prediction by ZEFSAII (Michael W. Deem and Ramdas Pophale) SiO2 
 PCOD8078499
Probable space group: C 2/M
;
_chemical_formula_sum "Si O2"
_cell_formula_units_Z 64
_cell_length_a 28.656803
_cell_length_b 8.977683
_cell_length_c 20.419156
_cell_angle_alpha 90.000000
_cell_angle_beta 127.691435
_cell_angle_gamma 90.000000
_cell_volume 4156.991695
_symmetry_space_group_name_H-M "C 2/M"
_symmetry_group_IT_number 12
_symmetry_cell_setting 'monoclinic'
loop_
_space_group_symop_operation_xyz
x,y,z
-x,y,-z
-x,-y,-z
x,-y,z
1/2+x,1/2+y,z
1/2-x,1/2+y,-z
1/2-x,1/2-y,-z
1/2+x,1/2-y,z
loop_
_atom_site_type_symbol
_atom_site_label
_atom_site_fract_x
_atom_site_fract_y
_atom_site_fract_z
Si Si1 0.692464 0.834988 0.026297
Si Si2 0.721100 0.674873 0.317821
Si Si3 0.770467 0.323373 0.804262
Si Si4 0.067258 0.826716 0.567718
Si Si5 0.191467 0.171141 0.429123
Si Si6 0.340744 0.672345 0.461804
Si Si7 0.669675 0.334331 0.884540
Si Si8 0.649023 0.176392 0.737522
O O1 0.688677 0.778448 0.098404
O O2 0.760854 0.838828 0.066589
O O3 0.665380 0.000000 0.996544
O O4 0.656547 0.728728 0.946186
O O5 0.720784 0.500000 0.301774
O O6 0.697921 0.763150 0.234091
O O7 0.676829 0.717431 0.341010
O O8 0.787705 0.724310 0.391630
O O9 0.761354 0.500000 0.794140
O O10 0.706148 0.250219 0.753733
O O11 0.100851 0.790167 0.528765
O O12 0.092333 0.726885 0.647878
O O13 0.000000 0.780000 0.500000
O O14 0.073550 0.000000 0.592185
O O15 0.250000 0.250000 0.500000
O O16 0.144414 0.202253 0.447410
O O17 0.208025 0.000000 0.439991
O O18 0.321816 0.500000 0.435425
O O19 0.642739 0.500000 0.856668
O O20 0.639817 0.230223 0.804333
O O21 0.656145 0.000000 0.742760
#
# Coordination Sequence:
#
# PCOD8078499 Si02
#       8
#     8   8   8   8   8   8   8   8
#     4   8  15  25  36  53  75 100 130 161 190 226
#     4  10  17  24  37  58  80 101 131 166 196 232
#     4  10  18  27  39  55  79 108 135 162 196 236
#     4  10  20  32  45  60  78 102 135 173 210 245
#     4   8  15  25  37  55  75  98 128 160 195 235
#     4   9  16  28  43  54  73 103 131 163 203 243
#     4   9  16  26  40  55  74  99 129 162 195 234
#     4  11  20  29  42  57  75 101 133 169 204 238
#
# _framework density 15.395749
#
# number of rings (size 3 to 8) (size 9 to 14) (size 15 to 20)
#    0.000    2.625    1.250    3.000    0.000    4.250 
#    0.000    0.000    0.000    0.000    0.000    0.000 
#    0.000    0.000    0.000    1.125    0.000   24.250 
#
# Total GULP energy -396458.135060 kJ/mol
# GULP energy per Si atom -12389.316721 kJ/mol
# Density = 1.536071 g / cm^3
# Si number density = 15.395749 Si / 1000 Ang^3
#
#
#
# Elastic Constant Matrix: (Units=GPa)
#
#
# Indices 1 2 3 4 5 6 
#
# 1 64.8627 25.9830 49.8626 0.0000 -28.8046 0.0000
# 2 25.9830 78.4110 43.5829 0.0000 -18.4252 0.0000
# 3 49.8626 43.5829 85.9798 0.0000 -37.1897 0.0000
# 4 0.0000 0.0000 0.0000 23.6390 0.0000 -8.3992
# 5 -28.8046 -18.4252 -37.1897 0.0000 32.3752 0.0000
# 6 0.0000 0.0000 0.0000 -8.3992 0.0000 14.2529
#
#
#
# Elastic Compliance Matrix: (Units=1/GPa)
#
#
# Indices 1 2 3 4 5 6 
#
# 1 0.030566 -0.000487 -0.011600 0.000000 0.013593 0.000000
# 2 -0.000487 0.017767 -0.009018 0.000000 -0.000681 0.000000
# 3 -0.011600 -0.009018 0.032288 0.000000 0.021636 0.000000
# 4 0.000000 0.000000 0.000000 0.053506 0.000000 0.031531
# 5 0.013593 -0.000681 0.021636 0.000000 0.067448 0.000000
# 6 0.000000 0.000000 0.000000 0.031531 0.000000 0.088742
#
#
# Mechanical properties :
#
#
# Convention : Reuss Voigt Hill
#
# Bulk Modulus (GPa) = 26.03469 52.01229 39.02349
# Shear Modulus (GPa) = 14.47885 21.37508 17.92697
#
# Velocity S-wave (km/s) = 3.06999 3.73013 3.41605
# Velocity P-wave (km/s) = 5.43263 7.23939 6.40009
#
# Compressibility (1/GPa) = 0.03841029
#
# Stress axis : x y z
#
# Youngs Moduli (GPa) = 32.71608 56.28321 30.97152
#
# Poissons Ratio (x) = 0.02741 0.35927
# Poissons Ratio (y) = 0.01593 0.27931
# Poissons Ratio (z) = 0.37951 0.50758
#
# Static dielectric constant tensor:
#      x y z
#    x 3.022790 0.000000 -0.666850 
#    y 0.000000 1.853870 0.000000 
#    z -0.666850 0.000000 2.985430 
# 
# 
# High freq. dielectric constant tensor:
#      x y z
#    x 1.548960 0.000000 -0.058840 
#    y 0.000000 1.600510 0.000000 
#    z -0.058840 0.000000 1.565830 
# 
# From -- ./inp_files/326919.got.cif
#   From: 2010.06.25/outbox.cif.g09.slc.cpg/sg12_164_cif.got.tgz:326919.got - 2010.06.28 00:19:55.
