data_PCOD8078215
_publ_section_title
;
Structure prediction by ZEFSAII (Michael W. Deem and Ramdas Pophale) SiO2 
 PCOD8078215
Probable space group: C 2/M
;
_chemical_formula_sum "Si O2"
_cell_formula_units_Z 56
_cell_length_a 19.271904
_cell_length_b 14.499438
_cell_length_c 16.468995
_cell_angle_alpha 90.000000
_cell_angle_beta 123.587520
_cell_angle_gamma 90.000000
_cell_volume 3833.625305
_symmetry_space_group_name_H-M "C 2/M"
_symmetry_group_IT_number 12
_symmetry_cell_setting 'monoclinic'
loop_
_space_group_symop_operation_xyz
x,y,z
-x,y,-z
-x,-y,-z
x,-y,z
1/2+x,1/2+y,z
1/2-x,1/2+y,-z
1/2-x,1/2-y,-z
1/2+x,1/2-y,z
loop_
_atom_site_type_symbol
_atom_site_label
_atom_site_fract_x
_atom_site_fract_y
_atom_site_fract_z
Si Si1 0.722026 0.397335 0.615366
Si Si2 0.992694 0.891127 0.293366
Si Si3 0.465780 0.607781 0.096542
Si Si4 0.581192 0.699953 0.599921
Si Si5 0.868352 0.890675 0.882201
Si Si6 0.753255 0.287694 0.304575
Si Si7 0.818072 0.105620 0.592293
O O1 0.752103 0.500000 0.659258
O O2 0.624502 0.384207 0.577697
O O3 0.776313 0.319255 0.697741
O O4 0.729645 0.382644 0.523686
O O5 0.949330 0.866185 0.179080
O O6 0.940647 0.834373 0.324646
O O7 0.087942 0.855793 0.353314
O O8 0.988309 0.000000 0.309233
O O9 0.471030 0.500000 0.086278
O O10 0.556475 0.643057 0.127234
O O11 0.391169 0.641603 0.989004
O O12 0.500000 0.734477 0.500000
O O13 0.646877 0.785154 0.647441
O O14 0.788778 0.832388 0.801545
O O15 0.849418 0.000000 0.863495
O O16 0.735474 0.343873 0.374462
O O17 0.823976 0.000000 0.623490
#
# Coordination Sequence:
#
# PCOD8078215 Si02
#       7
#     8   8   8   8   8   8   8
#     4   9  19  29  42  63  92 123 150 185 223 263
#     4  10  16  26  45  69  93 118 145 183 233 278
#     4   8  15  25  45  71  94 110 140 189 238 279
#     4  10  20  29  42  63  97 125 151 180 223 271
#     4   9  15  28  46  70  94 115 143 187 238 273
#     4  10  19  28  44  67  96 124 148 186 226 272
#     4  10  17  28  48  70  91 118 151 187 229 271
#
# _framework density 14.607583
#
# number of rings (size 3 to 8) (size 9 to 14) (size 15 to 20)
#    0.857    1.714    2.857    2.143    0.000    0.571 
#    0.000    0.714    0.000    1.714    0.000    4.000 
#    0.000    0.000    0.000    0.000    0.000    0.000 
#
# Total GULP energy -346878.151668 kJ/mol
# GULP energy per Si atom -12388.505417 kJ/mol
# Density = 1.457434 g / cm^3
# Si number density = 14.607583 Si / 1000 Ang^3
#
#
#
# Elastic Constant Matrix: (Units=GPa)
#
#
# Indices 1 2 3 4 5 6 
#
# 1 85.2445 27.0887 41.0563 0.0000 -7.7192 0.0000
# 2 27.0887 57.7330 41.5462 0.0000 4.6335 0.0000
# 3 41.0563 41.5462 98.0838 0.0000 -3.2203 0.0000
# 4 0.0000 0.0000 0.0000 20.8628 0.0000 4.5477
# 5 -7.7192 4.6335 -3.2203 0.0000 16.5201 0.0000
# 6 0.0000 0.0000 0.0000 4.5477 0.0000 19.7723
#
#
#
# Elastic Compliance Matrix: (Units=1/GPa)
#
#
# Indices 1 2 3 4 5 6 
#
# 1 0.016188 -0.005131 -0.004335 0.000000 0.008158 0.000000
# 2 -0.005131 0.027981 -0.010106 0.000000 -0.012215 0.000000
# 3 -0.004335 -0.010106 0.016422 0.000000 0.004010 0.000000
# 4 0.000000 0.000000 0.000000 0.050462 0.000000 -0.011606
# 5 0.008158 -0.012215 0.004010 0.000000 0.068552 0.000000
# 6 0.000000 0.000000 0.000000 -0.011606 0.000000 0.053245
#
#
# Mechanical properties :
#
#
# Convention : Reuss Voigt Hill
#
# Bulk Modulus (GPa) = 46.62301 51.16042 48.89171
# Shear Modulus (GPa) = 17.91201 20.18907 19.05054
#
# Velocity S-wave (km/s) = 3.50553 3.72169 3.61523
# Velocity P-wave (km/s) = 6.95495 7.31896 7.13927
#
# Compressibility (1/GPa) = 0.02144864
#
# Stress axis : x y z
#
# Youngs Moduli (GPa) = 61.77434 35.73838 60.89365
#
# Poissons Ratio (x) = 0.18336 0.26397
# Poissons Ratio (y) = 0.31695 0.61537
# Poissons Ratio (z) = 0.26779 0.36116
#
# Static dielectric constant tensor:
#      x y z
#    x 2.735670 0.000000 -0.180840 
#    y 0.000000 2.595650 0.000000 
#    z -0.180840 0.000000 2.920740 
# 
# 
# High freq. dielectric constant tensor:
#      x y z
#    x 1.544450 0.000000 -0.019130 
#    y 0.000000 1.525990 0.000000 
#    z -0.019130 0.000000 1.554260 
# 
# From -- ./inp_files/278325.got.cif
#   From: 2010.06.25/outbox.cif.g09.slc.cpg/sg12_140_cif.got.tgz:278325.got - 2010.06.28 00:19:55.
