data_PCOD8078476
_publ_section_title
;
Structure prediction by ZEFSAII (Michael W. Deem and Ramdas Pophale) SiO2 
 PCOD8078476
Probable space group: C 2/M
;
_chemical_formula_sum "Si O2"
_cell_formula_units_Z 56
_cell_length_a 20.487973
_cell_length_b 9.077497
_cell_length_c 17.856477
_cell_angle_alpha 90.000000
_cell_angle_beta 100.543010
_cell_angle_gamma 90.000000
_cell_volume 3264.874257
_symmetry_space_group_name_H-M "C 2/M"
_symmetry_group_IT_number 12
_symmetry_cell_setting 'monoclinic'
loop_
_space_group_symop_operation_xyz
x,y,z
-x,y,-z
-x,-y,-z
x,-y,z
1/2+x,1/2+y,z
1/2-x,1/2+y,-z
1/2-x,1/2-y,-z
1/2+x,1/2-y,z
loop_
_atom_site_type_symbol
_atom_site_label
_atom_site_fract_x
_atom_site_fract_y
_atom_site_fract_z
Si Si1 0.566991 0.827808 0.554653
Si Si2 0.956115 0.172146 0.300387
Si Si3 0.611610 0.667154 0.321598
Si Si4 0.054770 0.672744 0.849811
Si Si5 0.317313 0.828001 0.535782
Si Si6 0.922580 0.163433 0.004960
Si Si7 0.080327 0.169612 0.155463
O O1 0.500000 0.774605 0.500000
O O2 0.577496 0.738537 0.632961
O O3 0.628065 0.787629 0.514380
O O4 0.563175 0.000000 0.572945
O O5 0.921200 0.248165 0.221298
O O6 0.034533 0.206932 0.318100
O O7 0.941554 0.000000 0.293566
O O8 0.625911 0.500000 0.350086
O O9 0.658100 0.774967 0.378006
O O10 0.629396 0.689161 0.236835
O O11 0.063798 0.500000 0.842294
O O12 0.096819 0.726303 0.931685
O O13 0.978751 0.714733 0.847826
O O14 0.250000 0.750000 0.500000
O O15 0.304223 0.000000 0.537773
O O16 0.904180 0.000000 0.028871
O O17 0.884226 0.199268 0.917879
O O18 0.000000 0.174343 0.000000
O O19 0.052131 0.000000 0.151189
#
# Coordination Sequence:
#
# PCOD8078476 Si02
#       7
#     8   8   8   8   8   8   8
#     4  10  20  35  53  74  99 124 159 205 251 290
#     4  10  19  30  47  69  93 124 162 200 240 290
#     4   9  17  30  47  68  93 122 161 201 241 288
#     4  10  17  23  35  57  88 121 155 195 238 282
#     4  11  23  37  53  72  99 131 161 201 248 294
#     4   8  13  23  36  51  80 119 156 190 232 283
#     4   8  15  26  39  57  83 119 157 195 236 285
#
# _framework density 17.152269
#
# number of rings (size 3 to 8) (size 9 to 14) (size 15 to 20)
#    0.000    2.571    1.429    3.857    0.000    6.286 
#    0.000    0.000    0.000    0.000    0.000    0.000 
#    0.000    1.143    0.000    3.429    0.000    6.143 
#
# Total GULP energy -347014.236025 kJ/mol
# GULP energy per Si atom -12393.365572 kJ/mol
# Density = 1.711323 g / cm^3
# Si number density = 17.152269 Si / 1000 Ang^3
#
#
#
# Elastic Constant Matrix: (Units=GPa)
#
#
# Indices 1 2 3 4 5 6 
#
# 1 49.6156 32.5333 38.0494 0.0000 2.2730 0.0000
# 2 32.5333 97.4080 76.7792 0.0000 0.0003 0.0000
# 3 38.0494 76.7792 180.1404 0.0000 3.4152 0.0000
# 4 0.0000 0.0000 0.0000 34.7466 0.0000 -0.6455
# 5 2.2730 0.0003 3.4152 0.0000 9.3966 0.0000
# 6 0.0000 0.0000 0.0000 -0.6455 0.0000 16.0894
#
#
#
# Elastic Compliance Matrix: (Units=1/GPa)
#
#
# Indices 1 2 3 4 5 6 
#
# 1 0.026978 -0.006930 -0.002639 0.000000 -0.005567 0.000000
# 2 -0.006930 0.017295 -0.005980 0.000000 0.003849 0.000000
# 3 -0.002639 -0.005980 0.008706 0.000000 -0.002526 0.000000
# 4 0.000000 0.000000 0.000000 0.028801 0.000000 0.001155
# 5 -0.005567 0.003849 -0.002526 0.000000 0.108686 0.000000
# 6 0.000000 0.000000 0.000000 0.001155 0.000000 0.062199
#
#
# Mechanical properties :
#
#
# Convention : Reuss Voigt Hill
#
# Bulk Modulus (GPa) = 45.70653 69.09867 57.40260
# Shear Modulus (GPa) = 17.17878 24.03331 20.60604
#
# Velocity S-wave (km/s) = 3.16815 3.74729 3.46982
# Velocity P-wave (km/s) = 6.33153 7.68738 7.04216
#
# Compressibility (1/GPa) = 0.02187871
#
# Stress axis : x y z
#
# Youngs Moduli (GPa) = 37.06730 57.82122 114.86978
#
# Poissons Ratio (x) = 0.40072 0.30314
# Poissons Ratio (y) = 0.25689 0.68698
# Poissons Ratio (z) = 0.09782 0.34580
#
# Static dielectric constant tensor:
#      x y z
#    x 3.367320 0.000000 2.240210 
#    y 0.000000 3.154160 0.000000 
#    z 2.240210 0.000000 9.847650 
# 
# 
# High freq. dielectric constant tensor:
#      x y z
#    x 1.575070 0.000000 0.002300 
#    y 0.000000 1.664960 0.000000 
#    z 0.002300 0.000000 1.693030 
# 
# From -- ./inp_files/280331.got.cif
#   From: 2010.06.25/outbox.cif.g09.slc.cpg/sg12_141_cif.got.tgz:280331.got - 2010.06.28 00:19:55.
