data_PCOD8078064
_publ_section_title
;
Structure prediction by ZEFSAII (Michael W. Deem and Ramdas Pophale) SiO2 
 PCOD8078064
Probable space group: C 2/M
;
_chemical_formula_sum "Si O2"
_cell_formula_units_Z 44
_cell_length_a 8.441041
_cell_length_b 23.652317
_cell_length_c 12.349130
_cell_angle_alpha 90.000000
_cell_angle_beta 101.334574
_cell_angle_gamma 90.000000
_cell_volume 2417.419360
_symmetry_space_group_name_H-M "C 2/M"
_symmetry_group_IT_number 12
_symmetry_cell_setting 'monoclinic'
loop_
_space_group_symop_operation_xyz
x,y,z
-x,y,-z
-x,-y,-z
x,-y,z
1/2+x,1/2+y,z
1/2-x,1/2+y,-z
1/2-x,1/2-y,-z
1/2+x,1/2-y,z
loop_
_atom_site_type_symbol
_atom_site_label
_atom_site_fract_x
_atom_site_fract_y
_atom_site_fract_z
Si Si1 0.192964 0.117449 0.513170
Si Si2 0.607033 0.718976 0.618904
Si Si3 0.172470 0.000000 0.579141
Si Si4 0.129318 0.091938 0.111539
Si Si5 0.686180 0.324832 0.298584
Si Si6 0.436281 0.500000 0.195698
Si Si7 0.821936 0.500000 0.024019
O O1 0.238171 0.171041 0.596895
O O2 0.246512 0.130088 0.397260
O O3 0.000000 0.113067 0.500000
O O4 0.270298 0.057105 0.558656
O O5 0.500000 0.737649 0.500000
O O6 0.495947 0.693813 0.698782
O O7 0.698209 0.771032 0.684038
O O8 0.151644 0.000000 0.703260
O O9 0.000000 0.000000 0.500000
O O10 0.192574 0.148576 0.178939
O O11 0.283603 0.056786 0.087578
O O12 0.044686 0.055600 0.194949
O O13 0.000000 0.106416 0.000000
O O14 0.298922 0.500000 0.089883
O O15 0.000000 0.500000 0.000000
#
# Coordination Sequence:
#
# PCOD8078064 Si02
#       7
#     8   8   4   8   8   4   4
#     4   8  15  25  43  71 100 126 158 198 241 293
#     4   9  17  31  49  70  99 136 172 201 244 305
#     4  10  15  23  45  80 103 122 158 206 247 287
#     4   9  18  33  54  75  96 129 170 207 247 296
#     4  10  18  32  50  71  99 135 172 211 245 289
#     4   9  16  31  54  74 101 135 162 197 244 302
#     4   9  19  36  54  76 101 129 165 201 250 309
#
# _framework density 18.201226999999999
#
# number of rings (size 3 to 8) (size 9 to 14) (size 15 to 20)
#    0.000    3.273    0.000    6.545    0.000    0.727 
#    0.000    8.182    0.000    0.000    0.000    9.545 
#    0.000    0.000    0.000    0.000    0.000    0.000 
#
# Total GULP energy -272573.031441 kJ/mol
# GULP energy per Si atom -12389.683247 kJ/mol
# Density = 1.815980 g / cm^3
# Si number density = 18.201227 Si / 1000 Ang^3
#
#
#
# Elastic Constant Matrix: (Units=GPa)
#
#
# Indices 1 2 3 4 5 6 
#
# 1 55.6493 36.2516 19.4574 0.0000 -12.6831 0.0000
# 2 36.2516 156.1257 73.1584 0.0000 -2.8296 0.0000
# 3 19.4574 73.1584 78.6572 0.0000 -17.9932 0.0000
# 4 0.0000 0.0000 0.0000 36.9591 0.0000 -0.6591
# 5 -12.6831 -2.8296 -17.9932 0.0000 18.3201 0.0000
# 6 0.0000 0.0000 0.0000 -0.6591 0.0000 14.5948
#
#
#
# Elastic Compliance Matrix: (Units=1/GPa)
#
#
# Indices 1 2 3 4 5 6 
#
# 1 0.027146 -0.009556 0.007912 0.000000 0.025088 0.000000
# 2 -0.009556 0.016792 -0.018282 0.000000 -0.021978 0.000000
# 3 0.007912 -0.018282 0.036588 0.000000 0.038589 0.000000
# 4 0.000000 0.000000 0.000000 0.027079 0.000000 0.001223
# 5 0.025088 -0.021978 0.038589 0.000000 0.106459 0.000000
# 6 0.000000 0.000000 0.000000 0.001223 0.000000 0.068573
#
#
# Mechanical properties :
#
#
# Convention : Reuss Voigt Hill
#
# Bulk Modulus (GPa) = 24.58591 60.90746 42.74668
# Shear Modulus (GPa) = 14.87885 24.74579 19.81232
#
# Velocity S-wave (km/s) = 2.86223 3.69123 3.30285
# Velocity P-wave (km/s) = 4.94574 7.19048 6.17103
#
# Compressibility (1/GPa) = 0.04067370
#
# Stress axis : x y z
#
# Youngs Moduli (GPa) = 36.83747 59.55073 27.33153
#
# Poissons Ratio (x) = 0.56906 -0.21624
# Poissons Ratio (y) = 0.35201 0.49968
# Poissons Ratio (z) = -0.29145 1.08872
#
# Static dielectric constant tensor:
#      x y z
#    x 2.984880 0.000000 -0.089880 
#    y 0.000000 4.221020 0.000000 
#    z -0.089880 0.000000 3.122370 
# 
# 
# High freq. dielectric constant tensor:
#      x y z
#    x 1.663060 0.000000 -0.019320 
#    y 0.000000 1.716070 0.000000 
#    z -0.019320 0.000000 1.685010 
# 
# From -- ./inp_files/123197.got.cif
#   From: 2010.06.25/outbox.cif.g09.slc.cpg/sg12_62_cif.got.tgz:123197.got - 2010.06.28 00:19:55.
