data_PCOD8078620
_publ_section_title
;
Structure prediction by ZEFSAII (Michael W. Deem and Ramdas Pophale) SiO2 
 PCOD8078620
Probable space group: C 2/M
;
_chemical_formula_sum "Si O2"
_cell_formula_units_Z 64
_cell_length_a 19.066333
_cell_length_b 8.915118
_cell_length_c 20.676836
_cell_angle_alpha 90.000000
_cell_angle_beta 95.725056
_cell_angle_gamma 90.000000
_cell_volume 3497.089034
_symmetry_space_group_name_H-M "C 2/M"
_symmetry_group_IT_number 12
_symmetry_cell_setting 'monoclinic'
loop_
_space_group_symop_operation_xyz
x,y,z
-x,y,-z
-x,-y,-z
x,-y,z
1/2+x,1/2+y,z
1/2-x,1/2+y,-z
1/2-x,1/2-y,-z
1/2+x,1/2-y,z
loop_
_atom_site_type_symbol
_atom_site_label
_atom_site_fract_x
_atom_site_fract_y
_atom_site_fract_z
Si Si1 0.912251 0.327950 0.676263
Si Si2 0.981266 0.325798 0.426315
Si Si3 0.369029 0.677380 0.331065
Si Si4 0.757591 0.174469 0.848503
Si Si5 0.956594 0.324624 0.228073
Si Si6 0.882739 0.175963 0.113481
Si Si7 0.225578 0.175077 0.296416
Si Si8 0.180962 0.172908 0.018159
O O1 0.887569 0.500000 0.678642
O O2 0.845310 0.220547 0.673125
O O3 0.951094 0.295615 0.612293
O O4 0.965014 0.288309 0.740096
O O5 0.959618 0.500000 0.421262
O O6 0.914957 0.229620 0.396475
O O7 0.000000 0.273622 0.500000
O O8 0.370595 0.500000 0.326218
O O9 0.398455 0.746343 0.267592
O O10 0.289605 0.733995 0.334022
O O11 0.690896 0.275247 0.860880
O O12 0.784056 0.217963 0.779884
O O13 0.823578 0.205384 0.904888
O O14 0.734674 0.000000 0.849784
O O15 0.940894 0.500000 0.229788
O O16 0.947081 0.262496 0.154357
O O17 0.894051 0.000000 0.125305
O O18 0.883248 0.220577 0.036162
O O19 0.239563 0.000000 0.307581
O O20 0.193061 0.000000 0.006037
O O21 0.250000 0.250000 0.000000
#
# Coordination Sequence:
#
# PCOD8078620 Si02
#       8
#     8   8   8   8   8   8   8   8
#     4   9  20  36  54  77 105 135 169 212 258 304
#     4   9  19  39  64  85 108 139 172 207 252 305
#     4  11  21  33  54  82 110 137 172 215 254 299
#     4   9  17  29  45  65  97 137 171 210 261 315
#     4  10  19  33  51  72 101 137 176 217 265 314
#     4  10  17  25  44  72  98 126 168 221 267 312
#     4  11  21  33  52  77 107 141 176 213 257 310
#     4   8  15  26  39  62  94 127 166 212 263 312
#
# _framework density 18.300934999999999
#
# number of rings (size 3 to 8) (size 9 to 14) (size 15 to 20)
#    0.000    2.375    1.250    3.000    0.000    3.750 
#    0.000    0.625    0.000    0.750    0.000    5.250 
#    0.000    0.000    0.000    0.000    0.000    0.000 
#
# Total GULP energy -396595.159424 kJ/mol
# GULP energy per Si atom -12393.598732 kJ/mol
# Density = 1.825928 g / cm^3
# Si number density = 18.300935 Si / 1000 Ang^3
#
#
#
# Elastic Constant Matrix: (Units=GPa)
#
#
# Indices 1 2 3 4 5 6 
#
# 1 80.2573 39.1552 36.2852 0.0000 11.7264 0.0000
# 2 39.1552 83.7694 36.9544 0.0000 13.2815 0.0000
# 3 36.2852 36.9544 112.5824 0.0000 21.8017 0.0000
# 4 0.0000 0.0000 0.0000 25.1140 0.0000 6.0590
# 5 11.7264 13.2815 21.8017 0.0000 19.9646 0.0000
# 6 0.0000 0.0000 0.0000 6.0590 0.0000 27.9589
#
#
#
# Elastic Compliance Matrix: (Units=1/GPa)
#
#
# Indices 1 2 3 4 5 6 
#
# 1 0.017291 -0.006346 -0.002969 0.000000 -0.002693 0.000000
# 2 -0.006346 0.016768 -0.002562 0.000000 -0.004630 0.000000
# 3 -0.002969 -0.002562 0.012698 0.000000 -0.010418 0.000000
# 4 0.000000 0.000000 0.000000 0.042015 0.000000 -0.009105
# 5 -0.002693 -0.004630 -0.010418 0.000000 0.066127 0.000000
# 6 0.000000 0.000000 0.000000 -0.009105 0.000000 0.037740
#
#
# Mechanical properties :
#
#
# Convention : Reuss Voigt Hill
#
# Bulk Modulus (GPa) = 43.47071 55.71097 49.59084
# Shear Modulus (GPa) = 22.31545 25.55511 23.93528
#
# Velocity S-wave (km/s) = 3.49572 3.74087 3.62037
# Velocity P-wave (km/s) = 6.33232 7.01189 6.68075
#
# Compressibility (1/GPa) = 0.02300399
#
# Stress axis : x y z
#
# Youngs Moduli (GPa) = 57.83213 59.63748 78.75504
#
# Poissons Ratio (x) = 0.37844 0.23379
# Poissons Ratio (y) = 0.36699 0.20179
# Poissons Ratio (z) = 0.17168 0.15280
#
# Static dielectric constant tensor:
#      x y z
#    x 3.013290 0.000000 0.307020 
#    y 0.000000 3.276150 0.000000 
#    z 0.307020 0.000000 3.815660 
# 
# 
# High freq. dielectric constant tensor:
#      x y z
#    x 1.670810 0.000000 0.025900 
#    y 0.000000 1.713480 0.000000 
#    z 0.025900 0.000000 1.715170 
# 
# From -- ./inp_files/319243.got.cif
#   From: 2010.06.25/outbox.cif.g09.slc.cpg/sg12_160_cif.got.tgz:319243.got - 2010.06.28 00:19:55.
