data_PCOD8078024
_publ_section_title
;
Structure prediction by ZEFSAII (Michael W. Deem and Ramdas Pophale) SiO2 
 PCOD8078024
Probable space group: P 21/M
;
_chemical_formula_sum "Si O2"
_cell_formula_units_Z 32
_cell_length_a 18.000000
_cell_length_b 9.000000
_cell_length_c 24.000000
_cell_angle_alpha 90.000000
_cell_angle_beta 150.000000
_cell_angle_gamma 90.000000
_cell_volume 1944.000000
_symmetry_space_group_name_H-M "P 21/M"
_symmetry_group_IT_number 11
_symmetry_cell_setting 'monoclinic'
loop_
_space_group_symop_operation_xyz
x,y,z
-x,1/2+y,-z
-x,-y,-z
x,1/2-y,z
loop_
_atom_site_type_symbol
_atom_site_label
_atom_site_fract_x
_atom_site_fract_y
_atom_site_fract_z
Si Si1 0.271580 0.924515 0.090659
Si Si2 0.153487 0.578734 0.816878
Si Si3 0.608175 0.424323 0.113578
Si Si4 0.448960 0.922900 0.523697
Si Si5 0.676803 0.073510 0.750130
Si Si6 0.419037 0.576459 0.074867
Si Si7 0.894316 0.422188 0.707249
Si Si8 0.940446 0.927185 0.854184
O O1 0.262073 0.750000 0.075782
O O2 0.335420 0.967321 0.192456
O O3 0.378491 0.985546 0.110484
O O4 0.103832 0.985468 0.976907
O O5 0.104179 0.750000 0.789097
O O6 0.223786 0.546009 0.800675
O O7 0.008309 0.477477 0.733303
O O8 0.276782 0.543285 0.943767
O O9 0.576215 0.250000 0.094235
O O10 0.567665 0.493114 0.148000
O O11 0.500000 0.500000 0.000000
O O12 0.493719 0.750000 0.549249
O O13 0.274567 0.941829 0.423060
O O14 0.500000 0.000000 0.500000
O O15 0.532681 0.001654 0.628786
O O16 0.678871 0.250000 0.741463
O O17 0.826149 0.005479 0.821588
O O18 0.457572 0.750000 0.100593
O O19 0.927216 0.250000 0.742584
O O20 0.911480 0.523594 0.772485
O O21 0.922664 0.750000 0.847360
#
# Coordination Sequence:
#
# PCOD8078024 Si02
#       8
#     4   4   4   4   4   4   4   4
#     4   9  19  34  51  73 103 136 168 205 247 297
#     4   9  17  30  48  69 100 133 162 195 245 300
#     4   9  17  28  43  68  99 132 164 197 238 291
#     4  11  23  38  54  72  97 129 167 214 259 297
#     4  11  22  36  53  74  99 130 173 213 247 297
#     4   9  16  30  48  69  99 135 165 194 240 295
#     4  11  22  33  50  75  99 126 168 212 250 294
#     4  11  20  34  53  71 100 136 167 203 252 298
#
# _framework density 16.460905
#
# number of rings (size 3 to 8) (size 9 to 14) (size 15 to 20)
#    0.000    2.000    2.500    3.000    0.000    4.000 
#    0.000    3.125    0.000    0.000    0.000    0.875 
#    0.000    0.000    0.000    0.000    0.000    0.000 
#
# Total GULP energy -396686.632385 kJ/mol
# GULP energy per Si atom -12396.457262 kJ/mol
# Density = 1.642344 g / cm^3
# Si number density = 16.460905 Si / 1000 Ang^3
#
#
#
# Elastic Constant Matrix: (Units=GPa)
#
#
# Indices 1 2 3 4 5 6 
#
# 1 160.8481 57.2215 57.1971 0.0000 12.2491 0.0000
# 2 57.2215 94.6937 37.8655 0.0000 5.4762 0.0000
# 3 57.1971 37.8655 75.6955 0.0000 -3.7214 0.0000
# 4 0.0000 0.0000 0.0000 23.4415 0.0000 5.0121
# 5 12.2491 5.4762 -3.7214 0.0000 24.4207 0.0000
# 6 0.0000 0.0000 0.0000 5.0121 0.0000 31.5560
#
#
#
# Elastic Compliance Matrix: (Units=1/GPa)
#
#
# Indices 1 2 3 4 5 6 
#
# 1 0.009960 -0.003258 -0.006152 0.000000 -0.005203 0.000000
# 2 -0.003258 0.014665 -0.004993 0.000000 -0.002416 0.000000
# 3 -0.006152 -0.004993 0.020719 0.000000 0.007363 0.000000
# 4 0.000000 0.000000 0.000000 0.044159 0.000000 -0.007014
# 5 -0.005203 -0.002416 0.007363 0.000000 0.045222 0.000000
# 6 0.000000 0.000000 0.000000 -0.007014 0.000000 0.032804
#
#
# Mechanical properties :
#
#
# Convention : Reuss Voigt Hill
#
# Bulk Modulus (GPa) = 60.46537 70.64503 65.55520
# Shear Modulus (GPa) = 24.77116 27.81386 26.29251
#
# Velocity S-wave (km/s) = 3.88345 4.11505 4.00092
# Velocity P-wave (km/s) = 7.54458 8.09865 7.82652
#
# Compressibility (1/GPa) = 0.01653839
#
# Stress axis : x y z
#
# Youngs Moduli (GPa) = 100.40401 68.18845 48.26432
#
# Poissons Ratio (x) = 0.22213 0.29692
# Poissons Ratio (y) = 0.32707 0.24100
# Poissons Ratio (z) = 0.61769 0.34049
#
# Static dielectric constant tensor:
#      x y z
#    x 4.664240 0.000000 0.602200 
#    y 0.000000 3.233340 0.000000 
#    z 0.602200 0.000000 3.125010 
# 
# 
# High freq. dielectric constant tensor:
#      x y z
#    x 1.651800 0.000000 0.015610 
#    y 0.000000 1.641930 0.000000 
#    z 0.015610 0.000000 1.598230 
# 
# From -- ./inp_files/69462.got.cif
#   From: 2010.06.25/outbox.ucp.g09.slc.cvg/sg11_35_cif.got.tgz:69462.got - 2010.06.28 13:43:20.
