data_PCOD8078135
_publ_section_title
;
Structure prediction by ZEFSAII (Michael W. Deem and Ramdas Pophale) SiO2 
 PCOD8078135
Probable space group: C 2/M
;
_chemical_formula_sum "Si O2"
_cell_formula_units_Z 48
_cell_length_a 18.036789
_cell_length_b 8.670106
_cell_length_c 17.047229
_cell_angle_alpha 90.000000
_cell_angle_beta 114.942220
_cell_angle_gamma 90.000000
_cell_volume 2417.225105
_symmetry_space_group_name_H-M "C 2/M"
_symmetry_group_IT_number 12
_symmetry_cell_setting 'monoclinic'
loop_
_space_group_symop_operation_xyz
x,y,z
-x,y,-z
-x,-y,-z
x,-y,z
1/2+x,1/2+y,z
1/2-x,1/2+y,-z
1/2-x,1/2-y,-z
1/2+x,1/2-y,z
loop_
_atom_site_type_symbol
_atom_site_label
_atom_site_fract_x
_atom_site_fract_y
_atom_site_fract_z
Si Si1 0.267582 0.819607 0.188090
Si Si2 0.175215 0.317175 0.017149
Si Si3 0.663973 0.179947 0.484244
Si Si4 0.909173 0.178853 0.150188
Si Si5 0.862838 0.180571 0.362039
Si Si6 0.522959 0.675928 0.334450
O O1 0.187619 0.739012 0.112605
O O2 0.346239 0.781586 0.171138
O O3 0.284657 0.756109 0.283164
O O4 0.251177 0.000000 0.184826
O O5 0.171214 0.500000 0.011530
O O6 0.250000 0.250000 0.000000
O O7 0.092897 0.243836 0.940388
O O8 0.750000 0.250000 0.500000
O O9 0.629261 0.254478 0.547585
O O10 0.599179 0.214029 0.386261
O O11 0.674379 0.000000 0.500779
O O12 0.997599 0.197120 0.231289
O O13 0.881206 0.000000 0.140838
O O14 0.946577 0.221500 0.355106
O O15 0.847068 0.000000 0.357632
O O16 0.549152 0.500000 0.362656
#
# Coordination Sequence:
#
# PCOD8078135 Si02
#       6
#     8   8   8   8   8   8
#     4  10  17  26  42  67  99 133 170 208 250 301
#     4  10  16  23  37  61  96 134 169 206 250 298
#     4  12  25  39  56  77 103 135 173 215 260 311
#     4   9  16  27  43  66  98 134 168 206 254 302
#     4  10  20  36  56  78 106 137 171 213 261 309
#     4   9  19  35  55  78 106 138 171 212 261 309
#
# _framework density 19.857479999999999
#
# number of rings (size 3 to 8) (size 9 to 14) (size 15 to 20)
#    0.000    2.000    0.000    9.000    0.000    6.000 
#    0.000    0.000    0.000    0.000    0.000    1.167 
#    0.000    9.333    0.000    0.000    0.000    0.000 
#
# Total GULP energy -297479.062787 kJ/mol
# GULP energy per Si atom -12394.960949 kJ/mol
# Density = 1.981228 g / cm^3
# Si number density = 19.857480 Si / 1000 Ang^3
#
#
#
# Elastic Constant Matrix: (Units=GPa)
#
#
# Indices 1 2 3 4 5 6 
#
# 1 36.8846 30.5709 29.6971 0.0000 15.0465 0.0000
# 2 30.5709 137.4372 52.1964 0.0000 15.8676 0.0000
# 3 29.6971 52.1964 143.8548 0.0000 34.0055 0.0000
# 4 0.0000 0.0000 0.0000 43.1299 0.0000 3.9509
# 5 15.0465 15.8676 34.0055 0.0000 13.1171 0.0000
# 6 0.0000 0.0000 0.0000 3.9509 0.0000 18.5775
#
#
#
# Elastic Compliance Matrix: (Units=1/GPa)
#
#
# Indices 1 2 3 4 5 6 
#
# 1 0.061249 -0.007504 0.011728 0.000000 -0.091584 0.000000
# 2 -0.007504 0.009537 -0.003148 0.000000 0.005233 0.000000
# 3 0.011728 -0.003148 0.020540 0.000000 -0.062893 0.000000
# 4 0.000000 0.000000 0.000000 0.023646 0.000000 -0.005029
# 5 -0.091584 0.005233 -0.062893 0.000000 0.338007 0.000000
# 6 0.000000 0.000000 0.000000 -0.005029 0.000000 0.054898
#
#
# Mechanical properties :
#
#
# Convention : Reuss Voigt Hill
#
# Bulk Modulus (GPa) = 10.69787 60.34506 35.52146
# Shear Modulus (GPa) = 9.31299 28.67904 18.99602
#
# Velocity S-wave (km/s) = 2.16797 3.80444 3.09628
# Velocity P-wave (km/s) = 3.41553 7.05361 5.54163
#
# Compressibility (1/GPa) = 0.09347655
#
# Stress axis : x y z
#
# Youngs Moduli (GPa) = 16.32682 104.85781 48.68623
#
# Poissons Ratio (x) = 0.78689 -0.57100
# Poissons Ratio (y) = 0.12252 0.15327
# Poissons Ratio (z) = -0.19148 0.33011
#
# Static dielectric constant tensor:
#      x y z
#    x 2.948580 0.000000 0.234620 
#    y 0.000000 3.665290 0.000000 
#    z 0.234620 0.000000 4.782560 
# 
# 
# High freq. dielectric constant tensor:
#      x y z
#    x 1.690660 0.000000 0.020320 
#    y 0.000000 1.786620 0.000000 
#    z 0.020320 0.000000 1.809050 
# 
# From -- ./inp_files/280538.got.cif
#   From: 2010.06.25/outbox.cif.g09.slc.cpg/sg12_141_cif.got.tgz:280538.got - 2010.06.28 00:19:55.
