data_PCOD8078937
_publ_section_title
;
Structure prediction by ZEFSAII (Michael W. Deem and Ramdas Pophale) SiO2 
 PCOD8078937
Probable space group: C 2/M
;
_chemical_formula_sum "Si O2"
_cell_formula_units_Z 56
_cell_length_a 25.248344
_cell_length_b 13.737839
_cell_length_c 11.852507
_cell_angle_alpha 90.000000
_cell_angle_beta 41.410085
_cell_angle_gamma 90.000000
_cell_volume 2719.283883
_symmetry_space_group_name_H-M "C 2/M"
_symmetry_group_IT_number 12
_symmetry_cell_setting 'monoclinic'
loop_
_space_group_symop_operation_xyz
x,y,z
-x,y,-z
-x,-y,-z
x,-y,z
1/2+x,1/2+y,z
1/2-x,1/2+y,-z
1/2-x,1/2-y,-z
1/2+x,1/2-y,z
loop_
_atom_site_type_symbol
_atom_site_label
_atom_site_fract_x
_atom_site_fract_y
_atom_site_fract_z
Si Si1 0.087522 0.106838 0.913807
Si Si2 0.376973 0.111895 0.894771
Si Si3 0.865736 0.115822 0.397555
Si Si4 0.028555 0.790409 0.214184
Si Si5 0.875802 0.109468 0.759256
Si Si6 0.777550 0.608111 0.838368
Si Si7 0.725639 0.694964 0.264102
O O1 0.146966 0.136650 0.716071
O O2 0.110235 0.000000 0.924592
O O3 0.091057 0.178406 0.014614
O O4 0.000000 0.103864 0.000000
O O5 0.456827 0.174721 0.793183
O O6 0.351598 0.128710 0.805054
O O7 0.397586 0.000000 0.886106
O O8 0.305119 0.144776 0.090779
O O9 0.787545 0.155797 0.587462
O O10 0.939452 0.181424 0.323468
O O11 0.881093 0.000000 0.392903
O O12 0.048363 0.842308 0.300920
O O13 0.852977 0.162702 0.680237
O O14 0.898433 0.000000 0.692347
O O15 0.801495 0.117428 0.961786
O O16 0.785503 0.500000 0.772378
O O17 0.772419 0.687109 0.746078
#
# Coordination Sequence:
#
# PCOD8078937 Si02
#       7
#     8   8   8   8   8   8   8
#     4   8  16  32  51  71  97 132 168 198 245 305
#     4  10  19  33  53  74 100 138 173 199 239 302
#     4  10  21  34  52  76 103 133 162 205 262 304
#     4  11  18  32  52  76 100 127 169 213 243 289
#     4  10  17  27  49  77 101 128 163 205 246 290
#     4   9  17  31  50  72 101 139 174 196 234 301
#     4  11  18  34  50  75 108 134 159 202 257 304
#
# _framework density 20.593658000000001
#
# number of rings (size 3 to 8) (size 9 to 14) (size 15 to 20)
#    0.000    2.143    2.857    5.143    0.000    0.571 
#    0.000    2.857    0.000    6.429    0.000    0.000 
#    0.000    0.000    0.000    0.000    0.000    0.000 
#
# Total GULP energy -347032.250130 kJ/mol
# GULP energy per Si atom -12394.008933 kJ/mol
# Density = 2.054679 g / cm^3
# Si number density = 20.593658 Si / 1000 Ang^3
#
#
#
# Elastic Constant Matrix: (Units=GPa)
#
#
# Indices 1 2 3 4 5 6 
#
# 1 15.2619 -3.5711 -13.4246 0.0000 -0.4837 0.0000
# 2 -3.5711 124.6438 17.4767 0.0000 1.5071 0.0000
# 3 -13.4246 17.4767 46.8493 0.0000 15.0837 0.0000
# 4 0.0000 0.0000 0.0000 26.0433 0.0000 0.7226
# 5 -0.4837 1.5071 15.0837 0.0000 23.1147 0.0000
# 6 0.0000 0.0000 0.0000 0.7226 0.0000 23.5869
#
#
#
# Elastic Compliance Matrix: (Units=1/GPa)
#
#
# Indices 1 2 3 4 5 6 
#
# 1 0.094671 -0.001860 0.034365 0.000000 -0.020323 0.000000
# 2 -0.001860 0.008569 -0.004478 0.000000 0.002325 0.000000
# 3 0.034365 -0.004478 0.041192 0.000000 -0.025869 0.000000
# 4 0.000000 0.000000 0.000000 0.038430 0.000000 -0.001177
# 5 -0.020323 0.002325 -0.025869 0.000000 0.059567 0.000000
# 6 0.000000 0.000000 0.000000 -0.001177 0.000000 0.042432
#
#
# Mechanical properties :
#
#
# Convention : Reuss Voigt Hill
#
# Bulk Modulus (GPa) = 4.98789 20.85744 12.92267
# Shear Modulus (GPa) = 16.91262 26.96725 21.93993
#
# Velocity S-wave (km/s) = 2.86886 3.62262 3.26755
# Velocity P-wave (km/s) = 3.66076 5.25813 4.53040
#
# Compressibility (1/GPa) = 0.20048546
#
# Stress axis : x y z
#
# Youngs Moduli (GPa) = 10.56287 116.69465 24.27668
#
# Poissons Ratio (x) = 0.21709 -0.83427
# Poissons Ratio (y) = 0.01965 0.10872
# Poissons Ratio (z) = -0.36299 0.52259
#
# Static dielectric constant tensor:
#      x y z
#    x 3.589940 0.000000 0.361170 
#    y 0.000000 3.891250 0.000000 
#    z 0.361170 0.000000 3.691360 
# 
# 
# High freq. dielectric constant tensor:
#      x y z
#    x 1.777150 0.000000 0.013560 
#    y 0.000000 1.805870 0.000000 
#    z 0.013560 0.000000 1.781180 
# 
# From -- ./inp_files/183439.got.cif
#   From: 2010.06.25/outbox.cif.g09.slc.cpg/sg12_92_cif.got.tgz:183439.got - 2010.06.28 00:19:55.
