data_PCOD8078806
_publ_section_title
;
Structure prediction by ZEFSAII (Michael W. Deem and Ramdas Pophale) SiO2 
 PCOD8078806
Probable space group: C 2/M
;
_chemical_formula_sum "Si O2"
_cell_formula_units_Z 64
_cell_length_a 28.846098
_cell_length_b 12.921654
_cell_length_c 10.768046
_cell_angle_alpha 90.000000
_cell_angle_beta 100.047689
_cell_angle_gamma 90.000000
_cell_volume 3952.115702
_symmetry_space_group_name_H-M "C 2/M"
_symmetry_group_IT_number 12
_symmetry_cell_setting 'monoclinic'
loop_
_space_group_symop_operation_xyz
x,y,z
-x,y,-z
-x,-y,-z
x,-y,z
1/2+x,1/2+y,z
1/2-x,1/2+y,-z
1/2-x,1/2-y,-z
1/2+x,1/2-y,z
loop_
_atom_site_type_symbol
_atom_site_label
_atom_site_fract_x
_atom_site_fract_y
_atom_site_fract_z
Si Si1 0.308455 0.686482 0.638530
Si Si2 0.099385 0.876575 0.797089
Si Si3 0.748955 0.115362 0.378488
Si Si4 0.200847 0.809906 0.842209
Si Si5 0.410447 0.619396 0.702216
Si Si6 0.735590 0.618489 0.124109
Si Si7 0.495008 0.612725 0.355897
Si Si8 0.948185 0.882052 0.983343
O O1 0.294680 0.806763 0.630347
O O2 0.283783 0.629153 0.511746
O O3 0.364168 0.680670 0.638894
O O4 0.296025 0.636486 0.767061
O O5 0.145872 0.813707 0.781605
O O6 0.055803 0.836338 0.691774
O O7 0.109265 0.000000 0.790258
O O8 0.084230 0.835526 0.924734
O O9 0.773200 0.128812 0.255621
O O10 0.728298 0.000000 0.374681
O O11 0.218335 0.691175 0.850234
O O12 0.207724 0.860234 0.982217
O O13 0.405445 0.500000 0.655913
O O14 0.458239 0.672307 0.669632
O O15 0.415176 0.629848 0.850467
O O16 0.752582 0.500000 0.131998
O O17 0.500000 0.594025 0.500000
O O18 0.494844 0.500000 0.286136
O O19 0.958139 0.000000 0.023689
O O20 0.000000 0.827492 0.000000
#
# Coordination Sequence:
#
# PCOD8078806 Si02
#       8
#     8   8   8   8   8   8   8   8
#     4  10  21  32  50  73  92 125 163 187 231 286
#     4  10  17  27  42  62  91 120 148 183 224 275
#     4  10  20  35  49  69  99 123 153 199 235 271
#     4  10  21  31  49  74  93 125 164 187 231 287
#     4  10  17  27  43  63  89 118 150 185 222 273
#     4  10  19  35  50  68  98 124 155 200 235 271
#     4   9  18  27  37  58  89 122 148 177 224 274
#     4   9  15  25  39  58  85 116 146 178 220 265
#
# _framework density 16.193857999999999
#
# number of rings (size 3 to 8) (size 9 to 14) (size 15 to 20)
#    0.000    2.250    1.250    3.000    1.750    1.000 
#    0.000    0.000    0.000    0.000    0.000    0.875 
#    0.000    2.000    0.000    0.000    0.000    0.000 
#
# Total GULP energy -396450.576512 kJ/mol
# GULP energy per Si atom -12389.080516 kJ/mol
# Density = 1.615700 g / cm^3
# Si number density = 16.193858 Si / 1000 Ang^3
#
#
#
# Elastic Constant Matrix: (Units=GPa)
#
#
# Indices 1 2 3 4 5 6 
#
# 1 127.7676 40.2790 26.3911 0.0000 23.3555 0.0000
# 2 40.2790 80.3678 21.8093 0.0000 7.8367 0.0000
# 3 26.3911 21.8093 91.2379 0.0000 4.5729 0.0000
# 4 0.0000 0.0000 0.0000 3.0413 0.0000 -9.2803
# 5 23.3555 7.8367 4.5729 0.0000 21.5012 0.0000
# 6 0.0000 0.0000 0.0000 -9.2803 0.0000 3.5998
#
#
#
# Elastic Compliance Matrix: (Units=1/GPa)
#
#
# Indices 1 2 3 4 5 6 
#
# 1 0.011450 -0.004232 -0.001773 0.000000 -0.010518 0.000000
# 2 -0.004232 0.015259 -0.002401 0.000000 -0.000455 0.000000
# 3 -0.001773 -0.002401 0.012035 0.000000 0.000242 0.000000
# 4 0.000000 0.000000 0.000000 -0.047885 0.000000 -0.123448
# 5 -0.010518 -0.000455 0.000242 0.000000 0.058048 0.000000
# 6 0.000000 0.000000 0.000000 -0.123448 0.000000 -0.040456
#
#
# Mechanical properties :
#
#
# Convention : Reuss Voigt Hill
#
# Bulk Modulus (GPa) = 45.59360 52.92580 49.25970
# Shear Modulus (GPa) = 153.50017 19.68806 86.59412
#
# Velocity S-wave (km/s) = 9.74653 3.49058 7.32049
# Velocity P-wave (km/s) = 12.44491 6.99994 10.09641
#
# Compressibility (1/GPa) = 0.02193290
#
# Stress axis : x y z
#
# Youngs Moduli (GPa) = 87.33958 65.53337 83.09068
#
# Poissons Ratio (x) = 0.27731 0.14734
# Poissons Ratio (y) = 0.36958 0.19948
# Poissons Ratio (z) = 0.15487 0.15733
#
# Static dielectric constant tensor:
#      x y z
#    x 3.169080 0.000000 -0.068250 
#    y 0.000000 2.684080 0.000000 
#    z -0.068250 0.000000 3.279820 
# 
# 
# High freq. dielectric constant tensor:
#      x y z
#    x 1.626900 0.000000 -0.002880 
#    y 0.000000 1.558590 0.000000 
#    z -0.002880 0.000000 1.646960 
# 
# From -- ./inp_files/182156.got.cif
#   From: 2010.06.25/outbox.cif.g09.slc.cpg/sg12_92_cif.got.tgz:182156.got - 2010.06.28 00:19:55.
