data_PCOD8078493
_publ_section_title
;
Structure prediction by ZEFSAII (Michael W. Deem and Ramdas Pophale) SiO2 
 PCOD8078493
Probable space group: C 2/M
;
_chemical_formula_sum "Si O2"
_cell_formula_units_Z 64
_cell_length_a 28.063946
_cell_length_b 9.240165
_cell_length_c 16.464304
_cell_angle_alpha 90.000000
_cell_angle_beta 82.029492
_cell_angle_gamma 90.000000
_cell_volume 4228.204391
_symmetry_space_group_name_H-M "C 2/M"
_symmetry_group_IT_number 12
_symmetry_cell_setting 'monoclinic'
loop_
_space_group_symop_operation_xyz
x,y,z
-x,y,-z
-x,-y,-z
x,-y,z
1/2+x,1/2+y,z
1/2-x,1/2+y,-z
1/2-x,1/2-y,-z
1/2+x,1/2-y,z
loop_
_atom_site_type_symbol
_atom_site_label
_atom_site_fract_x
_atom_site_fract_y
_atom_site_fract_z
Si Si1 0.232042 0.168024 0.925624
Si Si2 0.024274 0.333335 0.237760
Si Si3 0.877209 0.668403 0.691359
Si Si4 0.040071 0.671397 0.053688
Si Si5 0.864385 0.163832 0.975311
Si Si6 0.308692 0.329064 0.823222
Si Si7 0.076229 0.163766 0.453429
Si Si8 0.022746 0.837976 0.619906
O O1 0.173919 0.179326 0.941476
O O2 0.256452 0.250430 0.843596
O O3 0.248203 0.000000 0.923667
O O4 0.250000 0.250000 0.000000
O O5 0.010820 0.500000 0.240369
O O6 0.076067 0.304599 0.264782
O O7 0.025421 0.270468 0.146280
O O8 0.981294 0.258393 0.298385
O O9 0.863364 0.500000 0.690481
O O10 0.833830 0.760739 0.738785
O O11 0.886140 0.727461 0.597866
O O12 0.045275 0.500000 0.053221
O O13 0.091275 0.733598 0.014567
O O14 0.000000 0.724819 0.000000
O O15 0.883236 0.000000 0.964897
O O16 0.840236 0.207534 0.895307
O O17 0.301346 0.500000 0.813226
O O18 0.064989 0.216026 0.548580
O O19 0.027115 0.166940 0.415531
O O20 0.096849 0.000000 0.448637
O O21 0.034500 0.000000 0.645467
#
# Coordination Sequence:
#
# PCOD8078493 Si02
#       8
#     8   8   8   8   8   8   8   8
#     4   9  17  28  41  59  79 100 129 163 200 241
#     4   9  17  27  38  54  73  98 132 169 205 237
#     4  10  17  24  37  56  78 106 134 164 199 232
#     4  10  20  32  44  58  78 105 137 173 211 245
#     4   9  18  30  43  58  76 100 131 168 206 241
#     4  10  18  27  40  59  80 106 135 164 199 238
#     4   8  14  24  35  51  74  99 128 160 192 232
#     4   8  14  24  38  52  69  97 129 160 196 235
#
# _framework density 15.13645
#
# number of rings (size 3 to 8) (size 9 to 14) (size 15 to 20)
#    0.000    2.875    1.250    2.625    0.000    4.250 
#    0.000    2.500    0.000    0.000    0.000    0.000 
#    0.000    0.000    0.000    1.125    0.000   14.500 
#
# Total GULP energy -396585.529193 kJ/mol
# GULP energy per Si atom -12393.297787 kJ/mol
# Density = 1.510200 g / cm^3
# Si number density = 15.136450 Si / 1000 Ang^3
#
#
#
# Elastic Constant Matrix: (Units=GPa)
#
#
# Indices 1 2 3 4 5 6 
#
# 1 44.3501 30.8631 39.4020 0.0000 -14.5357 0.0000
# 2 30.8631 80.2216 54.1972 0.0000 -20.2957 0.0000
# 3 39.4020 54.1972 103.2398 0.0000 -31.5956 0.0000
# 4 0.0000 0.0000 0.0000 28.4821 0.0000 -10.4305
# 5 -14.5357 -20.2957 -31.5956 0.0000 22.5072 0.0000
# 6 0.0000 0.0000 0.0000 -10.4305 0.0000 17.6669
#
#
#
# Elastic Compliance Matrix: (Units=1/GPa)
#
#
# Indices 1 2 3 4 5 6 
#
# 1 0.036944 -0.006896 -0.008908 0.000000 0.005136 0.000000
# 2 -0.006896 0.021012 -0.006948 0.000000 0.004740 0.000000
# 3 -0.008908 -0.006948 0.022889 0.000000 0.020113 0.000000
# 4 0.000000 0.000000 0.000000 0.044795 0.000000 0.026447
# 5 0.005136 0.004740 0.020113 0.000000 0.080257 0.000000
# 6 0.000000 0.000000 0.000000 0.026447 0.000000 0.072217
#
#
# Mechanical properties :
#
#
# Convention : Reuss Voigt Hill
#
# Bulk Modulus (GPa) = 28.29544 52.97068 40.63306
# Shear Modulus (GPa) = 14.90772 20.62119 17.76446
#
# Velocity S-wave (km/s) = 3.14170 3.69501 3.42953
# Velocity P-wave (km/s) = 5.64752 7.29901 6.52572
#
# Compressibility (1/GPa) = 0.03534138
#
# Stress axis : x y z
#
# Youngs Moduli (GPa) = 27.06796 47.59287 43.68947
#
# Poissons Ratio (x) = 0.32818 0.38919
# Poissons Ratio (y) = 0.18665 0.30355
# Poissons Ratio (z) = 0.24112 0.33067
#
# Static dielectric constant tensor:
#      x y z
#    x 2.646620 0.000000 -0.429620 
#    y 0.000000 3.013480 0.000000 
#    z -0.429620 0.000000 3.210330 
# 
# 
# High freq. dielectric constant tensor:
#      x y z
#    x 1.517580 0.000000 -0.041250 
#    y 0.000000 1.588340 0.000000 
#    z -0.041250 0.000000 1.575320 
# 
# From -- ./inp_files/287603.got.cif
#   From: 2010.06.25/outbox.cif.g09.slc.cpg/sg12_144_cif.got.tgz:287603.got - 2010.06.28 00:19:55.
