data_PCOD8078796
_publ_section_title
;
Structure prediction by ZEFSAII (Michael W. Deem and Ramdas Pophale) SiO2 
 PCOD8078796
Probable space group: C 2/M
;
_chemical_formula_sum "Si O2"
_cell_formula_units_Z 48
_cell_length_a 24.543735
_cell_length_b 8.951946
_cell_length_c 15.195991
_cell_angle_alpha 90.000000
_cell_angle_beta 62.317444
_cell_angle_gamma 90.000000
_cell_volume 2956.602357
_symmetry_space_group_name_H-M "C 2/M"
_symmetry_group_IT_number 12
_symmetry_cell_setting 'monoclinic'
loop_
_space_group_symop_operation_xyz
x,y,z
-x,y,-z
-x,-y,-z
x,-y,z
1/2+x,1/2+y,z
1/2-x,1/2+y,-z
1/2-x,1/2-y,-z
1/2+x,1/2-y,z
loop_
_atom_site_type_symbol
_atom_site_label
_atom_site_fract_x
_atom_site_fract_y
_atom_site_fract_z
Si Si1 0.932237 0.324683 0.557756
Si Si2 0.295027 0.323512 0.163312
Si Si3 0.329323 0.827995 0.502343
Si Si4 0.686878 0.175021 0.019770
Si Si5 0.342801 0.825685 0.770884
Si Si6 0.709833 0.173064 0.657950
O O1 0.939984 0.500000 0.568028
O O2 0.895502 0.291817 0.495006
O O3 0.895044 0.253628 0.668843
O O4 0.000000 0.250416 0.500000
O O5 0.301796 0.500000 0.153313
O O6 0.336314 0.252224 0.053198
O O7 0.224906 0.264477 0.203792
O O8 0.319370 0.264053 0.238773
O O9 0.332735 0.795690 0.395485
O O10 0.279011 0.725294 0.586589
O O11 0.310286 0.000000 0.534322
O O12 0.696637 0.000000 0.996708
O O13 0.750000 0.250000 0.000000
O O14 0.641311 0.203433 0.137612
O O15 0.339980 0.000000 0.752356
O O16 0.711163 0.000000 0.681885
#
# Coordination Sequence:
#
# PCOD8078796 Si02
#       6
#     8   8   8   8   8   8
#     4   9  15  25  44  66  86 113 146 175 208 251
#     4  10  17  27  42  60  86 114 142 178 218 259
#     4   9  17  29  42  61  88 114 144 179 211 252
#     4   9  16  25  38  59  87 115 143 173 213 260
#     4   8  14  24  38  58  85 112 136 173 211 244
#     4  10  18  26  41  63  87 116 143 173 217 262
#
# _framework density 16.234852
#
# number of rings (size 3 to 8) (size 9 to 14) (size 15 to 20)
#    0.000    2.833    1.667    2.500    0.000    0.667 
#    0.000    0.000    0.000    0.500    0.000    1.167 
#    0.000    9.333    0.000    0.000    0.000    0.000 
#
# Total GULP energy -297384.774802 kJ/mol
# GULP energy per Si atom -12391.032283 kJ/mol
# Density = 1.619790 g / cm^3
# Si number density = 16.234852 Si / 1000 Ang^3
#
#
#
# Elastic Constant Matrix: (Units=GPa)
#
#
# Indices 1 2 3 4 5 6 
#
# 1 68.8635 19.4793 47.3420 0.0000 7.8459 0.0000
# 2 19.4793 62.3619 41.7478 0.0000 12.7166 0.0000
# 3 47.3420 41.7478 137.0810 0.0000 25.6754 0.0000
# 4 0.0000 0.0000 0.0000 24.8470 0.0000 6.5349
# 5 7.8459 12.7166 25.6754 0.0000 23.5884 0.0000
# 6 0.0000 0.0000 0.0000 6.5349 0.0000 11.3130
#
#
#
# Elastic Compliance Matrix: (Units=1/GPa)
#
#
# Indices 1 2 3 4 5 6 
#
# 1 0.019279 -0.002123 -0.006311 0.000000 0.001602 0.000000
# 2 -0.002123 0.020908 -0.004591 0.000000 -0.005568 0.000000
# 3 -0.006311 -0.004591 0.012581 0.000000 -0.009120 0.000000
# 4 0.000000 0.000000 0.000000 0.047456 0.000000 -0.027413
# 5 0.001602 -0.005568 -0.009120 0.000000 0.054789 0.000000
# 6 0.000000 0.000000 0.000000 -0.027413 0.000000 0.104229
#
#
# Mechanical properties :
#
#
# Convention : Reuss Voigt Hill
#
# Bulk Modulus (GPa) = 37.43194 53.93828 45.68511
# Shear Modulus (GPa) = 16.99536 22.59881 19.79708
#
# Velocity S-wave (km/s) = 3.23901 3.73499 3.49581
# Velocity P-wave (km/s) = 6.09055 7.20389 6.67049
#
# Compressibility (1/GPa) = 0.02671515
#
# Stress axis : x y z
#
# Youngs Moduli (GPa) = 51.87116 47.82946 79.48477
#
# Poissons Ratio (x) = 0.10156 0.50166
# Poissons Ratio (y) = 0.11014 0.36493
# Poissons Ratio (z) = 0.32738 0.21959
#
# Static dielectric constant tensor:
#      x y z
#    x 2.783810 0.000000 0.179270 
#    y 0.000000 2.938360 0.000000 
#    z 0.179270 0.000000 3.634450 
# 
# 
# High freq. dielectric constant tensor:
#      x y z
#    x 1.566310 0.000000 0.030800 
#    y 0.000000 1.606490 0.000000 
#    z 0.030800 0.000000 1.638340 
# 
# From -- ./inp_files/229962.got.cif
#   From: 2010.06.25/outbox.cif.g09.slc.cpg/sg12_115_cif.got.tgz:229962.got - 2010.06.28 00:19:55.
