data_PCOD8078222
_publ_section_title
;
Structure prediction by ZEFSAII (Michael W. Deem and Ramdas Pophale) SiO2 
 PCOD8078222
Probable space group: C 2/M
;
_chemical_formula_sum "Si O2"
_cell_formula_units_Z 56
_cell_length_a 29.187594
_cell_length_b 13.246953
_cell_length_c 9.597534
_cell_angle_alpha 90.000000
_cell_angle_beta 102.939366
_cell_angle_gamma 90.000000
_cell_volume 3616.627119
_symmetry_space_group_name_H-M "C 2/M"
_symmetry_group_IT_number 12
_symmetry_cell_setting 'monoclinic'
loop_
_space_group_symop_operation_xyz
x,y,z
-x,y,-z
-x,-y,-z
x,-y,z
1/2+x,1/2+y,z
1/2-x,1/2+y,-z
1/2-x,1/2-y,-z
1/2+x,1/2-y,z
loop_
_atom_site_type_symbol
_atom_site_label
_atom_site_fract_x
_atom_site_fract_y
_atom_site_fract_z
Si Si1 0.291519 0.113555 0.861246
Si Si2 0.380317 0.618476 0.164522
Si Si3 0.260789 0.884873 0.154351
Si Si4 0.948389 0.119400 0.444558
Si Si5 0.699602 0.307124 0.689911
Si Si6 0.135031 0.119064 0.416896
Si Si7 0.342769 0.307712 0.866288
O O1 0.248699 0.132798 0.726193
O O2 0.334196 0.187658 0.850929
O O3 0.310284 0.000000 0.859898
O O4 0.273349 0.139102 0.003526
O O5 0.382400 0.500000 0.140523
O O6 0.425526 0.656890 0.283283
O O7 0.333447 0.643756 0.216926
O O8 0.379816 0.672998 0.015274
O O9 0.291490 0.811640 0.273880
O O10 0.205560 0.866894 0.137863
O O11 0.273099 0.000000 0.202466
O O12 0.914762 0.150791 0.549553
O O13 0.000000 0.168814 0.500000
O O14 0.952936 0.000000 0.442144
O O15 0.677247 0.320882 0.521947
O O16 0.133140 0.151422 0.256204
O O17 0.144087 0.000000 0.440539
#
# Coordination Sequence:
#
# PCOD8078222 Si02
#       7
#     8   8   8   8   8   8   8
#     4  10  18  29  45  63  89 122 158 192 220 251
#     4  10  16  26  47  65  85 118 153 180 213 266
#     4  10  18  28  44  64  91 121 157 197 220 245
#     4   8  16  31  48  66  88 116 144 174 219 274
#     4  10  17  30  43  63  85 124 163 184 212 262
#     4  10  20  30  45  66  94 120 145 185 225 263
#     4  11  19  30  42  67  92 119 154 188 220 256
#
# _framework density 15.48404
#
# number of rings (size 3 to 8) (size 9 to 14) (size 15 to 20)
#    0.000    2.143    2.857    4.286    0.000    2.286 
#    0.000    2.857    0.000    3.429    0.000    0.000 
#    0.000   21.714    0.000    0.000    0.000    0.000 
#
# Total GULP energy -347165.558481 kJ/mol
# GULP energy per Si atom -12398.769946 kJ/mol
# Density = 1.544880 g / cm^3
# Si number density = 15.484040 Si / 1000 Ang^3
#
#
#
# Elastic Constant Matrix: (Units=GPa)
#
#
# Indices 1 2 3 4 5 6 
#
# 1 73.4093 24.5637 46.5741 0.0000 14.0005 0.0000
# 2 24.5637 65.3572 13.3785 0.0000 8.2531 0.0000
# 3 46.5741 13.3785 102.2920 0.0000 8.0905 0.0000
# 4 0.0000 0.0000 0.0000 21.1753 0.0000 -0.3768
# 5 14.0005 8.2531 8.0905 0.0000 20.1591 0.0000
# 6 0.0000 0.0000 0.0000 -0.3768 0.0000 12.9033
#
#
#
# Elastic Compliance Matrix: (Units=1/GPa)
#
#
# Indices 1 2 3 4 5 6 
#
# 1 0.023137 -0.005568 -0.009001 0.000000 -0.010177 0.000000
# 2 -0.005568 0.017745 0.000499 0.000000 -0.003598 0.000000
# 3 -0.009001 0.000499 0.013768 0.000000 0.000522 0.000000
# 4 0.000000 0.000000 0.000000 0.047249 0.000000 0.001380
# 5 -0.010177 -0.003598 0.000522 0.000000 0.057937 0.000000
# 6 0.000000 0.000000 0.000000 0.001380 0.000000 0.077540
#
#
# Mechanical properties :
#
#
# Convention : Reuss Voigt Hill
#
# Bulk Modulus (GPa) = 37.72268 45.56567 41.64418
# Shear Modulus (GPa) = 18.22463 21.28369 19.75416
#
# Velocity S-wave (km/s) = 3.43446 3.71152 3.57567
# Velocity P-wave (km/s) = 6.33581 6.91799 6.63329
#
# Compressibility (1/GPa) = 0.02650925
#
# Stress axis : x y z
#
# Youngs Moduli (GPa) = 43.22058 56.35232 72.63344
#
# Poissons Ratio (x) = 0.31378 0.65380
# Poissons Ratio (y) = 0.24066 -0.03624
# Poissons Ratio (z) = 0.38904 -0.02811
#
# Static dielectric constant tensor:
#      x y z
#    x 2.865500 0.000000 0.139950 
#    y 0.000000 2.928520 0.000000 
#    z 0.139950 0.000000 3.058710 
# 
# 
# High freq. dielectric constant tensor:
#      x y z
#    x 1.557740 0.000000 0.003360 
#    y 0.000000 1.578950 0.000000 
#    z 0.003360 0.000000 1.597430 
# 
# From -- ./inp_files/110827.got.cif
#   From: 2010.06.25/outbox.cif.g09.slc.cpg/sg12_56_cif.got.tgz:110827.got - 2010.06.28 00:19:55.
