data_PCOD8078926
_publ_section_title
;
Structure prediction by ZEFSAII (Michael W. Deem and Ramdas Pophale) SiO2 
 PCOD8078926
Probable space group: C 2/M
;
_chemical_formula_sum "Si O2"
_cell_formula_units_Z 48
_cell_length_a 23.652946
_cell_length_b 13.311359
_cell_length_c 20.121006
_cell_angle_alpha 90.000000
_cell_angle_beta 152.780818
_cell_angle_gamma 90.000000
_cell_volume 2897.673003
_symmetry_space_group_name_H-M "C 2/M"
_symmetry_group_IT_number 12
_symmetry_cell_setting 'monoclinic'
loop_
_space_group_symop_operation_xyz
x,y,z
-x,y,-z
-x,-y,-z
x,-y,z
1/2+x,1/2+y,z
1/2-x,1/2+y,-z
1/2-x,1/2-y,-z
1/2+x,1/2-y,z
loop_
_atom_site_type_symbol
_atom_site_label
_atom_site_fract_x
_atom_site_fract_y
_atom_site_fract_z
Si Si1 0.802602 0.202958 0.140746
Si Si2 0.880579 0.281865 0.666538
Si Si3 0.142023 0.117097 0.663907
Si Si4 0.603572 0.118750 0.843423
Si Si5 0.744884 0.384288 0.631552
Si Si6 0.022576 0.889356 0.300578
O O1 0.811301 0.189265 0.228783
O O2 0.842174 0.317674 0.162887
O O3 0.889966 0.123405 0.194818
O O4 0.666887 0.168564 0.974992
O O5 0.750000 0.250000 0.500000
O O6 0.858657 0.321567 0.718504
O O7 0.963343 0.181094 0.749625
O O8 0.955638 0.364178 0.700026
O O9 0.223978 0.147074 0.685737
O O10 0.000000 0.139514 0.500000
O O11 0.159411 0.000000 0.701001
O O12 0.629743 0.000000 0.860685
O O13 0.782301 0.500000 0.665679
O O14 0.620294 0.363181 0.460427
O O15 0.039830 0.000000 0.290712
#
# Coordination Sequence:
#
# PCOD8078926 Si02
#       6
#     8   8   8   8   8   8
#     4  10  19  31  49  76 101 129 162 200 247 299
#     4   9  18  30  45  66  92 129 164 201 241 291
#     4  10  17  27  48  73  98 129 164 204 247 294
#     4  10  20  33  51  73 102 132 162 206 253 292
#     4   9  16  26  43  67  93 123 159 200 245 287
#     4   9  15  26  45  68  92 119 159 204 240 282
#
# _framework density 16.565016
#
# number of rings (size 3 to 8) (size 9 to 14) (size 15 to 20)
#    0.000    2.500    1.667    2.000    0.000    0.667 
#    0.000    0.833    0.000    4.500    0.000    0.000 
#    0.000    8.000    0.000    0.000    0.000    0.000 
#
# Total GULP energy -297338.624287 kJ/mol
# GULP energy per Si atom -12389.109345 kJ/mol
# Density = 1.652731 g / cm^3
# Si number density = 16.565016 Si / 1000 Ang^3
#
#
#
# Elastic Constant Matrix: (Units=GPa)
#
#
# Indices 1 2 3 4 5 6 
#
# 1 123.4009 59.9044 34.0314 0.0000 -7.4975 0.0000
# 2 59.9044 104.8214 30.8345 0.0000 -8.0293 0.0000
# 3 34.0314 30.8345 47.0744 0.0000 -2.8570 0.0000
# 4 0.0000 0.0000 0.0000 17.9560 0.0000 -0.6155
# 5 -7.4975 -8.0293 -2.8570 0.0000 24.1892 0.0000
# 6 0.0000 0.0000 0.0000 -0.6155 0.0000 28.1846
#
#
#
# Elastic Compliance Matrix: (Units=1/GPa)
#
#
# Indices 1 2 3 4 5 6 
#
# 1 0.012229 -0.005334 -0.005262 0.000000 0.001398 0.000000
# 2 -0.005334 0.014368 -0.005405 0.000000 0.002478 0.000000
# 3 -0.005262 -0.005405 0.028585 0.000000 -0.000049 0.000000
# 4 0.000000 0.000000 0.000000 0.055734 0.000000 0.001217
# 5 0.001398 0.002478 -0.000049 0.000000 0.042591 0.000000
# 6 0.000000 0.000000 0.000000 0.001217 0.000000 0.035507
#
#
# Mechanical properties :
#
#
# Convention : Reuss Voigt Hill
#
# Bulk Modulus (GPa) = 43.14104 58.31525 50.72815
# Shear Modulus (GPa) = 21.85876 24.10105 22.97990
#
# Velocity S-wave (km/s) = 3.63653 3.81850 3.72863
# Velocity P-wave (km/s) = 6.61306 7.39740 7.01620
#
# Compressibility (1/GPa) = 0.02317978
#
# Stress axis : x y z
#
# Youngs Moduli (GPa) = 81.77237 69.59944 34.98399
#
# Poissons Ratio (x) = 0.37123 0.18409
# Poissons Ratio (y) = 0.43615 0.18909
# Poissons Ratio (z) = 0.43030 0.37618
#
# Static dielectric constant tensor:
#      x y z
#    x 3.333310 0.000000 0.211280 
#    y 0.000000 3.204410 0.000000 
#    z 0.211280 0.000000 3.114950 
# 
# 
# High freq. dielectric constant tensor:
#      x y z
#    x 1.628280 0.000000 0.023160 
#    y 0.000000 1.628670 0.000000 
#    z 0.023160 0.000000 1.621050 
# 
# From -- ./inp_files/164320.got.cif
#   From: 2010.06.25/outbox.cif.g09.slc.cpg/sg12_83_cif.got.tgz:164320.got - 2010.06.28 00:19:55.
