data_PCOD8078535
_publ_section_title
;
Structure prediction by ZEFSAII (Michael W. Deem and Ramdas Pophale) SiO2 
 PCOD8078535
Probable space group: C 2/M
;
_chemical_formula_sum "Si O2"
_cell_formula_units_Z 64
_cell_length_a 28.126241
_cell_length_b 9.024949
_cell_length_c 20.176282
_cell_angle_alpha 90.000000
_cell_angle_beta 125.893564
_cell_angle_gamma 90.000000
_cell_volume 4148.969512
_symmetry_space_group_name_H-M "C 2/M"
_symmetry_group_IT_number 12
_symmetry_cell_setting 'monoclinic'
loop_
_space_group_symop_operation_xyz
x,y,z
-x,y,-z
-x,-y,-z
x,-y,z
1/2+x,1/2+y,z
1/2-x,1/2+y,-z
1/2-x,1/2-y,-z
1/2+x,1/2-y,z
loop_
_atom_site_type_symbol
_atom_site_label
_atom_site_fract_x
_atom_site_fract_y
_atom_site_fract_z
Si Si1 0.687113 0.176172 0.448709
Si Si2 0.976657 0.325394 0.196398
Si Si3 0.393578 0.827134 0.737390
Si Si4 0.416987 0.333244 0.881746
Si Si5 0.529235 0.326912 0.673368
Si Si6 0.551951 0.331563 0.952472
Si Si7 0.566380 0.167397 0.578182
Si Si8 0.602025 0.673432 0.481029
O O1 0.750000 0.250000 0.500000
O O2 0.656144 0.222474 0.354669
O O3 0.650646 0.239676 0.479848
O O4 0.691740 0.000000 0.459779
O O5 0.970936 0.500000 0.201885
O O6 0.953164 0.242903 0.242080
O O7 0.936698 0.274315 0.101300
O O8 0.043682 0.273754 0.239410
O O9 0.379138 0.759695 0.797967
O O10 0.394987 0.000000 0.748922
O O11 0.393741 0.500000 0.858836
O O12 0.484420 0.323696 0.916962
O O13 0.410325 0.276256 0.952592
O O14 0.543586 0.500000 0.684742
O O15 0.569929 0.248160 0.651897
O O16 0.460915 0.296432 0.603370
O O17 0.569143 0.500000 0.948080
O O18 0.500000 0.164578 0.500000
O O19 0.604546 0.261535 0.557319
O O20 0.591033 0.000000 0.604063
O O21 0.617003 0.500000 0.495481
#
# Coordination Sequence:
#
# PCOD8078535 Si02
#       8
#     8   8   8   8   8   8   8   8
#     4  11  22  35  47  62  83 108 142 183 223 259
#     4  10  17  25  38  57  81 110 140 171 207 247
#     4   9  18  29  41  56  77 103 135 175 215 251
#     4   8  14  24  39  54  73 100 134 168 201 244
#     4  10  18  27  41  61  84 110 141 174 206 249
#     4   8  14  24  35  53  77 103 133 167 201 238
#     4   9  17  28  43  61  82 107 135 170 209 249
#     4  10  19  31  46  62  80 106 139 175 215 256
#
# _framework density 15.425516999999999
#
# number of rings (size 3 to 8) (size 9 to 14) (size 15 to 20)
#    0.000    2.625    1.250    2.625    0.000    4.500 
#    0.000    2.500    0.000    0.000    0.000    0.000 
#    0.000    0.000    0.000    1.125    0.000   15.250 
#
# Total GULP energy -396675.199940 kJ/mol
# GULP energy per Si atom -12396.099998 kJ/mol
# Density = 1.539041 g / cm^3
# Si number density = 15.425517 Si / 1000 Ang^3
#
#
#
# Elastic Constant Matrix: (Units=GPa)
#
#
# Indices 1 2 3 4 5 6 
#
# 1 58.2448 38.8064 51.9406 0.0000 -21.5465 0.0000
# 2 38.8064 77.9490 47.8747 0.0000 -19.7538 0.0000
# 3 51.9406 47.8747 101.4970 0.0000 -34.9874 0.0000
# 4 0.0000 0.0000 0.0000 27.2875 0.0000 -9.5320
# 5 -21.5465 -19.7538 -34.9874 0.0000 27.1646 0.0000
# 6 0.0000 0.0000 0.0000 -9.5320 0.0000 23.7925
#
#
#
# Elastic Compliance Matrix: (Units=1/GPa)
#
#
# Indices 1 2 3 4 5 6 
#
# 1 0.036441 -0.009014 -0.012037 0.000000 0.006847 0.000000
# 2 -0.009014 0.020522 -0.004294 0.000000 0.002243 0.000000
# 3 -0.012037 -0.004294 0.024586 0.000000 0.018996 0.000000
# 4 0.000000 0.000000 0.000000 0.042610 0.000000 0.017071
# 5 0.006847 0.002243 0.018996 0.000000 0.068341 0.000000
# 6 0.000000 0.000000 0.000000 0.017071 0.000000 0.048869
#
#
# Mechanical properties :
#
#
# Convention : Reuss Voigt Hill
#
# Bulk Modulus (GPa) = 32.40436 57.21491 44.80963
# Shear Modulus (GPa) = 16.53732 22.25354 19.39543
#
# Velocity S-wave (km/s) = 3.27781 3.80234 3.54977
# Velocity P-wave (km/s) = 5.94794 7.51323 6.77593
#
# Compressibility (1/GPa) = 0.03086005
#
# Stress axis : x y z
#
# Youngs Moduli (GPa) = 27.44124 48.72767 40.67378
#
# Poissons Ratio (x) = 0.43925 0.48958
# Poissons Ratio (y) = 0.24737 0.17464
# Poissons Ratio (z) = 0.33030 0.20922
#
# Static dielectric constant tensor:
#      x y z
#    x 2.523560 0.000000 -0.560170 
#    y 0.000000 3.064950 0.000000 
#    z -0.560170 0.000000 2.909570 
# 
# 
# High freq. dielectric constant tensor:
#      x y z
#    x 1.542600 0.000000 -0.045910 
#    y 0.000000 1.603750 0.000000 
#    z -0.045910 0.000000 1.576420 
# 
# From -- ./inp_files/323775.got.cif
#   From: 2010.06.25/outbox.cif.g09.slc.cpg/sg12_162_cif.got.tgz:323775.got - 2010.06.28 00:19:55.
