data_PCOD8078402
_publ_section_title
;
Structure prediction by ZEFSAII (Michael W. Deem and Ramdas Pophale) SiO2 
 PCOD8078402
Probable space group: C 2/M
;
_chemical_formula_sum "Si O2"
_cell_formula_units_Z 56
_cell_length_a 15.844322
_cell_length_b 28.713549
_cell_length_c 9.392074
_cell_angle_alpha 90.000000
_cell_angle_beta 56.065501
_cell_angle_gamma 90.000000
_cell_volume 3545.118260
_symmetry_space_group_name_H-M "C 2/M"
_symmetry_group_IT_number 12
_symmetry_cell_setting 'monoclinic'
loop_
_space_group_symop_operation_xyz
x,y,z
-x,y,-z
-x,-y,-z
x,-y,z
1/2+x,1/2+y,z
1/2-x,1/2+y,-z
1/2-x,1/2-y,-z
1/2+x,1/2-y,z
loop_
_atom_site_type_symbol
_atom_site_label
_atom_site_fract_x
_atom_site_fract_y
_atom_site_fract_z
Si Si1 0.899051 0.760998 0.009247
Si Si2 0.900780 0.788764 0.679539
Si Si3 0.394225 0.874404 0.817726
Si Si4 0.120560 0.551652 0.393832
Si Si5 0.200366 0.338720 0.834484
Si Si6 0.697740 0.802590 0.297508
Si Si7 0.364315 0.871700 0.406802
O O1 0.863742 0.708491 0.078230
O O2 0.815564 0.797246 0.145131
O O3 0.919483 0.770468 0.822717
O O4 0.000000 0.772273 0.000000
O O5 0.819555 0.830848 0.753997
O O6 0.853249 0.747434 0.630236
O O7 0.000000 0.805910 0.500000
O O8 0.350152 0.918391 0.772307
O O9 0.359131 0.826714 0.779079
O O10 0.514727 0.869827 0.714958
O O11 0.343746 0.878121 0.019410
O O12 0.169720 0.500000 0.343473
O O13 0.161304 0.578103 0.497449
O O14 0.000000 0.547762 0.500000
O O15 0.186577 0.363425 0.696268
O O16 0.683376 0.830708 0.455029
#
# Coordination Sequence:
#
# PCOD8078402 Si02
#       7
#     8   8   8   8   8   8   8
#     4  11  22  33  47  66  97 132 167 214 237 268
#     4  11  22  34  48  64  97 134 166 208 244 273
#     4  10  16  32  49  69  96 131 161 192 238 278
#     4   8  16  31  50  72  98 126 156 189 236 294
#     4  11  21  33  46  70 100 126 170 204 235 279
#     4  10  19  33  47  65  94 130 170 200 233 278
#     4  10  20  28  51  74  94 131 160 196 233 294
#
# _framework density 15.79637
#
# number of rings (size 3 to 8) (size 9 to 14) (size 15 to 20)
#    0.000    1.857    2.857    4.286    4.000    1.143 
#    0.000    0.714    0.000    3.429    0.000    0.000 
#    0.000   21.714    0.000    0.000    0.000    0.000 
#
# Total GULP energy -347023.917835 kJ/mol
# GULP energy per Si atom -12393.711351 kJ/mol
# Density = 1.576042 g / cm^3
# Si number density = 15.796370 Si / 1000 Ang^3
#
#
#
# Elastic Constant Matrix: (Units=GPa)
#
#
# Indices 1 2 3 4 5 6 
#
# 1 78.4491 27.7958 40.7897 0.0000 4.9082 0.0000
# 2 27.7958 76.6077 42.9702 0.0000 5.9976 0.0000
# 3 40.7897 42.9702 118.7333 0.0000 9.8221 0.0000
# 4 0.0000 0.0000 0.0000 16.8810 0.0000 2.5396
# 5 4.9082 5.9976 9.8221 0.0000 33.8031 0.0000
# 6 0.0000 0.0000 0.0000 2.5396 0.0000 12.3894
#
#
#
# Elastic Compliance Matrix: (Units=1/GPa)
#
#
# Indices 1 2 3 4 5 6 
#
# 1 0.016228 -0.003444 -0.004287 0.000000 -0.000499 0.000000
# 2 -0.003444 0.017158 -0.004934 0.000000 -0.001110 0.000000
# 3 -0.004287 -0.004934 0.011842 0.000000 -0.001943 0.000000
# 4 0.000000 0.000000 0.000000 0.061123 0.000000 -0.012529
# 5 -0.000499 -0.001110 -0.001943 0.000000 0.030417 0.000000
# 6 0.000000 0.000000 0.000000 -0.012529 0.000000 0.083282
#
#
# Mechanical properties :
#
#
# Convention : Reuss Voigt Hill
#
# Bulk Modulus (GPa) = 50.26201 55.21128 52.73665
# Shear Modulus (GPa) = 19.84022 23.43033 21.63527
#
# Velocity S-wave (km/s) = 3.54785 3.85551 3.70487
# Velocity P-wave (km/s) = 6.97645 7.40592 7.19439
#
# Compressibility (1/GPa) = 0.01989574
#
# Stress axis : x y z
#
# Youngs Moduli (GPa) = 61.62273 58.28210 84.44827
#
# Poissons Ratio (x) = 0.20073 0.36204
# Poissons Ratio (y) = 0.21224 0.41671
# Poissons Ratio (z) = 0.26418 0.28759
#
# Static dielectric constant tensor:
#      x y z
#    x 3.019890 0.000000 -0.480810 
#    y 0.000000 3.031130 0.000000 
#    z -0.480810 0.000000 6.074450 
# 
# 
# High freq. dielectric constant tensor:
#      x y z
#    x 1.592700 0.000000 0.011120 
#    y 0.000000 1.574240 0.000000 
#    z 0.011120 0.000000 1.616630 
# 
# From -- ./inp_files/67085.got.cif
#   From: 2010.06.25/outbox.cif.g09.slc.cpg/sg12_34_cif.got.tgz:67085.got - 2010.06.28 00:19:55.
