data_PCOD8078722
_publ_section_title
;
Structure prediction by ZEFSAII (Michael W. Deem and Ramdas Pophale) SiO2 
 PCOD8078722
Probable space group: C 2/M
;
_chemical_formula_sum "Si O2"
_cell_formula_units_Z 48
_cell_length_a 19.702236
_cell_length_b 25.333888
_cell_length_c 8.930788
_cell_angle_alpha 90.000000
_cell_angle_beta 28.028242
_cell_angle_gamma 90.000000
_cell_volume 2094.685389
_symmetry_space_group_name_H-M "C 2/M"
_symmetry_group_IT_number 12
_symmetry_cell_setting 'monoclinic'
loop_
_space_group_symop_operation_xyz
x,y,z
-x,y,-z
-x,-y,-z
x,-y,z
1/2+x,1/2+y,z
1/2-x,1/2+y,-z
1/2-x,1/2-y,-z
1/2+x,1/2-y,z
loop_
_atom_site_type_symbol
_atom_site_label
_atom_site_fract_x
_atom_site_fract_y
_atom_site_fract_z
Si Si1 0.736004 0.199216 0.250386
Si Si2 0.572574 0.694457 0.600258
Si Si3 0.202083 0.120459 0.110083
Si Si4 0.720519 0.366968 0.574352
Si Si5 0.775486 0.558392 0.226515
Si Si6 0.431593 0.441490 0.896262
O O1 0.656903 0.254010 0.381895
O O2 0.679887 0.168420 0.508800
O O3 0.707037 0.163432 0.160608
O O4 0.906203 0.209253 0.941739
O O5 0.586770 0.649894 0.444327
O O6 0.632663 0.672785 0.639240
O O7 0.316622 0.088311 0.991747
O O8 0.122531 0.078503 0.159094
O O9 0.822368 0.406407 0.278916
O O10 0.612351 0.401053 0.888400
O O11 0.846153 0.500000 0.096677
O O12 0.602742 0.554564 0.564587
O O13 0.366317 0.500000 0.053540
#
# Coordination Sequence:
#
# PCOD8078722 Si02
#       6
#     8   8   8   8   8   8
#     4  11  21  34  51  71  99 132 166 202 242 286
#     4  11  21  34  51  71  99 132 166 202 242 286
#     4  10  19  31  46  68 100 133 160 197 247 290
#     4  10  19  31  46  68 100 133 160 197 247 290
#     4  10  17  26  43  68  99 132 161 191 239 301
#     4  10  17  26  43  68  99 132 161 191 239 301
#
# _framework density 22.915134999999999
#
# number of rings (size 3 to 8) (size 9 to 14) (size 15 to 20)
#    0.000    1.667    0.000   10.000    0.000    2.667 
#    0.000    0.000    0.000    0.000    0.000    0.000 
#    0.000   93.333    0.000    0.000    0.000    0.000 
#
# Total GULP energy -297500.972549 kJ/mol
# GULP energy per Si atom -12395.873856 kJ/mol
# Density = 2.286298 g / cm^3
# Si number density = 22.915135 Si / 1000 Ang^3
#
#
#
# Elastic Constant Matrix: (Units=GPa)
#
#
# Indices 1 2 3 4 5 6 
#
# 1 61.2528 8.0746 22.3233 0.0122 35.6194 -0.0145
# 2 8.0746 119.9502 22.8768 0.0030 1.0461 -0.0086
# 3 22.3233 22.8768 26.1029 0.0181 18.2561 -0.0109
# 4 0.0122 0.0030 0.0181 26.4425 -0.0115 8.5582
# 5 35.6194 1.0461 18.2561 -0.0115 29.1569 0.0118
# 6 -0.0145 -0.0086 -0.0109 8.5582 0.0118 22.3205
#
#
#
# Elastic Compliance Matrix: (Units=1/GPa)
#
#
# Indices 1 2 3 4 5 6 
#
# 1 0.058113 -0.004558 0.006821 -0.000102 -0.075101 0.000118
# 2 -0.004558 0.011951 -0.018094 0.000029 0.016468 -0.000027
# 3 0.006821 -0.018094 0.095551 -0.000139 -0.067511 0.000133
# 4 -0.000102 0.000029 -0.000139 0.043176 0.000234 -0.016555
# 5 -0.075101 0.016468 -0.067511 0.000234 0.167724 -0.000254
# 6 0.000118 -0.000027 0.000133 -0.016555 -0.000254 0.051150
#
#
# Mechanical properties :
#
#
# Convention : Reuss Voigt Hill
#
# Bulk Modulus (GPa) = 7.46531 34.87282 21.16907
# Shear Modulus (GPa) = 9.92109 25.85273 17.88691
#
# Velocity S-wave (km/s) = 2.08300 3.36250 2.79690
# Velocity P-wave (km/s) = 3.00833 5.50695 4.43715
#
# Compressibility (1/GPa) = 0.13395294
#
# Stress axis : x y z
#
# Youngs Moduli (GPa) = 17.20790 83.67632 10.46563
#
# Poissons Ratio (x) = 0.38138 -0.07138
# Poissons Ratio (y) = 0.07843 0.18936
# Poissons Ratio (z) = -0.11737 1.51402
#
# Static dielectric constant tensor:
#      x y z
#    x 4.318900 -0.000010 0.742980 
#    y -0.000010 5.055810 0.000030 
#    z 0.742980 0.000030 3.616080 
# 
# 
# High freq. dielectric constant tensor:
#      x y z
#    x 1.903860 0.000000 0.053820 
#    y 0.000000 1.930780 0.000000 
#    z 0.053820 0.000000 1.846860 
# 
# From -- ./inp_files/91165.got.cif
#   From: 2010.06.25/outbox.cif.g09.slc.cpg/sg12_46_cif.got.tgz:91165.got - 2010.06.28 00:19:55.
