data_PCOD8078794
_publ_section_title
;
Structure prediction by ZEFSAII (Michael W. Deem and Ramdas Pophale) SiO2 
 PCOD8078794
Probable space group: C 2/M
;
_chemical_formula_sum "Si O2"
_cell_formula_units_Z 64
_cell_length_a 28.250432
_cell_length_b 8.959071
_cell_length_c 16.347144
_cell_angle_alpha 90.000000
_cell_angle_beta 82.063680
_cell_angle_gamma 90.000000
_cell_volume 4097.795668
_symmetry_space_group_name_H-M "C 2/M"
_symmetry_group_IT_number 12
_symmetry_cell_setting 'monoclinic'
loop_
_space_group_symop_operation_xyz
x,y,z
-x,y,-z
-x,-y,-z
x,-y,z
1/2+x,1/2+y,z
1/2-x,1/2+y,-z
1/2-x,1/2-y,-z
1/2+x,1/2-y,z
loop_
_atom_site_type_symbol
_atom_site_label
_atom_site_fract_x
_atom_site_fract_y
_atom_site_fract_z
Si Si1 0.775140 0.668464 0.612542
Si Si2 0.725668 0.175225 0.765901
Si Si3 0.974128 0.668651 0.919532
Si Si4 0.107767 0.826725 0.981269
Si Si5 0.941479 0.175283 0.176169
Si Si6 0.282841 0.676306 0.059597
Si Si7 0.177167 0.168277 0.537079
Si Si8 0.629826 0.175015 0.691866
O O1 0.790585 0.500000 0.631035
O O2 0.767036 0.762569 0.696885
O O3 0.817264 0.746360 0.550508
O O4 0.727296 0.667263 0.571228
O O5 0.731389 0.257469 0.850021
O O6 0.673926 0.212729 0.740988
O O7 0.733246 0.000000 0.775992
O O8 0.969757 0.500000 0.888619
O O9 0.921238 0.737132 0.942290
O O10 0.004664 0.763614 0.847072
O O11 0.000000 0.677315 0.000000
O O12 0.098425 0.000000 0.999419
O O13 0.090066 0.782225 0.895218
O O14 0.162863 0.782395 0.975805
O O15 0.918049 0.254535 0.259719
O O16 0.943182 0.000000 0.191331
O O17 0.275026 0.500000 0.063882
O O18 0.250000 0.750000 0.000000
O O19 0.138060 0.253413 0.600970
O O20 0.159572 0.000000 0.524676
O O21 0.623039 0.000000 0.682283
#
# Coordination Sequence:
#
# PCOD8078794 Si02
#       8
#     8   8   8   8   8   8   8   8
#     4   9  16  26  40  56  77 104 137 174 209 248
#     4  10  19  30  44  60  79 107 141 178 218 257
#     4   9  17  27  41  61  82 104 135 172 210 251
#     4   9  18  31  45  59  79 107 139 175 215 258
#     4  10  17  27  42  60  83 111 142 173 210 253
#     4  11  22  35  48  64  84 109 144 184 225 262
#     4   9  16  25  37  55  79 107 139 171 206 247
#     4  10  18  26  39  59  84 111 142 176 211 249
#
# _framework density 15.618152
#
# number of rings (size 3 to 8) (size 9 to 14) (size 15 to 20)
#    0.000    2.375    1.250    2.625    0.000    7.000 
#    0.000    0.000    0.000    0.000    0.000    0.000 
#    0.000    0.000    0.000    1.125    0.000   20.750 
#
# Total GULP energy -396826.628716 kJ/mol
# GULP energy per Si atom -12400.832147 kJ/mol
# Density = 1.558260 g / cm^3
# Si number density = 15.618152 Si / 1000 Ang^3
#
#
#
# Elastic Constant Matrix: (Units=GPa)
#
#
# Indices 1 2 3 4 5 6 
#
# 1 63.9857 41.9721 52.0294 0.0000 -23.9417 0.0000
# 2 41.9721 103.6210 55.9359 0.0000 -22.8673 0.0000
# 3 52.0294 55.9359 91.7751 0.0000 -33.4387 0.0000
# 4 0.0000 0.0000 0.0000 30.0099 0.0000 -10.1318
# 5 -23.9417 -22.8673 -33.4387 0.0000 28.6249 0.0000
# 6 0.0000 0.0000 0.0000 -10.1318 0.0000 22.8139
#
#
#
# Elastic Compliance Matrix: (Units=1/GPa)
#
#
# Indices 1 2 3 4 5 6 
#
# 1 0.031575 -0.004341 -0.012006 0.000000 0.008916 0.000000
# 2 -0.004341 0.015058 -0.006366 0.000000 0.000961 0.000000
# 3 -0.012006 -0.006366 0.027980 0.000000 0.017558 0.000000
# 4 0.000000 0.000000 0.000000 0.039200 0.000000 0.017409
# 5 0.008916 0.000961 0.017558 0.000000 0.063671 0.000000
# 6 0.000000 0.000000 0.000000 0.017409 0.000000 0.051564
#
#
# Mechanical properties :
#
#
# Convention : Reuss Voigt Hill
#
# Bulk Modulus (GPa) = 34.26273 62.13961 48.20117
# Shear Modulus (GPa) = 17.59310 23.58604 20.58957
#
# Velocity S-wave (km/s) = 3.35991 3.89030 3.63479
# Velocity P-wave (km/s) = 6.08583 7.74935 6.96742
#
# Compressibility (1/GPa) = 0.02918624
#
# Stress axis : x y z
#
# Youngs Moduli (GPa) = 31.67090 66.41192 35.73954
#
# Poissons Ratio (x) = 0.28828 0.42909
# Poissons Ratio (y) = 0.13748 0.22752
# Poissons Ratio (z) = 0.38025 0.42279
#
# Static dielectric constant tensor:
#      x y z
#    x 2.686660 0.000000 -0.384700 
#    y 0.000000 3.150310 0.000000 
#    z -0.384700 0.000000 2.837840 
# 
# 
# High freq. dielectric constant tensor:
#      x y z
#    x 1.554620 0.000000 -0.047480 
#    y 0.000000 1.620190 0.000000 
#    z -0.047480 0.000000 1.576130 
# 
# From -- ./inp_files/248398.got.cif
#   From: 2010.06.25/outbox.cif.g09.slc.cpg/sg12_125_cif.got.tgz:248398.got - 2010.06.28 00:19:55.
