data_PCOD8078518
_publ_section_title
;
Structure prediction by ZEFSAII (Michael W. Deem and Ramdas Pophale) SiO2 
 PCOD8078518
Probable space group: C 2/M
;
_chemical_formula_sum "Si O2"
_cell_formula_units_Z 48
_cell_length_a 20.895044
_cell_length_b 13.336894
_cell_length_c 21.937518
_cell_angle_alpha 90.000000
_cell_angle_beta 32.044114
_cell_angle_gamma 90.000000
_cell_volume 3243.619081
_symmetry_space_group_name_H-M "C 2/M"
_symmetry_group_IT_number 12
_symmetry_cell_setting 'monoclinic'
loop_
_space_group_symop_operation_xyz
x,y,z
-x,y,-z
-x,-y,-z
x,-y,z
1/2+x,1/2+y,z
1/2-x,1/2+y,-z
1/2-x,1/2-y,-z
1/2+x,1/2-y,z
loop_
_atom_site_type_symbol
_atom_site_label
_atom_site_fract_x
_atom_site_fract_y
_atom_site_fract_z
Si Si1 0.164962 0.882777 0.582917
Si Si2 0.598066 0.204666 0.561077
Si Si3 0.590249 0.620189 0.979047
Si Si4 0.144951 0.616857 0.264740
Si Si5 0.933245 0.886282 0.211595
Si Si6 0.172615 0.387010 0.380824
O O1 0.307796 0.864400 0.477361
O O2 0.116162 0.821069 0.564439
O O3 0.094448 0.838446 0.699722
O O4 0.142512 0.000000 0.589339
O O5 0.461130 0.171820 0.687063
O O6 0.619468 0.192244 0.471587
O O7 0.588426 0.500000 0.978791
O O8 0.725482 0.661562 0.859946
O O9 0.500000 0.661828 0.000000
O O10 0.543226 0.660537 0.083363
O O11 0.140625 0.500000 0.252977
O O12 0.121612 0.636177 0.355299
O O13 0.817035 0.879369 0.261495
O O14 0.965462 0.000000 0.200447
O O15 0.135432 0.500000 0.431749
#
# Coordination Sequence:
#
# PCOD8078518 Si02
#       6
#     8   8   8   8   8   8
#     4   9  18  31  44  55  77 113 142 167 195 231
#     4  10  18  27  41  62  81 105 140 167 196 240
#     4   9  14  22  37  60  87 110 127 150 197 253
#     4  10  17  24  39  64  91 109 125 161 209 248
#     4   8  13  24  40  57  78 107 137 156 189 243
#     4   9  15  24  40  61  87 110 127 159 206 250
#
# _framework density 14.798285
#
# number of rings (size 3 to 8) (size 9 to 14) (size 15 to 20)
#    0.000    2.833    1.667    3.000    0.000    1.333 
#    0.000    0.833    0.000    2.000    0.000    0.000 
#    0.000    0.667    0.000    1.500    0.000    0.000 
#
# Total GULP energy -297378.599915 kJ/mol
# GULP energy per Si atom -12390.774996 kJ/mol
# Density = 1.476460 g / cm^3
# Si number density = 14.798285 Si / 1000 Ang^3
#
#
#
# Elastic Constant Matrix: (Units=GPa)
#
#
# Indices 1 2 3 4 5 6 
#
# 1 63.6082 35.0622 48.7953 0.0000 -4.7807 0.0000
# 2 35.0622 52.0497 32.7887 -0.0001 0.7615 0.0000
# 3 48.7953 32.7887 107.4098 0.0001 -9.4353 -0.0001
# 4 0.0000 -0.0001 0.0001 8.1233 -0.0001 -3.9370
# 5 -4.7807 0.7615 -9.4353 -0.0001 20.5132 0.0001
# 6 0.0000 0.0000 -0.0001 -3.9370 0.0001 17.7456
#
#
#
# Elastic Compliance Matrix: (Units=1/GPa)
#
#
# Indices 1 2 3 4 5 6 
#
# 1 0.031738 -0.015543 -0.009351 0.000000 0.003673 0.000000
# 2 -0.015543 0.031786 -0.003193 0.000000 -0.006271 0.000000
# 3 -0.009351 -0.003193 0.014956 0.000000 0.004819 0.000000
# 4 0.000000 0.000000 0.000000 0.137934 0.000000 0.030602
# 5 0.003673 -0.006271 0.004819 0.000000 0.052054 0.000000
# 6 0.000000 0.000000 0.000000 0.030602 0.000000 0.063141
#
#
# Mechanical properties :
#
#
# Convention : Reuss Voigt Hill
#
# Bulk Modulus (GPa) = 44.83033 50.70668 47.76851
# Shear Modulus (GPa) = 12.65122 16.37118 14.51120
#
# Velocity S-wave (km/s) = 2.92706 3.32970 3.13485
# Velocity P-wave (km/s) = 6.46402 7.00872 6.74188
#
# Compressibility (1/GPa) = 0.02230633
#
# Stress axis : x y z
#
# Youngs Moduli (GPa) = 31.50771 31.46062 66.86168
#
# Poissons Ratio (x) = 0.48899 0.62523
# Poissons Ratio (y) = 0.48972 0.21349
# Poissons Ratio (z) = 0.29463 0.10045
#
# Static dielectric constant tensor:
#      x y z
#    x 2.780200 0.000000 0.020070 
#    y 0.000000 2.401500 0.000000 
#    z 0.020070 0.000000 3.147650 
# 
# 
# High freq. dielectric constant tensor:
#      x y z
#    x 1.552760 0.000000 -0.002100 
#    y 0.000000 1.500740 0.000000 
#    z -0.002100 0.000000 1.579630 
# 
# From -- ./inp_files/153652.got.cif
#   From: 2010.06.25/outbox.cif.g09.slc.cpg/sg12_77_cif.got.tgz:153652.got - 2010.06.28 00:19:55.
