data_PCOD8078358
_publ_section_title
;
Structure prediction by ZEFSAII (Michael W. Deem and Ramdas Pophale) SiO2 
 PCOD8078358
Probable space group: C 2/M
;
_chemical_formula_sum "Si O2"
_cell_formula_units_Z 48
_cell_length_a 9.552398
_cell_length_b 27.903336
_cell_length_c 10.777719
_cell_angle_alpha 90.000000
_cell_angle_beta 89.514101
_cell_angle_gamma 90.000000
_cell_volume 2872.630563
_symmetry_space_group_name_H-M "C 2/M"
_symmetry_group_IT_number 12
_symmetry_cell_setting 'monoclinic'
loop_
_space_group_symop_operation_xyz
x,y,z
-x,y,-z
-x,-y,-z
x,-y,z
1/2+x,1/2+y,z
1/2-x,1/2+y,-z
1/2-x,1/2-y,-z
1/2+x,1/2-y,z
loop_
_atom_site_type_symbol
_atom_site_label
_atom_site_fract_x
_atom_site_fract_y
_atom_site_fract_z
Si Si1 0.587345 0.602180 0.619443
Si Si2 0.697962 0.357311 0.081462
Si Si3 0.632764 0.771605 0.915131
Si Si4 0.657491 0.055572 0.513762
Si Si5 0.599579 0.326970 0.826079
Si Si6 0.332268 0.555194 0.754502
O O1 0.500000 0.618245 0.500000
O O2 0.733367 0.577151 0.585339
O O3 0.632780 0.649391 0.694057
O O4 0.487820 0.567526 0.702669
O O5 0.822221 0.323902 0.137369
O O6 0.559411 0.335024 0.137807
O O7 0.710940 0.412364 0.126390
O O8 0.696835 0.352169 0.931488
O O9 0.614485 0.730684 0.809964
O O10 0.500000 0.779814 0.000000
O O11 0.750000 0.750000 0.000000
O O12 0.500000 0.077460 0.500000
O O13 0.714589 0.064783 0.651611
O O14 0.651538 0.000000 0.482230
O O15 0.332379 0.500000 0.797570
#
# Coordination Sequence:
#
# PCOD8078358 Si02
#       6
#     8   8   8   8   8   8
#     4   9  17  30  51  72  92 125 164 196 234 280
#     4   9  17  30  48  74  98 124 157 195 242 279
#     4  10  16  30  50  71  93 124 161 192 230 282
#     4   9  17  31  48  67  94 127 164 200 234 277
#     4   9  16  30  49  72 100 120 155 204 235 278
#     4   9  17  31  51  71  96 127 161 198 232 280
#
# _framework density 16.709422
#
# number of rings (size 3 to 8) (size 9 to 14) (size 15 to 20)
#    0.000    2.833    3.333    0.500    0.000    2.000 
#    6.000    7.500    0.000   10.500    0.000    0.000 
#    0.000    0.000    0.000    0.000    0.000    0.000 
#
# Total GULP energy -297334.887038 kJ/mol
# GULP energy per Si atom -12388.953627 kJ/mol
# Density = 1.667139 g / cm^3
# Si number density = 16.709422 Si / 1000 Ang^3
#
#
#
# Elastic Constant Matrix: (Units=GPa)
#
#
# Indices 1 2 3 4 5 6 
#
# 1 97.0562 41.7261 23.7135 0.0000 1.7647 0.0000
# 2 41.7261 134.0694 54.4303 0.0000 -0.6499 0.0000
# 3 23.7135 54.4303 67.6819 0.0000 -1.9752 0.0000
# 4 0.0000 0.0000 0.0000 30.4394 0.0000 0.8976
# 5 1.7647 -0.6499 -1.9752 0.0000 10.4802 0.0000
# 6 0.0000 0.0000 0.0000 0.8976 0.0000 25.6204
#
#
#
# Elastic Compliance Matrix: (Units=1/GPa)
#
#
# Indices 1 2 3 4 5 6 
#
# 1 0.012108 -0.003011 -0.001896 0.000000 -0.002583 0.000000
# 2 -0.003011 0.011834 -0.008472 0.000000 -0.000356 0.000000
# 3 -0.001896 -0.008472 0.022370 0.000000 0.004010 0.000000
# 4 0.000000 0.000000 0.000000 0.032886 0.000000 -0.001152
# 5 -0.002583 -0.000356 0.004010 0.000000 0.096587 0.000000
# 6 0.000000 0.000000 0.000000 -0.001152 0.000000 0.039072
#
#
# Mechanical properties :
#
#
# Convention : Reuss Voigt Hill
#
# Bulk Modulus (GPa) = 51.14357 59.83860 55.49108
# Shear Modulus (GPa) = 20.15049 25.23718 22.69384
#
# Velocity S-wave (km/s) = 3.47643 3.89055 3.68930
# Velocity P-wave (km/s) = 6.84018 7.48805 7.17144
#
# Compressibility (1/GPa) = 0.01955280
#
# Stress axis : x y z
#
# Youngs Moduli (GPa) = 82.58959 84.50330 44.70306
#
# Poissons Ratio (x) = 0.25445 0.08476
# Poissons Ratio (y) = 0.24869 0.37874
# Poissons Ratio (z) = 0.15660 0.71594
#
# Static dielectric constant tensor:
#      x y z
#    x 3.366310 0.000000 0.113410 
#    y 0.000000 3.958360 0.000000 
#    z 0.113410 0.000000 3.126310 
# 
# 
# High freq. dielectric constant tensor:
#      x y z
#    x 1.644300 0.000000 0.004010 
#    y 0.000000 1.640550 0.000000 
#    z 0.004010 0.000000 1.612270 
# 
# From -- ./inp_files/123083.got.cif
#   From: 2010.06.25/outbox.cif.g09.slc.cpg/sg12_62_cif.got.tgz:123083.got - 2010.06.28 00:19:55.
