data_PCOD8078572
_publ_section_title
;
Structure prediction by ZEFSAII (Michael W. Deem and Ramdas Pophale) SiO2 
 PCOD8078572
Probable space group: C 2/M
;
_chemical_formula_sum "Si O2"
_cell_formula_units_Z 56
_cell_length_a 27.231147
_cell_length_b 9.173610
_cell_length_c 25.193974
_cell_angle_alpha 90.000000
_cell_angle_beta 144.520882
_cell_angle_gamma 90.000000
_cell_volume 3652.876009
_symmetry_space_group_name_H-M "C 2/M"
_symmetry_group_IT_number 12
_symmetry_cell_setting 'monoclinic'
loop_
_space_group_symop_operation_xyz
x,y,z
-x,y,-z
-x,-y,-z
x,-y,z
1/2+x,1/2+y,z
1/2-x,1/2+y,-z
1/2-x,1/2-y,-z
1/2+x,1/2-y,z
loop_
_atom_site_type_symbol
_atom_site_label
_atom_site_fract_x
_atom_site_fract_y
_atom_site_fract_z
Si Si1 0.310642 0.672648 0.817120
Si Si2 0.407044 0.829113 0.809048
Si Si3 0.835240 0.331015 0.633117
Si Si4 0.546978 0.172701 0.460384
Si Si5 0.877349 0.671944 0.363791
Si Si6 0.141202 0.829863 0.451439
Si Si7 0.564118 0.160754 0.007648
O O1 0.318300 0.500000 0.821433
O O2 0.348385 0.737394 0.796570
O O3 0.213774 0.727180 0.736362
O O4 0.359784 0.728096 0.913020
O O5 0.384765 0.785421 0.729674
O O6 0.389967 0.000000 0.805019
O O7 0.506802 0.792026 0.906551
O O8 0.848531 0.500000 0.630607
O O9 0.874010 0.234969 0.620313
O O10 0.736344 0.296172 0.554471
O O11 0.449680 0.219731 0.385878
O O12 0.602880 0.229319 0.559412
O O13 0.575942 0.254369 0.433395
O O14 0.555984 0.000000 0.459643
O O15 0.878983 0.500000 0.369566
O O16 0.121735 0.000000 0.432507
O O17 0.603356 0.000000 0.033327
O O18 0.500000 0.157891 0.000000
#
# Coordination Sequence:
#
# PCOD8078572 Si02
#       7
#     8   8   8   8   8   8   8
#     4  10  17  25  40  63  88 110 136 170 207 243
#     4   9  17  29  43  59  82 112 144 171 197 240
#     4   9  18  31  45  60  81 113 144 166 199 247
#     4   9  16  30  47  59  80 114 145 169 199 240
#     4   8  16  28  43  63  83 109 144 173 197 238
#     4  10  19  29  42  64  89 107 133 174 210 240
#     4   8  15  27  40  56  81 111 139 167 201 243
#
# _framework density 15.330386000000001
#
# number of rings (size 3 to 8) (size 9 to 14) (size 15 to 20)
#    0.000    3.000    0.000    3.429    0.000    3.714 
#    0.000    3.571    0.000    0.000    0.000    1.000 
#    0.000    0.000    0.000    0.000    0.000    0.000 
#
# Total GULP energy -347074.465095 kJ/mol
# GULP energy per Si atom -12395.516611 kJ/mol
# Density = 1.529549 g / cm^3
# Si number density = 15.330386 Si / 1000 Ang^3
#
#
#
# Elastic Constant Matrix: (Units=GPa)
#
#
# Indices 1 2 3 4 5 6 
#
# 1 95.9810 47.3973 60.7197 0.0000 -0.6651 0.0000
# 2 47.3973 64.0866 48.5174 0.0000 0.7767 0.0000
# 3 60.7197 48.5174 140.6690 0.0000 -3.1161 0.0000
# 4 0.0000 0.0000 0.0000 22.4190 0.0000 -1.3908
# 5 -0.6651 0.7767 -3.1161 0.0000 22.4642 0.0000
# 6 0.0000 0.0000 0.0000 -1.3908 0.0000 20.2625
#
#
#
# Elastic Compliance Matrix: (Units=1/GPa)
#
#
# Indices 1 2 3 4 5 6 
#
# 1 0.018186 -0.010172 -0.004336 0.000000 0.000289 0.000000
# 2 -0.010172 0.026876 -0.004921 0.000000 -0.001913 0.000000
# 3 -0.004336 -0.004921 0.010712 0.000000 0.001528 0.000000
# 4 0.000000 0.000000 0.000000 0.044796 0.000000 0.003075
# 5 0.000289 -0.001913 0.001528 0.000000 0.044802 0.000000
# 6 0.000000 0.000000 0.000000 0.003075 0.000000 0.049563
#
#
# Mechanical properties :
#
#
# Convention : Reuss Voigt Hill
#
# Bulk Modulus (GPa) = 59.11349 68.22282 63.66815
# Shear Modulus (GPa) = 20.88291 22.63594 21.75942
#
# Velocity S-wave (km/s) = 3.69479 3.84675 3.77153
# Velocity P-wave (km/s) = 7.53959 8.02049 7.78375
#
# Compressibility (1/GPa) = 0.01691661
#
# Stress axis : x y z
#
# Youngs Moduli (GPa) = 54.98611 37.20860 93.35728
#
# Poissons Ratio (x) = 0.37847 0.40475
# Poissons Ratio (y) = 0.55930 0.45944
# Poissons Ratio (z) = 0.23839 0.18312
#
# Static dielectric constant tensor:
#      x y z
#    x 2.737460 0.000000 0.045880 
#    y 0.000000 2.850720 0.000000 
#    z 0.045880 0.000000 3.369900 
# 
# 
# High freq. dielectric constant tensor:
#      x y z
#    x 1.555900 0.000000 -0.002080 
#    y 0.000000 1.581620 0.000000 
#    z -0.002080 0.000000 1.589570 
# 
# From -- ./inp_files/348632.got.cif
#   From: 2010.06.25/outbox.cif.g09.slc.cpg/sg12_175_cif.got.tgz:348632.got - 2010.06.28 00:19:55.
