data_PCOD8078526
_publ_section_title
;
Structure prediction by ZEFSAII (Michael W. Deem and Ramdas Pophale) SiO2 
 PCOD8078526
Probable space group: C 2/M
;
_chemical_formula_sum "Si O2"
_cell_formula_units_Z 56
_cell_length_a 5.229791
_cell_length_b 35.138514
_cell_length_c 24.469802
_cell_angle_alpha 90.000000
_cell_angle_beta 113.396739
_cell_angle_gamma 90.000000
_cell_volume 4127.009396
_symmetry_space_group_name_H-M "C 2/M"
_symmetry_group_IT_number 12
_symmetry_cell_setting 'monoclinic'
loop_
_space_group_symop_operation_xyz
x,y,z
-x,y,-z
-x,-y,-z
x,-y,z
1/2+x,1/2+y,z
1/2-x,1/2+y,-z
1/2-x,1/2-y,-z
1/2+x,1/2-y,z
loop_
_atom_site_type_symbol
_atom_site_label
_atom_site_fract_x
_atom_site_fract_y
_atom_site_fract_z
Si Si1 0.153508 0.108243 0.571013
Si Si2 0.617452 0.044858 0.339534
Si Si3 0.373227 0.545352 0.932748
Si Si4 0.752405 0.045439 0.134966
Si Si5 0.812012 0.234794 0.566618
Si Si6 0.351535 0.147979 0.432724
Si Si7 0.988850 0.044898 0.268455
O O1 0.245931 0.066181 0.597290
O O2 0.425276 0.136171 0.594749
O O3 0.000000 0.105398 0.500000
O O4 0.939874 0.125520 0.597630
O O5 0.781237 0.056999 0.298952
O O6 0.300926 0.059317 0.306398
O O7 0.638706 0.000000 0.353110
O O8 0.374152 0.500000 0.933095
O O9 0.559015 0.560857 0.898589
O O10 0.060311 0.560942 0.899413
O O11 0.500000 0.561130 0.000000
O O12 0.875409 0.062114 0.201939
O O13 0.752081 0.000000 0.135768
O O14 0.750000 0.250000 0.500000
O O15 0.648249 0.260578 0.598255
O O16 0.710846 0.192496 0.569558
O O17 0.500000 0.134032 0.500000
O O18 0.997553 0.000000 0.263361
#
# Coordination Sequence:
#
# PCOD8078526 Si02
#       7
#     8   8   8   8   8   8   8
#     4  10  21  31  43  57  75  97 115 145 189 239
#     4  10  19  32  45  56  68  87 121 160 199 235
#     4   9  15  21  30  46  70  94 110 125 154 208
#     4   9  15  23  34  49  66  85 110 138 173 209
#     4  10  17  24  41  61  80 100 116 134 152 185
#     4  10  18  29  41  58  81  97 115 133 166 215
#     4   9  17  28  43  56  66  82 112 158 195 221
#
# _framework density 13.569148
#
# number of rings (size 3 to 8) (size 9 to 14) (size 15 to 20)
#    0.000    2.429    1.429    3.000    4.000    5.429 
#    0.000    0.000    0.000    5.143    0.000    0.000 
#    0.000    0.000    0.000    0.000    0.000    0.000 
#
# Total GULP energy -346938.857759 kJ/mol
# GULP energy per Si atom -12390.673491 kJ/mol
# Density = 1.353826 g / cm^3
# Si number density = 13.569148 Si / 1000 Ang^3
#
#
#
# Elastic Constant Matrix: (Units=GPa)
#
#
# Indices 1 2 3 4 5 6 
#
# 1 141.3657 28.8979 32.1368 0.0000 -0.0357 0.0000
# 2 28.8979 44.5917 23.6554 0.0000 2.3492 0.0000
# 3 32.1368 23.6554 48.1536 0.0000 4.7771 0.0000
# 4 0.0000 0.0000 0.0000 1.2041 0.0000 -0.4114
# 5 -0.0357 2.3492 4.7771 0.0000 17.4059 0.0000
# 6 0.0000 0.0000 0.0000 -0.4114 0.0000 13.7560
#
#
#
# Elastic Compliance Matrix: (Units=1/GPa)
#
#
# Indices 1 2 3 4 5 6 
#
# 1 0.008765 -0.003485 -0.004303 0.000000 0.001669 0.000000
# 2 -0.003485 0.031716 -0.013188 0.000000 -0.000668 0.000000
# 3 -0.004303 -0.013188 0.030779 0.000000 -0.006676 0.000000
# 4 0.000000 0.000000 0.000000 0.839089 0.000000 0.025097
# 5 0.001669 -0.000668 -0.006676 0.000000 0.059378 0.000000
# 6 0.000000 0.000000 0.000000 0.025097 0.000000 0.073446
#
#
# Mechanical properties :
#
#
# Convention : Reuss Voigt Hill
#
# Bulk Modulus (GPa) = 34.12091 44.83234 39.47662
# Shear Modulus (GPa) = 4.56665 16.43459 10.50062
#
# Velocity S-wave (km/s) = 1.83651 3.48397 2.78485
# Velocity P-wave (km/s) = 5.44955 7.02109 6.28463
#
# Compressibility (1/GPa) = 0.02930754
#
# Stress axis : x y z
#
# Youngs Moduli (GPa) = 114.09062 31.53010 32.48919
#
# Poissons Ratio (x) = 0.10990 0.13980
# Poissons Ratio (y) = 0.39766 0.42846
# Poissons Ratio (z) = 0.49093 0.41582
#
# Static dielectric constant tensor:
#      x y z
#    x 4.768510 0.000000 -0.135850 
#    y 0.000000 2.278970 0.000000 
#    z -0.135850 0.000000 2.556620 
# 
# 
# High freq. dielectric constant tensor:
#      x y z
#    x 1.552920 0.000000 -0.004090 
#    y 0.000000 1.457640 0.000000 
#    z -0.004090 0.000000 1.481620 
# 
# From -- ./inp_files/298480.got.cif
#   From: 2010.06.25/outbox.cif.g09.slc.cpg/sg12_150_cif.got.tgz:298480.got - 2010.06.28 00:19:55.
