data_PCOD8078930
_publ_section_title
;
Structure prediction by ZEFSAII (Michael W. Deem and Ramdas Pophale) SiO2 
 PCOD8078930
Probable space group: C 2/M
;
_chemical_formula_sum "Si O2"
_cell_formula_units_Z 48
_cell_length_a 22.851603
_cell_length_b 8.791125
_cell_length_c 19.902108
_cell_angle_alpha 90.000000
_cell_angle_beta 43.270714
_cell_angle_gamma 90.000000
_cell_volume 2740.524083
_symmetry_space_group_name_H-M "C 2/M"
_symmetry_group_IT_number 12
_symmetry_cell_setting 'monoclinic'
loop_
_space_group_symop_operation_xyz
x,y,z
-x,y,-z
-x,-y,-z
x,-y,z
1/2+x,1/2+y,z
1/2-x,1/2+y,-z
1/2-x,1/2-y,-z
1/2+x,1/2-y,z
loop_
_atom_site_type_symbol
_atom_site_label
_atom_site_fract_x
_atom_site_fract_y
_atom_site_fract_z
Si Si1 0.556389 0.180481 0.553070
Si Si2 0.938009 0.667928 0.988608
Si Si3 0.691892 0.322138 0.819039
Si Si4 0.118527 0.321418 0.358596
Si Si5 0.842062 0.179068 0.411893
Si Si6 0.095780 0.679444 0.776313
O O1 0.458031 0.235405 0.625459
O O2 0.608770 0.236075 0.443508
O O3 0.592436 0.268007 0.586444
O O4 0.564466 0.000000 0.558642
O O5 0.899797 0.500000 0.007274
O O6 0.996678 0.720233 0.876739
O O7 0.859843 0.782294 0.069316
O O8 0.000000 0.662392 0.000000
O O9 0.682807 0.500000 0.810816
O O10 0.790271 0.273407 0.748020
O O11 0.657396 0.227030 0.785368
O O12 0.108177 0.500000 0.371688
O O13 0.750000 0.250000 0.500000
O O14 0.879541 0.227532 0.309411
O O15 0.831705 0.000000 0.422417
O O16 0.106575 0.500000 0.755148
#
# Coordination Sequence:
#
# PCOD8078930 Si02
#       6
#     8   8   8   8   8   8
#     4   9  17  34  54  71  97 132 166 198 237 286
#     4   8  16  30  46  67  97 131 165 201 246 293
#     4  10  17  27  48  78 105 129 163 204 245 291
#     4   8  16  30  51  75  98 128 163 199 240 287
#     4  12  24  36  51  74 101 129 162 198 241 292
#     4  10  20  34  50  70  99 134 167 202 246 291
#
# _framework density 17.514897999999999
#
# number of rings (size 3 to 8) (size 9 to 14) (size 15 to 20)
#    0.000    2.500    0.000    5.500    0.000    5.000 
#    0.000    4.167    0.000    1.000    0.000    0.000 
#    0.000    0.000    0.000    0.000    0.000    0.000 
#
# Total GULP energy -297475.315045 kJ/mol
# GULP energy per Si atom -12394.804794 kJ/mol
# Density = 1.747503 g / cm^3
# Si number density = 17.514898 Si / 1000 Ang^3
#
#
#
# Elastic Constant Matrix: (Units=GPa)
#
#
# Indices 1 2 3 4 5 6 
#
# 1 84.1419 34.9676 53.5130 0.0010 -9.8694 -0.0006
# 2 34.9676 82.0850 44.0469 0.0063 -6.1599 -0.0063
# 3 53.5130 44.0469 131.0886 0.0015 -17.0390 -0.0020
# 4 0.0010 0.0063 0.0015 28.5842 -0.0013 1.1910
# 5 -9.8694 -6.1599 -17.0390 -0.0013 27.9363 0.0012
# 6 -0.0006 -0.0063 -0.0020 1.1910 0.0012 22.9889
#
#
#
# Elastic Compliance Matrix: (Units=1/GPa)
#
#
# Indices 1 2 3 4 5 6 
#
# 1 0.017330 -0.004363 -0.005363 0.000001 0.001889 -0.000001
# 2 -0.004363 0.015962 -0.003612 -0.000003 -0.000224 0.000004
# 3 -0.005363 -0.003612 0.011601 0.000001 0.004385 0.000000
# 4 0.000001 -0.000003 0.000001 0.035060 0.000002 -0.001816
# 5 0.001889 -0.000224 0.004385 0.000002 0.039088 -0.000002
# 6 -0.000001 0.000004 0.000000 -0.001816 -0.000002 0.043593
#
#
# Mechanical properties :
#
#
# Convention : Reuss Voigt Hill
#
# Bulk Modulus (GPa) = 54.88901 62.48561 58.68731
# Shear Modulus (GPa) = 25.59077 26.88776 26.23926
#
# Velocity S-wave (km/s) = 3.82656 3.92233 3.87474
# Velocity P-wave (km/s) = 7.13652 7.50107 7.32107
#
# Compressibility (1/GPa) = 0.01821858
#
# Stress axis : x y z
#
# Youngs Moduli (GPa) = 57.70263 62.64794 86.19832
#
# Poissons Ratio (x) = 0.27333 0.46228
# Poissons Ratio (y) = 0.25176 0.31131
# Poissons Ratio (z) = 0.30946 0.22626
#
# Static dielectric constant tensor:
#      x y z
#    x 3.163400 0.000000 -0.212780 
#    y 0.000000 3.186630 0.000000 
#    z -0.212780 0.000000 3.717330 
# 
# 
# High freq. dielectric constant tensor:
#      x y z
#    x 1.649200 0.000000 -0.014990 
#    y 0.000000 1.668380 0.000000 
#    z -0.014990 0.000000 1.686820 
# 
# From -- ./inp_files/280779.got.cif
#   From: 2010.06.25/outbox.cif.g09.slc.cpg/sg12_141_cif.got.tgz:280779.got - 2010.06.28 00:19:55.
