data_PCOD8078049
_publ_section_title
;
Structure prediction by ZEFSAII (Michael W. Deem and Ramdas Pophale) SiO2 
 PCOD8078049
Probable space group: C 2/M
;
_chemical_formula_sum "Si O2"
_cell_formula_units_Z 40
_cell_length_a 5.293489
_cell_length_b 18.218667
_cell_length_c 24.351551
_cell_angle_alpha 90.000000
_cell_angle_beta 70.970043
_cell_angle_gamma 90.000000
_cell_volume 2220.123086
_symmetry_space_group_name_H-M "C 2/M"
_symmetry_group_IT_number 12
_symmetry_cell_setting 'monoclinic'
loop_
_space_group_symop_operation_xyz
x,y,z
-x,y,-z
-x,-y,-z
x,-y,z
1/2+x,1/2+y,z
1/2-x,1/2+y,-z
1/2-x,1/2-y,-z
1/2+x,1/2-y,z
loop_
_atom_site_type_symbol
_atom_site_label
_atom_site_fract_x
_atom_site_fract_y
_atom_site_fract_z
Si Si1 0.803638 0.085208 0.464241
Si Si2 0.905193 0.201845 0.063205
Si Si3 0.219770 0.662777 0.186823
Si Si4 0.352650 0.325898 0.764896
Si Si5 0.055994 0.794486 0.629328
O O1 0.500000 0.106465 0.500000
O O2 0.893809 0.128811 0.404125
O O3 0.000000 0.106466 0.500000
O O4 0.828776 0.000000 0.447484
O O5 0.647392 0.249999 0.068405
O O6 0.823592 0.145808 0.117607
O O7 0.000000 0.161174 0.000000
O O8 0.425071 0.628227 0.216726
O O9 0.201434 0.750171 0.199047
O O10 0.924762 0.628227 0.216726
O O11 0.454220 0.310546 0.697182
O O12 0.332684 0.749995 0.611528
#
# Coordination Sequence:
#
# PCOD8078049 Si02
#       5
#     8   8   8   8   8
#     4  10  23  42  57  71  98 133 158 184 237 296
#     4  10  16  20  29  45  65 103 155 183 201 253
#     4  10  14  25  36  49  83 117 139 179 231 271
#     4  10  16  25  38  59  84 111 137 179 227 274
#     4  12  21  32  53  80 100 117 158 206 231 275
#
# _framework density 18.017019000000001
#
# number of rings (size 3 to 8) (size 9 to 14) (size 15 to 20)
#    0.000    1.600    8.000    1.200    0.000    2.400 
#    0.000    0.000    0.000    0.000    0.000    0.000 
#    0.000    0.000    0.000    0.000    0.000   11.000 
#
# Total GULP energy -247830.996337 kJ/mol
# GULP energy per Si atom -12391.549817 kJ/mol
# Density = 1.797601 g / cm^3
# Si number density = 18.017019 Si / 1000 Ang^3
#
#
#
# Elastic Constant Matrix: (Units=GPa)
#
#
# Indices 1 2 3 4 5 6 
#
# 1 193.1259 21.9239 38.4619 0.0000 -7.1648 0.0000
# 2 21.9239 28.2476 41.8496 0.0000 1.2759 0.0000
# 3 38.4619 41.8496 110.7463 0.0000 1.8597 0.0000
# 4 0.0000 0.0000 0.0000 -0.0581 0.0000 -0.3366
# 5 -7.1648 1.2759 1.8597 0.0000 22.2303 0.0000
# 6 0.0000 0.0000 0.0000 -0.3366 0.0000 5.1823
#
#
#
# Elastic Compliance Matrix: (Units=1/GPa)
#
#
# Indices 1 2 3 4 5 6 
#
# 1 0.005801 -0.003546 -0.000710 0.000000 0.002133 0.000000
# 2 -0.003546 0.082693 -0.029960 0.000000 -0.003383 0.000000
# 3 -0.000710 -0.029960 0.020602 0.000000 -0.000233 0.000000
# 4 0.000000 0.000000 0.000000-12.510481 0.000000 -0.812608
# 5 0.002133 -0.003383 -0.000233 0.000000 0.045885 0.000000
# 6 0.000000 0.000000 0.000000 -0.812608 0.000000 0.140182
#
#
# Mechanical properties :
#
#
# Convention : Reuss Voigt Hill
#
# Bulk Modulus (GPa) = 24.59273 59.62116 42.10694
# Shear Modulus (GPa) = -0.41209 20.79653 10.19222
#
# Velocity S-wave (km/s) = -0.47877 3.40114 2.38102
# Velocity P-wave (km/s) = 3.65701 6.97045 5.56601
#
# Compressibility (1/GPa) = 0.04066243
#
# Stress axis : x y z
#
# Youngs Moduli (GPa) = 172.37952 12.09287 48.53918
#
# Poissons Ratio (x) = 0.04288 0.03449
# Poissons Ratio (y) = 0.61129 1.45425
# Poissons Ratio (z) = 0.12247 0.36231
#
# Static dielectric constant tensor:
#      x y z
#    x 4.902500 0.000000 -0.085430 
#    y 0.000000 2.538080 0.000000 
#    z -0.085430 0.000000 3.573260 
# 
# 
# High freq. dielectric constant tensor:
#      x y z
#    x 1.743080 0.000000 -0.001660 
#    y 0.000000 1.592450 0.000000 
#    z -0.001660 0.000000 1.717260 
# 
# From -- ./inp_files/330931.got.cif
#   From: 2010.06.25/outbox.cif.g09.slc.cpg/sg12_166_cif.got.tgz:330931.got - 2010.06.28 00:19:55.
