data_PCOD8078394
_publ_section_title
;
Structure prediction by ZEFSAII (Michael W. Deem and Ramdas Pophale) SiO2 
 PCOD8078394
Probable space group: C 2/M
;
_chemical_formula_sum "Si O2"
_cell_formula_units_Z 44
_cell_length_a 12.312201
_cell_length_b 17.974897
_cell_length_c 17.440539
_cell_angle_alpha 90.000000
_cell_angle_beta 143.363808
_cell_angle_gamma 90.000000
_cell_volume 2303.250871
_symmetry_space_group_name_H-M "C 2/M"
_symmetry_group_IT_number 12
_symmetry_cell_setting 'monoclinic'
loop_
_space_group_symop_operation_xyz
x,y,z
-x,y,-z
-x,-y,-z
x,-y,z
1/2+x,1/2+y,z
1/2-x,1/2+y,-z
1/2-x,1/2-y,-z
1/2+x,1/2-y,z
loop_
_atom_site_type_symbol
_atom_site_label
_atom_site_fract_x
_atom_site_fract_y
_atom_site_fract_z
Si Si1 0.303041 0.361785 0.858967
Si Si2 0.359754 0.339990 0.144696
Si Si3 0.500000 0.199662 0.500000
Si Si4 0.936629 0.674525 0.138773
Si Si5 0.216125 0.917326 0.312666
Si Si6 0.283101 0.288943 0.260629
O O1 0.145249 0.368839 0.834251
O O2 0.236368 0.412629 0.750889
O O3 0.329296 0.276887 0.845155
O O4 0.500000 0.389074 0.000000
O O5 0.422650 0.262118 0.145164
O O6 0.502211 0.403069 0.201408
O O7 0.353355 0.342776 0.233378
O O8 0.165534 0.355824 0.995088
O O9 0.669976 0.145283 0.576046
O O10 0.454212 0.252975 0.402378
O O11 0.152603 0.663771 0.244393
O O12 0.265676 0.000000 0.370281
#
# Coordination Sequence:
#
# PCOD8078394 Si02
#       6
#     8   8   4   8   8   8
#     4  10  17  31  51  82 107 136 174 216 271 325
#     4  10  18  31  54  81 106 136 176 218 283 322
#     4  10  21  38  50  80 107 142 188 222 264 308
#     4  10  16  31  54  79 113 130 164 232 284 314
#     4  11  22  37  52  75 113 152 182 212 254 321
#     4  10  19  31  54  80 109 135 172 229 277 315
#
# _framework density 19.103434
#
# number of rings (size 3 to 8) (size 9 to 14) (size 15 to 20)
#    0.000    1.818    5.455    3.000    0.000    1.091 
#    3.273    0.000    0.000    3.273    0.000    0.636 
#    0.000    0.000    0.000    0.000    0.000    0.000 
#
# Total GULP energy -272648.451500 kJ/mol
# GULP energy per Si atom -12393.111432 kJ/mol
# Density = 1.905995 g / cm^3
# Si number density = 19.103434 Si / 1000 Ang^3
#
#
#
# Elastic Constant Matrix: (Units=GPa)
#
#
# Indices 1 2 3 4 5 6 
#
# 1 136.9071 36.5060 49.0103 0.0010 -9.8540 0.0002
# 2 36.5060 40.0144 23.9219 0.0007 0.9555 0.0002
# 3 49.0103 23.9219 105.5867 0.0031 -4.1492 0.0011
# 4 0.0010 0.0007 0.0031 11.9334 0.0018 1.2121
# 5 -9.8540 0.9555 -4.1492 0.0018 19.9132 0.0005
# 6 0.0002 0.0002 0.0011 1.2121 0.0005 12.4731
#
#
#
# Elastic Compliance Matrix: (Units=1/GPa)
#
#
# Indices 1 2 3 4 5 6 
#
# 1 0.010979 -0.008347 -0.003000 0.000000 0.005208 0.000000
# 2 -0.008347 0.035405 -0.004412 0.000001 -0.006749 0.000000
# 3 -0.003000 -0.004412 0.011911 -0.000003 0.001209 -0.000001
# 4 0.000000 0.000001 -0.000003 0.084634 -0.000008 -0.008225
# 5 0.005208 -0.006749 0.001209 -0.000008 0.053371 -0.000002
# 6 0.000000 0.000000 -0.000001 -0.008225 -0.000002 0.080971
#
#
# Mechanical properties :
#
#
# Convention : Reuss Voigt Hill
#
# Bulk Modulus (GPa) = 37.34736 55.70938 46.52837
# Shear Modulus (GPa) = 15.73739 20.40196 18.06967
#
# Velocity S-wave (km/s) = 2.87330 3.27153 3.07886
# Velocity P-wave (km/s) = 5.53176 6.59514 6.08671
#
# Compressibility (1/GPa) = 0.02677565
#
# Stress axis : x y z
#
# Youngs Moduli (GPa) = 91.08441 28.24461 83.95828
#
# Poissons Ratio (x) = 0.23576 0.25190
# Poissons Ratio (y) = 0.76027 0.37044
# Poissons Ratio (z) = 0.27328 0.12462
#
# Static dielectric constant tensor:
#      x y z
#    x 3.645810 0.000000 -0.052320 
#    y 0.000000 2.957200 0.000000 
#    z -0.052320 0.000000 3.506870 
# 
# 
# High freq. dielectric constant tensor:
#      x y z
#    x 1.741580 0.000000 -0.003140 
#    y 0.000000 1.679340 0.000000 
#    z -0.003140 0.000000 1.737420 
# 
# From -- ./inp_files/264362.got.cif
#   From: 2010.06.25/outbox.cif.g09.slc.cpg/sg12_133_cif.got.tgz:264362.got - 2010.06.28 00:19:55.
