data_PCOD8078129
_publ_section_title
;
Structure prediction by ZEFSAII (Michael W. Deem and Ramdas Pophale) SiO2 
 PCOD8078129
Probable space group: C 2/M
;
_chemical_formula_sum "Si O2"
_cell_formula_units_Z 56
_cell_length_a 8.932345
_cell_length_b 19.732735
_cell_length_c 18.072529
_cell_angle_alpha 90.000000
_cell_angle_beta 90.000025
_cell_angle_gamma 90.000000
_cell_volume 3185.456675
_symmetry_space_group_name_H-M "C 2/M"
_symmetry_group_IT_number 12
_symmetry_cell_setting 'monoclinic'
loop_
_space_group_symop_operation_xyz
x,y,z
-x,y,-z
-x,-y,-z
x,-y,z
1/2+x,1/2+y,z
1/2-x,1/2+y,-z
1/2-x,1/2-y,-z
1/2+x,1/2-y,z
loop_
_atom_site_type_symbol
_atom_site_label
_atom_site_fract_x
_atom_site_fract_y
_atom_site_fract_z
Si Si1 0.327080 0.177892 0.695119
Si Si2 0.674603 0.177488 0.858256
Si Si3 0.672918 0.822109 0.695118
Si Si4 0.327543 0.422421 0.415107
Si Si5 0.321590 0.674783 1.000000
Si Si6 0.825399 0.677489 0.858256
Si Si7 0.827540 0.922421 0.584891
O O1 0.499999 0.191997 0.681951
O O2 0.250000 0.250001 0.684196
O O3 0.272519 0.124476 0.635667
O O4 0.300686 0.144827 0.777066
O O5 0.699312 0.144825 0.777066
O O6 0.759306 0.137439 0.925365
O O7 0.750005 0.249998 0.852454
O O8 0.500001 0.184093 0.878130
O O9 0.727477 0.875524 0.635665
O O10 0.279813 0.500000 0.402143
O O11 0.299883 0.401883 0.499999
O O12 0.500002 0.411973 0.393803
O O13 0.500000 0.676043 0.000000
O O14 0.250000 0.750000 0.000000
O O15 0.259306 0.637441 0.074635
O O16 0.779809 0.000000 0.597855
#
# Coordination Sequence:
#
# PCOD8078129 Si02
#       7
#     8   8   8   8   8   8   8
#     4  10  20  32  49  73 100 130 162 199 242 286
#     4   9  16  26  39  59  89 122 155 191 232 276
#     4  10  20  32  49  73 100 130 162 199 242 286
#     4   9  19  36  55  73  95 125 160 198 241 289
#     4  10  16  22  36  58  85 120 157 190 229 275
#     4   9  16  26  39  59  89 122 155 191 232 276
#     4   9  19  36  55  73  95 125 160 198 241 289
#
# _framework density 17.579898
#
# number of rings (size 3 to 8) (size 9 to 14) (size 15 to 20)
#    0.000    2.571    0.000    5.571    0.000    5.143 
#    0.000    1.429    0.000    0.000    0.000    1.000 
#    0.000    8.000    0.000    0.000    0.000    0.000 
#
# Total GULP energy -346920.273694 kJ/mol
# GULP energy per Si atom -12390.009775 kJ/mol
# Density = 1.753989 g / cm^3
# Si number density = 17.579898 Si / 1000 Ang^3
#
#
#
# Elastic Constant Matrix: (Units=GPa)
#
#
# Indices 1 2 3 4 5 6 
#
# 1 131.3290 37.7493 76.2630 0.0000 -0.0005 0.0000
# 2 37.7493 45.7453 50.3267 0.0000 -0.0002 0.0000
# 3 76.2630 50.3267 136.3259 0.0000 -0.0003 0.0000
# 4 0.0000 0.0000 0.0000 -7.7786 0.0000 0.0003
# 5 -0.0005 -0.0002 -0.0003 0.0000 34.2773 0.0000
# 6 0.0000 0.0000 0.0000 0.0003 0.0000 22.8926
#
#
#
# Elastic Compliance Matrix: (Units=1/GPa)
#
#
# Indices 1 2 3 4 5 6 
#
# 1 0.011727 -0.004142 -0.005031 0.000000 0.000000 0.000000
# 2 -0.004142 0.038273 -0.011812 0.000000 0.000000 0.000000
# 3 -0.005031 -0.011812 0.014510 0.000000 0.000000 0.000000
# 4 0.000000 0.000000 0.000000 -0.128559 0.000000 0.000001
# 5 0.000000 0.000000 0.000000 0.000000 0.029174 0.000000
# 6 0.000000 0.000000 0.000000 0.000001 0.000000 0.043682
#
#
# Mechanical properties :
#
#
# Convention : Reuss Voigt Hill
#
# Bulk Modulus (GPa) = 44.36537 71.34201 57.85369
# Shear Modulus (GPa) = 85.77758 19.81570 52.79664
#
# Velocity S-wave (km/s) = 6.99278 3.36099 5.48613
# Velocity P-wave (km/s) = 9.51261 7.46534 8.55047
#
# Compressibility (1/GPa) = 0.02254010
#
# Stress axis : x y z
#
# Youngs Moduli (GPa) = 85.27680 26.12805 68.91660
#
# Poissons Ratio (x) = 0.10822 0.34671
# Poissons Ratio (y) = 0.35322 0.81404
# Poissons Ratio (z) = 0.42902 0.30862
#
# Static dielectric constant tensor:
#      x y z
#    x 3.342070 0.000000 0.000010 
#    y 0.000000 2.682210 0.000000 
#    z 0.000010 0.000000 4.484240 
# 
# 
# High freq. dielectric constant tensor:
#      x y z
#    x 1.694450 0.000000 0.000000 
#    y 0.000000 1.609810 0.000000 
#    z 0.000000 0.000000 1.709060 
# 
# From -- ./inp_files/257641.got.cif
#   From: 2010.06.25/outbox.cif.g09.slc.cpg/sg12_129_cif.got.tgz:257641.got - 2010.06.28 00:19:55.
