data_PCOD8078752
_publ_section_title
;
Structure prediction by ZEFSAII (Michael W. Deem and Ramdas Pophale) SiO2 
 PCOD8078752
Probable space group: C 2/M
;
_chemical_formula_sum "Si O2"
_cell_formula_units_Z 48
_cell_length_a 13.859496
_cell_length_b 31.715484
_cell_length_c 14.560634
_cell_angle_alpha 90.000000
_cell_angle_beta 29.840971
_cell_angle_gamma 90.000000
_cell_volume 3184.743874
_symmetry_space_group_name_H-M "C 2/M"
_symmetry_group_IT_number 12
_symmetry_cell_setting 'monoclinic'
loop_
_space_group_symop_operation_xyz
x,y,z
-x,y,-z
-x,-y,-z
x,-y,z
1/2+x,1/2+y,z
1/2-x,1/2+y,-z
1/2-x,1/2-y,-z
1/2+x,1/2-y,z
loop_
_atom_site_type_symbol
_atom_site_label
_atom_site_fract_x
_atom_site_fract_y
_atom_site_fract_z
Si Si1 0.563791 0.453394 0.551888
Si Si2 0.159409 0.614705 0.736216
Si Si3 0.517876 0.253473 0.087597
Si Si4 0.164234 0.201056 0.439601
Si Si5 0.232969 0.891202 0.143106
Si Si6 0.375686 0.302896 0.828587
O O1 0.500000 0.457745 0.500000
O O2 0.615720 0.500000 0.547522
O O3 0.747734 0.422448 0.401255
O O4 0.394528 0.433858 0.756316
O O5 0.206887 0.659133 0.648633
O O6 0.241582 0.619441 0.770932
O O7 0.933935 0.602729 0.924325
O O8 0.305991 0.238485 0.293385
O O9 0.595059 0.290637 0.089366
O O10 0.500000 0.272064 0.000000
O O11 0.669506 0.214591 0.962320
O O12 0.000000 0.191712 0.500000
O O13 0.054932 0.215935 0.622363
O O14 0.119865 0.853138 0.187423
#
# Coordination Sequence:
#
# PCOD8078752 Si02
#       6
#     8   8   8   8   8   8
#     4   9  17  28  41  61  88 117 148 183 223 265
#     4  10  17  26  45  62  88 116 150 186 220 258
#     4  11  22  34  46  67  93 120 157 199 228 266
#     4  12  18  30  49  66  89 121 155 193 225 267
#     4  10  17  28  43  64  84 119 152 183 218 269
#     4  11  21  32  49  67  89 123 160 189 231 268
#
# _framework density 15.071854999999999
#
# number of rings (size 3 to 8) (size 9 to 14) (size 15 to 20)
#    0.000    1.500    6.667    1.000    0.000    0.667 
#    0.000    3.333    0.000    0.000    0.000    0.000 
#    0.000    0.667    0.000    1.500    0.000    0.167 
#
# Total GULP energy -297547.632968 kJ/mol
# GULP energy per Si atom -12397.818040 kJ/mol
# Density = 1.503755 g / cm^3
# Si number density = 15.071855 Si / 1000 Ang^3
#
#
#
# Elastic Constant Matrix: (Units=GPa)
#
#
# Indices 1 2 3 4 5 6 
#
# 1 49.8988 22.1249 26.4979 0.0000 5.5758 0.0000
# 2 22.1249 75.4993 26.2938 0.0000 -0.8465 0.0000
# 3 26.4979 26.2938 100.5151 0.0000 -9.3187 0.0000
# 4 0.0000 0.0000 0.0000 20.4059 0.0000 -0.2908
# 5 5.5758 -0.8465 -9.3187 0.0000 17.5286 0.0000
# 6 0.0000 0.0000 0.0000 -0.2908 0.0000 8.9351
#
#
#
# Elastic Compliance Matrix: (Units=1/GPa)
#
#
# Indices 1 2 3 4 5 6 
#
# 1 0.027776 -0.005852 -0.006981 0.000000 -0.012829 0.000000
# 2 -0.005852 0.015838 -0.002479 0.000000 0.001309 0.000000
# 3 -0.006981 -0.002479 0.013287 0.000000 0.009165 0.000000
# 4 0.000000 0.000000 0.000000 0.049028 0.000000 0.001596
# 5 -0.012829 0.001309 0.009165 0.000000 0.066066 0.000000
# 6 0.000000 0.000000 0.000000 0.001596 0.000000 0.111970
#
#
# Mechanical properties :
#
#
# Convention : Reuss Voigt Hill
#
# Bulk Modulus (GPa) = 38.05598 41.74960 39.90279
# Shear Modulus (GPa) = 15.46319 19.44038 17.45178
#
# Velocity S-wave (km/s) = 3.20654 3.59534 3.40649
# Velocity P-wave (km/s) = 6.24610 6.70789 6.48111
#
# Compressibility (1/GPa) = 0.02627708
#
# Stress axis : x y z
#
# Youngs Moduli (GPa) = 36.00215 63.13847 75.26050
#
# Poissons Ratio (x) = 0.36951 0.52538
# Poissons Ratio (y) = 0.21070 0.18657
# Poissons Ratio (z) = 0.25133 0.15652
#
# Static dielectric constant tensor:
#      x y z
#    x 2.474040 0.000000 -0.080690 
#    y 0.000000 2.854450 0.000000 
#    z -0.080690 0.000000 3.215750 
# 
# 
# High freq. dielectric constant tensor:
#      x y z
#    x 1.515240 0.000000 -0.013490 
#    y 0.000000 1.561170 0.000000 
#    z -0.013490 0.000000 1.603400 
# 
# From -- ./inp_files/209901.got.cif
#   From: 2010.06.25/outbox.cif.g09.slc.cpg/sg12_105_cif.got.tgz:209901.got - 2010.06.28 00:19:55.
