data_PCOD8079993
_publ_section_title
;
Structure prediction by ZEFSAII (Michael W. Deem and Ramdas Pophale) SiO2 
 PCOD8079993
Probable space group: C 2/M
;
_chemical_formula_sum "Si O2"
_cell_formula_units_Z 48
_cell_length_a 22.798417
_cell_length_b 9.319668
_cell_length_c 29.669808
_cell_angle_alpha 90.000000
_cell_angle_beta 27.418440
_cell_angle_gamma 90.000000
_cell_volume 2902.925060
_symmetry_space_group_name_H-M "C 2/M"
_symmetry_group_IT_number 12
_symmetry_cell_setting 'monoclinic'
loop_
_space_group_symop_operation_xyz
x,y,z
-x,y,-z
-x,-y,-z
x,-y,z
1/2+x,1/2+y,z
1/2-x,1/2+y,-z
1/2-x,1/2-y,-z
1/2+x,1/2-y,z
loop_
_atom_site_type_symbol
_atom_site_label
_atom_site_fract_x
_atom_site_fract_y
_atom_site_fract_z
Si Si1 0.935833 0.664285 0.868691
Si Si2 0.275819 0.833760 0.322926
Si Si3 0.356956 0.329619 0.092621
Si Si4 0.297329 0.830310 0.716147
Si Si5 0.563425 0.158190 0.505512
Si Si6 0.709972 0.331793 0.959843
O O1 0.910249 0.500000 0.899584
O O2 0.848291 0.708190 0.885749
O O3 0.081978 0.688739 0.755146
O O4 0.901727 0.758719 0.935278
O O5 0.264292 0.752559 0.283565
O O6 0.179976 0.770184 0.426157
O O7 0.242703 0.000000 0.338145
O O8 0.358934 0.500000 0.092606
O O9 0.270198 0.272497 0.192694
O O10 0.296667 0.274568 0.086817
O O11 0.500000 0.268610 0.000000
O O12 0.449065 0.796696 0.617414
O O13 0.275994 0.000000 0.722764
O O14 0.500000 0.154636 0.500000
O O15 0.616345 0.000000 0.481859
O O16 0.682423 0.500000 0.980228
#
# Coordination Sequence:
#
# PCOD8079993 Si02
#       6
#     8   8   8   8   8   8
#     4   9  18  30  43  63  89 113 140 175 211 248
#     4  10  18  27  42  64  88 113 142 174 209 252
#     4   9  16  26  44  68  87 106 138 175 209 250
#     4   9  17  29  44  64  89 112 138 176 215 250
#     4   8  15  27  42  61  85 111 140 176 214 248
#     4   9  17  30  47  64  84 113 144 173 209 250
#
# _framework density 16.535046000000001
#
# number of rings (size 3 to 8) (size 9 to 14) (size 15 to 20)
#    0.000    3.000    0.000    2.500    0.000    5.667 
#    0.000    0.833    0.000    4.000    0.000    0.000 
#    0.000    0.000    0.000    0.000    0.000    1.667 
#
# Total GULP energy -297496.982586 kJ/mol
# GULP energy per Si atom -12395.707608 kJ/mol
# Density = 1.649741 g / cm^3
# Si number density = 16.535046 Si / 1000 Ang^3
#
#
#
# Elastic Constant Matrix: (Units=GPa)
#
#
# Indices 1 2 3 4 5 6 
#
# 1 79.7904 27.5226 57.5801 -0.0079 4.1717 0.0106
# 2 27.5226 50.9578 44.4212 -0.0129 -4.3402 0.0174
# 3 57.5801 44.4212 150.0355 -0.0043 4.1759 0.0029
# 4 -0.0079 -0.0129 -0.0043 23.5488 0.0014 -2.0395
# 5 4.1717 -4.3402 4.1759 0.0014 22.5552 -0.0039
# 6 0.0106 0.0174 0.0029 -2.0395 -0.0039 14.1257
#
#
#
# Elastic Compliance Matrix: (Units=1/GPa)
#
#
# Indices 1 2 3 4 5 6 
#
# 1 0.018516 -0.005650 -0.005335 0.000002 -0.003524 -0.000007
# 2 -0.005650 0.029181 -0.006691 0.000010 0.007899 -0.000027
# 3 -0.005335 -0.006691 0.010757 -0.000003 -0.002292 0.000009
# 4 0.000002 0.000010 -0.000003 0.043003 0.000001 0.006209
# 5 -0.003524 0.007899 -0.002292 0.000001 0.046932 0.000006
# 6 -0.000007 -0.000027 0.000009 0.006209 0.000006 0.071690
#
#
# Mechanical properties :
#
#
# Convention : Reuss Voigt Hill
#
# Bulk Modulus (GPa) = 43.28606 59.98126 51.63366
# Shear Modulus (GPa) = 19.00182 22.12992 20.56587
#
# Velocity S-wave (km/s) = 3.39364 3.66234 3.53055
# Velocity P-wave (km/s) = 6.44910 7.36462 6.92201
#
# Compressibility (1/GPa) = 0.02310212
#
# Stress axis : x y z
#
# Youngs Moduli (GPa) = 54.00722 34.26836 92.95840
#
# Poissons Ratio (x) = 0.19362 0.49595
# Poissons Ratio (y) = 0.30514 0.62201
# Poissons Ratio (z) = 0.28814 0.22930
#
# Static dielectric constant tensor:
#      x y z
#    x 2.994200 -0.000010 0.028110 
#    y -0.000010 3.006450 0.000010 
#    z 0.028110 0.000010 3.502060 
# 
# 
# High freq. dielectric constant tensor:
#      x y z
#    x 1.603620 0.000000 -0.006050 
#    y 0.000000 1.620730 0.000000 
#    z -0.006050 0.000000 1.646900 
# 
# From -- ./inp_files/236603.got.cif
#   From: 2010.06.25/outbox.cif.g09.slc.cpg/sg12_119_cif.got.tgz:236603.got - 2010.06.28 00:19:55.
