data_PCOD8079835
_publ_section_title
;
Structure prediction by ZEFSAII (Michael W. Deem and Ramdas Pophale) SiO2 
 PCOD8079835
Probable space group: C 2/M
;
_chemical_formula_sum "Si O2"
_cell_formula_units_Z 64
_cell_length_a 32.374008
_cell_length_b 8.911871
_cell_length_c 14.063802
_cell_angle_alpha 90.000000
_cell_angle_beta 83.370163
_cell_angle_gamma 90.000000
_cell_volume 4030.455462
_symmetry_space_group_name_H-M "C 2/M"
_symmetry_group_IT_number 12
_symmetry_cell_setting 'monoclinic'
loop_
_space_group_symop_operation_xyz
x,y,z
-x,y,-z
-x,-y,-z
x,-y,z
1/2+x,1/2+y,z
1/2-x,1/2+y,-z
1/2-x,1/2-y,-z
1/2+x,1/2-y,z
loop_
_atom_site_type_symbol
_atom_site_label
_atom_site_fract_x
_atom_site_fract_y
_atom_site_fract_z
Si Si1 0.528484 0.673545 0.083243
Si Si2 0.343328 0.826070 0.755558
Si Si3 0.115930 0.325736 0.051592
Si Si4 0.307889 0.330727 0.048591
Si Si5 0.987658 0.676797 0.720693
Si Si6 0.912696 0.822509 0.628019
Si Si7 0.233212 0.169159 0.146434
Si Si8 0.961476 0.165650 0.439321
O O1 0.532647 0.500000 0.110539
O O2 0.573631 0.737284 0.047206
O O3 0.506693 0.763047 0.174575
O O4 0.500000 0.697660 0.000000
O O5 0.368496 0.799248 0.845705
O O6 0.367467 0.742575 0.664178
O O7 0.297354 0.756524 0.774170
O O8 0.339046 0.000000 0.732025
O O9 0.108886 0.500000 0.032055
O O10 0.149363 0.261826 0.967916
O O11 0.317276 0.500000 0.079632
O O12 0.277678 0.252306 0.133320
O O13 0.285941 0.330972 0.952902
O O14 0.982130 0.500000 0.723525
O O15 0.028803 0.719871 0.648813
O O16 0.946260 0.747577 0.688125
O O17 0.922207 0.783385 0.514473
O O18 0.914248 0.000000 0.644897
O O19 0.239487 0.000000 0.181762
O O20 0.000000 0.159127 0.500000
O O21 0.953874 0.000000 0.397645
#
# Coordination Sequence:
#
# PCOD8079835 Si02
#       8
#     8   8   8   8   8   8   8   8
#     4  11  23  36  49  63  81 109 145 184 224 263
#     4  10  18  26  39  60  85 112 142 175 213 252
#     4  10  19  30  44  61  80 106 139 177 219 258
#     4   9  16  26  40  56  77 105 138 174 208 248
#     4  11  20  30  45  63  82 107 137 177 220 258
#     4  10  18  28  43  61  84 113 144 175 209 251
#     4   9  16  25  37  55  79 108 140 173 207 245
#     4   8  16  29  43  60  81 108 139 172 208 251
#
# _framework density 15.879099
#
# number of rings (size 3 to 8) (size 9 to 14) (size 15 to 20)
#    0.000    2.250    1.250    4.125    0.000    7.750 
#    0.000    0.000    0.000    0.000    0.000    0.000 
#    0.000    0.000    0.000    1.125    0.000   14.750 
#
# Total GULP energy -396766.611277 kJ/mol
# GULP energy per Si atom -12398.956602 kJ/mol
# Density = 1.584296 g / cm^3
# Si number density = 15.879099 Si / 1000 Ang^3
#
#
#
# Elastic Constant Matrix: (Units=GPa)
#
#
# Indices 1 2 3 4 5 6 
#
# 1 62.3995 41.6178 49.4105 0.0000 -33.3765 0.0000
# 2 41.6178 123.1726 54.9423 0.0000 -25.4490 0.0000
# 3 49.4105 54.9423 76.3044 0.0000 -34.3079 0.0000
# 4 0.0000 0.0000 0.0000 19.5006 0.0000 -12.3193
# 5 -33.3765 -25.4490 -34.3079 0.0000 32.0499 0.0000
# 6 0.0000 0.0000 0.0000 -12.3193 0.0000 24.9607
#
#
#
# Elastic Compliance Matrix: (Units=1/GPa)
#
#
# Indices 1 2 3 4 5 6 
#
# 1 0.044357 -0.002940 -0.013277 0.000000 0.029647 0.000000
# 2 -0.002940 0.012160 -0.007494 0.000000 -0.001428 0.000000
# 3 -0.013277 -0.007494 0.035100 0.000000 0.017796 0.000000
# 4 0.000000 0.000000 0.000000 0.074513 0.000000 0.036776
# 5 0.029647 -0.001428 0.017796 0.000000 0.079992 0.000000
# 6 0.000000 0.000000 0.000000 0.036776 0.000000 0.058213
#
#
# Mechanical properties :
#
#
# Convention : Reuss Voigt Hill
#
# Bulk Modulus (GPa) = 22.62644 61.53532 42.08088
# Shear Modulus (GPa) = 13.64303 23.02929 18.33616
#
# Velocity S-wave (km/s) = 2.93436 3.81240 3.40183
# Velocity P-wave (km/s) = 5.07550 7.62992 6.47983
#
# Compressibility (1/GPa) = 0.04419609
#
# Stress axis : x y z
#
# Youngs Moduli (GPa) = 22.54432 82.23906 28.49001
#
# Poissons Ratio (x) = 0.24178 0.37825
# Poissons Ratio (y) = 0.06628 0.21350
# Poissons Ratio (z) = 0.29931 0.61629
#
# Static dielectric constant tensor:
#      x y z
#    x 2.845160 0.000000 -0.504600 
#    y 0.000000 3.195740 0.000000 
#    z -0.504600 0.000000 2.965900 
# 
# 
# High freq. dielectric constant tensor:
#      x y z
#    x 1.575430 0.000000 -0.053240 
#    y 0.000000 1.629910 0.000000 
#    z -0.053240 0.000000 1.575600 
# 
# From -- ./inp_files/248301.got.cif
#   From: 2010.06.25/outbox.cif.g09.slc.cpg/sg12_125_cif.got.tgz:248301.got - 2010.06.28 00:19:55.
