data_PCOD8079288
_publ_section_title
;
Structure prediction by ZEFSAII (Michael W. Deem and Ramdas Pophale) SiO2 
 PCOD8079288
Probable space group: C 2/M
;
_chemical_formula_sum "Si O2"
_cell_formula_units_Z 60
_cell_length_a 28.526984
_cell_length_b 13.837303
_cell_length_c 12.014016
_cell_angle_alpha 90.000000
_cell_angle_beta 129.965484
_cell_angle_gamma 90.000000
_cell_volume 3634.702575
_symmetry_space_group_name_H-M "C 2/M"
_symmetry_group_IT_number 12
_symmetry_cell_setting 'monoclinic'
loop_
_space_group_symop_operation_xyz
x,y,z
-x,y,-z
-x,-y,-z
x,-y,z
1/2+x,1/2+y,z
1/2-x,1/2+y,-z
1/2-x,1/2-y,-z
1/2+x,1/2-y,z
loop_
_atom_site_type_symbol
_atom_site_label
_atom_site_fract_x
_atom_site_fract_y
_atom_site_fract_z
Si Si1 0.324244 0.884623 0.094073
Si Si2 0.500000 0.832644 0.500000
Si Si3 0.460295 0.888434 0.830977
Si Si4 0.730844 0.389597 0.534015
Si Si5 0.280240 0.389682 0.231273
Si Si6 0.158242 0.703622 0.418892
Si Si7 0.130663 0.723667 0.629190
Si Si8 0.948781 0.393523 0.203223
O O1 0.328777 0.841881 0.224997
O O2 0.382191 0.844191 0.110655
O O3 0.328388 0.000000 0.110125
O O4 0.264621 0.851430 0.934884
O O5 0.441471 0.769176 0.451140
O O6 0.477998 0.902603 0.369516
O O7 0.399377 0.824262 0.745841
O O8 0.503392 0.838760 0.802612
O O9 0.442115 0.000000 0.777045
O O10 0.500000 0.879877 0.000000
O O11 0.709820 0.500000 0.478956
O O12 0.751242 0.377441 0.694838
O O13 0.785755 0.363373 0.534904
O O14 0.674270 0.316732 0.424536
O O15 0.297484 0.500000 0.234722
O O16 0.343567 0.331956 0.322614
O O17 0.142025 0.680850 0.522961
O O18 0.940457 0.500000 0.138636
#
# Coordination Sequence:
#
# PCOD8079288 Si02
#       8
#     8   4   8   8   8   8   8   8
#     4   9  18  29  46  70  97 126 154 189 234 285
#     4  10  17  30  45  66  96 124 152 194 226 278
#     4  10  20  30  45  70  99 126 153 193 241 288
#     4   9  19  33  52  73  95 125 159 200 241 281
#     4   9  18  33  50  69  95 125 161 198 233 274
#     4  10  19  33  50  73  98 124 161 197 239 287
#     4  10  19  31  49  71  95 128 159 192 234 278
#     4   9  17  28  42  65  94 125 152 181 231 287
#
# _framework density 16.507541
#
# number of rings (size 3 to 8) (size 9 to 14) (size 15 to 20)
#    0.000    2.533    1.333    1.000    1.867    1.600 
#    0.000    0.333    0.000    0.400    0.000    0.000 
#    0.000    0.000    0.000    0.000    0.000    0.000 
#
# Total GULP energy -371722.934606 kJ/mol
# GULP energy per Si atom -12390.764487 kJ/mol
# Density = 1.646997 g / cm^3
# Si number density = 16.507541 Si / 1000 Ang^3
#
#
#
# Elastic Constant Matrix: (Units=GPa)
#
#
# Indices 1 2 3 4 5 6 
#
# 1 108.0653 36.0964 38.9631 0.0000 2.6953 0.0000
# 2 36.0964 71.0516 35.8759 0.0000 6.1116 0.0000
# 3 38.9631 35.8759 79.1903 0.0000 7.8423 0.0000
# 4 0.0000 0.0000 0.0000 -34.6394 0.0000 -34.4359
# 5 2.6953 6.1116 7.8423 0.0000 22.3912 0.0000
# 6 0.0000 0.0000 0.0000 -34.4359 0.0000 -3.2954
#
#
#
# Elastic Compliance Matrix: (Units=1/GPa)
#
#
# Indices 1 2 3 4 5 6 
#
# 1 0.012122 -0.004133 -0.004205 0.000000 0.001142 0.000000
# 2 -0.004133 0.019760 -0.006664 0.000000 -0.002562 0.000000
# 3 -0.004205 -0.006664 0.018114 0.000000 -0.004019 0.000000
# 4 0.000000 0.000000 0.000000 0.003075 0.000000 -0.032133
# 5 0.001142 -0.002562 -0.004019 0.000000 0.046630 0.000000
# 6 0.000000 0.000000 0.000000 -0.032133 0.000000 0.032323
#
#
# Mechanical properties :
#
#
# Convention : Reuss Voigt Hill
#
# Bulk Modulus (GPa) = 50.02427 53.35312 51.68869
# Shear Modulus (GPa) = 29.64006 6.71607 18.17807
#
# Velocity S-wave (km/s) = 4.24199 2.01924 3.32203
# Velocity P-wave (km/s) = 7.37308 6.15037 6.78930
#
# Compressibility (1/GPa) = 0.01999030
#
# Stress axis : x y z
#
# Youngs Moduli (GPa) = 82.49564 50.60849 55.20669
#
# Poissons Ratio (x) = 0.20919 0.23212
# Poissons Ratio (y) = 0.34099 0.36792
# Poissons Ratio (z) = 0.34687 0.33727
#
# Static dielectric constant tensor:
#      x y z
#    x 3.336650 0.000000 -0.051230 
#    y 0.000000 2.919930 0.000000 
#    z -0.051230 0.000000 3.135960 
# 
# 
# High freq. dielectric constant tensor:
#      x y z
#    x 1.645110 0.000000 -0.005880 
#    y 0.000000 1.603930 0.000000 
#    z -0.005880 0.000000 1.634130 
# 
# From -- ./inp_files/183266.got.cif
#   From: 2010.06.25/outbox.cif.g09.slc.cpg/sg12_92_cif.got.tgz:183266.got - 2010.06.28 00:19:55.
