data_PCOD8079812
_publ_section_title
;
Structure prediction by ZEFSAII (Michael W. Deem and Ramdas Pophale) SiO2 
 PCOD8079812
Probable space group: C 2/M
;
_chemical_formula_sum "Si O2"
_cell_formula_units_Z 56
_cell_length_a 26.583143
_cell_length_b 13.815630
_cell_length_c 12.316626
_cell_angle_alpha 90.000000
_cell_angle_beta 66.825355
_cell_angle_gamma 90.000000
_cell_volume 4158.441162
_symmetry_space_group_name_H-M "C 2/M"
_symmetry_group_IT_number 12
_symmetry_cell_setting 'monoclinic'
loop_
_space_group_symop_operation_xyz
x,y,z
-x,y,-z
-x,-y,-z
x,-y,z
1/2+x,1/2+y,z
1/2-x,1/2+y,-z
1/2-x,1/2-y,-z
1/2+x,1/2-y,z
loop_
_atom_site_type_symbol
_atom_site_label
_atom_site_fract_x
_atom_site_fract_y
_atom_site_fract_z
Si Si1 0.911197 0.385261 0.082776
Si Si2 0.792836 0.893512 0.572113
Si Si3 0.494303 0.113761 0.839667
Si Si4 0.034048 0.386351 0.576899
Si Si5 0.255693 0.606429 0.357431
Si Si6 0.313034 0.794184 0.275020
Si Si7 0.350284 0.205611 0.489822
O O1 0.900187 0.500000 0.099328
O O2 0.854376 0.328897 0.146662
O O3 0.952753 0.347911 0.140607
O O4 0.937377 0.352940 0.944459
O O5 0.771948 0.897262 0.468074
O O6 0.741434 0.859317 0.687921
O O7 0.842587 0.816990 0.535304
O O8 0.812737 0.000000 0.593919
O O9 0.497517 0.145960 0.711602
O O10 0.496287 0.000000 0.850624
O O11 0.048088 0.500000 0.570300
O O12 0.089676 0.326701 0.527780
O O13 0.000000 0.358802 0.500000
O O14 0.261598 0.500000 0.298174
O O15 0.295905 0.682953 0.264561
O O16 0.192691 0.640304 0.406517
O O17 0.341133 0.805796 0.368883
#
# Coordination Sequence:
#
# PCOD8079812 Si02
#       7
#     8   8   8   8   8   8   8
#     4   9  14  21  35  53  75  97 117 146 180 220
#     4   8  14  22  33  53  76  95 118 149 183 219
#     4   8  15  24  33  50  73  97 123 148 179 213
#     4  10  18  26  37  53  74 100 127 151 176 211
#     4   8  14  22  32  51  77  99 120 145 176 220
#     4   9  14  20  35  56  75  99 120 138 180 228
#     4   9  15  23  35  51  75 101 121 145 180 219
#
# _framework density 13.466583999999999
#
# number of rings (size 3 to 8) (size 9 to 14) (size 15 to 20)
#    0.000    3.286    1.429    3.429    0.000    1.143 
#    0.000    0.000    0.000    0.429    0.000    7.000 
#    0.000    2.286    0.000    0.000    0.000    0.000 
#
# Total GULP energy -346924.372733 kJ/mol
# GULP energy per Si atom -12390.156169 kJ/mol
# Density = 1.343593 g / cm^3
# Si number density = 13.466584 Si / 1000 Ang^3
#
#
#
# Elastic Constant Matrix: (Units=GPa)
#
#
# Indices 1 2 3 4 5 6 
#
# 1 65.0609 38.8107 44.8546 0.0000 -14.7640 0.0000
# 2 38.8107 92.6005 34.7889 0.0000 -15.1321 0.0000
# 3 44.8546 34.7889 84.5704 0.0000 -18.3457 0.0000
# 4 0.0000 0.0000 0.0000 13.5413 0.0000 -7.5253
# 5 -14.7640 -15.1321 -18.3457 0.0000 23.1304 0.0000
# 6 0.0000 0.0000 0.0000 -7.5253 0.0000 16.5530
#
#
#
# Elastic Compliance Matrix: (Units=1/GPa)
#
#
# Indices 1 2 3 4 5 6 
#
# 1 0.028195 -0.006878 -0.011108 0.000000 0.004687 0.000000
# 2 -0.006878 0.014961 -0.001613 0.000000 0.004118 0.000000
# 3 -0.011108 -0.001613 0.020065 0.000000 0.007769 0.000000
# 4 0.000000 0.000000 0.000000 0.098813 0.000000 0.044922
# 5 0.004687 0.004118 0.007769 0.000000 0.055080 0.000000
# 6 0.000000 0.000000 0.000000 0.044922 0.000000 0.080835
#
#
# Mechanical properties :
#
#
# Convention : Reuss Voigt Hill
#
# Bulk Modulus (GPa) = 41.62799 53.23778 47.43288
# Shear Modulus (GPa) = 14.48631 18.89678 16.69154
#
# Velocity S-wave (km/s) = 3.28338 3.75004 3.52444
# Velocity P-wave (km/s) = 6.73448 7.63999 7.20148
#
# Compressibility (1/GPa) = 0.02402230
#
# Stress axis : x y z
#
# Youngs Moduli (GPa) = 35.46751 66.84193 49.83871
#
# Poissons Ratio (x) = 0.45974 0.55361
# Poissons Ratio (y) = 0.24394 0.08039
# Poissons Ratio (z) = 0.39397 0.10782
#
# Static dielectric constant tensor:
#      x y z
#    x 2.410380 0.000000 -0.202250 
#    y 0.000000 2.905750 0.000000 
#    z -0.202250 0.000000 2.659320 
# 
# 
# High freq. dielectric constant tensor:
#      x y z
#    x 1.483880 0.000000 -0.028300 
#    y 0.000000 1.496920 0.000000 
#    z -0.028300 0.000000 1.489380 
# 
# From -- ./inp_files/175713.got.cif
#   From: 2010.06.25/outbox.cif.g09.slc.cpg/sg12_88_cif.got.tgz:175713.got - 2010.06.28 00:19:55.
