data_PCOD8079861
_publ_section_title
;
Structure prediction by ZEFSAII (Michael W. Deem and Ramdas Pophale) SiO2 
 PCOD8079861
Probable space group: C 2/M
;
_chemical_formula_sum "Si O2"
_cell_formula_units_Z 64
_cell_length_a 25.392185
_cell_length_b 9.169767
_cell_length_c 19.554775
_cell_angle_alpha 90.000000
_cell_angle_beta 117.165261
_cell_angle_gamma 90.000000
_cell_volume 4050.900194
_symmetry_space_group_name_H-M "C 2/M"
_symmetry_group_IT_number 12
_symmetry_cell_setting 'monoclinic'
loop_
_space_group_symop_operation_xyz
x,y,z
-x,y,-z
-x,-y,-z
x,-y,z
1/2+x,1/2+y,z
1/2-x,1/2+y,-z
1/2-x,1/2-y,-z
1/2+x,1/2-y,z
loop_
_atom_site_type_symbol
_atom_site_label
_atom_site_fract_x
_atom_site_fract_y
_atom_site_fract_z
Si Si1 0.000598 0.171491 0.803544
Si Si2 0.951918 0.826193 0.917785
Si Si3 0.986285 0.327747 0.659736
Si Si4 0.110932 0.327209 0.669514
Si Si5 0.205275 0.673488 0.831181
Si Si6 0.337472 0.672642 0.924488
Si Si7 0.560982 0.827130 0.505603
Si Si8 0.636134 0.671988 0.907582
O O1 0.967144 0.231058 0.851064
O O2 0.970487 0.247813 0.720612
O O3 0.069339 0.214237 0.848728
O O4 0.992280 0.000000 0.790853
O O5 0.887147 0.767405 0.901532
O O6 0.954640 0.000000 0.919856
O O7 0.000000 0.765176 0.000000
O O8 0.984556 0.500000 0.671178
O O9 0.936754 0.278719 0.572975
O O10 0.051189 0.276975 0.672602
O O11 0.112951 0.500000 0.670924
O O12 0.167991 0.266745 0.743881
O O13 0.111464 0.271950 0.589634
O O14 0.200202 0.500000 0.835862
O O15 0.272982 0.724153 0.860773
O O16 0.181077 0.744183 0.885622
O O17 0.341598 0.500000 0.928550
O O18 0.350746 0.729892 0.008480
O O19 0.500000 0.767067 0.500000
O O20 0.559958 0.000000 0.505923
O O21 0.647041 0.500000 0.907290
#
# Coordination Sequence:
#
# PCOD8079861 Si02
#       8
#     8   8   8   8   8   8   8   8
#     4  10  18  26  42  63  81 106 139 172 201 233
#     4   9  15  27  44  59  77 106 143 176 201 228
#     4   9  15  25  41  59  82 108 132 162 202 245
#     4   8  13  22  37  59  83 105 130 161 199 238
#     4  10  18  27  42  64  86 106 131 169 207 238
#     4   9  17  28  42  60  80 106 143 175 198 231
#     4   7  11  20  36  56  77 105 135 157 188 240
#     4  10  18  28  41  59  84 112 138 162 195 247
#
# _framework density 15.798957
#
# number of rings (size 3 to 8) (size 9 to 14) (size 15 to 20)
#    0.000    3.000    2.500    1.875    0.000    0.000 
#    0.000    0.000    0.000    6.000    0.000    0.875 
#    0.000    0.000    0.000    0.000    0.000    0.000 
#
# Total GULP energy -396422.080177 kJ/mol
# GULP energy per Si atom -12388.190006 kJ/mol
# Density = 1.576300 g / cm^3
# Si number density = 15.798957 Si / 1000 Ang^3
#
#
#
# Elastic Constant Matrix: (Units=GPa)
#
#
# Indices 1 2 3 4 5 6 
#
# 1 103.5209 17.5268 60.3933 0.0000 -7.9058 0.0000
# 2 17.5268 13.3550 18.8801 0.0000 -3.6691 0.0000
# 3 60.3933 18.8801 144.1194 0.0000 -20.5224 0.0000
# 4 0.0000 0.0000 0.0000 17.6878 0.0000 -5.5179
# 5 -7.9058 -3.6691 -20.5224 0.0000 19.5415 0.0000
# 6 0.0000 0.0000 0.0000 -5.5179 0.0000 13.4647
#
#
#
# Elastic Compliance Matrix: (Units=1/GPa)
#
#
# Indices 1 2 3 4 5 6 
#
# 1 0.014374 -0.012823 -0.004537 0.000000 -0.001357 0.000000
# 2 -0.012823 0.103829 -0.007280 0.000000 0.006662 0.000000
# 3 -0.004537 -0.007280 0.010979 0.000000 0.008328 0.000000
# 4 0.000000 0.000000 0.000000 0.064823 0.000000 0.026565
# 5 -0.001357 0.006662 0.008328 0.000000 0.060621 0.000000
# 6 0.000000 0.000000 0.000000 0.026565 0.000000 0.085155
#
#
# Mechanical properties :
#
#
# Convention : Reuss Voigt Hill
#
# Bulk Modulus (GPa) = 12.51516 50.51064 31.51290
# Shear Modulus (GPa) = 12.02800 21.08514 16.55657
#
# Velocity S-wave (km/s) = 2.76219 3.65717 3.24072
# Velocity P-wave (km/s) = 4.25578 7.06211 5.83031
#
# Compressibility (1/GPa) = 0.07990309
#
# Stress axis : x y z
#
# Youngs Moduli (GPa) = 69.56974 9.63118 91.07942
#
# Poissons Ratio (x) = 0.12350 0.41321
# Poissons Ratio (y) = 0.89212 0.66304
# Poissons Ratio (z) = 0.31562 0.07011
#
# Static dielectric constant tensor:
#      x y z
#    x 2.939830 0.000000 -0.002690 
#    y 0.000000 2.523060 0.000000 
#    z -0.002690 0.000000 3.553250 
# 
# 
# High freq. dielectric constant tensor:
#      x y z
#    x 1.573250 0.000000 -0.007740 
#    y 0.000000 1.556830 0.000000 
#    z -0.007740 0.000000 1.623450 
# 
# From -- ./inp_files/288858.got.cif
#   From: 2010.06.25/outbox.cif.g09.slc.cpg/sg12_145_cif.got.tgz:288858.got - 2010.06.28 00:19:55.
