data_PCOD8079503
_publ_section_title
;
Structure prediction by ZEFSAII (Michael W. Deem and Ramdas Pophale) SiO2 
 PCOD8079503
Probable space group: C 2/M
;
_chemical_formula_sum "Si O2"
_cell_formula_units_Z 48
_cell_length_a 9.783940
_cell_length_b 26.887426
_cell_length_c 12.522604
_cell_angle_alpha 90.000000
_cell_angle_beta 128.644380
_cell_angle_gamma 90.000000
_cell_volume 2572.937647
_symmetry_space_group_name_H-M "C 2/M"
_symmetry_group_IT_number 12
_symmetry_cell_setting 'monoclinic'
loop_
_space_group_symop_operation_xyz
x,y,z
-x,y,-z
-x,-y,-z
x,-y,z
1/2+x,1/2+y,z
1/2-x,1/2+y,-z
1/2-x,1/2-y,-z
1/2+x,1/2-y,z
loop_
_atom_site_type_symbol
_atom_site_label
_atom_site_fract_x
_atom_site_fract_y
_atom_site_fract_z
Si Si1 0.441945 0.555197 0.587013
Si Si2 0.633590 0.702394 0.968081
Si Si3 0.643731 0.859046 0.781565
Si Si4 0.603095 0.357962 0.287478
Si Si5 0.034764 0.554609 0.398887
Si Si6 0.624116 0.794868 0.465867
O O1 0.500000 0.575949 0.500000
O O2 0.524421 0.500000 0.650092
O O3 0.493257 0.594190 0.706346
O O4 0.237010 0.548927 0.480508
O O5 0.536785 0.685141 0.811917
O O6 0.500000 0.715076 0.000000
O O7 0.750000 0.750000 0.000000
O O8 0.762107 0.656595 0.063105
O O9 0.797173 0.870480 0.772199
O O10 0.539910 0.911076 0.733417
O O11 0.507683 0.814132 0.689717
O O12 0.747790 0.340124 0.442694
O O13 0.944511 0.500000 0.349078
O O14 0.000000 0.578558 0.500000
O O15 0.500000 0.776391 0.500000
O O16 0.750000 0.750000 0.500000
#
# Coordination Sequence:
#
# PCOD8079503 Si02
#       6
#     8   8   8   8   8   8
#     4  10  20  34  54  84 115 140 173 222 277 323
#     4  10  22  39  56  75 109 148 181 222 271 321
#     4  10  18  34  54  79 106 137 182 220 261 318
#     4  10  19  35  54  77 106 142 178 220 267 314
#     4  10  17  31  57  82 108 141 175 217 271 325
#     4  10  19  31  49  74 102 129 173 225 263 308
#
# _framework density 18.655718
#
# number of rings (size 3 to 8) (size 9 to 14) (size 15 to 20)
#    0.000    2.000    3.333    1.500    0.000    0.667 
#    3.000    0.833    0.000    3.000    0.000    3.500 
#    0.000    0.000    0.000    0.000    0.000    0.000 
#
# Total GULP energy -297373.888970 kJ/mol
# GULP energy per Si atom -12390.578707 kJ/mol
# Density = 1.861326 g / cm^3
# Si number density = 18.655718 Si / 1000 Ang^3
#
#
#
# Elastic Constant Matrix: (Units=GPa)
#
#
# Indices 1 2 3 4 5 6 
#
# 1 72.6432 38.7485 26.3378 0.0000 -0.7795 0.0000
# 2 38.7485 102.5133 23.5401 0.0000 -4.0459 0.0000
# 3 26.3378 23.5401 65.6694 0.0000 6.3619 0.0000
# 4 0.0000 0.0000 0.0000 34.1985 0.0000 4.7126
# 5 -0.7795 -4.0459 6.3619 0.0000 18.5223 0.0000
# 6 0.0000 0.0000 0.0000 4.7126 0.0000 26.5968
#
#
#
# Elastic Compliance Matrix: (Units=1/GPa)
#
#
# Indices 1 2 3 4 5 6 
#
# 1 0.018924 -0.005796 -0.005654 0.000000 0.001472 0.000000
# 2 -0.005796 0.012664 -0.002544 0.000000 0.003396 0.000000
# 3 -0.005654 -0.002544 0.019121 0.000000 -0.007361 0.000000
# 4 0.000000 0.000000 0.000000 0.029973 0.000000 -0.005311
# 5 0.001472 0.003396 -0.007361 0.000000 0.057321 0.000000
# 6 0.000000 0.000000 0.000000 -0.005311 0.000000 0.038539
#
#
# Mechanical properties :
#
#
# Convention : Reuss Voigt Hill
#
# Bulk Modulus (GPa) = 44.01633 46.45318 45.23476
# Shear Modulus (GPa) = 23.57337 26.01017 24.79177
#
# Velocity S-wave (km/s) = 3.55857 3.73798 3.64938
# Velocity P-wave (km/s) = 6.36630 6.60184 6.48514
#
# Compressibility (1/GPa) = 0.02271884
#
# Stress axis : x y z
#
# Youngs Moduli (GPa) = 52.84402 78.96442 52.29956
#
# Poissons Ratio (x) = 0.45770 0.29573
# Poissons Ratio (y) = 0.30630 0.13304
# Poissons Ratio (z) = 0.29881 0.20088
#
# Static dielectric constant tensor:
#      x y z
#    x 3.216920 0.000000 0.192260 
#    y 0.000000 3.750050 0.000000 
#    z 0.192260 0.000000 3.564880 
# 
# 
# High freq. dielectric constant tensor:
#      x y z
#    x 1.715760 0.000000 0.015480 
#    y 0.000000 1.730460 0.000000 
#    z 0.015480 0.000000 1.694370 
# 
# From -- ./inp_files/123869.got.cif
#   From: 2010.06.25/outbox.cif.g09.slc.cpg/sg12_62_cif.got.tgz:123869.got - 2010.06.28 00:19:55.
