data_PCOD8079746
_publ_section_title
;
Structure prediction by ZEFSAII (Michael W. Deem and Ramdas Pophale) SiO2 
 PCOD8079746
Probable space group: C 2/M
;
_chemical_formula_sum "Si O2"
_cell_formula_units_Z 64
_cell_length_a 24.675415
_cell_length_b 19.856723
_cell_length_c 8.379817
_cell_angle_alpha 90.000000
_cell_angle_beta 129.558734
_cell_angle_gamma 90.000000
_cell_volume 3165.521432
_symmetry_space_group_name_H-M "C 2/M"
_symmetry_group_IT_number 12
_symmetry_cell_setting 'monoclinic'
loop_
_space_group_symop_operation_xyz
x,y,z
-x,y,-z
-x,-y,-z
x,-y,z
1/2+x,1/2+y,z
1/2-x,1/2+y,-z
1/2-x,1/2-y,-z
1/2+x,1/2-y,z
loop_
_atom_site_type_symbol
_atom_site_label
_atom_site_fract_x
_atom_site_fract_y
_atom_site_fract_z
Si Si1 0.505259 0.804964 0.827947
Si Si2 0.172617 0.073106 0.091609
Si Si3 0.382093 0.712726 0.073261
Si Si4 0.739670 0.206864 0.323254
Si Si5 0.867237 0.253802 0.392288
Si Si6 0.714093 0.925377 0.450758
Si Si7 0.938066 0.427139 0.260844
Si Si8 0.316590 0.894228 0.267468
O O1 0.551113 0.737795 0.900031
O O2 0.429690 0.788580 0.610513
O O3 0.550798 0.865317 0.836581
O O4 0.500000 0.826328 0.000000
O O5 0.205872 0.077749 0.332183
O O6 0.237240 0.079972 0.085739
O O7 0.135805 0.000000 0.998055
O O8 0.118673 0.133425 0.966157
O O9 0.398023 0.720650 0.290934
O O10 0.312551 0.753503 0.892028
O O11 0.750000 0.250000 0.500000
O O12 0.817995 0.200141 0.393390
O O13 0.707028 0.132931 0.303094
O O14 0.814824 0.313976 0.246877
O O15 0.662348 0.913830 0.508065
O O16 0.698343 0.000000 0.347798
O O17 0.939680 0.500000 0.174706
O O18 0.866409 0.424907 0.227135
O O19 0.000000 0.421750 0.500000
#
# Coordination Sequence:
#
# PCOD8079746 Si02
#       8
#     8   8   8   8   8   8   8   8
#     4  12  27  41  60  87 123 163 211 262 312 364
#     4   9  19  35  62  95 122 155 197 250 312 367
#     4  12  23  39  65  89 122 164 207 258 307 367
#     4  12  20  35  63  93 119 155 209 254 302 362
#     4  12  23  40  61  89 122 160 211 258 308 366
#     4   9  19  35  58  92 133 161 193 252 312 361
#     4  11  21  36  58  82 117 163 204 243 294 366
#     4  10  17  35  62  85 121 159 203 243 302 357
#
# _framework density 20.217839000000001
#
# number of rings (size 3 to 8) (size 9 to 14) (size 15 to 20)
#    0.750    0.375    6.250    2.250    0.000    0.250 
#    0.000    1.250    0.000    2.625    0.000    0.000 
#    0.000    0.000    0.000    0.000    0.000    0.000 
#
# Total GULP energy -396472.424204 kJ/mol
# GULP energy per Si atom -12389.763256 kJ/mol
# Density = 2.017182 g / cm^3
# Si number density = 20.217839 Si / 1000 Ang^3
#
#
#
# Elastic Constant Matrix: (Units=GPa)
#
#
# Indices 1 2 3 4 5 6 
#
# 1 90.2362 40.2106 15.2042 0.0000 -4.2650 0.0000
# 2 40.2106 167.2947 25.3615 0.0000 -4.9874 0.0000
# 3 15.2042 25.3615 54.0859 0.0000 -9.8644 0.0000
# 4 0.0000 0.0000 0.0000 19.7869 0.0000 -6.0184
# 5 -4.2650 -4.9874 -9.8644 0.0000 21.7723 0.0000
# 6 0.0000 0.0000 0.0000 -6.0184 0.0000 18.1230
#
#
#
# Elastic Compliance Matrix: (Units=1/GPa)
#
#
# Indices 1 2 3 4 5 6 
#
# 1 0.012687 -0.002699 -0.002137 0.000000 0.000899 0.000000
# 2 -0.002699 0.007009 -0.002542 0.000000 -0.000075 0.000000
# 3 -0.002137 -0.002542 0.021910 0.000000 0.008926 0.000000
# 4 0.000000 0.000000 0.000000 0.056217 0.000000 0.018669
# 5 0.000899 -0.000075 0.008926 0.000000 0.050133 0.000000
# 6 0.000000 0.000000 0.000000 0.018669 0.000000 0.061378
#
#
# Mechanical properties :
#
#
# Convention : Reuss Voigt Hill
#
# Bulk Modulus (GPa) = 37.24253 52.57435 44.90844
# Shear Modulus (GPa) = 21.45559 27.32580 24.39070
#
# Velocity S-wave (km/s) = 3.26117 3.68036 3.47709
# Velocity P-wave (km/s) = 5.71323 6.64232 6.19522
#
# Compressibility (1/GPa) = 0.02685102
#
# Stress axis : x y z
#
# Youngs Moduli (GPa) = 78.81974 142.66943 45.64204
#
# Poissons Ratio (x) = 0.38502 0.09754
# Poissons Ratio (y) = 0.21271 0.11601
# Poissons Ratio (z) = 0.16845 0.36262
#
# Static dielectric constant tensor:
#      x y z
#    x 3.501600 0.000000 -0.061010 
#    y 0.000000 3.890130 0.000000 
#    z -0.061010 0.000000 3.409070 
# 
# 
# High freq. dielectric constant tensor:
#      x y z
#    x 1.776960 0.000000 -0.006480 
#    y 0.000000 1.791340 0.000000 
#    z -0.006480 0.000000 1.757800 
# 
# From -- ./inp_files/99139.got.cif
#   From: 2010.06.25/outbox.cif.g09.slc.cpg/sg12_50_cif.got.tgz:99139.got - 2010.06.28 00:19:55.
