data_PCOD8079963
_publ_section_title
;
Structure prediction by ZEFSAII (Michael W. Deem and Ramdas Pophale) SiO2 
 PCOD8079963
Probable space group: C 2/M
;
_chemical_formula_sum "Si O2"
_cell_formula_units_Z 56
_cell_length_a 24.257131
_cell_length_b 9.010710
_cell_length_c 17.722209
_cell_angle_alpha 90.000000
_cell_angle_beta 62.008866
_cell_angle_gamma 90.000000
_cell_volume 3420.479193
_symmetry_space_group_name_H-M "C 2/M"
_symmetry_group_IT_number 12
_symmetry_cell_setting 'monoclinic'
loop_
_space_group_symop_operation_xyz
x,y,z
-x,y,-z
-x,-y,-z
x,-y,z
1/2+x,1/2+y,z
1/2-x,1/2+y,-z
1/2-x,1/2-y,-z
1/2+x,1/2-y,z
loop_
_atom_site_type_symbol
_atom_site_label
_atom_site_fract_x
_atom_site_fract_y
_atom_site_fract_z
Si Si1 0.793764 0.169802 0.715302
Si Si2 0.214510 0.672803 0.131539
Si Si3 0.071651 0.826215 0.960163
Si Si4 0.646686 0.166903 0.787046
Si Si5 0.806812 0.669217 0.562214
Si Si6 0.317205 0.169810 0.393690
Si Si7 0.836699 0.327175 0.995055
O O1 0.817337 0.260249 0.773302
O O2 0.720070 0.194654 0.752556
O O3 0.829678 0.230422 0.617654
O O4 0.812312 0.000000 0.714690
O O5 0.228226 0.500000 0.133568
O O6 0.168054 0.702201 0.091316
O O7 0.279979 0.753176 0.076114
O O8 0.106639 0.781586 0.860853
O O9 0.079696 0.000000 0.967720
O O10 0.099424 0.742527 0.015226
O O11 0.000000 0.778831 0.000000
O O12 0.632562 0.191598 0.706460
O O13 0.628751 0.000000 0.823620
O O14 0.809260 0.500000 0.588203
O O15 0.736615 0.709770 0.583551
O O16 0.847241 0.692185 0.458468
O O17 0.290349 0.000000 0.404515
O O18 0.834587 0.500000 0.015828
#
# Coordination Sequence:
#
# PCOD8079963 Si02
#       7
#     8   8   8   8   8   8   8
#     4  10  18  27  41  63  91 119 149 181 216 262
#     4  10  19  30  47  68  90 116 149 185 222 269
#     4  11  23  35  47  65  89 118 155 195 229 264
#     4   9  17  29  44  61  83 114 152 188 223 265
#     4   9  15  23  37  57  83 115 146 177 216 258
#     4   8  15  26  38  55  81 112 146 182 217 261
#     4  10  20  33  48  67  88 115 149 186 229 271
#
# _framework density 16.371974999999999
#
# number of rings (size 3 to 8) (size 9 to 14) (size 15 to 20)
#    0.000    2.429    1.429    3.000    0.000    5.714 
#    0.000    0.000    0.000    0.000    0.000    0.000 
#    0.000    1.143    0.000   12.857    0.000    6.714 
#
# Total GULP energy -347021.943778 kJ/mol
# GULP energy per Si atom -12393.640849 kJ/mol
# Density = 1.633471 g / cm^3
# Si number density = 16.371975 Si / 1000 Ang^3
#
#
#
# Elastic Constant Matrix: (Units=GPa)
#
#
# Indices 1 2 3 4 5 6 
#
# 1 64.2802 41.6427 38.6211 0.0000 16.9152 0.0001
# 2 41.6427 89.4209 38.5469 0.0000 16.5001 0.0000
# 3 38.6211 38.5469 97.9669 0.0000 36.1096 0.0000
# 4 0.0000 0.0000 0.0000 26.8366 0.0000 6.3405
# 5 16.9152 16.5001 36.1096 0.0000 24.7609 0.0000
# 6 0.0001 0.0000 0.0000 6.3405 0.0000 19.2506
#
#
#
# Elastic Compliance Matrix: (Units=1/GPa)
#
#
# Indices 1 2 3 4 5 6 
#
# 1 0.025426 -0.008927 -0.004976 0.000000 -0.004163 0.000000
# 2 -0.008927 0.016685 -0.002585 0.000000 -0.001251 0.000000
# 3 -0.004976 -0.002585 0.024431 0.000000 -0.030506 0.000000
# 4 0.000000 0.000000 0.000000 0.040407 0.000000 -0.013309
# 5 -0.004163 -0.001251 -0.030506 0.000000 0.088551 0.000000
# 6 0.000000 0.000000 0.000000 -0.013309 0.000000 0.056330
#
#
# Mechanical properties :
#
#
# Convention : Reuss Voigt Hill
#
# Bulk Modulus (GPa) = 29.79319 54.36548 42.07934
# Shear Modulus (GPa) = 16.89221 23.02678 19.95950
#
# Velocity S-wave (km/s) = 3.21561 3.75437 3.49539
# Velocity P-wave (km/s) = 5.65898 7.21611 6.48445
#
# Compressibility (1/GPa) = 0.03356471
#
# Stress axis : x y z
#
# Youngs Moduli (GPa) = 39.33039 59.93259 40.93235
#
# Poissons Ratio (x) = 0.53503 0.20370
# Poissons Ratio (y) = 0.35111 0.10581
# Poissons Ratio (z) = 0.19572 0.15492
#
# Static dielectric constant tensor:
#      x y z
#    x 2.696860 0.000000 0.449140 
#    y 0.000000 3.189090 0.000000 
#    z 0.449140 0.000000 3.444700 
# 
# 
# High freq. dielectric constant tensor:
#      x y z
#    x 1.562190 0.000000 0.046730 
#    y 0.000000 1.646720 0.000000 
#    z 0.046730 0.000000 1.635460 
# 
# From -- ./inp_files/291466.got.cif
#   From: 2010.06.25/outbox.cif.g09.slc.cpg/sg12_146_cif.got.tgz:291466.got - 2010.06.28 00:19:55.
