data_PCOD8079033
_publ_section_title
;
Structure prediction by ZEFSAII (Michael W. Deem and Ramdas Pophale) SiO2 
 PCOD8079033
Probable space group: C 2/M
;
_chemical_formula_sum "Si O2"
_cell_formula_units_Z 56
_cell_length_a 22.326989
_cell_length_b 12.995251
_cell_length_c 16.728566
_cell_angle_alpha 90.000000
_cell_angle_beta 44.759001
_cell_angle_gamma 90.000000
_cell_volume 3417.622584
_symmetry_space_group_name_H-M "C 2/M"
_symmetry_group_IT_number 12
_symmetry_cell_setting 'monoclinic'
loop_
_space_group_symop_operation_xyz
x,y,z
-x,y,-z
-x,-y,-z
x,-y,z
1/2+x,1/2+y,z
1/2-x,1/2+y,-z
1/2-x,1/2-y,-z
1/2+x,1/2-y,z
loop_
_atom_site_type_symbol
_atom_site_label
_atom_site_fract_x
_atom_site_fract_y
_atom_site_fract_z
Si Si1 0.159583 0.313499 0.149189
Si Si2 0.972754 0.379245 0.141392
Si Si3 0.086615 0.379515 0.457512
Si Si4 0.752644 0.881741 0.210781
Si Si5 0.868474 0.303583 0.102071
Si Si6 0.978828 0.619266 0.315829
Si Si7 0.254469 0.884983 0.081577
O O1 0.224908 0.373306 0.144762
O O2 0.178525 0.191728 0.130394
O O3 0.062764 0.323286 0.267243
O O4 0.168241 0.364534 0.053497
O O5 0.996659 0.500000 0.111427
O O6 0.889317 0.354781 0.167828
O O7 0.950450 0.346430 0.253768
O O8 0.049724 0.310169 0.033974
O O9 0.087111 0.500000 0.437963
O O10 0.173771 0.334951 0.337445
O O11 0.090607 0.356686 0.549561
O O12 0.000000 0.332717 0.500000
O O13 0.837900 0.814444 0.144330
O O14 0.774251 0.000000 0.211892
O O15 0.790206 0.365432 0.136640
O O16 0.001607 0.500000 0.293392
O O17 0.218792 0.000000 0.109291
#
# Coordination Sequence:
#
# PCOD8079033 Si02
#       7
#     8   8   8   8   8   8   8
#     4  10  18  26  43  69  95 120 148 183 233 283
#     4  10  19  32  49  68  93 118 154 200 229 265
#     4   9  16  27  46  69  94 122 150 184 232 277
#     4  10  19  31  46  69  99 122 148 190 232 280
#     4  10  19  30  47  68  91 123 158 186 229 274
#     4  10  17  28  47  70  94 118 147 192 237 270
#     4  10  18  28  42  65  96 124 149 183 228 278
#
# _framework density 16.385660000000001
#
# number of rings (size 3 to 8) (size 9 to 14) (size 15 to 20)
#    0.000    2.143    2.857    3.000    0.000    0.000 
#    0.000    2.143    0.000    0.857    0.000   10.000 
#    0.000    0.000    0.000    0.000    0.000    0.000 
#
# Total GULP energy -347054.678047 kJ/mol
# GULP energy per Si atom -12394.809930 kJ/mol
# Density = 1.634837 g / cm^3
# Si number density = 16.385660 Si / 1000 Ang^3
#
#
#
# Elastic Constant Matrix: (Units=GPa)
#
#
# Indices 1 2 3 4 5 6 
#
# 1 76.0992 24.7701 34.2454 0.0000 14.4317 0.0000
# 2 24.7701 81.8629 35.5322 0.0000 -1.8782 0.0000
# 3 34.2454 35.5322 79.0948 0.0000 10.1495 0.0000
# 4 0.0000 0.0000 0.0000 17.5747 0.0000 -2.7534
# 5 14.4317 -1.8782 10.1495 0.0000 23.0149 0.0000
# 6 0.0000 0.0000 0.0000 -2.7534 0.0000 17.8403
#
#
#
# Elastic Compliance Matrix: (Units=1/GPa)
#
#
# Indices 1 2 3 4 5 6 
#
# 1 0.018435 -0.003561 -0.005153 0.000000 -0.009578 0.000000
# 2 -0.003561 0.016315 -0.006619 0.000000 0.006484 0.000000
# 3 -0.005153 -0.006619 0.018552 0.000000 -0.005491 0.000000
# 4 0.000000 0.000000 0.000000 0.058310 0.000000 0.008999
# 5 -0.009578 0.006484 -0.005491 0.000000 0.052407 0.000000
# 6 0.000000 0.000000 0.000000 0.008999 0.000000 0.057442
#
#
# Mechanical properties :
#
#
# Convention : Reuss Voigt Hill
#
# Bulk Modulus (GPa) = 44.17852 47.35024 45.76438
# Shear Modulus (GPa) = 19.25500 21.18661 20.22081
#
# Velocity S-wave (km/s) = 3.43171 3.59973 3.51672
# Velocity P-wave (km/s) = 6.53624 6.79982 6.66933
#
# Compressibility (1/GPa) = 0.02263543
#
# Stress axis : x y z
#
# Youngs Moduli (GPa) = 54.24397 61.29338 53.90178
#
# Poissons Ratio (x) = 0.21829 0.27775
# Poissons Ratio (y) = 0.19318 0.35679
# Poissons Ratio (z) = 0.27951 0.40572
#
# Static dielectric constant tensor:
#      x y z
#    x 3.130830 0.000000 0.228000 
#    y 0.000000 2.903580 0.000000 
#    z 0.228000 0.000000 3.106790 
# 
# 
# High freq. dielectric constant tensor:
#      x y z
#    x 1.624920 0.000000 0.021990 
#    y 0.000000 1.600880 0.000000 
#    z 0.021990 0.000000 1.616600 
# 
# From -- ./inp_files/289021.got.cif
#   From: 2010.06.25/outbox.cif.g09.slc.cpg/sg12_145_cif.got.tgz:289021.got - 2010.06.28 00:19:55.
