data_PCOD8079921
_publ_section_title
;
Structure prediction by ZEFSAII (Michael W. Deem and Ramdas Pophale) SiO2 
 PCOD8079921
Probable space group: C 2/M
;
_chemical_formula_sum "Si O2"
_cell_formula_units_Z 56
_cell_length_a 22.828051
_cell_length_b 9.254572
_cell_length_c 18.151743
_cell_angle_alpha 90.000000
_cell_angle_beta 63.391718
_cell_angle_gamma 90.000000
_cell_volume 3428.660654
_symmetry_space_group_name_H-M "C 2/M"
_symmetry_group_IT_number 12
_symmetry_cell_setting 'monoclinic'
loop_
_space_group_symop_operation_xyz
x,y,z
-x,y,-z
-x,-y,-z
x,-y,z
1/2+x,1/2+y,z
1/2-x,1/2+y,-z
1/2-x,1/2-y,-z
1/2+x,1/2-y,z
loop_
_atom_site_type_symbol
_atom_site_label
_atom_site_fract_x
_atom_site_fract_y
_atom_site_fract_z
Si Si1 0.156071 0.659839 0.583446
Si Si2 0.744254 0.165493 0.110963
Si Si3 0.753223 0.168141 0.272707
Si Si4 0.008549 0.671561 0.077694
Si Si5 0.651374 0.830401 0.034122
Si Si6 0.383671 0.829138 0.238162
Si Si7 0.699265 0.661718 0.431923
O O1 0.137733 0.500000 0.565160
O O2 0.109657 0.704985 0.678074
O O3 0.229428 0.659854 0.572866
O O4 0.148507 0.769375 0.519384
O O5 0.724958 0.189462 0.206609
O O6 0.681953 0.211265 0.096175
O O7 0.763083 0.000000 0.084833
O O8 0.807397 0.259533 0.054907
O O9 0.824012 0.241947 0.236391
O O10 0.701193 0.243074 0.356727
O O11 0.759983 0.000000 0.290265
O O12 0.007298 0.500000 0.076878
O O13 0.077034 0.728159 0.072849
O O14 0.949602 0.727224 0.162266
O O15 0.000000 0.733348 0.000000
O O16 0.652763 0.000000 0.018504
O O17 0.370761 0.000000 0.233393
O O18 0.675413 0.500000 0.426476
#
# Coordination Sequence:
#
# PCOD8079921 Si02
#       7
#     8   8   8   8   8   8   8
#     4   8  14  24  37  55  82 111 135 165 207 250
#     4   9  18  30  43  62  86 111 140 174 210 246
#     4  10  18  27  40  60  87 114 139 170 209 249
#     4   9  16  26  43  66  87 108 138 174 207 241
#     4   9  17  30  47  63  82 111 143 174 208 245
#     4   9  17  28  42  62  86 112 143 173 204 248
#     4   9  16  25  39  59  82 108 139 172 206 248
#
# _framework density 16.332909000000001
#
# number of rings (size 3 to 8) (size 9 to 14) (size 15 to 20)
#    0.000    3.000    0.000    2.571    0.000    5.714 
#    0.000    0.714    0.000    2.571    0.000    1.000 
#    0.000    8.000    0.000    0.000    0.000    0.000 
#
# Total GULP energy -347095.728190 kJ/mol
# GULP energy per Si atom -12396.276007 kJ/mol
# Density = 1.629573 g / cm^3
# Si number density = 16.332909 Si / 1000 Ang^3
#
#
#
# Elastic Constant Matrix: (Units=GPa)
#
#
# Indices 1 2 3 4 5 6 
#
# 1 61.8008 25.6107 47.1999 0.0000 0.7876 0.0000
# 2 25.6107 68.2516 51.0138 -0.0001 6.0580 -0.0002
# 3 47.1999 51.0138 147.6771 0.0000 1.0755 0.0000
# 4 0.0000 -0.0001 0.0000 26.1349 0.0000 1.0081
# 5 0.7876 6.0580 1.0755 0.0000 17.5037 0.0000
# 6 0.0000 -0.0002 0.0000 1.0081 0.0000 12.7984
#
#
#
# Elastic Compliance Matrix: (Units=1/GPa)
#
#
# Indices 1 2 3 4 5 6 
#
# 1 0.022231 -0.004175 -0.005669 0.000000 0.000793 0.000000
# 2 -0.004175 0.021284 -0.005968 0.000000 -0.006812 0.000000
# 3 -0.005669 -0.005968 0.010633 0.000000 0.001667 0.000000
# 4 0.000000 0.000000 0.000000 0.038380 0.000000 -0.003023
# 5 0.000793 -0.006812 0.001667 0.000000 0.059350 0.000000
# 6 0.000000 0.000000 0.000000 -0.003023 0.000000 0.078373
#
#
# Mechanical properties :
#
#
# Convention : Reuss Voigt Hill
#
# Bulk Modulus (GPa) = 44.39904 58.37537 51.38721
# Shear Modulus (GPa) = 18.56102 21.54775 20.05439
#
# Velocity S-wave (km/s) = 3.37474 3.63614 3.50787
# Velocity P-wave (km/s) = 6.51367 7.31076 6.92370
#
# Compressibility (1/GPa) = 0.02252301
#
# Stress axis : x y z
#
# Youngs Moduli (GPa) = 44.98305 46.98390 94.04764
#
# Poissons Ratio (x) = 0.19616 0.53313
# Poissons Ratio (y) = 0.18781 0.56130
# Poissons Ratio (z) = 0.25500 0.28041
#
# Static dielectric constant tensor:
#      x y z
#    x 2.833500 0.000000 0.029580 
#    y 0.000000 3.084790 0.000000 
#    z 0.029580 0.000000 3.347220 
# 
# 
# High freq. dielectric constant tensor:
#      x y z
#    x 1.578770 0.000000 0.009560 
#    y 0.000000 1.620510 0.000000 
#    z 0.009560 0.000000 1.639360 
# 
# From -- ./inp_files/291484.got.cif
#   From: 2010.06.25/outbox.cif.g09.slc.cpg/sg12_146_cif.got.tgz:291484.got - 2010.06.28 00:19:55.
