data_PCOD8079173
_publ_section_title
;
Structure prediction by ZEFSAII (Michael W. Deem and Ramdas Pophale) SiO2 
 PCOD8079173
Probable space group: C 2/M
;
_chemical_formula_sum "Si O2"
_cell_formula_units_Z 56
_cell_length_a 20.164422
_cell_length_b 9.057569
_cell_length_c 28.155647
_cell_angle_alpha 90.000000
_cell_angle_beta 34.321451
_cell_angle_gamma 90.000000
_cell_volume 2899.447152
_symmetry_space_group_name_H-M "C 2/M"
_symmetry_group_IT_number 12
_symmetry_cell_setting 'monoclinic'
loop_
_space_group_symop_operation_xyz
x,y,z
-x,y,-z
-x,-y,-z
x,-y,z
1/2+x,1/2+y,z
1/2-x,1/2+y,-z
1/2-x,1/2-y,-z
1/2+x,1/2-y,z
loop_
_atom_site_type_symbol
_atom_site_label
_atom_site_fract_x
_atom_site_fract_y
_atom_site_fract_z
Si Si1 0.917708 0.165978 0.859912
Si Si2 0.234292 0.824753 0.739844
Si Si3 0.153878 0.328456 0.698125
Si Si4 0.005516 0.836772 0.080266
Si Si5 0.101341 0.326451 0.274916
Si Si6 0.840633 0.671156 0.412509
Si Si7 0.238969 0.823213 0.904840
O O1 0.921480 0.160683 0.914187
O O2 0.800016 0.249063 0.914019
O O3 0.026429 0.256509 0.774499
O O4 0.921192 0.000000 0.837044
O O5 0.242255 0.748348 0.683564
O O6 0.351691 0.787611 0.700023
O O7 0.120564 0.757824 0.836128
O O8 0.217150 0.000000 0.741945
O O9 0.142741 0.500000 0.717464
O O10 0.202428 0.305491 0.616125
O O11 0.972541 0.000000 0.081930
O O12 0.100367 0.770013 0.986330
O O13 0.094923 0.500000 0.270900
O O14 0.195307 0.264540 0.181213
O O15 0.971323 0.259893 0.343894
O O16 0.842771 0.500000 0.424882
O O17 0.750000 0.750000 0.500000
O O18 0.243808 0.000000 0.907240
#
# Coordination Sequence:
#
# PCOD8079173 Si02
#       7
#     8   8   8   8   8   8   8
#     4  10  18  29  46  74 107 138 180 223 260 305
#     4   9  18  34  54  78 109 142 179 217 255 308
#     4  10  19  35  57  79 106 139 175 213 261 318
#     4   8  16  27  44  73 104 138 180 219 257 300
#     4   9  18  34  55  78 107 140 175 218 264 313
#     4  10  21  38  59  84 106 132 170 214 265 318
#     4  10  17  29  48  71 105 144 179 219 263 305
#
# _framework density 19.314028
#
# number of rings (size 3 to 8) (size 9 to 14) (size 15 to 20)
#    0.000    2.571    1.429    2.143    0.000    1.714 
#    0.000    7.857    0.000    4.286    0.000    5.000 
#    0.000    0.000    0.000    0.000    0.000    0.000 
#
# Total GULP energy -346938.559141 kJ/mol
# GULP energy per Si atom -12390.662826 kJ/mol
# Density = 1.927007 g / cm^3
# Si number density = 19.314028 Si / 1000 Ang^3
#
#
#
# Elastic Constant Matrix: (Units=GPa)
#
#
# Indices 1 2 3 4 5 6 
#
# 1 90.8633 25.9221 45.4557 -0.0085 -9.4633 0.0202
# 2 25.9221 54.3451 28.7695 -0.0091 3.8035 0.0146
# 3 45.4557 28.7695 110.4857 -0.0001 10.8710 0.0018
# 4 -0.0085 -0.0091 -0.0001 23.2219 0.0003 1.2121
# 5 -9.4633 3.8035 10.8710 0.0003 17.2120 -0.0022
# 6 0.0202 0.0146 0.0018 1.2121 -0.0022 23.3756
#
#
#
# Elastic Compliance Matrix: (Units=1/GPa)
#
#
# Indices 1 2 3 4 5 6 
#
# 1 0.018060 -0.005760 -0.007499 0.000005 0.015939 -0.000010
# 2 -0.005760 0.023207 -0.003046 0.000008 -0.006371 -0.000010
# 3 -0.007499 -0.003046 0.014148 -0.000004 -0.012385 0.000006
# 4 0.000005 0.000008 -0.000004 0.043180 0.000002 -0.002239
# 5 0.015939 -0.006371 -0.012385 0.000002 0.076093 -0.000002
# 6 -0.000010 -0.000010 0.000006 -0.002239 -0.000002 0.042896
#
#
# Mechanical properties :
#
#
# Convention : Reuss Voigt Hill
#
# Bulk Modulus (GPa) = 43.85015 50.66542 47.25778
# Shear Modulus (GPa) = 19.39526 23.13168 21.26347
#
# Velocity S-wave (km/s) = 3.17236 3.46448 3.32163
# Velocity P-wave (km/s) = 6.01428 6.50330 6.26356
#
# Compressibility (1/GPa) = 0.02280494
#
# Stress axis : x y z
#
# Youngs Moduli (GPa) = 55.37047 43.09033 70.68254
#
# Poissons Ratio (x) = 0.24822 0.53002
# Poissons Ratio (y) = 0.31896 0.21530
# Poissons Ratio (z) = 0.41520 0.13126
#
# Static dielectric constant tensor:
#      x y z
#    x 3.586280 -0.000010 -0.016970 
#    y -0.000010 3.242330 0.000010 
#    z -0.016970 0.000010 3.480330 
# 
# 
# High freq. dielectric constant tensor:
#      x y z
#    x 1.752510 0.000000 0.001010 
#    y 0.000000 1.712940 0.000000 
#    z 0.001010 0.000000 1.738970 
# 
# From -- ./inp_files/280244.got.cif
#   From: 2010.06.25/outbox.cif.g09.slc.cpg/sg12_141_cif.got.tgz:280244.got - 2010.06.28 00:19:55.
