data_PCOD8079276
_publ_section_title
;
Structure prediction by ZEFSAII (Michael W. Deem and Ramdas Pophale) SiO2 
 PCOD8079276
Probable space group: C 2/M
;
_chemical_formula_sum "Si O2"
_cell_formula_units_Z 64
_cell_length_a 9.023525
_cell_length_b 30.971478
_cell_length_c 14.968892
_cell_angle_alpha 90.000000
_cell_angle_beta 127.072084
_cell_angle_gamma 90.000000
_cell_volume 3337.829562
_symmetry_space_group_name_H-M "C 2/M"
_symmetry_group_IT_number 12
_symmetry_cell_setting 'monoclinic'
loop_
_space_group_symop_operation_xyz
x,y,z
-x,y,-z
-x,-y,-z
x,-y,z
1/2+x,1/2+y,z
1/2-x,1/2+y,-z
1/2-x,1/2-y,-z
1/2+x,1/2-y,z
loop_
_atom_site_type_symbol
_atom_site_label
_atom_site_fract_x
_atom_site_fract_y
_atom_site_fract_z
Si Si1 0.943016 0.547594 0.766974
Si Si2 0.413015 0.793598 0.241035
Si Si3 0.590930 0.547594 0.766974
Si Si4 0.168376 0.172406 1.000000
Si Si5 0.196128 0.629223 0.370320
Si Si6 0.455486 0.629223 0.629679
Si Si7 0.675545 0.916856 0.000000
Si Si8 0.569056 0.706402 0.241035
O O1 0.969191 0.500000 0.733051
O O2 0.771362 0.546875 0.771362
O O3 0.906047 0.582943 0.676851
O O4 0.128923 0.559659 0.889730
O O5 0.546250 0.833641 0.306504
O O6 0.532723 0.750000 0.282722
O O7 0.271110 0.790471 0.271109
O O8 0.308069 0.798630 0.108672
O O9 0.496910 0.500000 0.733051
O O10 0.447654 0.582943 0.676851
O O11 0.650536 0.559659 0.889730
O O12 0.090724 0.201370 0.891327
O O13 0.279387 0.132746 0.000000
O O14 0.000000 0.154884 0.000000
O O15 0.284437 0.630948 0.500000
O O16 0.349376 0.635585 0.349375
O O17 0.433238 0.666359 0.693494
O O18 0.500000 0.918538 0.000000
#
# Coordination Sequence:
#
# PCOD8079276 Si02
#       8
#     8   8   8   8   8   8   8   8
#     4   9  17  30  52  84 116 145 182 229 277 324
#     4  11  23  39  60  84 112 144 181 226 279 335
#     4   9  17  30  52  84 116 145 182 229 277 324
#     4  10  21  36  56  84 114 143 176 222 278 335
#     4  10  21  37  57  82 112 148 191 234 274 320
#     4  10  21  37  57  82 112 148 191 234 274 320
#     4  10  17  29  55  83 111 147 184 224 274 331
#     4  11  23  39  60  84 112 144 181 226 279 335
#
# _framework density 19.174137000000002
#
# number of rings (size 3 to 8) (size 9 to 14) (size 15 to 20)
#    0.000    2.000    2.500    1.500    0.000    4.000 
#    0.000    2.500    0.000    3.750    0.000    1.750 
#    0.000    0.000    0.000    0.000    0.000    0.000 
#
# Total GULP energy -396813.470570 kJ/mol
# GULP energy per Si atom -12400.420955 kJ/mol
# Density = 1.913050 g / cm^3
# Si number density = 19.174137 Si / 1000 Ang^3
#
#
#
# Elastic Constant Matrix: (Units=GPa)
#
#
# Indices 1 2 3 4 5 6 
#
# 1 47.6095 46.5879 44.5432 0.0000 1.8374 0.0000
# 2 46.5879 155.0586 54.2187 0.0000 0.4606 0.0000
# 3 44.5432 54.2187 121.6383 0.0000 2.6369 0.0000
# 4 0.0000 0.0000 0.0000 3.1224 0.0000 -1.2223
# 5 1.8374 0.4606 2.6369 0.0000 16.7821 0.0000
# 6 0.0000 0.0000 0.0000 -1.2223 0.0000 23.3323
#
#
#
# Elastic Compliance Matrix: (Units=1/GPa)
#
#
# Indices 1 2 3 4 5 6 
#
# 1 0.038796 -0.007937 -0.010618 0.000000 -0.002361 0.000000
# 2 -0.007937 0.009265 -0.001241 0.000000 0.000810 0.000000
# 3 -0.010618 -0.001241 0.012680 0.000000 -0.000796 0.000000
# 4 0.000000 0.000000 0.000000 0.326974 0.000000 0.017129
# 5 -0.002361 0.000810 -0.000796 0.000000 0.059949 0.000000
# 6 0.000000 0.000000 0.000000 0.017129 0.000000 0.043756
#
#
# Mechanical properties :
#
#
# Convention : Reuss Voigt Hill
#
# Bulk Modulus (GPa) = 47.28236 68.33400 57.80818
# Shear Modulus (GPa) = 9.29264 20.57780 14.93522
#
# Velocity S-wave (km/s) = 2.20385 3.27954 2.79395
# Velocity P-wave (km/s) = 5.58470 7.07506 6.37359
#
# Compressibility (1/GPa) = 0.02114954
#
# Stress axis : x y z
#
# Youngs Moduli (GPa) = 25.77609 107.92952 78.86571
#
# Poissons Ratio (x) = 0.85659 0.83739
# Poissons Ratio (y) = 0.20457 0.09788
# Poissons Ratio (z) = 0.27369 0.13395
#
# Static dielectric constant tensor:
#      x y z
#    x 3.226150 0.000000 0.025600 
#    y 0.000000 3.665270 0.000000 
#    z 0.025600 0.000000 3.649720 
# 
# 
# High freq. dielectric constant tensor:
#      x y z
#    x 1.712460 0.000000 0.002180 
#    y 0.000000 1.758600 0.000000 
#    z 0.002180 0.000000 1.748530 
# 
# From -- ./inp_files/200931.got.cif
#   From: 2010.06.25/outbox.cif.g09.slc.cpg/sg12_101_cif.got.tgz:200931.got - 2010.06.28 00:19:55.
