data_PCOD8079932
_publ_section_title
;
Structure prediction by ZEFSAII (Michael W. Deem and Ramdas Pophale) SiO2 
 PCOD8079932
Probable space group: C 2/M
;
_chemical_formula_sum "Si O2"
_cell_formula_units_Z 56
_cell_length_a 27.725309
_cell_length_b 9.142496
_cell_length_c 14.306493
_cell_angle_alpha 90.000000
_cell_angle_beta 74.632510
_cell_angle_gamma 90.000000
_cell_volume 3496.730599
_symmetry_space_group_name_H-M "C 2/M"
_symmetry_group_IT_number 12
_symmetry_cell_setting 'monoclinic'
loop_
_space_group_symop_operation_xyz
x,y,z
-x,y,-z
-x,-y,-z
x,-y,z
1/2+x,1/2+y,z
1/2-x,1/2+y,-z
1/2-x,1/2-y,-z
1/2+x,1/2-y,z
loop_
_atom_site_type_symbol
_atom_site_label
_atom_site_fract_x
_atom_site_fract_y
_atom_site_fract_z
Si Si1 0.182282 0.830760 0.609605
Si Si2 0.805574 0.831062 0.800862
Si Si3 0.281999 0.667648 0.606324
Si Si4 0.865054 0.672705 0.213101
Si Si5 0.056122 0.672639 0.979273
Si Si6 0.708185 0.331805 0.880180
Si Si7 0.373877 0.335059 0.925091
O O1 0.235001 0.774155 0.622607
O O2 0.179865 0.803465 0.499262
O O3 0.136012 0.744940 0.682903
O O4 0.177223 0.000000 0.637642
O O5 0.811750 0.800259 0.687064
O O6 0.763815 0.727245 0.868063
O O7 0.858346 0.796413 0.826128
O O8 0.790855 0.000000 0.827425
O O9 0.262529 0.500000 0.612599
O O10 0.862408 0.500000 0.223709
O O11 0.815428 0.731545 0.188348
O O12 0.913773 0.722567 0.129114
O O13 0.056111 0.500000 0.988922
O O14 0.081826 0.732854 0.060086
O O15 0.000000 0.734706 0.000000
O O16 0.709322 0.500000 0.846587
O O17 0.676924 0.313190 0.990546
O O18 0.393910 0.500000 0.923552
#
# Coordination Sequence:
#
# PCOD8079932 Si02
#       7
#     8   8   8   8   8   8   8
#     4  10  18  28  42  63  89 118 155 192 219 254
#     4  10  18  29  43  61  89 124 154 178 214 261
#     4   9  18  29  42  60  88 125 157 185 218 253
#     4  10  18  29  46  65  88 118 148 182 227 272
#     4   9  19  35  52  69  88 112 145 185 229 276
#     4  10  18  27  40  62  90 119 152 184 212 251
#     4   9  19  31  44  65  91 117 146 181 221 267
#
# _framework density 16.014959000000001
#
# number of rings (size 3 to 8) (size 9 to 14) (size 15 to 20)
#    0.000    2.429    1.429    1.714    0.000    2.571 
#    0.000    0.000    0.000    0.000    0.000    1.000 
#    0.000    8.000    0.000    0.000    0.000    0.000 
#
# Total GULP energy -347097.093304 kJ/mol
# GULP energy per Si atom -12396.324761 kJ/mol
# Density = 1.597851 g / cm^3
# Si number density = 16.014959 Si / 1000 Ang^3
#
#
#
# Elastic Constant Matrix: (Units=GPa)
#
#
# Indices 1 2 3 4 5 6 
#
# 1 88.4351 32.1193 50.4095 0.0000 5.2042 0.0000
# 2 32.1193 59.6892 36.3191 0.0000 0.2138 0.0000
# 3 50.4095 36.3191 93.3005 0.0000 12.5264 0.0000
# 4 0.0000 0.0000 0.0000 22.7032 0.0000 0.7338
# 5 5.2042 0.2138 12.5264 0.0000 18.9842 0.0000
# 6 0.0000 0.0000 0.0000 0.7338 0.0000 18.5057
#
#
#
# Elastic Compliance Matrix: (Units=1/GPa)
#
#
# Indices 1 2 3 4 5 6 
#
# 1 0.017311 -0.004719 -0.007555 0.000000 0.000293 0.000000
# 2 -0.004719 0.023862 -0.007545 0.000000 0.006004 0.000000
# 3 -0.007555 -0.007545 0.019144 0.000000 -0.010475 0.000000
# 4 0.000000 0.000000 0.000000 0.044103 0.000000 -0.001749
# 5 0.000293 0.006004 -0.010475 0.000000 0.059440 0.000000
# 6 0.000000 0.000000 0.000000 -0.001749 0.000000 0.054107
#
#
# Mechanical properties :
#
#
# Convention : Reuss Voigt Hill
#
# Bulk Modulus (GPa) = 48.36106 53.23563 50.79835
# Shear Modulus (GPa) = 18.90366 20.21040 19.55703
#
# Velocity S-wave (km/s) = 3.43939 3.55628 3.49832
# Velocity P-wave (km/s) = 6.78495 7.08351 6.93584
#
# Compressibility (1/GPa) = 0.02067779
#
# Stress axis : x y z
#
# Youngs Moduli (GPa) = 57.76619 41.90695 52.23637
#
# Poissons Ratio (x) = 0.19776 0.39467
# Poissons Ratio (y) = 0.27260 0.39414
# Poissons Ratio (z) = 0.43645 0.31620
#
# Static dielectric constant tensor:
#      x y z
#    x 2.762590 0.000000 0.094200 
#    y 0.000000 3.084980 0.000000 
#    z 0.094200 0.000000 3.362750 
# 
# 
# High freq. dielectric constant tensor:
#      x y z
#    x 1.566060 0.000000 0.013090 
#    y 0.000000 1.623430 0.000000 
#    z 0.013090 0.000000 1.617840 
# 
# From -- ./inp_files/242982.got.cif
#   From: 2010.06.25/outbox.cif.g09.slc.cpg/sg12_122_cif.got.tgz:242982.got - 2010.06.28 00:19:55.
