data_PCOD8079155
_publ_section_title
;
Structure prediction by ZEFSAII (Michael W. Deem and Ramdas Pophale) SiO2 
 PCOD8079155
Probable space group: C 2/M
;
_chemical_formula_sum "Si O2"
_cell_formula_units_Z 48
_cell_length_a 23.932359
_cell_length_b 8.708138
_cell_length_c 13.964229
_cell_angle_alpha 90.000000
_cell_angle_beta 108.367275
_cell_angle_gamma 90.000000
_cell_volume 2761.974587
_symmetry_space_group_name_H-M "C 2/M"
_symmetry_group_IT_number 12
_symmetry_cell_setting 'monoclinic'
loop_
_space_group_symop_operation_xyz
x,y,z
-x,y,-z
-x,-y,-z
x,-y,z
1/2+x,1/2+y,z
1/2-x,1/2+y,-z
1/2-x,1/2-y,-z
1/2+x,1/2-y,z
loop_
_atom_site_type_symbol
_atom_site_label
_atom_site_fract_x
_atom_site_fract_y
_atom_site_fract_z
Si Si1 0.298924 0.826921 0.745709
Si Si2 0.179673 0.174742 0.579465
Si Si3 0.731905 0.682260 0.889712
Si Si4 0.126035 0.678827 0.730166
Si Si5 0.499549 0.181727 0.607938
Si Si6 0.877669 0.683494 0.627503
O O1 0.248769 0.816465 0.637885
O O2 0.276383 0.746813 0.832192
O O3 0.358105 0.762550 0.725166
O O4 0.311733 0.000000 0.783275
O O5 0.144853 0.285876 0.632243
O O6 0.168342 0.235783 0.467667
O O7 0.157150 0.000000 0.579987
O O8 0.735089 0.500000 0.894395
O O9 0.664899 0.727883 0.827874
O O10 0.750000 0.750000 0.000000
O O11 0.134348 0.500000 0.756475
O O12 0.057491 0.729267 0.699622
O O13 0.500000 0.251977 0.500000
O O14 0.443379 0.241503 0.638077
O O15 0.496767 0.000000 0.596562
O O16 0.871706 0.500000 0.615210
#
# Coordination Sequence:
#
# PCOD8079155 Si02
#       6
#     8   8   8   8   8   8
#     4   8  17  30  46  68  94 121 156 200 241 285
#     4  10  18  28  41  66 100 130 162 200 234 280
#     4  10  20  36  55  77  97 117 154 201 250 296
#     4  10  18  31  50  72  97 129 165 200 238 279
#     4   9  16  27  45  71  98 128 169 202 223 270
#     4  10  17  29  47  65  93 133 164 194 236 277
#
# _framework density 17.378871
#
# number of rings (size 3 to 8) (size 9 to 14) (size 15 to 20)
#    0.000    2.500    1.667    3.000    0.000    0.000 
#    0.000    6.667    0.000    1.000    0.000    7.000 
#    0.000    0.000    0.000    0.000    0.000    0.000 
#
# Total GULP energy -297349.248753 kJ/mol
# GULP energy per Si atom -12389.552031 kJ/mol
# Density = 1.733932 g / cm^3
# Si number density = 17.378871 Si / 1000 Ang^3
#
#
#
# Elastic Constant Matrix: (Units=GPa)
#
#
# Indices 1 2 3 4 5 6 
#
# 1 129.7520 24.2456 70.1506 0.0000 -14.5466 0.0000
# 2 24.2456 38.7602 26.1587 0.0000 0.9938 0.0000
# 3 70.1506 26.1587 118.9677 0.0000 -8.8266 0.0000
# 4 0.0000 0.0000 0.0000 22.0401 0.0000 3.2277
# 5 -14.5466 0.9938 -8.8266 0.0000 14.9928 0.0000
# 6 0.0000 0.0000 0.0000 3.2277 0.0000 16.2161
#
#
#
# Elastic Compliance Matrix: (Units=1/GPa)
#
#
# Indices 1 2 3 4 5 6 
#
# 1 0.012699 -0.004206 -0.005886 0.000000 0.009135 0.000000
# 2 -0.004206 0.032250 -0.005304 0.000000 -0.009341 0.000000
# 3 -0.005886 -0.005304 0.013222 0.000000 0.002425 0.000000
# 4 0.000000 0.000000 0.000000 0.046734 0.000000 -0.009302
# 5 0.009135 -0.009341 0.002425 0.000000 0.077609 0.000000
# 6 0.000000 0.000000 0.000000 -0.009302 0.000000 0.063518
#
#
# Mechanical properties :
#
#
# Convention : Reuss Voigt Hill
#
# Bulk Modulus (GPa) = 36.52288 58.73217 47.62753
# Shear Modulus (GPa) = 17.48557 21.77815 19.63186
#
# Velocity S-wave (km/s) = 3.17541 3.54381 3.36466
# Velocity P-wave (km/s) = 5.87415 7.11430 6.52376
#
# Compressibility (1/GPa) = 0.02738010
#
# Stress axis : x y z
#
# Youngs Moduli (GPa) = 78.74572 31.00810 75.62911
#
# Poissons Ratio (x) = 0.13041 0.44513
# Poissons Ratio (y) = 0.33118 0.40115
# Poissons Ratio (z) = 0.46347 0.16447
#
# Static dielectric constant tensor:
#      x y z
#    x 3.692950 0.000000 -0.147400 
#    y 0.000000 3.022540 0.000000 
#    z -0.147400 0.000000 3.115140 
# 
# 
# High freq. dielectric constant tensor:
#      x y z
#    x 1.675600 0.000000 -0.005730 
#    y 0.000000 1.648570 0.000000 
#    z -0.005730 0.000000 1.640910 
# 
# From -- ./inp_files/172423.got.cif
#   From: 2010.06.25/outbox.cif.g09.slc.cpg/sg12_87_cif.got.tgz:172423.got - 2010.06.28 00:19:55.
