data_PCOD8079753
_publ_section_title
;
Structure prediction by ZEFSAII (Michael W. Deem and Ramdas Pophale) SiO2 
 PCOD8079753
Probable space group: C 2/M
;
_chemical_formula_sum "Si O2"
_cell_formula_units_Z 64
_cell_length_a 22.219238
_cell_length_b 21.979566
_cell_length_c 9.080146
_cell_angle_alpha 90.000000
_cell_angle_beta 57.761791
_cell_angle_gamma 90.000000
_cell_volume 3750.836220
_symmetry_space_group_name_H-M "C 2/M"
_symmetry_group_IT_number 12
_symmetry_cell_setting 'monoclinic'
loop_
_space_group_symop_operation_xyz
x,y,z
-x,y,-z
-x,-y,-z
x,-y,z
1/2+x,1/2+y,z
1/2-x,1/2+y,-z
1/2-x,1/2-y,-z
1/2+x,1/2-y,z
loop_
_atom_site_type_symbol
_atom_site_label
_atom_site_fract_x
_atom_site_fract_y
_atom_site_fract_z
Si Si1 0.804571 0.732924 0.258805
Si Si2 0.125155 0.567842 0.034357
Si Si3 0.799288 0.823732 0.826592
Si Si4 0.183595 0.644812 0.210178
Si Si5 0.733476 0.568905 0.323546
Si Si6 0.945484 0.685108 0.945494
Si Si7 0.069083 0.745187 0.321248
Si Si8 0.753357 0.649509 0.566650
O O1 0.732343 0.720308 0.259961
O O2 0.807414 0.691558 0.402021
O O3 0.808890 0.804192 0.296977
O O4 0.868191 0.712881 0.073293
O O5 0.094097 0.500000 0.090007
O O6 0.183296 0.571096 0.828149
O O7 0.159311 0.586719 0.146399
O O8 0.060787 0.612765 0.075000
O O9 0.808135 0.891059 0.743732
O O10 0.878109 0.802413 0.770118
O O11 0.748289 0.822325 0.037044
O O12 0.116887 0.689824 0.321657
O O13 0.208481 0.621685 0.338621
O O14 0.703967 0.500000 0.358812
O O15 0.723603 0.595367 0.502359
O O16 0.971247 0.721945 0.771434
O O17 0.000000 0.700118 0.000000
O O18 0.000000 0.766121 0.500000
#
# Coordination Sequence:
#
# PCOD8079753 Si02
#       8
#     8   8   8   8   8   8   8   8
#     4  10  18  32  49  77  98 136 170 198 255 318
#     4   9  18  35  51  67  95 140 185 209 241 295
#     4  10  17  36  56  72 101 141 173 202 257 314
#     4  10  18  31  52  75 102 138 168 213 252 300
#     4   9  18  32  51  75 100 131 174 214 246 297
#     4  11  22  34  49  73 107 137 169 208 258 304
#     4  11  22  31  50  80 106 129 166 218 260 304
#     4  10  18  26  52  75 104 125 162 213 259 295
#
# _framework density 17.062861000000002
#
# number of rings (size 3 to 8) (size 9 to 14) (size 15 to 20)
#    0.000    2.000    6.250    1.125    1.750    0.750 
#    0.000    0.000    0.000    6.375    0.000    0.000 
#    0.000    3.000    0.000    0.000    0.000    0.000 
#
# Total GULP energy -396568.099850 kJ/mol
# GULP energy per Si atom -12392.753120 kJ/mol
# Density = 1.702403 g / cm^3
# Si number density = 17.062861 Si / 1000 Ang^3
#
#
#
# Elastic Constant Matrix: (Units=GPa)
#
#
# Indices 1 2 3 4 5 6 
#
# 1 78.9593 29.2229 24.9651 0.0000 8.2183 0.0000
# 2 29.2229 94.2190 12.2011 0.0000 3.3069 0.0000
# 3 24.9651 12.2011 54.4231 0.0000 5.3681 0.0000
# 4 0.0000 0.0000 0.0000 13.1200 0.0000 5.5876
# 5 8.2183 3.3069 5.3681 0.0000 30.0182 0.0000
# 6 0.0000 0.0000 0.0000 5.5876 0.0000 12.1250
#
#
#
# Elastic Compliance Matrix: (Units=1/GPa)
#
#
# Indices 1 2 3 4 5 6 
#
# 1 0.016534 -0.004203 -0.006353 0.000000 -0.002927 0.000000
# 2 -0.004203 0.012017 -0.000763 0.000000 -0.000037 0.000000
# 3 -0.006353 -0.000763 0.021662 0.000000 -0.002050 0.000000
# 4 0.000000 0.000000 0.000000 0.094831 0.000000 -0.043701
# 5 -0.002927 -0.000037 -0.002050 0.000000 0.034485 0.000000
# 6 0.000000 0.000000 0.000000 -0.043701 0.000000 0.102613
#
#
# Mechanical properties :
#
#
# Convention : Reuss Voigt Hill
#
# Bulk Modulus (GPa) = 36.26388 40.04219 38.15303
# Shear Modulus (GPa) = 15.92502 21.80014 18.86258
#
# Velocity S-wave (km/s) = 3.05833 3.57828 3.32848
# Velocity P-wave (km/s) = 5.81124 6.37107 6.09758
#
# Compressibility (1/GPa) = 0.02757565
#
# Stress axis : x y z
#
# Youngs Moduli (GPa) = 60.48282 83.21478 46.16331
#
# Poissons Ratio (x) = 0.34972 0.29330
# Poissons Ratio (y) = 0.25418 0.03521
# Poissons Ratio (z) = 0.38427 0.06346
#
# Static dielectric constant tensor:
#      x y z
#    x 3.004740 0.000000 0.283450 
#    y 0.000000 3.209870 0.000000 
#    z 0.283450 0.000000 3.172070 
# 
# 
# High freq. dielectric constant tensor:
#      x y z
#    x 1.633090 0.000000 0.029330 
#    y 0.000000 1.644680 0.000000 
#    z 0.029330 0.000000 1.652360 
# 
# From -- ./inp_files/90659.got.cif
#   From: 2010.06.25/outbox.cif.g09.slc.cpg/sg12_46_cif.got.tgz:90659.got - 2010.06.28 00:19:55.
