data_PCOD8079545
_publ_section_title
;
Structure prediction by ZEFSAII (Michael W. Deem and Ramdas Pophale) SiO2 
 PCOD8079545
Probable space group: C 2/M
;
_chemical_formula_sum "Si O2"
_cell_formula_units_Z 64
_cell_length_a 15.673203
_cell_length_b 29.495466
_cell_length_c 8.988334
_cell_angle_alpha 90.000000
_cell_angle_beta 59.241365
_cell_angle_gamma 90.000000
_cell_volume 3570.687683
_symmetry_space_group_name_H-M "C 2/M"
_symmetry_group_IT_number 12
_symmetry_cell_setting 'monoclinic'
loop_
_space_group_symop_operation_xyz
x,y,z
-x,y,-z
-x,-y,-z
x,-y,z
1/2+x,1/2+y,z
1/2-x,1/2+y,-z
1/2-x,1/2-y,-z
1/2+x,1/2-y,z
loop_
_atom_site_type_symbol
_atom_site_label
_atom_site_fract_x
_atom_site_fract_y
_atom_site_fract_z
Si Si1 0.587201 0.113351 0.730829
Si Si2 0.634318 0.861863 0.998694
Si Si3 0.097915 0.211814 0.498059
Si Si4 0.889102 0.448294 0.541843
Si Si5 0.599034 0.815800 0.486327
Si Si6 0.781853 0.269088 0.131627
Si Si7 0.262180 0.128127 0.807677
Si Si8 0.894619 0.813078 0.172393
O O1 0.644088 0.110828 0.836017
O O2 0.607735 0.065110 0.634756
O O3 0.634490 0.154255 0.593890
O O4 0.470679 0.124214 0.839489
O O5 0.635982 0.808023 0.967839
O O6 0.725420 0.876525 0.025005
O O7 0.086508 0.264629 0.549695
O O8 0.191296 0.207092 0.303509
O O9 0.104520 0.184280 0.647732
O O10 0.000000 0.194277 0.500000
O O11 0.855184 0.500000 0.591660
O O12 0.807800 0.417145 0.695726
O O13 0.000000 0.439742 0.500000
O O14 0.500000 0.835418 0.500000
O O15 0.681407 0.824705 0.286632
O O16 0.829540 0.230454 0.189431
O O17 0.750000 0.250000 0.000000
O O18 0.150300 0.139289 0.853404
O O19 0.000000 0.807226 0.000000
#
# Coordination Sequence:
#
# PCOD8079545 Si02
#       8
#     8   8   8   8   8   8   8   8
#     4  10  20  32  53  82 113 146 184 227 282 347
#     4  11  21  32  50  81 114 157 189 224 278 336
#     4  11  24  37  52  77 109 153 203 248 290 327
#     4  10  20  38  63  88 111 141 181 233 297 365
#     4  10  17  32  51  72 104 147 190 231 271 329
#     4  12  23  36  53  78 115 160 201 245 277 330
#     4  11  20  38  56  75 113 148 190 226 291 344
#     4  12  26  38  53  79 114 155 203 251 282 320
#
# _framework density 17.923718000000001
#
# number of rings (size 3 to 8) (size 9 to 14) (size 15 to 20)
#    0.000    1.125    5.000    2.625    8.750    0.000 
#    0.000    1.875    0.000    0.375    0.000    0.000 
#    0.000    1.500    0.000    0.000    0.000    0.000 
#
# Total GULP energy -396578.563285 kJ/mol
# GULP energy per Si atom -12393.080103 kJ/mol
# Density = 1.788292 g / cm^3
# Si number density = 17.923718 Si / 1000 Ang^3
#
#
#
# Elastic Constant Matrix: (Units=GPa)
#
#
# Indices 1 2 3 4 5 6 
#
# 1 96.3966 33.3505 46.1253 0.0000 19.5317 0.0000
# 2 33.3505 82.2400 23.0403 0.0000 8.8181 0.0000
# 3 46.1253 23.0403 96.7820 0.0000 19.4257 0.0000
# 4 0.0000 0.0000 0.0000 18.7043 0.0000 -3.0263
# 5 19.5317 8.8181 19.4257 0.0000 39.1810 0.0000
# 6 0.0000 0.0000 0.0000 -3.0263 0.0000 10.6849
#
#
#
# Elastic Compliance Matrix: (Units=1/GPa)
#
#
# Indices 1 2 3 4 5 6 
#
# 1 0.015254 -0.004230 -0.005472 0.000000 -0.003939 0.000000
# 2 -0.004230 0.014287 -0.001291 0.000000 -0.000466 0.000000
# 3 -0.005472 -0.001291 0.014039 0.000000 -0.003942 0.000000
# 4 0.000000 0.000000 0.000000 0.056031 0.000000 0.015870
# 5 -0.003939 -0.000466 -0.003942 0.000000 0.029545 0.000000
# 6 0.000000 0.000000 0.000000 0.015870 0.000000 0.098084
#
#
# Mechanical properties :
#
#
# Convention : Reuss Voigt Hill
#
# Bulk Modulus (GPa) = 46.31364 53.38344 49.84854
# Shear Modulus (GPa) = 19.49876 25.24086 22.36981
#
# Velocity S-wave (km/s) = 3.30187 3.75672 3.53662
# Velocity P-wave (km/s) = 6.35861 6.97607 6.67449
#
# Compressibility (1/GPa) = 0.02159191
#
# Stress axis : x y z
#
# Youngs Moduli (GPa) = 65.55691 69.99419 71.22943
#
# Poissons Ratio (x) = 0.29611 0.38978
# Poissons Ratio (y) = 0.27734 0.09199
# Poissons Ratio (z) = 0.35874 0.09039
#
# Static dielectric constant tensor:
#      x y z
#    x 3.623950 0.000000 0.218360 
#    y 0.000000 2.991640 0.000000 
#    z 0.218360 0.000000 3.538630 
# 
# 
# High freq. dielectric constant tensor:
#      x y z
#    x 1.689240 0.000000 0.018090 
#    y 0.000000 1.646080 0.000000 
#    z 0.018090 0.000000 1.702870 
# 
# From -- ./inp_files/68198.got.cif
#   From: 2010.06.25/outbox.cif.g09.slc.cpg/sg12_35_cif.got.tgz:68198.got - 2010.06.28 00:19:55.
