data_PCOD8079040
_publ_section_title
;
Structure prediction by ZEFSAII (Michael W. Deem and Ramdas Pophale) SiO2 
 PCOD8079040
Probable space group: C 2/M
;
_chemical_formula_sum "Si O2"
_cell_formula_units_Z 56
_cell_length_a 20.492087
_cell_length_b 9.144235
_cell_length_c 17.697393
_cell_angle_alpha 90.000000
_cell_angle_beta 71.140148
_cell_angle_gamma 90.000000
_cell_volume 3138.175722
_symmetry_space_group_name_H-M "C 2/M"
_symmetry_group_IT_number 12
_symmetry_cell_setting 'monoclinic'
loop_
_space_group_symop_operation_xyz
x,y,z
-x,y,-z
-x,-y,-z
x,-y,z
1/2+x,1/2+y,z
1/2-x,1/2+y,-z
1/2-x,1/2-y,-z
1/2+x,1/2-y,z
loop_
_atom_site_type_symbol
_atom_site_label
_atom_site_fract_x
_atom_site_fract_y
_atom_site_fract_z
Si Si1 0.591496 0.826167 0.576947
Si Si2 0.580967 0.337817 0.986328
Si Si3 0.351296 0.670420 0.588013
Si Si4 0.956443 0.833282 0.677208
Si Si5 0.606076 0.827588 0.834267
Si Si6 0.968720 0.830654 0.841834
Si Si7 0.302899 0.826983 0.336297
O O1 0.607406 0.759682 0.489771
O O2 0.516295 0.775784 0.630322
O O3 0.647860 0.766685 0.615707
O O4 0.591990 0.000000 0.571358
O O5 0.611402 0.500000 0.963297
O O6 0.620669 0.231884 0.913421
O O7 0.500000 0.333764 0.000000
O O8 0.587539 0.287650 0.072015
O O9 0.351089 0.500000 0.565625
O O10 0.388214 0.696458 0.654233
O O11 0.274014 0.734962 0.623616
O O12 0.935510 0.804481 0.772193
O O13 0.982459 0.000000 0.656182
O O14 0.536853 0.765752 0.823372
O O15 0.668612 0.778546 0.756309
O O16 0.598530 0.000000 0.841797
O O17 0.990108 0.000000 0.846195
O O18 0.301276 0.000000 0.341118
#
# Coordination Sequence:
#
# PCOD8079040 Si02
#       7
#     8   8   8   8   8   8   8
#     4  11  21  35  53  74 100 128 161 205 254 294
#     4   8  15  27  43  67  99 127 154 196 241 281
#     4  10  21  37  53  71  97 130 169 206 240 288
#     4  10  20  34  54  75  96 129 169 204 240 288
#     4  10  17  28  47  72  98 126 160 196 240 288
#     4   9  17  30  47  70  98 126 159 198 241 284
#     4   9  19  34  51  72 100 131 163 202 244 289
#
# _framework density 17.844761999999999
#
# number of rings (size 3 to 8) (size 9 to 14) (size 15 to 20)
#    0.000    2.429    1.429    2.571    0.000    4.857 
#    0.000    2.143    0.000    0.857    0.000    0.000 
#    0.000    0.000    0.000    0.000    0.000    1.429 
#
# Total GULP energy -347114.804606 kJ/mol
# GULP energy per Si atom -12396.957307 kJ/mol
# Density = 1.780415 g / cm^3
# Si number density = 17.844762 Si / 1000 Ang^3
#
#
#
# Elastic Constant Matrix: (Units=GPa)
#
#
# Indices 1 2 3 4 5 6 
#
# 1 71.8821 22.7427 32.3707 0.0000 11.4584 0.0000
# 2 22.7427 58.5593 38.1855 0.0000 9.1365 0.0000
# 3 32.3707 38.1855 128.2967 0.0000 29.0063 0.0000
# 4 0.0000 0.0000 0.0000 26.3383 0.0000 2.8060
# 5 11.4584 9.1365 29.0063 0.0000 16.3067 0.0000
# 6 0.0000 0.0000 0.0000 2.8060 0.0000 15.8253
#
#
#
# Elastic Compliance Matrix: (Units=1/GPa)
#
#
# Indices 1 2 3 4 5 6 
#
# 1 0.017114 -0.004678 -0.001337 0.000000 -0.007026 0.000000
# 2 -0.004678 0.022480 -0.005697 0.000000 0.000826 0.000000
# 3 -0.001337 -0.005697 0.014876 0.000000 -0.022330 0.000000
# 4 0.000000 0.000000 0.000000 0.038699 0.000000 -0.006862
# 5 -0.007026 0.000826 -0.022330 0.000000 0.105518 0.000000
# 6 0.000000 0.000000 0.000000 -0.006862 0.000000 0.064407
#
#
# Mechanical properties :
#
#
# Convention : Reuss Voigt Hill
#
# Bulk Modulus (GPa) = 32.21210 49.48178 40.84694
# Shear Modulus (GPa) = 16.84256 22.72333 19.78294
#
# Velocity S-wave (km/s) = 3.07553 3.57233 3.33320
# Velocity P-wave (km/s) = 5.54097 6.69362 6.14438
#
# Compressibility (1/GPa) = 0.03104424
#
# Stress axis : x y z
#
# Youngs Moduli (GPa) = 58.43173 44.48441 67.22263
#
# Poissons Ratio (x) = 0.20812 0.08988
# Poissons Ratio (y) = 0.27337 0.38298
# Poissons Ratio (z) = 0.07813 0.25343
#
# Static dielectric constant tensor:
#      x y z
#    x 3.161040 0.000000 0.182950 
#    y 0.000000 3.192920 0.000000 
#    z 0.182950 0.000000 3.765560 
# 
# 
# High freq. dielectric constant tensor:
#      x y z
#    x 1.654550 0.000000 0.015800 
#    y 0.000000 1.678000 0.000000 
#    z 0.015800 0.000000 1.709780 
# 
# From -- ./inp_files/280442.got.cif
#   From: 2010.06.25/outbox.cif.g09.slc.cpg/sg12_141_cif.got.tgz:280442.got - 2010.06.28 00:19:55.
