data_PCOD8079978
_publ_section_title
;
Structure prediction by ZEFSAII (Michael W. Deem and Ramdas Pophale) SiO2 
 PCOD8079978
Probable space group: C 2/M
;
_chemical_formula_sum "Si O2"
_cell_formula_units_Z 64
_cell_length_a 31.941386
_cell_length_b 9.091101
_cell_length_c 15.919916
_cell_angle_alpha 90.000000
_cell_angle_beta 111.409186
_cell_angle_gamma 90.000000
_cell_volume 4303.872879
_symmetry_space_group_name_H-M "C 2/M"
_symmetry_group_IT_number 12
_symmetry_cell_setting 'monoclinic'
loop_
_space_group_symop_operation_xyz
x,y,z
-x,y,-z
-x,-y,-z
x,-y,z
1/2+x,1/2+y,z
1/2-x,1/2+y,-z
1/2-x,1/2-y,-z
1/2+x,1/2-y,z
loop_
_atom_site_type_symbol
_atom_site_label
_atom_site_fract_x
_atom_site_fract_y
_atom_site_fract_z
Si Si1 0.267065 0.329410 0.641145
Si Si2 0.090054 0.671616 0.478599
Si Si3 0.835186 0.833191 0.185082
Si Si4 0.497659 0.333872 0.598081
Si Si5 0.290700 0.669583 0.985974
Si Si6 0.762534 0.327617 0.813045
Si Si7 0.586099 0.827643 0.668517
Si Si8 0.683428 0.830131 0.464693
O O1 0.275553 0.500000 0.667095
O O2 0.270751 0.235750 0.727547
O O3 0.305245 0.272857 0.605545
O O4 0.218073 0.302484 0.565794
O O5 0.079601 0.500000 0.463901
O O6 0.096819 0.717006 0.580525
O O7 0.134540 0.716696 0.461096
O O8 0.048404 0.756990 0.405929
O O9 0.832457 0.817788 0.081406
O O10 0.787973 0.791224 0.194003
O O11 0.872715 0.722057 0.244068
O O12 0.848296 0.000000 0.219266
O O13 0.500000 0.325789 0.500000
O O14 0.498064 0.500000 0.631957
O O15 0.540610 0.250009 0.667654
O O16 0.278271 0.500000 0.960870
O O17 0.250000 0.750000 0.000000
O O18 0.298552 0.749950 0.902398
O O19 0.772265 0.500000 0.820339
O O20 0.579229 0.000000 0.673588
O O21 0.685187 0.000000 0.437594
#
# Coordination Sequence:
#
# PCOD8079978 Si02
#       8
#     8   8   8   8   8   8   8   8
#     4  10  19  30  44  62  84 111 144 179 213 249
#     4   9  17  29  43  59  81 110 143 175 209 248
#     4   9  18  29  41  60  85 111 139 172 208 246
#     4   9  17  28  41  58  81 108 138 172 208 246
#     4   9  17  29  43  60  83 110 140 174 210 248
#     4  10  19  30  44  61  83 113 145 176 212 251
#     4  10  18  27  42  62  84 111 141 172 206 247
#     4   9  18  31  44  60  84 112 142 178 216 250
#
# _framework density 14.870328000000001
#
# number of rings (size 3 to 8) (size 9 to 14) (size 15 to 20)
#    0.000    2.625    0.000    3.375    0.000    7.000 
#    0.000    0.000    0.000    0.000    0.000    0.000 
#    0.000    1.000    0.000   10.500    0.000    4.500 
#
# Total GULP energy -396755.264483 kJ/mol
# GULP energy per Si atom -12398.602015 kJ/mol
# Density = 1.483648 g / cm^3
# Si number density = 14.870328 Si / 1000 Ang^3
#
#
#
# Elastic Constant Matrix: (Units=GPa)
#
#
# Indices 1 2 3 4 5 6 
#
# 1 84.9808 45.6869 36.2738 0.0000 6.5246 0.0000
# 2 45.6869 95.1521 50.0073 0.0000 3.0580 0.0000
# 3 36.2738 50.0073 78.8848 0.0000 -2.2687 0.0000
# 4 0.0000 0.0000 0.0000 28.0657 0.0000 1.7941
# 5 6.5246 3.0580 -2.2687 0.0000 17.0221 0.0000
# 6 0.0000 0.0000 0.0000 1.7941 0.0000 24.9782
#
#
#
# Elastic Compliance Matrix: (Units=1/GPa)
#
#
# Indices 1 2 3 4 5 6 
#
# 1 0.017226 -0.005723 -0.004470 0.000000 -0.006171 0.000000
# 2 -0.005723 0.017964 -0.008819 0.000000 -0.002209 0.000000
# 3 -0.004470 -0.008819 0.020497 0.000000 0.006030 0.000000
# 4 0.000000 0.000000 0.000000 0.035795 0.000000 -0.002571
# 5 -0.006171 -0.002209 0.006030 0.000000 0.062313 0.000000
# 6 0.000000 0.000000 0.000000 -0.002571 0.000000 0.040220
#
#
# Mechanical properties :
#
#
# Convention : Reuss Voigt Hill
#
# Bulk Modulus (GPa) = 56.62478 58.10598 57.36538
# Shear Modulus (GPa) = 21.01485 22.48317 21.74901
#
# Velocity S-wave (km/s) = 3.76334 3.89260 3.82852
# Velocity P-wave (km/s) = 7.55284 7.70474 7.62917
#
# Compressibility (1/GPa) = 0.01766011
#
# Stress axis : x y z
#
# Youngs Moduli (GPa) = 58.05074 55.66833 48.78853
#
# Poissons Ratio (x) = 0.31861 0.21811
# Poissons Ratio (y) = 0.33225 0.43028
# Poissons Ratio (z) = 0.25951 0.49096
#
# Static dielectric constant tensor:
#      x y z
#    x 2.710800 0.000000 0.059140 
#    y 0.000000 3.028770 0.000000 
#    z 0.059140 0.000000 2.815990 
# 
# 
# High freq. dielectric constant tensor:
#      x y z
#    x 1.538860 0.000000 0.006880 
#    y 0.000000 1.585660 0.000000 
#    z 0.006880 0.000000 1.551300 
# 
# From -- ./inp_files/243883.got.cif
#   From: 2010.06.25/outbox.cif.g09.slc.cpg/sg12_122_cif.got.tgz:243883.got - 2010.06.28 00:19:55.
