data_PCOD8079391
_publ_section_title
;
Structure prediction by ZEFSAII (Michael W. Deem and Ramdas Pophale) SiO2 
 PCOD8079391
Probable space group: C 2/M
;
_chemical_formula_sum "Si O2"
_cell_formula_units_Z 64
_cell_length_a 18.587893
_cell_length_b 21.811712
_cell_length_c 8.295207
_cell_angle_alpha 90.000000
_cell_angle_beta 74.794433
_cell_angle_gamma 90.000000
_cell_volume 3245.416323
_symmetry_space_group_name_H-M "C 2/M"
_symmetry_group_IT_number 12
_symmetry_cell_setting 'monoclinic'
loop_
_space_group_symop_operation_xyz
x,y,z
-x,y,-z
-x,-y,-z
x,-y,z
1/2+x,1/2+y,z
1/2-x,1/2+y,-z
1/2-x,1/2-y,-z
1/2+x,1/2-y,z
loop_
_atom_site_type_symbol
_atom_site_label
_atom_site_fract_x
_atom_site_fract_y
_atom_site_fract_z
Si Si1 0.575891 0.150195 0.542433
Si Si2 0.020702 0.862492 0.672176
Si Si3 0.659923 0.565790 0.540742
Si Si4 0.878756 0.066548 0.808664
Si Si5 0.255838 0.657530 0.889812
Si Si6 0.834264 0.718938 0.779706
Si Si7 0.313563 0.927649 0.336454
Si Si8 0.993635 0.262040 0.824642
O O1 0.500000 0.126521 0.500000
O O2 0.640117 0.181703 0.394393
O O3 0.610849 0.092823 0.618041
O O4 0.550363 0.201094 0.681951
O O5 0.105516 0.884095 0.646175
O O6 0.000000 0.842523 0.500000
O O7 0.965350 0.915252 0.765487
O O8 0.018485 0.807696 0.798166
O O9 0.643829 0.500000 0.632482
O O10 0.645398 0.560715 0.360497
O O11 0.747079 0.582794 0.505828
O O12 0.825152 0.117633 0.917942
O O13 0.869378 0.000000 0.899222
O O14 0.287012 0.718056 0.774884
O O15 0.201834 0.616169 0.808998
O O16 0.212405 0.675026 0.076639
O O17 0.908524 0.737256 0.826339
O O18 0.319449 0.000000 0.282722
O O19 0.000000 0.287777 0.000000
#
# Coordination Sequence:
#
# PCOD8079391 Si02
#       8
#     8   8   8   8   8   8   8   8
#     4  10  23  41  64  86 115 155 193 250 305 361
#     4  10  17  30  53  81 116 156 200 240 285 342
#     4   8  16  29  49  80 114 148 193 241 277 332
#     4   9  16  28  52  82 115 158 200 236 278 339
#     4  10  19  35  59  87 124 156 198 247 295 358
#     4  10  21  38  58  88 119 154 201 245 307 351
#     4  10  21  39  60  88 121 157 202 247 296 359
#     4  11  22  37  57  84 119 153 196 249 298 354
#
# _framework density 19.720120999999999
#
# number of rings (size 3 to 8) (size 9 to 14) (size 15 to 20)
#    0.000    2.250    1.250    3.375    3.500    2.250 
#    4.500    1.250    0.000   10.875    0.000    0.000 
#    0.000    0.000    0.000    0.000    0.000    0.000 
#
# Total GULP energy -396513.033779 kJ/mol
# GULP energy per Si atom -12391.032306 kJ/mol
# Density = 1.967524 g / cm^3
# Si number density = 19.720121 Si / 1000 Ang^3
#
#
#
# Elastic Constant Matrix: (Units=GPa)
#
#
# Indices 1 2 3 4 5 6 
#
# 1 78.8041 47.5473 32.5431 0.0000 -9.9571 0.0000
# 2 47.5473 114.3020 41.1805 0.0000 -9.2874 0.0000
# 3 32.5431 41.1805 86.5434 0.0000 -15.8081 0.0000
# 4 0.0000 0.0000 0.0000 17.3935 0.0000 -3.2696
# 5 -9.9571 -9.2874 -15.8081 0.0000 29.3963 0.0000
# 6 0.0000 0.0000 0.0000 -3.2696 0.0000 14.3610
#
#
#
# Elastic Compliance Matrix: (Units=1/GPa)
#
#
# Indices 1 2 3 4 5 6 
#
# 1 0.018092 -0.006082 -0.003483 0.000000 0.002334 0.000000
# 2 -0.006082 0.012616 -0.003731 0.000000 -0.000080 0.000000
# 3 -0.003483 -0.003731 0.015757 0.000000 0.006115 0.000000
# 4 0.000000 0.000000 0.000000 0.060063 0.000000 0.013675
# 5 0.002334 -0.000080 0.006115 0.000000 0.038071 0.000000
# 6 0.000000 0.000000 0.000000 0.013675 0.000000 0.072747
#
#
# Mechanical properties :
#
#
# Convention : Reuss Voigt Hill
#
# Bulk Modulus (GPa) = 50.31710 58.02126 54.16918
# Shear Modulus (GPa) = 19.95504 22.78871 21.37188
#
# Velocity S-wave (km/s) = 3.18451 3.40311 3.29562
# Velocity P-wave (km/s) = 6.25240 6.70282 6.48152
#
# Compressibility (1/GPa) = 0.01987396
#
# Stress axis : x y z
#
# Youngs Moduli (GPa) = 55.27203 79.26291 63.46362
#
# Poissons Ratio (x) = 0.48204 0.22106
# Poissons Ratio (y) = 0.33614 0.23679
# Poissons Ratio (z) = 0.19252 0.29574
#
# Static dielectric constant tensor:
#      x y z
#    x 3.521980 0.000000 -0.107540 
#    y 0.000000 3.776330 0.000000 
#    z -0.107540 0.000000 3.237240 
# 
# 
# High freq. dielectric constant tensor:
#      x y z
#    x 1.764920 0.000000 -0.025030 
#    y 0.000000 1.771140 0.000000 
#    z -0.025030 0.000000 1.743670 
# 
# From -- ./inp_files/89584.got.cif
#   From: 2010.06.25/outbox.cif.g09.slc.cpg/sg12_45_cif.got.tgz:89584.got - 2010.06.28 00:19:55.
