data_PCOD8079011
_publ_section_title
;
Structure prediction by ZEFSAII (Michael W. Deem and Ramdas Pophale) SiO2 
 PCOD8079011
Probable space group: C 2/M
;
_chemical_formula_sum "Si O2"
_cell_formula_units_Z 40
_cell_length_a 28.141201
_cell_length_b 8.860037
_cell_length_c 19.125438
_cell_angle_alpha 90.000000
_cell_angle_beta 147.968354
_cell_angle_gamma 90.000000
_cell_volume 2529.198420
_symmetry_space_group_name_H-M "C 2/M"
_symmetry_group_IT_number 12
_symmetry_cell_setting 'monoclinic'
loop_
_space_group_symop_operation_xyz
x,y,z
-x,y,-z
-x,-y,-z
x,-y,z
1/2+x,1/2+y,z
1/2-x,1/2+y,-z
1/2-x,1/2-y,-z
1/2+x,1/2-y,z
loop_
_atom_site_type_symbol
_atom_site_label
_atom_site_fract_x
_atom_site_fract_y
_atom_site_fract_z
Si Si1 0.601129 0.677127 0.638449
Si Si2 0.512359 0.830215 0.293126
Si Si3 0.839330 0.331052 0.419387
Si Si4 0.815932 0.178864 0.526603
Si Si5 0.656782 0.321957 0.863328
O O1 0.500000 0.732837 0.500000
O O2 0.608165 0.500000 0.634607
O O3 0.666640 0.756455 0.664242
O O4 0.634470 0.724327 0.756343
O O5 0.556245 0.835400 0.425637
O O6 0.582983 0.740338 0.331513
O O7 0.418441 0.743473 0.178581
O O8 0.497421 0.000000 0.245574
O O9 0.798988 0.500000 0.365919
O O10 0.785250 0.233400 0.410350
O O11 0.750000 0.250000 0.500000
O O12 0.813732 0.000000 0.528772
O O13 0.660372 0.500000 0.877639
O O14 0.750000 0.250000 0.000000
#
# Coordination Sequence:
#
# PCOD8079011 Si02
#       5
#     8   8   8   8   8
#     4  10  18  30  48  68  93 127 164 203 246 289
#     4   9  18  31  46  69  97 125 162 201 242 289
#     4   9  18  28  44  69  95 122 156 197 242 287
#     4  10  17  28  46  70 100 128 158 200 250 295
#     4  11  22  34  49  70 100 136 169 203 244 292
#
# _framework density 15.815288000000001
#
# number of rings (size 3 to 8) (size 9 to 14) (size 15 to 20)
#    1.200    1.000    2.000    3.000    0.000    2.000 
#    0.000    0.000    0.000    0.000    0.000    1.400 
#    0.000   11.200    0.000    0.000    0.000    0.000 
#
# Total GULP energy -247827.793217 kJ/mol
# GULP energy per Si atom -12391.389661 kJ/mol
# Density = 1.577929 g / cm^3
# Si number density = 15.815288 Si / 1000 Ang^3
#
#
#
# Elastic Constant Matrix: (Units=GPa)
#
#
# Indices 1 2 3 4 5 6 
#
# 1 129.0312 71.5277 45.2669 0.0000 18.0728 0.0000
# 2 71.5277 123.8993 41.2071 0.0000 8.4944 0.0000
# 3 45.2669 41.2071 73.3384 0.0000 8.7355 0.0000
# 4 0.0000 0.0000 0.0000 22.2733 0.0000 3.1263
# 5 18.0728 8.4944 8.7355 0.0000 20.3086 0.0000
# 6 0.0000 0.0000 0.0000 3.1263 0.0000 33.0959
#
#
#
# Elastic Compliance Matrix: (Units=1/GPa)
#
#
# Indices 1 2 3 4 5 6 
#
# 1 0.013581 -0.005935 -0.004115 0.000000 -0.007833 0.000000
# 2 -0.005935 0.012585 -0.003595 0.000000 0.001563 0.000000
# 3 -0.004115 -0.003595 0.018529 0.000000 -0.002805 0.000000
# 4 0.000000 0.000000 0.000000 0.045500 0.000000 -0.004298
# 5 -0.007833 0.001563 -0.002805 0.000000 0.056764 0.000000
# 6 0.000000 0.000000 0.000000 -0.004298 0.000000 0.030621
#
#
# Mechanical properties :
#
#
# Convention : Reuss Voigt Hill
#
# Bulk Modulus (GPa) = 57.44833 71.36359 64.40596
# Shear Modulus (GPa) = 23.73371 26.35337 25.04354
#
# Velocity S-wave (km/s) = 3.87807 4.08649 3.98364
# Velocity P-wave (km/s) = 7.51372 8.21505 7.87220
#
# Compressibility (1/GPa) = 0.01740695
#
# Stress axis : x y z
#
# Youngs Moduli (GPa) = 73.63436 79.45662 53.96912
#
# Poissons Ratio (x) = 0.47154 0.22208
# Poissons Ratio (y) = 0.43699 0.19400
# Poissons Ratio (z) = 0.30300 0.28562
#
# Static dielectric constant tensor:
#      x y z
#    x 2.858710 0.000000 0.019510 
#    y 0.000000 3.081770 0.000000 
#    z 0.019510 0.000000 2.645370 
# 
# 
# High freq. dielectric constant tensor:
#      x y z
#    x 1.598810 0.000000 0.006520 
#    y 0.000000 1.626170 0.000000 
#    z 0.006520 0.000000 1.556840 
# 
# From -- ./inp_files/318961.got.cif
#   From: 2010.06.25/outbox.cif.g09.slc.cpg/sg12_160_cif.got.tgz:318961.got - 2010.06.28 00:19:55.
