data_PCOD8079059
_publ_section_title
;
Structure prediction by ZEFSAII (Michael W. Deem and Ramdas Pophale) SiO2 
 PCOD8079059
Probable space group: C 2/M
;
_chemical_formula_sum "Si O2"
_cell_formula_units_Z 40
_cell_length_a 20.952250
_cell_length_b 8.718397
_cell_length_c 21.726564
_cell_angle_alpha 90.000000
_cell_angle_beta 145.386225
_cell_angle_gamma 90.000000
_cell_volume 2254.439162
_symmetry_space_group_name_H-M "C 2/M"
_symmetry_group_IT_number 12
_symmetry_cell_setting 'monoclinic'
loop_
_space_group_symop_operation_xyz
x,y,z
-x,y,-z
-x,-y,-z
x,-y,z
1/2+x,1/2+y,z
1/2-x,1/2+y,-z
1/2-x,1/2-y,-z
1/2+x,1/2-y,z
loop_
_atom_site_type_symbol
_atom_site_label
_atom_site_fract_x
_atom_site_fract_y
_atom_site_fract_z
Si Si1 0.747954 0.821350 0.065167
Si Si2 0.684639 0.818137 0.506200
Si Si3 0.876934 0.319159 0.723026
Si Si4 0.027492 0.318534 0.955059
Si Si5 0.996325 0.179283 0.290838
O O1 0.863991 0.788826 0.193191
O O2 0.727691 0.000000 0.039117
O O3 0.750000 0.750000 0.000000
O O4 0.645807 0.750842 0.024118
O O5 0.750000 0.750000 0.500000
O O6 0.752626 0.757549 0.619839
O O7 0.557777 0.752477 0.399751
O O8 0.682423 0.000000 0.503721
O O9 0.865298 0.500000 0.705121
O O10 0.927120 0.274227 0.829039
O O11 0.961092 0.257260 0.737921
O O12 0.038745 0.500000 0.969894
O O13 0.000000 0.246117 0.000000
O O14 0.024300 0.000000 0.309260
#
# Coordination Sequence:
#
# PCOD8079059 Si02
#       5
#     8   8   8   8   8
#     4  10  19  31  50  74 100 129 161 203 246 289
#     4  10  18  28  44  67  97 127 159 198 243 289
#     4  10  17  28  48  70  96 127 161 199 241 287
#     4   9  18  32  50  73 100 131 165 200 242 291
#     4  10  18  28  45  71 100 125 157 199 243 289
#
# _framework density 17.742771999999999
#
# number of rings (size 3 to 8) (size 9 to 14) (size 15 to 20)
#    0.000    2.200    2.000    5.400    0.000    0.800 
#    0.000    0.000    0.000    6.600    0.000    8.400 
#    0.000    0.000    0.000    0.000    0.000    0.000 
#
# Total GULP energy -247902.247203 kJ/mol
# GULP energy per Si atom -12395.112360 kJ/mol
# Density = 1.770239 g / cm^3
# Si number density = 17.742772 Si / 1000 Ang^3
#
#
#
# Elastic Constant Matrix: (Units=GPa)
#
#
# Indices 1 2 3 4 5 6 
#
# 1 96.7104 21.2543 71.3395 0.0000 -1.4634 0.0000
# 2 21.2543 86.8565 62.3245 0.0000 1.3053 0.0000
# 3 71.3395 62.3245 176.2133 0.0000 0.0904 0.0000
# 4 0.0000 0.0000 0.0000 27.6510 0.0000 -0.1177
# 5 -1.4634 1.3053 0.0904 0.0000 20.4668 0.0000
# 6 0.0000 0.0000 0.0000 -0.1177 0.0000 12.4074
#
#
#
# Elastic Compliance Matrix: (Units=1/GPa)
#
#
# Indices 1 2 3 4 5 6 
#
# 1 0.014818 0.000889 -0.006314 0.000000 0.001031 0.000000
# 2 0.000889 0.015501 -0.005842 0.000000 -0.000899 0.000000
# 3 -0.006314 -0.005842 0.010297 0.000000 -0.000124 0.000000
# 4 0.000000 0.000000 0.000000 0.036167 0.000000 0.000343
# 5 0.001031 -0.000899 -0.000124 0.000000 0.048991 0.000000
# 6 0.000000 0.000000 0.000000 0.000343 0.000000 0.080600
#
#
# Mechanical properties :
#
#
# Convention : Reuss Voigt Hill
#
# Bulk Modulus (GPa) = 55.30142 74.40186 64.85164
# Shear Modulus (GPa) = 21.28236 25.76250 23.52243
#
# Velocity S-wave (km/s) = 3.46713 3.81464 3.64503
# Velocity P-wave (km/s) = 6.87489 7.83752 7.37193
#
# Compressibility (1/GPa) = 0.01808272
#
# Stress axis : x y z
#
# Youngs Moduli (GPa) = 67.48580 64.51102 97.11107
#
# Poissons Ratio (x) = -0.05736 0.61316
# Poissons Ratio (y) = -0.06000 0.56733
# Poissons Ratio (z) = 0.42611 0.37688
#
# Static dielectric constant tensor:
#      x y z
#    x 3.057160 0.000000 0.181850 
#    y 0.000000 3.219540 0.000000 
#    z 0.181850 0.000000 4.250610 
# 
# 
# High freq. dielectric constant tensor:
#      x y z
#    x 1.627900 0.000000 0.007060 
#    y 0.000000 1.680190 0.000000 
#    z 0.007060 0.000000 1.715350 
# 
# From -- ./inp_files/162526.got.cif
#   From: 2010.06.25/outbox.cif.g09.slc.cpg/sg12_82_cif.got.tgz:162526.got - 2010.06.28 00:19:55.
