data_PCOD8079289
_publ_section_title
;
Structure prediction by ZEFSAII (Michael W. Deem and Ramdas Pophale) SiO2 
 PCOD8079289
Probable space group: C 2/M
;
_chemical_formula_sum "Si O2"
_cell_formula_units_Z 36
_cell_length_a 16.273694
_cell_length_b 9.830271
_cell_length_c 12.889894
_cell_angle_alpha 90.000000
_cell_angle_beta 112.329238
_cell_angle_gamma 90.000000
_cell_volume 1907.437027
_symmetry_space_group_name_H-M "C 2/M"
_symmetry_group_IT_number 12
_symmetry_cell_setting 'monoclinic'
loop_
_space_group_symop_operation_xyz
x,y,z
-x,y,-z
-x,-y,-z
x,-y,z
1/2+x,1/2+y,z
1/2-x,1/2+y,-z
1/2-x,1/2-y,-z
1/2+x,1/2-y,z
loop_
_atom_site_type_symbol
_atom_site_label
_atom_site_fract_x
_atom_site_fract_y
_atom_site_fract_z
Si Si1 0.395900 0.500000 0.918722
Si Si2 0.776915 0.500000 0.041717
Si Si3 0.507630 0.000000 0.625554
Si Si4 0.630681 0.000000 0.276760
Si Si5 0.888631 0.730155 0.206990
Si Si6 0.711972 0.500000 0.785873
Si Si7 0.039174 0.747648 0.128235
O O1 0.327599 0.500000 0.980702
O O2 0.385345 0.364724 0.845163
O O3 0.500000 0.500000 0.000000
O O4 0.820649 0.636374 0.108691
O O5 0.779703 0.500000 0.917380
O O6 0.500000 0.000000 0.500000
O O7 0.405457 0.000000 0.621776
O O8 0.561243 0.134887 0.685693
O O9 0.735471 0.000000 0.300226
O O10 0.589235 0.127526 0.203395
O O11 0.957577 0.796790 0.159971
O O12 0.843598 0.859424 0.241268
O O13 0.000000 0.700010 0.000000
#
# Coordination Sequence:
#
# PCOD8079289 Si02
#       7
#     4   4   4   4   8   4   8
#     4  10  19  29  44  67 105 151 175 188 230 293
#     4  11  20  32  48  76 117 154 167 189 245 313
#     4   9  21  44  60  68  93 136 180 219 265 324
#     4  10  20  30  52  75  95 128 166 209 263 299
#     4  10  21  33  54  79 103 141 177 206 256 302
#     4  12  19  31  49  84 116 129 162 219 250 297
#     4  10  17  30  45  70 103 138 172 201 234 298
#
# _framework density 18.873494000000001
#
# number of rings (size 3 to 8) (size 9 to 14) (size 15 to 20)
#    0.000    1.778    0.000    7.667    0.000    0.000 
#    0.000    1.667    0.000    0.000    0.000    0.000 
#    0.000    0.000    0.000    0.000    0.000    0.000 
#
# Total GULP energy -223006.509470 kJ/mol
# GULP energy per Si atom -12389.250526 kJ/mol
# Density = 1.883054 g / cm^3
# Si number density = 18.873494 Si / 1000 Ang^3
#
#
#
# Elastic Constant Matrix: (Units=GPa)
#
#
# Indices 1 2 3 4 5 6 
#
# 1 108.3654 24.5965 27.5295 0.0000 -25.9455 0.0000
# 2 24.5965 89.6104 15.1328 0.0000 -12.1641 0.0000
# 3 27.5295 15.1328 87.9581 0.0000 -20.9857 0.0000
# 4 0.0000 0.0000 0.0000 10.4776 0.0000 -4.3887
# 5 -25.9455 -12.1641 -20.9857 0.0000 25.2945 0.0000
# 6 0.0000 0.0000 0.0000 -4.3887 0.0000 34.5576
#
#
#
# Elastic Compliance Matrix: (Units=1/GPa)
#
#
# Indices 1 2 3 4 5 6 
#
# 1 0.012562 -0.001761 -0.000943 0.000000 0.011256 0.000000
# 2 -0.001761 0.012237 -0.000725 0.000000 0.003477 0.000000
# 3 -0.000943 -0.000725 0.014307 0.000000 0.010554 0.000000
# 4 0.000000 0.000000 0.000000 0.100804 0.000000 0.012802
# 5 0.011256 0.003477 0.010554 0.000000 0.061509 0.000000
# 6 0.000000 0.000000 0.000000 0.012802 0.000000 0.030563
#
#
# Mechanical properties :
#
#
# Convention : Reuss Voigt Hill
#
# Bulk Modulus (GPa) = 31.00860 46.71685 38.86272
# Shear Modulus (GPa) = 20.03294 28.64428 24.33861
#
# Velocity S-wave (km/s) = 3.26150 3.89999 3.59495
# Velocity P-wave (km/s) = 5.53611 6.71463 6.15365
#
# Compressibility (1/GPa) = 0.03224912
#
# Stress axis : x y z
#
# Youngs Moduli (GPa) = 79.60263 81.71836 69.89612
#
# Poissons Ratio (x) = 0.14390 0.06593
# Poissons Ratio (y) = 0.14017 0.05064
# Poissons Ratio (z) = 0.07509 0.05921
#
# Static dielectric constant tensor:
#      x y z
#    x 4.456050 0.000000 -0.378040 
#    y 0.000000 3.327360 0.000000 
#    z -0.378040 0.000000 2.975390 
# 
# 
# High freq. dielectric constant tensor:
#      x y z
#    x 1.748990 0.000000 -0.023970 
#    y 0.000000 1.760160 0.000000 
#    z -0.023970 0.000000 1.668480 
# 
# From -- ./inp_files/140618.got.cif
#   From: 2010.06.25/outbox.cif.g09.slc.cpg/sg12_71_cif.got.tgz:140618.got - 2010.06.28 00:19:55.
