data_PCOD8079302
_publ_section_title
;
Structure prediction by ZEFSAII (Michael W. Deem and Ramdas Pophale) SiO2 
 PCOD8079302
Probable space group: C 2/M
;
_chemical_formula_sum "Si O2"
_cell_formula_units_Z 56
_cell_length_a 11.146543
_cell_length_b 23.089661
_cell_length_c 18.056451
_cell_angle_alpha 90.000000
_cell_angle_beta 138.647903
_cell_angle_gamma 90.000000
_cell_volume 3070.324368
_symmetry_space_group_name_H-M "C 2/M"
_symmetry_group_IT_number 12
_symmetry_cell_setting 'monoclinic'
loop_
_space_group_symop_operation_xyz
x,y,z
-x,y,-z
-x,-y,-z
x,-y,z
1/2+x,1/2+y,z
1/2-x,1/2+y,-z
1/2-x,1/2-y,-z
1/2+x,1/2-y,z
loop_
_atom_site_type_symbol
_atom_site_label
_atom_site_fract_x
_atom_site_fract_y
_atom_site_fract_z
Si Si1 0.305853 0.307192 0.984086
Si Si2 0.462648 0.646079 0.191796
Si Si3 0.301808 0.818880 0.434364
Si Si4 0.355389 0.196780 0.619385
Si Si5 0.271140 0.252814 0.191470
Si Si6 0.915476 0.344354 0.801127
Si Si7 0.814274 0.433034 0.871441
O O1 0.346386 0.290639 0.916250
O O2 0.132089 0.350250 0.906313
O O3 0.250000 0.250000 0.000000
O O4 0.467151 0.340051 0.104811
O O5 0.663786 0.644598 0.319159
O O6 0.344231 0.695554 0.175026
O O7 0.359293 0.585553 0.159586
O O8 0.500000 0.836719 0.500000
O O9 0.277055 0.835152 0.510180
O O10 0.270879 0.750176 0.414095
O O11 0.558906 0.219421 0.693511
O O12 0.355761 0.152179 0.687664
O O13 0.140452 0.280256 0.192997
O O14 0.815793 0.396804 0.795937
O O15 0.795663 0.500000 0.842651
O O16 0.000000 0.419031 0.000000
#
# Coordination Sequence:
#
# PCOD8079302 Si02
#       7
#     8   8   8   8   8   8   8
#     4   9  16  25  40  66  96 126 157 193 240 300
#     4   9  17  30  45  70  97 124 163 208 245 294
#     4  10  19  32  48  69 101 139 176 204 236 294
#     4   9  18  30  46  70 101 137 177 201 237 294
#     4   8  16  26  43  65  94 132 160 193 241 299
#     4  10  17  30  47  70 104 137 160 202 255 301
#     4  10  19  32  53  78 101 129 165 209 264 312
#
# _framework density 18.239115999999999
#
# number of rings (size 3 to 8) (size 9 to 14) (size 15 to 20)
#    0.000    2.714    1.429    1.714    0.000    1.143 
#    0.000    4.286    0.000    2.143    0.000    0.000 
#    0.000    2.286    0.000    0.000    0.000    0.000 
#
# Total GULP energy -346991.920453 kJ/mol
# GULP energy per Si atom -12392.568588 kJ/mol
# Density = 1.819760 g / cm^3
# Si number density = 18.239116 Si / 1000 Ang^3
#
#
#
# Elastic Constant Matrix: (Units=GPa)
#
#
# Indices 1 2 3 4 5 6 
#
# 1 54.3117 26.0708 48.6013 0.0000 -3.2532 0.0000
# 2 26.0708 57.2486 36.6121 0.0000 -6.5352 0.0000
# 3 48.6013 36.6121 140.1041 0.0010 -7.6441 0.0003
# 4 0.0000 0.0000 0.0010 13.2562 0.0005 -0.2330
# 5 -3.2532 -6.5352 -7.6441 0.0005 36.0371 0.0002
# 6 0.0000 0.0000 0.0003 -0.2330 0.0002 15.4810
#
#
#
# Elastic Compliance Matrix: (Units=1/GPa)
#
#
# Indices 1 2 3 4 5 6 
#
# 1 0.029682 -0.008377 -0.008138 0.000001 -0.000566 0.000000
# 2 -0.008377 0.023594 -0.003103 0.000000 0.002864 0.000000
# 3 -0.008138 -0.003103 0.010826 -0.000001 0.000999 0.000000
# 4 0.000001 0.000000 -0.000001 0.075456 -0.000001 0.001136
# 5 -0.000566 0.002864 0.000999 -0.000001 0.028429 0.000000
# 6 0.000000 0.000000 0.000000 0.001136 0.000000 0.064613
#
#
# Mechanical properties :
#
#
# Convention : Reuss Voigt Hill
#
# Bulk Modulus (GPa) = 40.21728 52.69254 46.45491
# Shear Modulus (GPa) = 17.84906 22.31355 20.08130
#
# Velocity S-wave (km/s) = 3.13168 3.50149 3.32173
# Velocity P-wave (km/s) = 5.93080 6.73052 6.34327
#
# Compressibility (1/GPa) = 0.02486493
#
# Stress axis : x y z
#
# Youngs Moduli (GPa) = 33.69028 42.38320 92.36854
#
# Poissons Ratio (x) = 0.35505 0.75173
# Poissons Ratio (y) = 0.28222 0.28666
# Poissons Ratio (z) = 0.27418 0.13153
#
# Static dielectric constant tensor:
#      x y z
#    x 3.354390 0.000000 -0.135080 
#    y 0.000000 2.851100 0.000000 
#    z -0.135080 0.000000 3.756150 
# 
# 
# High freq. dielectric constant tensor:
#      x y z
#    x 1.705960 0.000000 -0.004880 
#    y 0.000000 1.624630 0.000000 
#    z -0.004880 0.000000 1.726290 
# 
# From -- ./inp_files/265585.got.cif
#   From: 2010.06.25/outbox.cif.g09.slc.cpg/sg12_133_cif.got.tgz:265585.got - 2010.06.28 00:19:55.
