data_PCOD8079760
_publ_section_title
;
Structure prediction by ZEFSAII (Michael W. Deem and Ramdas Pophale) SiO2 
 PCOD8079760
Probable space group: C 2/M
;
_chemical_formula_sum "Si O2"
_cell_formula_units_Z 40
_cell_length_a 8.633245
_cell_length_b 17.257311
_cell_length_c 18.255220
_cell_angle_alpha 90.000000
_cell_angle_beta 128.574360
_cell_angle_gamma 90.000000
_cell_volume 2126.325250
_symmetry_space_group_name_H-M "C 2/M"
_symmetry_group_IT_number 12
_symmetry_cell_setting 'monoclinic'
loop_
_space_group_symop_operation_xyz
x,y,z
-x,y,-z
-x,-y,-z
x,-y,z
1/2+x,1/2+y,z
1/2-x,1/2+y,-z
1/2-x,1/2-y,-z
1/2+x,1/2-y,z
loop_
_atom_site_type_symbol
_atom_site_label
_atom_site_fract_x
_atom_site_fract_y
_atom_site_fract_z
Si Si1 0.145882 0.213077 0.343862
Si Si2 0.421895 0.647161 0.403345
Si Si3 0.464346 0.784636 0.068373
Si Si4 0.772152 0.677747 0.226886
Si Si5 0.960273 0.586950 0.786770
O O1 0.327573 0.272470 0.405868
O O2 0.190367 0.161591 0.284619
O O3 0.112757 0.160036 0.406114
O O4 0.939337 0.256532 0.272579
O O5 0.500000 0.603782 0.500000
O O6 0.256839 0.597433 0.312561
O O7 0.600514 0.709906 0.124121
O O8 0.501708 0.850826 0.138939
O O9 0.500000 0.823172 0.000000
O O10 0.250000 0.750000 0.000000
O O11 0.867784 0.598837 0.223608
O O12 0.976218 0.500000 0.822495
#
# Coordination Sequence:
#
# PCOD8079760 Si02
#       5
#     8   8   8   8   8
#     4   9  16  31  58  84 114 147 195 244 275 330
#     4  10  19  33  58  88 120 154 195 239 289 343
#     4  12  21  36  65  86 108 153 197 238 286 354
#     4  10  17  36  58  83 113 151 194 232 288 342
#     4  11  24  40  57  85 125 154 188 247 299 341
#
# _framework density 18.811796000000001
#
# number of rings (size 3 to 8) (size 9 to 14) (size 15 to 20)
#    0.000    1.600    8.000    0.600    0.000    0.800 
#    0.000    3.000    0.000    1.200    0.000    0.000 
#    0.000    0.000    0.000    0.000    0.000    0.000 
#
# Total GULP energy -247840.291799 kJ/mol
# GULP energy per Si atom -12392.014590 kJ/mol
# Density = 1.876898 g / cm^3
# Si number density = 18.811796 Si / 1000 Ang^3
#
#
#
# Elastic Constant Matrix: (Units=GPa)
#
#
# Indices 1 2 3 4 5 6 
#
# 1 130.4133 24.0854 42.4612 0.0000 -21.3511 0.0000
# 2 24.0854 71.9072 27.8037 0.0000 -4.2028 0.0000
# 3 42.4612 27.8037 115.8953 0.0000 -12.5418 0.0000
# 4 0.0000 0.0000 0.0000 8.1175 0.0000 -0.4652
# 5 -21.3511 -4.2028 -12.5418 0.0000 32.7539 0.0000
# 6 0.0000 0.0000 0.0000 -0.4652 0.0000 10.1340
#
#
#
# Elastic Compliance Matrix: (Units=1/GPa)
#
#
# Indices 1 2 3 4 5 6 
#
# 1 0.009688 -0.001971 -0.002525 0.000000 0.005096 0.000000
# 2 -0.001971 0.015740 -0.003103 0.000000 -0.000453 0.000000
# 3 -0.002525 -0.003103 0.010513 0.000000 0.001981 0.000000
# 4 0.000000 0.000000 0.000000 0.123515 0.000000 0.005670
# 5 0.005096 -0.000453 0.001981 0.000000 0.034553 0.000000
# 6 0.000000 0.000000 0.000000 0.005670 0.000000 0.098938
#
#
# Mechanical properties :
#
#
# Convention : Reuss Voigt Hill
#
# Bulk Modulus (GPa) = 48.20998 56.32403 52.26700
# Shear Modulus (GPa) = 15.86996 25.12544 20.49770
#
# Velocity S-wave (km/s) = 2.90766 3.65858 3.30452
# Velocity P-wave (km/s) = 6.07913 6.91757 6.51186
#
# Compressibility (1/GPa) = 0.02074259
#
# Stress axis : x y z
#
# Youngs Moduli (GPa) = 103.21626 63.53108 95.12464
#
# Poissons Ratio (x) = 0.12521 0.24022
# Poissons Ratio (y) = 0.20342 0.29518
# Poissons Ratio (z) = 0.26066 0.19715
#
# Static dielectric constant tensor:
#      x y z
#    x 4.186120 0.000000 -0.204530 
#    y 0.000000 3.094560 0.000000 
#    z -0.204530 0.000000 3.535820 
# 
# 
# High freq. dielectric constant tensor:
#      x y z
#    x 1.752210 0.000000 -0.004030 
#    y 0.000000 1.667140 0.000000 
#    z -0.004030 0.000000 1.741930 
# 
# From -- ./inp_files/195007.got.cif
#   From: 2010.06.25/outbox.cif.g09.slc.cpg/sg12_98_cif.got.tgz:195007.got - 2010.06.28 00:19:55.
