data_PCOD8079903
_publ_section_title
;
Structure prediction by ZEFSAII (Michael W. Deem and Ramdas Pophale) SiO2 
 PCOD8079903
Probable space group: C 2/M
;
_chemical_formula_sum "Si O2"
_cell_formula_units_Z 64
_cell_length_a 27.463402
_cell_length_b 9.038284
_cell_length_c 18.352027
_cell_angle_alpha 90.000000
_cell_angle_beta 110.472857
_cell_angle_gamma 90.000000
_cell_volume 4267.650548
_symmetry_space_group_name_H-M "C 2/M"
_symmetry_group_IT_number 12
_symmetry_cell_setting 'monoclinic'
loop_
_space_group_symop_operation_xyz
x,y,z
-x,y,-z
-x,-y,-z
x,-y,z
1/2+x,1/2+y,z
1/2-x,1/2+y,-z
1/2-x,1/2-y,-z
1/2+x,1/2-y,z
loop_
_atom_site_type_symbol
_atom_site_label
_atom_site_fract_x
_atom_site_fract_y
_atom_site_fract_z
Si Si1 0.253548 0.327851 0.617468
Si Si2 0.637763 0.673736 0.771520
Si Si3 0.173878 0.333481 0.926611
Si Si4 0.437300 0.674824 0.536993
Si Si5 0.711269 0.333162 0.077702
Si Si6 0.949790 0.175883 0.381383
Si Si7 0.826589 0.828137 0.524534
Si Si8 0.749552 0.673532 0.766588
O O1 0.245496 0.500000 0.630021
O O2 0.202240 0.267273 0.551531
O O3 0.303382 0.299035 0.592135
O O4 0.264318 0.241482 0.696958
O O5 0.633545 0.500000 0.784472
O O6 0.636690 0.754549 0.848702
O O7 0.589310 0.738636 0.700097
O O8 0.689848 0.710627 0.753797
O O9 0.154087 0.500000 0.929078
O O10 0.232120 0.332808 0.927730
O O11 0.171202 0.246083 0.001634
O O12 0.441019 0.500000 0.533747
O O13 0.432775 0.736013 0.452020
O O14 0.490861 0.730554 0.603033
O O15 0.386886 0.723206 0.556974
O O16 0.692007 0.500000 0.081836
O O17 0.712078 0.244727 0.153855
O O18 0.945443 0.000000 0.377382
O O19 0.820920 0.000000 0.499232
O O20 0.759927 0.500000 0.770505
#
# Coordination Sequence:
#
# PCOD8079903 Si02
#       8
#     8   8   8   8   8   8   8   8
#     4  10  19  28  39  57  79 103 133 166 198 233
#     4   9  16  25  38  57  79 104 133 164 196 229
#     4   9  16  25  37  54  77 106 135 160 190 229
#     4   8  13  23  39  58  78 100 128 164 202 234
#     4   9  16  26  39  55  77 104 133 163 193 227
#     4   8  13  21  37  60  80  98 127 165 199 232
#     4   9  17  29  43  57  76 103 133 165 200 235
#     4  10  18  27  40  57  79 106 134 163 194 230
#
# _framework density 14.996541000000001
#
# number of rings (size 3 to 8) (size 9 to 14) (size 15 to 20)
#    0.000    3.000    0.000    3.000    0.000    6.000 
#    0.000    0.000    0.000    0.750    0.000    2.625 
#    0.000    1.000    0.000   11.750    0.000    2.750 
#
# Total GULP energy -396669.874544 kJ/mol
# GULP energy per Si atom -12395.933579 kJ/mol
# Density = 1.496241 g / cm^3
# Si number density = 14.996541 Si / 1000 Ang^3
#
#
#
# Elastic Constant Matrix: (Units=GPa)
#
#
# Indices 1 2 3 4 5 6 
#
# 1 74.3617 26.1582 47.8077 0.0000 5.7050 0.0000
# 2 26.1582 71.7946 55.6720 0.0000 -2.3572 0.0000
# 3 47.8077 55.6720 141.7340 0.0000 8.0622 0.0000
# 4 0.0000 0.0000 0.0000 27.0616 0.0000 -1.7617
# 5 5.7050 -2.3572 8.0622 0.0000 18.9897 0.0000
# 6 0.0000 0.0000 0.0000 -1.7617 0.0000 10.8861
#
#
#
# Elastic Compliance Matrix: (Units=1/GPa)
#
#
# Indices 1 2 3 4 5 6 
#
# 1 0.017750 -0.003040 -0.004579 0.000000 -0.003766 0.000000
# 2 -0.003040 0.021233 -0.007703 0.000000 0.006819 0.000000
# 3 -0.004579 -0.007703 0.011889 0.000000 -0.004628 0.000000
# 4 0.000000 0.000000 0.000000 0.037346 0.000000 0.006044
# 5 -0.003766 0.006819 -0.004628 0.000000 0.056603 0.000000
# 6 0.000000 0.000000 0.000000 0.006044 0.000000 0.092839
#
#
# Mechanical properties :
#
#
# Convention : Reuss Voigt Hill
#
# Bulk Modulus (GPa) = 49.43528 60.79624 55.11576
# Shear Modulus (GPa) = 18.17883 21.93763 20.05823
#
# Velocity S-wave (km/s) = 3.48545 3.82887 3.66118
# Velocity P-wave (km/s) = 7.01668 7.75726 7.39625
#
# Compressibility (1/GPa) = 0.02022847
#
# Stress axis : x y z
#
# Youngs Moduli (GPa) = 56.33841 47.09634 84.11372
#
# Poissons Ratio (x) = 0.14319 0.38513
# Poissons Ratio (y) = 0.17128 0.64789
# Poissons Ratio (z) = 0.25796 0.36276
#
# Static dielectric constant tensor:
#      x y z
#    x 2.757570 0.000000 0.099400 
#    y 0.000000 2.821800 0.000000 
#    z 0.099400 0.000000 2.996960 
# 
# 
# High freq. dielectric constant tensor:
#      x y z
#    x 1.529950 0.000000 0.004220 
#    y 0.000000 1.564820 0.000000 
#    z 0.004220 0.000000 1.575480 
# 
# From -- ./inp_files/294580.got.cif
#   From: 2010.06.25/outbox.cif.g09.slc.cpg/sg12_148_cif.got.tgz:294580.got - 2010.06.28 00:19:55.
