data_PCOD8079845
_publ_section_title
;
Structure prediction by ZEFSAII (Michael W. Deem and Ramdas Pophale) SiO2 
 PCOD8079845
Probable space group: C 2/M
;
_chemical_formula_sum "Si O2"
_cell_formula_units_Z 64
_cell_length_a 27.199941
_cell_length_b 9.455413
_cell_length_c 23.677246
_cell_angle_alpha 90.000000
_cell_angle_beta 43.963906
_cell_angle_gamma 90.000000
_cell_volume 4227.342516
_symmetry_space_group_name_H-M "C 2/M"
_symmetry_group_IT_number 12
_symmetry_cell_setting 'monoclinic'
loop_
_space_group_symop_operation_xyz
x,y,z
-x,y,-z
-x,-y,-z
x,-y,z
1/2+x,1/2+y,z
1/2-x,1/2+y,-z
1/2-x,1/2-y,-z
1/2+x,1/2-y,z
loop_
_atom_site_type_symbol
_atom_site_label
_atom_site_fract_x
_atom_site_fract_y
_atom_site_fract_z
Si Si1 0.153652 0.163352 0.937772
Si Si2 0.904197 0.337533 0.346504
Si Si3 0.845825 0.836593 0.187855
Si Si4 0.002073 0.160505 0.901586
Si Si5 0.304536 0.336613 0.492364
Si Si6 0.965558 0.339358 0.828637
Si Si7 0.690536 0.167593 0.015520
Si Si8 0.302441 0.160240 0.327992
O O1 0.183538 0.199498 0.850634
O O2 0.170480 0.000000 0.940371
O O3 0.069203 0.188433 0.004332
O O4 0.188525 0.269559 0.953893
O O5 0.885954 0.500000 0.376562
O O6 0.880956 0.237643 0.418371
O O7 0.861325 0.292424 0.325276
O O8 0.988884 0.317292 0.266502
O O9 0.803776 0.751828 0.270248
O O10 0.929468 0.799743 0.118131
O O11 0.833317 0.000000 0.211765
O O12 0.004963 0.250815 0.843029
O O13 0.005631 0.000000 0.878197
O O14 0.307872 0.500000 0.470455
O O15 0.250000 0.250000 0.500000
O O16 0.276765 0.325165 0.579776
O O17 0.970424 0.500000 0.845132
O O18 0.882953 0.298325 0.890639
O O19 0.706462 0.000000 0.999755
O O20 0.750000 0.250000 0.000000
O O21 0.317714 0.000000 0.297278
#
# Coordination Sequence:
#
# PCOD8079845 Si02
#       8
#     8   8   8   8   8   8   8   8
#     4   9  18  31  44  61  86 112 142 179 215 252
#     4   9  16  27  41  58  82 111 144 182 215 248
#     4  10  18  26  40  61  85 115 148 179 209 246
#     4   9  16  26  40  59  84 114 145 177 211 245
#     4   9  17  27  38  54  78 112 149 182 215 248
#     4   9  17  29  44  63  86 112 143 177 217 258
#     4  10  20  34  51  67  85 111 141 177 221 265
#     4   9  17  27  38  54  82 117 147 178 213 245
#
# _framework density 15.139536
#
# number of rings (size 3 to 8) (size 9 to 14) (size 15 to 20)
#    0.000    2.750    1.250    1.875    0.000    5.500 
#    0.000    0.000    0.000    3.750    0.000    0.000 
#    0.000    1.000    0.000   11.250    0.000    5.625 
#
# Total GULP energy -396525.192021 kJ/mol
# GULP energy per Si atom -12391.412251 kJ/mol
# Density = 1.510508 g / cm^3
# Si number density = 15.139536 Si / 1000 Ang^3
#
#
#
# Elastic Constant Matrix: (Units=GPa)
#
#
# Indices 1 2 3 4 5 6 
#
# 1 60.0215 39.8188 38.9538 -0.0021 1.4217 0.0047
# 2 39.8188 81.0917 54.9374 0.0041 3.3903 -0.0037
# 3 38.9538 54.9374 100.4804 0.0020 2.6308 -0.0004
# 4 -0.0021 0.0041 0.0020 29.2086 -0.0031 1.8790
# 5 1.4217 3.3903 2.6308 -0.0031 11.8283 0.0022
# 6 0.0047 -0.0037 -0.0004 1.8790 0.0022 16.9647
#
#
#
# Elastic Compliance Matrix: (Units=1/GPa)
#
#
# Indices 1 2 3 4 5 6 
#
# 1 0.026183 -0.009524 -0.004961 0.000004 0.000686 -0.000010
# 2 -0.009524 0.023176 -0.008887 -0.000004 -0.003522 0.000008
# 3 -0.004961 -0.008887 0.016750 0.000000 -0.000582 0.000000
# 4 0.000004 -0.000004 0.000000 0.034482 0.000011 -0.003819
# 5 0.000686 -0.003522 -0.000582 0.000011 0.085599 -0.000013
# 6 -0.000010 0.000008 0.000000 -0.003819 -0.000013 0.059369
#
#
# Mechanical properties :
#
#
# Convention : Reuss Voigt Hill
#
# Bulk Modulus (GPa) = 51.64229 56.55707 54.09968
# Shear Modulus (GPa) = 16.73593 18.79257 17.76425
#
# Velocity S-wave (km/s) = 3.32843 3.52702 3.42916
# Velocity P-wave (km/s) = 6.99687 7.35016 7.17569
#
# Compressibility (1/GPa) = 0.01936398
#
# Stress axis : x y z
#
# Youngs Moduli (GPa) = 38.19334 43.14716 59.70263
#
# Poissons Ratio (x) = 0.41095 0.29618
# Poissons Ratio (y) = 0.36377 0.53059
# Poissons Ratio (z) = 0.18947 0.38345
#
# Static dielectric constant tensor:
#      x y z
#    x 2.559550 -0.000010 -0.100280 
#    y -0.000010 3.035830 0.000010 
#    z -0.100280 0.000010 3.281420 
# 
# 
# High freq. dielectric constant tensor:
#      x y z
#    x 1.519570 0.000000 -0.006180 
#    y 0.000000 1.589210 0.000000 
#    z -0.006180 0.000000 1.582940 
# 
# From -- ./inp_files/326789.got.cif
#   From: 2010.06.25/outbox.cif.g09.slc.cpg/sg12_164_cif.got.tgz:326789.got - 2010.06.28 00:19:55.
