data_PCOD8079973
_publ_section_title
;
Structure prediction by ZEFSAII (Michael W. Deem and Ramdas Pophale) SiO2 
 PCOD8079973
Probable space group: C 2/M
;
_chemical_formula_sum "Si O2"
_cell_formula_units_Z 64
_cell_length_a 25.177363
_cell_length_b 9.000015
_cell_length_c 24.159008
_cell_angle_alpha 90.000000
_cell_angle_beta 134.013790
_cell_angle_gamma 90.000000
_cell_volume 3937.002569
_symmetry_space_group_name_H-M "C 2/M"
_symmetry_group_IT_number 12
_symmetry_cell_setting 'monoclinic'
loop_
_space_group_symop_operation_xyz
x,y,z
-x,y,-z
-x,-y,-z
x,-y,z
1/2+x,1/2+y,z
1/2-x,1/2+y,-z
1/2-x,1/2-y,-z
1/2+x,1/2-y,z
loop_
_atom_site_type_symbol
_atom_site_label
_atom_site_fract_x
_atom_site_fract_y
_atom_site_fract_z
Si Si1 0.780115 0.176228 0.577317
Si Si2 0.976400 0.323910 0.591458
Si Si3 0.303431 0.674781 0.168659
Si Si4 0.913672 0.672672 0.163693
Si Si5 0.859916 0.323406 0.314192
Si Si6 0.196630 0.670806 0.002550
Si Si7 0.659004 0.823953 0.576360
Si Si8 0.568728 0.826288 0.319009
O O1 0.750000 0.250000 0.500000
O O2 0.728960 0.228492 0.591238
O O3 0.861888 0.231504 0.651256
O O4 0.778616 0.000000 0.568490
O O5 0.978753 0.500000 0.589715
O O6 0.916476 0.259047 0.504920
O O7 0.953264 0.272775 0.635737
O O8 0.057226 0.261697 0.635393
O O9 0.314196 0.500000 0.184591
O O10 0.368536 0.732777 0.175874
O O11 0.305529 0.753425 0.229501
O O12 0.221683 0.714520 0.083197
O O13 0.901997 0.500000 0.171431
O O14 0.000328 0.711179 0.228882
O O15 0.886531 0.705188 0.080161
O O16 0.856726 0.500000 0.306428
O O17 0.832833 0.267785 0.354783
O O18 0.214402 0.500000 0.008092
O O19 0.250000 0.750000 0.000000
O O20 0.653063 0.000000 0.571321
O O21 0.589511 0.000000 0.333317
#
# Coordination Sequence:
#
# PCOD8079973 Si02
#       8
#     8   8   8   8   8   8   8   8
#     4  11  21  34  50  69  92 121 155 194 234 274
#     4   9  15  27  47  69  89 112 150 192 224 259
#     4  10  18  27  41  66  99 125 146 182 232 277
#     4   9  16  29  47  66  90 122 160 189 216 269
#     4  10  18  30  49  68  87 121 159 190 221 267
#     4   8  15  26  41  62  90 123 151 180 221 269
#     4   9  18  31  48  67  87 115 159 197 223 262
#     4  10  18  30  49  71  92 119 155 193 228 269
#
# _framework density 16.256022000000002
#
# number of rings (size 3 to 8) (size 9 to 14) (size 15 to 20)
#    0.000    2.500    2.500    1.125    0.000    2.500 
#    0.000    1.250    0.000    0.750    0.000    0.875 
#    0.000    7.000    0.000    0.000    0.000    0.000 
#
# Total GULP energy -396511.194528 kJ/mol
# GULP energy per Si atom -12390.974829 kJ/mol
# Density = 1.621902 g / cm^3
# Si number density = 16.256022 Si / 1000 Ang^3
#
#
#
# Elastic Constant Matrix: (Units=GPa)
#
#
# Indices 1 2 3 4 5 6 
#
# 1 93.3256 24.6729 66.2460 0.0000 -6.8328 0.0000
# 2 24.6729 34.1280 35.8755 0.0000 -2.1346 0.0000
# 3 66.2460 35.8755 172.3554 0.0000 -4.3422 0.0000
# 4 0.0000 0.0000 0.0000 23.0421 0.0000 1.1423
# 5 -6.8328 -2.1346 -4.3422 0.0000 18.5598 0.0000
# 6 0.0000 0.0000 0.0000 1.1423 0.0000 18.1267
#
#
#
# Elastic Compliance Matrix: (Units=1/GPa)
#
#
# Indices 1 2 3 4 5 6 
#
# 1 0.016067 -0.006371 -0.004747 0.000000 0.004072 0.000000
# 2 -0.006371 0.040151 -0.005886 0.000000 0.000895 0.000000
# 3 -0.004747 -0.005886 0.008843 0.000000 -0.000356 0.000000
# 4 0.000000 0.000000 0.000000 0.043535 0.000000 -0.002744
# 5 0.004072 0.000895 -0.000356 0.000000 0.055399 0.000000
# 6 0.000000 0.000000 0.000000 -0.002744 0.000000 0.055340
#
#
# Mechanical properties :
#
#
# Convention : Reuss Voigt Hill
#
# Bulk Modulus (GPa) = 32.20338 61.48865 46.84601
# Shear Modulus (GPa) = 18.96147 23.48005 21.22076
#
# Velocity S-wave (km/s) = 3.41901 3.80464 3.61696
# Velocity P-wave (km/s) = 5.95309 7.56357 6.80613
#
# Compressibility (1/GPa) = 0.03105265
#
# Stress axis : x y z
#
# Youngs Moduli (GPa) = 62.23892 24.90608 113.08882
#
# Poissons Ratio (x) = 0.15868 0.53681
# Poissons Ratio (y) = 0.39654 0.66563
# Poissons Ratio (z) = 0.29543 0.14660
#
# Static dielectric constant tensor:
#      x y z
#    x 2.914500 0.000000 0.041660 
#    y 0.000000 2.847350 0.000000 
#    z 0.041660 0.000000 3.727920 
# 
# 
# High freq. dielectric constant tensor:
#      x y z
#    x 1.584430 0.000000 0.002320 
#    y 0.000000 1.605240 0.000000 
#    z 0.002320 0.000000 1.643370 
# 
# From -- ./inp_files/323667.got.cif
#   From: 2010.06.25/outbox.cif.g09.slc.cpg/sg12_162_cif.got.tgz:323667.got - 2010.06.28 00:19:55.
