data_PCOD8079248
_publ_section_title
;
Structure prediction by ZEFSAII (Michael W. Deem and Ramdas Pophale) SiO2 
 PCOD8079248
Probable space group: C 2/M
;
_chemical_formula_sum "Si O2"
_cell_formula_units_Z 64
_cell_length_a 20.149469
_cell_length_b 28.176746
_cell_length_c 12.528537
_cell_angle_alpha 90.000000
_cell_angle_beta 25.692092
_cell_angle_gamma 90.000000
_cell_volume 3083.746573
_symmetry_space_group_name_H-M "C 2/M"
_symmetry_group_IT_number 12
_symmetry_cell_setting 'monoclinic'
loop_
_space_group_symop_operation_xyz
x,y,z
-x,y,-z
-x,-y,-z
x,-y,z
1/2+x,1/2+y,z
1/2-x,1/2+y,-z
1/2-x,1/2-y,-z
1/2+x,1/2-y,z
loop_
_atom_site_type_symbol
_atom_site_label
_atom_site_fract_x
_atom_site_fract_y
_atom_site_fract_z
Si Si1 0.453121 0.285279 0.449683
Si Si2 0.627237 0.944898 0.585993
Si Si3 0.328250 0.366219 0.899479
Si Si4 0.642724 0.886029 0.364034
Si Si5 0.730639 0.945348 0.880506
Si Si6 0.379544 0.811836 0.100352
Si Si7 0.460784 0.811613 0.752833
Si Si8 0.670537 0.913876 0.746735
O O1 0.500000 0.271159 0.500000
O O2 0.509151 0.338805 0.339483
O O3 0.269911 0.281394 0.707832
O O4 0.523713 0.245328 0.270717
O O5 0.693459 0.922079 0.382459
O O6 0.723954 0.926510 0.548930
O O7 0.653284 0.000000 0.539302
O O8 0.447129 0.931384 0.848812
O O9 0.327733 0.410560 0.817303
O O10 0.292218 0.382398 0.072309
O O11 0.205163 0.326221 0.048618
O O12 0.500000 0.905592 0.500000
O O13 0.593633 0.836100 0.489790
O O14 0.773447 0.936994 0.692941
O O15 0.765475 0.000000 0.861250
O O16 0.330447 0.857660 0.238945
O O17 0.500000 0.782684 0.000000
O O18 0.468433 0.828003 0.864559
O O19 0.500000 0.936356 0.000000
#
# Coordination Sequence:
#
# PCOD8079248 Si02
#       8
#     8   8   8   8   8   8   8   8
#     4  12  24  38  65  90 116 161 210 250 296 365
#     4  10  18  29  52  85 115 157 205 240 293 365
#     4  11  21  37  56  89 122 159 201 249 299 362
#     4  10  19  32  52  82 122 159 189 249 303 351
#     4  10  17  29  51  84 119 154 195 250 304 352
#     4  11  23  40  63  87 122 158 196 256 306 354
#     4  11  21  38  61  87 118 159 203 246 297 355
#     4   9  16  32  53  77 111 152 198 244 289 346
#
# _framework density 20.753976000000002
#
# number of rings (size 3 to 8) (size 9 to 14) (size 15 to 20)
#    0.000    1.500    5.000    3.375    1.750    2.750 
#    0.000    0.000    0.000    4.125    0.000    0.875 
#    0.000    0.000    0.000    0.000    0.000    0.125 
#
# Total GULP energy -396676.718339 kJ/mol
# GULP energy per Si atom -12396.147448 kJ/mol
# Density = 2.070674 g / cm^3
# Si number density = 20.753976 Si / 1000 Ang^3
#
#
#
# Elastic Constant Matrix: (Units=GPa)
#
#
# Indices 1 2 3 4 5 6 
#
# 1 143.0518 54.0993 53.2406 0.0001 24.3466 0.0166
# 2 54.0993 107.9826 17.7283 0.0022 6.0403 0.0044
# 3 53.2406 17.7283 42.6810 -0.0075 3.7213 0.0118
# 4 0.0001 0.0022 -0.0075 17.5210 0.0022 7.9887
# 5 24.3466 6.0403 3.7213 0.0022 34.1840 -0.0134
# 6 0.0166 0.0044 0.0118 7.9887 -0.0134 16.6540
#
#
#
# Elastic Compliance Matrix: (Units=1/GPa)
#
#
# Indices 1 2 3 4 5 6 
#
# 1 0.017684 -0.005193 -0.019065 -0.000002 -0.009602 -0.000009
# 2 -0.005193 0.011522 0.001561 -0.000002 0.001492 0.000003
# 3 -0.019065 0.001561 0.045838 0.000028 0.008313 -0.000021
# 4 -0.000002 -0.000002 0.000028 0.073052 -0.000020 -0.035042
# 5 -0.009602 0.001492 0.008313 -0.000020 0.034924 0.000041
# 6 -0.000009 0.000003 -0.000021 -0.035042 0.000041 0.076855
#
#
# Mechanical properties :
#
#
# Convention : Reuss Voigt Hill
#
# Bulk Modulus (GPa) = 33.72499 60.42798 47.07649
# Shear Modulus (GPa) = 15.86535 24.91494 20.39014
#
# Velocity S-wave (km/s) = 2.76787 3.46857 3.13784
# Velocity P-wave (km/s) = 5.14781 6.72464 5.98835
#
# Compressibility (1/GPa) = 0.02965160
#
# Stress axis : x y z
#
# Youngs Moduli (GPa) = 56.54836 86.78713 21.81577
#
# Poissons Ratio (x) = 0.45064 0.41592
# Poissons Ratio (y) = 0.29363 -0.03405
# Poissons Ratio (z) = 1.07810 -0.13548
#
# Static dielectric constant tensor:
#      x y z
#    x 4.047100 -0.000030 0.211870 
#    y -0.000030 3.531770 0.000060 
#    z 0.211870 0.000060 3.509430 
# 
# 
# High freq. dielectric constant tensor:
#      x y z
#    x 1.817190 0.000000 0.024270 
#    y 0.000000 1.802740 0.000010 
#    z 0.024270 0.000010 1.766780 
# 
# From -- ./inp_files/161213.got.cif
#   From: 2010.06.25/outbox.cif.g09.slc.cpg/sg12_81_cif.got.tgz:161213.got - 2010.06.28 00:19:55.
