data_PCOD8079819
_publ_section_title
;
Structure prediction by ZEFSAII (Michael W. Deem and Ramdas Pophale) SiO2 
 PCOD8079819
Probable space group: C 2/M
;
_chemical_formula_sum "Si O2"
_cell_formula_units_Z 64
_cell_length_a 31.853773
_cell_length_b 9.131180
_cell_length_c 30.444423
_cell_angle_alpha 90.000000
_cell_angle_beta 149.839284
_cell_angle_gamma 90.000000
_cell_volume 4449.064679
_symmetry_space_group_name_H-M "C 2/M"
_symmetry_group_IT_number 12
_symmetry_cell_setting 'monoclinic'
loop_
_space_group_symop_operation_xyz
x,y,z
-x,y,-z
-x,-y,-z
x,-y,z
1/2+x,1/2+y,z
1/2-x,1/2+y,-z
1/2-x,1/2-y,-z
1/2+x,1/2-y,z
loop_
_atom_site_type_symbol
_atom_site_label
_atom_site_fract_x
_atom_site_fract_y
_atom_site_fract_z
Si Si1 0.799764 0.169507 0.984974
Si Si2 0.795436 0.332886 0.503282
Si Si3 0.129558 0.328871 0.871280
Si Si4 0.350192 0.672563 0.684917
Si Si5 0.099048 0.829531 0.007438
Si Si6 0.926072 0.326343 0.835601
Si Si7 0.599179 0.839003 0.091513
Si Si8 0.944583 0.329200 0.691533
O O1 0.703759 0.221315 0.905444
O O2 0.825959 0.201436 0.958696
O O3 0.809799 0.000000 0.005503
O O4 0.861605 0.253743 0.073478
O O5 0.776671 0.500000 0.496129
O O6 0.750000 0.250000 0.500000
O O7 0.749061 0.294495 0.415294
O O8 0.894772 0.300464 0.599967
O O9 0.134173 0.500000 0.884207
O O10 0.040599 0.284034 0.769833
O O11 0.367832 0.500000 0.706937
O O12 0.369287 0.757410 0.746670
O O13 0.408003 0.732171 0.697914
O O14 0.132036 0.774867 0.084824
O O15 0.076300 0.000000 0.990060
O O16 0.018015 0.743133 0.917619
O O17 0.935778 0.500000 0.837817
O O18 0.878542 0.290111 0.838609
O O19 0.636702 0.000000 0.115150
O O20 0.500000 0.847141 0.000000
O O21 0.937677 0.500000 0.698995
#
# Coordination Sequence:
#
# PCOD8079819 Si02
#       8
#     8   8   8   8   8   8   8   8
#     4   9  18  29  38  54  79 101 125 159 193 219
#     4   8  15  26  38  54  75  98 125 156 188 222
#     4   9  17  28  41  55  73 101 133 160 185 216
#     4  10  18  26  38  57  80 102 125 157 193 225
#     4  10  18  27  41  58  77 101 127 157 192 226
#     4  10  19  29  40  55  77 103 130 157 184 221
#     4   8  16  29  41  54  74  99 126 156 186 221
#     4   9  16  27  42  56  73 102 135 159 184 223
#
# _framework density 14.385046000000001
#
# number of rings (size 3 to 8) (size 9 to 14) (size 15 to 20)
#    0.000    2.875    0.000    2.625    0.000    6.750 
#    0.000    0.000    0.000    0.000    0.000    0.000 
#    0.000    1.000    0.000   12.500    0.000    2.000 
#
# Total GULP energy -396433.861525 kJ/mol
# GULP energy per Si atom -12388.558173 kJ/mol
# Density = 1.435231 g / cm^3
# Si number density = 14.385046 Si / 1000 Ang^3
#
#
#
# Elastic Constant Matrix: (Units=GPa)
#
#
# Indices 1 2 3 4 5 6 
#
# 1 82.1281 40.6033 51.6441 0.0000 -10.4823 0.0000
# 2 40.6033 60.3243 40.8023 0.0001 -7.4470 0.0000
# 3 51.6441 40.8023 113.2143 0.0000 -8.2417 0.0000
# 4 0.0000 0.0001 0.0000 16.7462 0.0000 -4.5315
# 5 -10.4823 -7.4470 -8.2417 0.0000 19.7275 0.0000
# 6 0.0000 0.0000 0.0000 -4.5315 0.0000 20.7333
#
#
#
# Elastic Compliance Matrix: (Units=1/GPa)
#
#
# Indices 1 2 3 4 5 6 
#
# 1 0.021343 -0.009777 -0.005833 0.000000 0.005213 0.000000
# 2 -0.009777 0.026914 -0.005032 0.000000 0.002863 0.000000
# 3 -0.005833 -0.005032 0.013349 0.000000 0.000578 0.000000
# 4 0.000000 0.000000 0.000000 0.063469 0.000000 0.013872
# 5 0.005213 0.002863 0.000578 0.000000 0.054783 0.000000
# 6 0.000000 0.000000 0.000000 0.013872 0.000000 0.051263
#
#
# Mechanical properties :
#
#
# Convention : Reuss Voigt Hill
#
# Bulk Modulus (GPa) = 49.20344 57.97399 53.58872
# Shear Modulus (GPa) = 17.90970 19.61587 18.76279
#
# Velocity S-wave (km/s) = 3.53232 3.69674 3.61546
# Velocity P-wave (km/s) = 7.13549 7.65573 7.40018
#
# Compressibility (1/GPa) = 0.02032378
#
# Stress axis : x y z
#
# Youngs Moduli (GPa) = 46.85424 37.15475 74.91198
#
# Poissons Ratio (x) = 0.36325 0.43694
# Poissons Ratio (y) = 0.45808 0.37694
# Poissons Ratio (z) = 0.27329 0.18695
#
# Static dielectric constant tensor:
#      x y z
#    x 2.784970 0.000000 -0.131990 
#    y 0.000000 2.884460 0.000000 
#    z -0.131990 0.000000 3.223270 
# 
# 
# High freq. dielectric constant tensor:
#      x y z
#    x 1.518590 0.000000 -0.012780 
#    y 0.000000 1.561310 0.000000 
#    z -0.012780 0.000000 1.537380 
# 
# From -- ./inp_files/384587.got.cif
#   From: 2010.06.25/outbox.cif.g09.slc.cpg/sg12_193_cif.got.tgz:384587.got - 2010.06.28 00:19:55.
