data_PCOD8079410
_publ_section_title
;
Structure prediction by ZEFSAII (Michael W. Deem and Ramdas Pophale) SiO2 
 PCOD8079410
Probable space group: C 2/M
;
_chemical_formula_sum "Si O2"
_cell_formula_units_Z 48
_cell_length_a 10.138133
_cell_length_b 27.794382
_cell_length_c 15.543531
_cell_angle_alpha 90.000000
_cell_angle_beta 32.796416
_cell_angle_gamma 90.000000
_cell_volume 2372.400197
_symmetry_space_group_name_H-M "C 2/M"
_symmetry_group_IT_number 12
_symmetry_cell_setting 'monoclinic'
loop_
_space_group_symop_operation_xyz
x,y,z
-x,y,-z
-x,-y,-z
x,-y,z
1/2+x,1/2+y,z
1/2-x,1/2+y,-z
1/2-x,1/2-y,-z
1/2+x,1/2-y,z
loop_
_atom_site_type_symbol
_atom_site_label
_atom_site_fract_x
_atom_site_fract_y
_atom_site_fract_z
Si Si1 0.626472 0.844909 0.204884
Si Si2 0.244120 0.786628 0.325690
Si Si3 0.785852 0.151418 0.819479
Si Si4 0.749870 0.553790 0.913732
Si Si5 0.222966 0.050972 0.128118
Si Si6 0.971732 0.809432 0.148022
O O1 0.378661 0.815214 0.329045
O O2 0.582222 0.902057 0.211646
O O3 0.733292 0.837509 0.242394
O O4 0.807747 0.820408 0.036655
O O5 0.164056 0.825431 0.299165
O O6 0.410376 0.747238 0.186545
O O7 0.000000 0.763253 0.500000
O O8 0.878161 0.095900 0.762372
O O9 0.958585 0.176204 0.794265
O O10 0.500000 0.153861 0.000000
O O11 0.866839 0.500000 0.836460
O O12 0.500000 0.557529 0.000000
O O13 0.694247 0.563634 0.043555
O O14 0.086142 0.000000 0.223531
O O15 0.500000 0.043311 0.000000
#
# Coordination Sequence:
#
# PCOD8079410 Si02
#       6
#     8   8   8   8   8   8
#     4  11  20  38  60  88 119 151 190 238 291 343
#     4  12  27  41  56  81 117 156 199 246 289 338
#     4  11  20  36  60  84 111 151 193 233 288 348
#     4  10  17  30  55  90 121 142 177 234 291 337
#     4   9  16  28  49  80 112 141 179 228 277 332
#     4  11  22  36  60  85 112 153 196 237 284 344
#
# _framework density 20.232673999999999
#
# number of rings (size 3 to 8) (size 9 to 14) (size 15 to 20)
#    0.000    1.333    5.000    2.500    2.333    2.667 
#    0.000    0.000    0.000    2.000    0.000    0.000 
#    0.000    8.667    0.000    0.000    0.000    0.000 
#
# Total GULP energy -297389.294116 kJ/mol
# GULP energy per Si atom -12391.220588 kJ/mol
# Density = 2.018662 g / cm^3
# Si number density = 20.232674 Si / 1000 Ang^3
#
#
#
# Elastic Constant Matrix: (Units=GPa)
#
#
# Indices 1 2 3 4 5 6 
#
# 1 135.5490 28.7991 11.3148 0.0000 -3.6624 0.0000
# 2 28.7991 162.5742 12.8864 0.0000 -4.3721 0.0000
# 3 11.3148 12.8864 35.3769 0.0000 -6.8605 0.0000
# 4 0.0000 0.0000 0.0000 5.5952 0.0000 -0.1629
# 5 -3.6624 -4.3721 -6.8605 0.0000 13.9981 0.0000
# 6 0.0000 0.0000 0.0000 -0.1629 0.0000 34.5051
#
#
#
# Elastic Compliance Matrix: (Units=1/GPa)
#
#
# Indices 1 2 3 4 5 6 
#
# 1 0.007815 -0.001213 -0.001917 0.000000 0.000726 0.000000
# 2 -0.001213 0.006533 -0.001832 0.000000 0.000825 0.000000
# 3 -0.001917 -0.001832 0.032420 0.000000 0.014816 0.000000
# 4 0.000000 0.000000 0.000000 0.178749 0.000000 0.000844
# 5 0.000726 0.000825 0.014816 0.000000 0.079148 0.000000
# 6 0.000000 0.000000 0.000000 0.000844 0.000000 0.028985
#
#
# Mechanical properties :
#
#
# Convention : Reuss Voigt Hill
#
# Bulk Modulus (GPa) = 27.14030 48.83342 37.98686
# Shear Modulus (GPa) = 14.05065 29.51966 21.78516
#
# Velocity S-wave (km/s) = 2.63811 3.82384 3.28492
# Velocity P-wave (km/s) = 4.76683 6.60939 5.76223
#
# Compressibility (1/GPa) = 0.03684557
#
# Stress axis : x y z
#
# Youngs Moduli (GPa) = 127.96360 153.06229 30.84468
#
# Poissons Ratio (x) = 0.18564 0.05912
# Poissons Ratio (y) = 0.15520 0.05650
# Poissons Ratio (z) = 0.24528 0.28038
#
# Static dielectric constant tensor:
#      x y z
#    x 4.126700 0.000000 -0.156510 
#    y 0.000000 4.391060 0.000000 
#    z -0.156510 0.000000 2.937930 
# 
# 
# High freq. dielectric constant tensor:
#      x y z
#    x 1.823700 0.000000 -0.006220 
#    y 0.000000 1.816400 0.000000 
#    z -0.006220 0.000000 1.700000 
# 
# From -- ./inp_files/265844.got.cif
#   From: 2010.06.25/outbox.cif.g09.slc.cpg/sg12_133_cif.got.tgz:265844.got - 2010.06.28 00:19:55.
