data_PCOD8079727
_publ_section_title
;
Structure prediction by ZEFSAII (Michael W. Deem and Ramdas Pophale) SiO2 
 PCOD8079727
Probable space group: C 2/M
;
_chemical_formula_sum "Si O2"
_cell_formula_units_Z 64
_cell_length_a 26.449294
_cell_length_b 14.341654
_cell_length_c 9.085629
_cell_angle_alpha 90.000000
_cell_angle_beta 109.938995
_cell_angle_gamma 90.000000
_cell_volume 3239.829570
_symmetry_space_group_name_H-M "C 2/M"
_symmetry_group_IT_number 12
_symmetry_cell_setting 'monoclinic'
loop_
_space_group_symop_operation_xyz
x,y,z
-x,y,-z
-x,-y,-z
x,-y,z
1/2+x,1/2+y,z
1/2-x,1/2+y,-z
1/2-x,1/2-y,-z
1/2+x,1/2-y,z
loop_
_atom_site_type_symbol
_atom_site_label
_atom_site_fract_x
_atom_site_fract_y
_atom_site_fract_z
Si Si1 0.440171 0.216324 0.420517
Si Si2 0.873059 0.252839 0.087897
Si Si3 0.359992 0.106928 0.549112
Si Si4 0.404442 0.397468 0.540243
Si Si5 0.361015 0.719580 0.751075
Si Si6 0.190480 0.856639 0.738412
Si Si7 0.283978 0.101604 0.025033
Si Si8 0.759697 0.675863 0.308047
O O1 0.500000 0.175972 0.500000
O O2 0.426295 0.217794 0.232251
O O3 0.397456 0.147795 0.455877
O O4 0.438862 0.322013 0.482814
O O5 0.842238 0.175475 0.150729
O O6 0.886908 0.214495 0.939767
O O7 0.835168 0.341625 0.022358
O O8 0.366504 0.174435 0.696371
O O9 0.297513 0.103585 0.433742
O O10 0.376569 0.000000 0.604291
O O11 0.432798 0.500000 0.581240
O O12 0.395168 0.354818 0.692509
O O13 0.347926 0.418172 0.401466
O O14 0.299117 0.686106 0.682833
O O15 0.243191 0.909688 0.847471
O O16 0.207488 0.771994 0.649188
O O17 0.303990 0.000000 0.093827
O O18 0.253291 0.150346 0.129924
#
# Coordination Sequence:
#
# PCOD8079727 Si02
#       8
#     8   8   8   8   8   8   8   8
#     4  10  22  43  68  84 102 142 193 249 300 334
#     4  10  19  36  57  78 111 147 187 236 283 329
#     4  11  23  38  57  85 119 153 192 234 278 338
#     4  10  22  38  57  86 120 151 188 231 276 341
#     4  11  21  37  55  82 125 159 185 217 278 345
#     4  10  17  35  53  77 114 160 192 230 267 319
#     4  11  19  28  51  84 115 151 196 236 271 319
#     4  11  18  34  53  77 122 162 190 222 271 331
#
# _framework density 19.754125999999999
#
# number of rings (size 3 to 8) (size 9 to 14) (size 15 to 20)
#    0.000    1.500    7.500    1.875    0.000    2.000 
#    0.000    3.125    0.000    1.500    0.000    0.000 
#    0.000    0.000    0.000    0.000    0.000    0.000 
#
# Total GULP energy -396630.407103 kJ/mol
# GULP energy per Si atom -12394.700222 kJ/mol
# Density = 1.970916 g / cm^3
# Si number density = 19.754126 Si / 1000 Ang^3
#
#
#
# Elastic Constant Matrix: (Units=GPa)
#
#
# Indices 1 2 3 4 5 6 
#
# 1 56.8675 5.5934 30.9013 0.0000 12.9793 0.0000
# 2 5.5934 96.1064 2.2214 0.0000 -2.4090 0.0000
# 3 30.9013 2.2214 101.7792 0.0000 4.0771 0.0000
# 4 0.0000 0.0000 0.0000 6.3319 0.0000 -1.9067
# 5 12.9793 -2.4090 4.0771 0.0000 23.4042 0.0000
# 6 0.0000 0.0000 0.0000 -1.9067 0.0000 9.1560
#
#
#
# Elastic Compliance Matrix: (Units=1/GPa)
#
#
# Indices 1 2 3 4 5 6 
#
# 1 0.024299 -0.001568 -0.006845 0.000000 -0.012444 0.000000
# 2 -0.001568 0.010541 0.000169 0.000000 0.001925 0.000000
# 3 -0.006845 0.000169 0.011829 0.000000 0.001752 0.000000
# 4 0.000000 0.000000 0.000000 0.168496 0.000000 0.035089
# 5 -0.012444 0.001925 0.001752 0.000000 0.049521 0.000000
# 6 0.000000 0.000000 0.000000 0.035089 0.000000 0.116525
#
#
# Mechanical properties :
#
#
# Convention : Reuss Voigt Hill
#
# Bulk Modulus (GPa) = 33.13302 36.90948 35.02125
# Shear Modulus (GPa) = 12.26217 22.18090 17.22154
#
# Velocity S-wave (km/s) = 2.49417 3.35453 2.95582
# Velocity P-wave (km/s) = 5.01035 5.80765 5.42367
#
# Compressibility (1/GPa) = 0.03018137
#
# Stress axis : x y z
#
# Youngs Moduli (GPa) = 41.15479 94.87005 84.53509
#
# Poissons Ratio (x) = 0.14875 0.57861
# Poissons Ratio (y) = 0.06453 -0.01428
# Poissons Ratio (z) = 0.28169 -0.01602
#
# Static dielectric constant tensor:
#      x y z
#    x 3.216680 0.000000 0.009450 
#    y 0.000000 3.520720 0.000000 
#    z 0.009450 0.000000 3.660400 
# 
# 
# High freq. dielectric constant tensor:
#      x y z
#    x 1.727980 0.000000 -0.003650 
#    y 0.000000 1.762240 0.000000 
#    z -0.003650 0.000000 1.774010 
# 
# From -- ./inp_files/104640.got.cif
#   From: 2010.06.25/outbox.cif.g09.slc.cpg/sg12_53_cif.got.tgz:104640.got - 2010.06.28 00:19:55.
