data_PCOD8079319
_publ_section_title
;
Structure prediction by ZEFSAII (Michael W. Deem and Ramdas Pophale) SiO2 
 PCOD8079319
Probable space group: C 2/M
;
_chemical_formula_sum "Si O2"
_cell_formula_units_Z 64
_cell_length_a 30.055274
_cell_length_b 9.339874
_cell_length_c 14.899787
_cell_angle_alpha 90.000000
_cell_angle_beta 100.869813
_cell_angle_gamma 90.000000
_cell_volume 4107.513475
_symmetry_space_group_name_H-M "C 2/M"
_symmetry_group_IT_number 12
_symmetry_cell_setting 'monoclinic'
loop_
_space_group_symop_operation_xyz
x,y,z
-x,y,-z
-x,-y,-z
x,-y,z
1/2+x,1/2+y,z
1/2-x,1/2+y,-z
1/2-x,1/2-y,-z
1/2+x,1/2-y,z
loop_
_atom_site_type_symbol
_atom_site_label
_atom_site_fract_x
_atom_site_fract_y
_atom_site_fract_z
Si Si1 0.556105 0.669389 0.426856
Si Si2 0.808555 0.330040 0.377071
Si Si3 0.216615 0.334232 0.105566
Si Si4 0.686749 0.664281 0.935904
Si Si5 0.641744 0.834725 0.421212
Si Si6 0.366718 0.332578 0.254297
Si Si7 0.956845 0.168088 0.377483
Si Si8 0.281203 0.832992 0.689814
O O1 0.563158 0.500000 0.421226
O O2 0.595980 0.745648 0.387351
O O3 0.507176 0.720624 0.368398
O O4 0.558146 0.725387 0.530563
O O5 0.804787 0.500000 0.363133
O O6 0.834282 0.287440 0.477656
O O7 0.834427 0.262685 0.303013
O O8 0.758779 0.263202 0.364995
O O9 0.207172 0.500000 0.088050
O O10 0.268066 0.292231 0.101120
O O11 0.207570 0.287331 0.204058
O O12 0.182048 0.253239 0.025844
O O13 0.688190 0.500000 0.965009
O O14 0.644461 0.697098 0.854214
O O15 0.674365 0.800871 0.350737
O O16 0.628399 0.000000 0.419646
O O17 0.358311 0.500000 0.274679
O O18 0.419117 0.287545 0.289981
O O19 0.960511 0.000000 0.389860
O O20 0.266851 0.000000 0.679380
#
# Coordination Sequence:
#
# PCOD8079319 Si02
#       8
#     8   8   8   8   8   8   8   8
#     4   9  16  29  48  68  89 117 154 189 221 262
#     4  11  21  30  42  67  96 120 153 191 222 251
#     4   9  17  30  46  64  85 115 150 185 225 264
#     4   9  17  28  45  67  88 114 147 182 226 269
#     4  10  21  33  45  65  93 123 155 189 224 262
#     4  10  17  30  49  67  91 125 154 177 218 276
#     4   8  15  27  47  70  89 116 153 187 218 264
#     4  10  20  35  49  61  86 126 163 185 216 271
#
# _framework density 15.581201
#
# number of rings (size 3 to 8) (size 9 to 14) (size 15 to 20)
#    0.000    2.500    2.500    1.500    0.000    2.000 
#    0.000    1.875    0.000    0.000    0.000    0.875 
#    0.000    7.000    0.000    0.000    0.000    0.000 
#
# Total GULP energy -396722.509591 kJ/mol
# GULP energy per Si atom -12397.578425 kJ/mol
# Density = 1.554574 g / cm^3
# Si number density = 15.581201 Si / 1000 Ang^3
#
#
#
# Elastic Constant Matrix: (Units=GPa)
#
#
# Indices 1 2 3 4 5 6 
#
# 1 107.4193 41.1782 47.8611 0.0000 11.0150 0.0000
# 2 41.1782 43.7345 28.6841 0.0000 2.5512 0.0000
# 3 47.8611 28.6841 74.6597 0.0000 10.8393 0.0000
# 4 0.0000 0.0000 0.0000 22.2672 0.0000 -0.1109
# 5 11.0150 2.5512 10.8393 0.0000 22.7436 0.0000
# 6 0.0000 0.0000 0.0000 -0.1109 0.0000 22.6532
#
#
#
# Elastic Compliance Matrix: (Units=1/GPa)
#
#
# Indices 1 2 3 4 5 6 
#
# 1 0.016783 -0.011895 -0.005589 0.000000 -0.004130 0.000000
# 2 -0.011895 0.039114 -0.008166 0.000000 0.005266 0.000000
# 3 -0.005589 -0.008166 0.021045 0.000000 -0.006407 0.000000
# 4 0.000000 0.000000 0.000000 0.044910 0.000000 0.000220
# 5 -0.004130 0.005266 -0.006407 0.000000 0.048431 0.000000
# 6 0.000000 0.000000 0.000000 0.000220 0.000000 0.044145
#
#
# Mechanical properties :
#
#
# Convention : Reuss Voigt Hill
#
# Bulk Modulus (GPa) = 39.00134 51.25114 45.12624
# Shear Modulus (GPa) = 18.22973 20.73881 19.48427
#
# Velocity S-wave (km/s) = 3.42421 3.65227 3.54008
# Velocity P-wave (km/s) = 6.38114 7.12388 6.76272
#
# Compressibility (1/GPa) = 0.02564015
#
# Stress axis : x y z
#
# Youngs Moduli (GPa) = 59.58383 25.56608 47.51796
#
# Poissons Ratio (x) = 0.30412 0.26558
# Poissons Ratio (y) = 0.70878 0.38805
# Poissons Ratio (z) = 0.33302 0.20878
#
# Static dielectric constant tensor:
#      x y z
#    x 3.014630 0.000000 0.204450 
#    y 0.000000 2.867720 0.000000 
#    z 0.204450 0.000000 3.009370 
# 
# 
# High freq. dielectric constant tensor:
#      x y z
#    x 1.581710 0.000000 0.013410 
#    y 0.000000 1.588260 0.000000 
#    z 0.013410 0.000000 1.584940 
# 
# From -- ./inp_files/248480.got.cif
#   From: 2010.06.25/outbox.cif.g09.slc.cpg/sg12_125_cif.got.tgz:248480.got - 2010.06.28 00:19:55.
