data_PCOD8079552
_publ_section_title
;
Structure prediction by ZEFSAII (Michael W. Deem and Ramdas Pophale) SiO2 
 PCOD8079552
Probable space group: C 2/M
;
_chemical_formula_sum "Si O2"
_cell_formula_units_Z 52
_cell_length_a 25.215434
_cell_length_b 24.168537
_cell_length_c 13.363651
_cell_angle_alpha 90.000000
_cell_angle_beta 160.578498
_cell_angle_gamma 90.000000
_cell_volume 2708.028826
_symmetry_space_group_name_H-M "C 2/M"
_symmetry_group_IT_number 12
_symmetry_cell_setting 'monoclinic'
loop_
_space_group_symop_operation_xyz
x,y,z
-x,y,-z
-x,-y,-z
x,-y,z
1/2+x,1/2+y,z
1/2-x,1/2+y,-z
1/2-x,1/2-y,-z
1/2+x,1/2-y,z
loop_
_atom_site_type_symbol
_atom_site_label
_atom_site_fract_x
_atom_site_fract_y
_atom_site_fract_z
Si Si1 0.769145 0.308243 0.841880
Si Si2 0.681039 0.618003 0.858818
Si Si3 0.869127 0.383846 0.849685
Si Si4 0.088458 0.189733 0.870187
Si Si5 0.510302 0.381458 0.134561
Si Si6 0.505552 0.500000 0.128275
Si Si7 0.813727 0.000000 0.184873
Si Si8 0.696533 0.000000 0.203298
O O1 0.785733 0.345963 0.969255
O O2 0.877199 0.335781 0.947750
O O3 0.586808 0.303103 0.485261
O O4 0.827749 0.248183 0.976304
O O5 0.500000 0.614318 0.500000
O O6 0.689353 0.646784 0.982008
O O7 0.755138 0.555621 0.990654
O O8 0.695201 0.383544 0.491879
O O9 0.907213 0.443847 0.968096
O O10 0.000000 0.369390 0.000000
O O11 0.083581 0.165751 0.973585
O O12 0.427495 0.440774 0.018952
O O13 0.500000 0.367618 0.000000
O O14 0.680877 0.500000 0.486861
O O15 0.500000 0.500000 0.000000
O O16 0.000000 0.000000 0.500000
O O17 0.781176 0.000000 0.246045
#
# Coordination Sequence:
#
# PCOD8079552 Si02
#       8
#     8   8   8   8   8   4   4   4
#     4  10  20  36  51  77 106 139 177 220 256 311
#     4   9  18  32  52  80 108 132 168 215 272 318
#     4  10  20  33  53  78 108 141 177 215 263 314
#     4  10  21  34  55  76 106 139 177 218 263 315
#     4   9  19  34  52  76 106 135 173 220 261 313
#     4   8  16  29  49  72 101 135 162 203 259 306
#     4  10  18  27  55  88 109 132 164 222 281 311
#     4  10  17  32  52  78 114 136 170 218 268 322
#
# _framework density 19.202159000000002
#
# number of rings (size 3 to 8) (size 9 to 14) (size 15 to 20)
#    0.000    2.462    1.538    0.692    6.462    1.846 
#    0.000    3.077    0.000    0.000    0.000    3.231 
#    0.000    0.000    0.000    0.000    0.000    0.000 
#
# Total GULP energy -322149.116061 kJ/mol
# GULP energy per Si atom -12390.350618 kJ/mol
# Density = 1.915845 g / cm^3
# Si number density = 19.202159 Si / 1000 Ang^3
#
#
#
# Elastic Constant Matrix: (Units=GPa)
#
#
# Indices 1 2 3 4 5 6 
#
# 1 149.7498 82.8842 29.3882 0.0000 8.9500 0.0000
# 2 82.8842 188.7381 26.3449 0.0000 -1.2637 0.0000
# 3 29.3882 26.3449 16.6712 0.0000 2.6907 0.0000
# 4 0.0000 0.0000 0.0000 24.2415 0.0000 -0.4778
# 5 8.9500 -1.2637 2.6907 0.0000 22.2725 0.0000
# 6 0.0000 0.0000 0.0000 -0.4778 0.0000 33.1262
#
#
#
# Elastic Compliance Matrix: (Units=1/GPa)
#
#
# Indices 1 2 3 4 5 6 
#
# 1 0.011431 -0.002942 -0.015026 0.000000 -0.002945 0.000000
# 2 -0.002942 0.007620 -0.007257 0.000000 0.002491 0.000000
# 3 -0.015026 -0.007257 0.098961 0.000000 -0.006329 0.000000
# 4 0.000000 0.000000 0.000000 0.041263 0.000000 0.000595
# 5 -0.002945 0.002491 -0.006329 0.000000 0.046988 0.000000
# 6 0.000000 0.000000 0.000000 0.000595 0.000000 0.030196
#
#
# Mechanical properties :
#
#
# Convention : Reuss Voigt Hill
#
# Bulk Modulus (GPa) = 14.80133 70.26596 42.53364
# Shear Modulus (GPa) = 16.15868 30.36418 23.26143
#
# Velocity S-wave (km/s) = 2.90402 3.98086 3.48429
# Velocity P-wave (km/s) = 4.35538 7.60275 6.19561
#
# Compressibility (1/GPa) = 0.06756152
#
# Stress axis : x y z
#
# Youngs Moduli (GPa) = 87.47998 131.23140 10.10498
#
# Poissons Ratio (x) = 0.38613 0.15184
# Poissons Ratio (y) = 0.25739 0.07333
# Poissons Ratio (z) = 1.31447 0.95236
#
# Static dielectric constant tensor:
#      x y z
#    x 3.675690 0.000000 -0.062420 
#    y 0.000000 4.069430 0.000000 
#    z -0.062420 0.000000 2.985410 
# 
# 
# High freq. dielectric constant tensor:
#      x y z
#    x 1.755670 0.000000 -0.004250 
#    y 0.000000 1.771730 0.000000 
#    z -0.004250 0.000000 1.688330 
# 
# From -- ./inp_files/133372.got.cif
#   From: 2010.06.25/outbox.cif.g09.slc.cpg/sg12_67_cif.got.tgz:133372.got - 2010.06.28 00:19:55.
