data_PCOD8079266
_publ_section_title
;
Structure prediction by ZEFSAII (Michael W. Deem and Ramdas Pophale) SiO2 
 PCOD8079266
Probable space group: C 2/M
;
_chemical_formula_sum "Si O2"
_cell_formula_units_Z 64
_cell_length_a 24.273352
_cell_length_b 8.599876
_cell_length_c 20.740478
_cell_angle_alpha 90.000000
_cell_angle_beta 127.631369
_cell_angle_gamma 90.000000
_cell_volume 3428.794601
_symmetry_space_group_name_H-M "C 2/M"
_symmetry_group_IT_number 12
_symmetry_cell_setting 'monoclinic'
loop_
_space_group_symop_operation_xyz
x,y,z
-x,y,-z
-x,-y,-z
x,-y,z
1/2+x,1/2+y,z
1/2-x,1/2+y,-z
1/2-x,1/2-y,-z
1/2+x,1/2-y,z
loop_
_atom_site_type_symbol
_atom_site_label
_atom_site_fract_x
_atom_site_fract_y
_atom_site_fract_z
Si Si1 0.893759 0.315584 0.942309
Si Si2 0.983637 0.684500 0.888212
Si Si3 0.884129 0.677440 0.458273
Si Si4 0.532349 0.678802 0.370657
Si Si5 0.271360 0.679376 0.673066
Si Si6 0.749947 0.181584 0.206227
Si Si7 0.903479 0.317626 0.708086
Si Si8 0.605138 0.180234 0.683328
O O1 0.896319 0.500000 0.939477
O O2 0.930530 0.249372 0.903983
O O3 0.812906 0.263487 0.886306
O O4 0.937670 0.258896 0.036682
O O5 0.982233 0.500000 0.887347
O O6 0.959609 0.744931 0.800933
O O7 0.906673 0.500000 0.488101
O O8 0.929672 0.790266 0.534595
O O9 0.802705 0.702741 0.415229
O O10 0.899635 0.721358 0.395475
O O11 0.539898 0.500000 0.356860
O O12 0.567941 0.783500 0.341953
O O13 0.451277 0.720964 0.318113
O O14 0.279460 0.500000 0.699825
O O15 0.275305 0.785664 0.739162
O O16 0.330625 0.729314 0.665411
O O17 0.818372 0.277249 0.235749
O O18 0.766358 0.000000 0.211036
O O19 0.889941 0.500000 0.706029
O O20 0.591148 0.000000 0.686107
#
# Coordination Sequence:
#
# PCOD8079266 Si02
#       8
#     8   8   8   8   8   8   8   8
#     4   8  13  24  47  80 111 134 169 213 254 302
#     4   8  14  26  47  77 108 139 172 210 253 302
#     4   9  20  38  58  78 102 134 171 216 265 310
#     4  12  25  38  54  77 103 136 176 220 265 313
#     4  10  20  34  52  77 110 142 173 213 261 310
#     4  10  17  29  53  83 110 138 172 215 262 309
#     4  11  21  35  55  76 105 145 181 214 257 314
#     4  10  21  38  58  79 105 136 172 219 264 308
#
# _framework density 18.665451999999998
#
# number of rings (size 3 to 8) (size 9 to 14) (size 15 to 20)
#    0.000    2.250    1.250    4.500    0.000    5.000 
#    0.000    0.000    0.000    4.500    0.000    0.000 
#    0.000    0.000    0.000    0.000    0.000    0.000 
#
# Total GULP energy -396723.311552 kJ/mol
# GULP energy per Si atom -12397.603486 kJ/mol
# Density = 1.862297 g / cm^3
# Si number density = 18.665452 Si / 1000 Ang^3
#
#
#
# Elastic Constant Matrix: (Units=GPa)
#
#
# Indices 1 2 3 4 5 6 
#
# 1 86.5637 11.6239 24.1931 0.0000 20.1900 0.0000
# 2 11.6239 45.4433 21.1608 0.0000 6.3842 0.0000
# 3 24.1931 21.1608 54.4220 0.0000 26.1528 0.0000
# 4 0.0000 0.0000 0.0000 15.3099 0.0000 3.8388
# 5 20.1900 6.3842 26.1528 0.0000 25.1250 0.0000
# 6 0.0000 0.0000 0.0000 3.8388 0.0000 26.2158
#
#
#
# Elastic Compliance Matrix: (Units=1/GPa)
#
#
# Indices 1 2 3 4 5 6 
#
# 1 0.014424 -0.001918 -0.000661 0.000000 -0.010415 0.000000
# 2 -0.001918 0.027975 -0.014706 0.000000 0.009740 0.000000
# 3 -0.000661 -0.014706 0.044691 0.000000 -0.042251 0.000000
# 4 0.000000 0.000000 0.000000 0.067807 0.000000 -0.009929
# 5 -0.010415 0.009740 -0.042251 0.000000 0.089675 0.000000
# 6 0.000000 0.000000 0.000000 -0.009929 0.000000 0.039599
#
#
# Mechanical properties :
#
#
# Convention : Reuss Voigt Hill
#
# Bulk Modulus (GPa) = 19.04040 33.37605 26.20823
# Shear Modulus (GPa) = 14.87005 21.96023 18.41514
#
# Velocity S-wave (km/s) = 2.82558 3.43376 3.14441
# Velocity P-wave (km/s) = 4.56818 5.80008 5.22059
#
# Compressibility (1/GPa) = 0.05251989
#
# Stress axis : x y z
#
# Youngs Moduli (GPa) = 69.32998 35.74560 22.37608
#
# Poissons Ratio (x) = 0.06858 0.01479
# Poissons Ratio (y) = 0.13300 0.32905
# Poissons Ratio (z) = 0.04583 0.52566
#
# Static dielectric constant tensor:
#      x y z
#    x 3.272840 0.000000 0.309030 
#    y 0.000000 3.180000 0.000000 
#    z 0.309030 0.000000 3.697750 
# 
# 
# High freq. dielectric constant tensor:
#      x y z
#    x 1.704560 0.000000 0.027740 
#    y 0.000000 1.707580 0.000000 
#    z 0.027740 0.000000 1.723270 
# 
# From -- ./inp_files/324246.got.cif
#   From: 2010.06.25/outbox.cif.g09.slc.cpg/sg12_163_cif.got.tgz:324246.got - 2010.06.28 00:19:55.
