data_PCOD8079783
_publ_section_title
;
Structure prediction by ZEFSAII (Michael W. Deem and Ramdas Pophale) SiO2 
 PCOD8079783
Probable space group: C 2/M
;
_chemical_formula_sum "Si O2"
_cell_formula_units_Z 52
_cell_length_a 9.879843
_cell_length_b 29.661109
_cell_length_c 11.325507
_cell_angle_alpha 90.000000
_cell_angle_beta 55.801929
_cell_angle_gamma 90.000000
_cell_volume 2745.066299
_symmetry_space_group_name_H-M "C 2/M"
_symmetry_group_IT_number 12
_symmetry_cell_setting 'monoclinic'
loop_
_space_group_symop_operation_xyz
x,y,z
-x,y,-z
-x,-y,-z
x,-y,z
1/2+x,1/2+y,z
1/2-x,1/2+y,-z
1/2-x,1/2-y,-z
1/2+x,1/2-y,z
loop_
_atom_site_type_symbol
_atom_site_label
_atom_site_fract_x
_atom_site_fract_y
_atom_site_fract_z
Si Si1 0.019687 0.949629 0.185105
Si Si2 0.427543 0.216760 0.658618
Si Si3 0.500000 0.338499 0.000000
Si Si4 0.466167 0.115464 0.382222
Si Si5 0.403402 0.621748 0.428245
Si Si6 0.428285 0.292610 0.252791
Si Si7 0.273310 0.581345 0.123568
O O1 0.996984 0.915562 0.304756
O O2 0.861134 0.950284 0.177464
O O3 0.044963 0.000000 0.222976
O O4 0.181684 0.935388 0.030323
O O5 0.500000 0.233785 0.500000
O O6 0.492098 0.167491 0.660678
O O7 0.489915 0.249430 0.730154
O O8 0.233305 0.220276 0.741688
O O9 0.551190 0.310091 0.090659
O O10 0.344295 0.368695 0.112160
O O11 0.500000 0.101767 0.500000
O O12 0.277477 0.104919 0.447370
O O13 0.578439 0.083936 0.241857
O O14 0.500000 0.630527 0.500000
O O15 0.387402 0.668966 0.368031
#
# Coordination Sequence:
#
# PCOD8079783 Si02
#       7
#     8   8   4   8   8   8   8
#     4  10  20  38  65  95 120 152 196 240 300 366
#     4  11  22  34  56  83 116 156 200 250 290 342
#     4  10  18  36  59  78 114 156 194 240 297 344
#     4  11  19  39  61  87 120 157 203 249 291 342
#     4  12  24  39  62  88 123 161 195 245 307 355
#     4  12  22  38  55  84 118 161 200 248 294 344
#     4  10  17  37  65  87 116 155 196 244 294 350
#
# _framework density 18.943076000000001
#
# number of rings (size 3 to 8) (size 9 to 14) (size 15 to 20)
#    0.000    1.231    9.231    1.846    2.154    0.923 
#    0.000    3.077    0.000    0.923    0.000    0.000 
#    0.000    0.000    0.000    0.000    0.000    0.000 
#
# Total GULP energy -322347.889095 kJ/mol
# GULP energy per Si atom -12397.995734 kJ/mol
# Density = 1.889996 g / cm^3
# Si number density = 18.943076 Si / 1000 Ang^3
#
#
#
# Elastic Constant Matrix: (Units=GPa)
#
#
# Indices 1 2 3 4 5 6 
#
# 1 78.0005 18.0581 35.8651 0.0000 -11.3468 0.0000
# 2 18.0581 75.8486 35.7837 0.0000 -1.1276 0.0000
# 3 35.8651 35.7837 93.1571 0.0000 -13.5735 0.0000
# 4 0.0000 0.0000 0.0000 16.4788 0.0000 3.6764
# 5 -11.3468 -1.1276 -13.5735 0.0000 24.5035 0.0000
# 6 0.0000 0.0000 0.0000 3.6764 0.0000 16.9395
#
#
#
# Elastic Compliance Matrix: (Units=1/GPa)
#
#
# Indices 1 2 3 4 5 6 
#
# 1 0.016115 -0.001416 -0.004985 0.000000 0.004636 0.000000
# 2 -0.001416 0.016421 -0.006253 0.000000 -0.003364 0.000000
# 3 -0.004985 -0.006253 0.015966 0.000000 0.006248 0.000000
# 4 0.000000 0.000000 0.000000 0.063772 0.000000 -0.013840
# 5 0.004636 -0.003364 0.006248 0.000000 0.046263 0.000000
# 6 0.000000 0.000000 0.000000 -0.013840 0.000000 0.062037
#
#
# Mechanical properties :
#
#
# Convention : Reuss Voigt Hill
#
# Bulk Modulus (GPa) = 43.11302 47.38001 45.24652
# Shear Modulus (GPa) = 19.71513 22.07100 20.89306
#
# Velocity S-wave (km/s) = 3.22958 3.41709 3.32466
# Velocity P-wave (km/s) = 6.05933 6.37454 6.21894
#
# Compressibility (1/GPa) = 0.02319485
#
# Stress axis : x y z
#
# Youngs Moduli (GPa) = 62.05549 60.89709 62.63384
#
# Poissons Ratio (x) = 0.08623 0.31221
# Poissons Ratio (y) = 0.08787 0.39163
# Poissons Ratio (z) = 0.30933 0.38077
#
# Static dielectric constant tensor:
#      x y z
#    x 3.210780 0.000000 -0.091330 
#    y 0.000000 3.338140 0.000000 
#    z -0.091330 0.000000 3.644510 
# 
# 
# High freq. dielectric constant tensor:
#      x y z
#    x 1.700900 0.000000 -0.005940 
#    y 0.000000 1.726860 0.000000 
#    z -0.005940 0.000000 1.746300 
# 
# From -- ./inp_files/125113.got.cif
#   From: 2010.06.25/outbox.cif.g09.slc.cpg/sg12_63_cif.got.tgz:125113.got - 2010.06.28 00:19:55.
