data_PCOD8079450
_publ_section_title
;
Structure prediction by ZEFSAII (Michael W. Deem and Ramdas Pophale) SiO2 
 PCOD8079450
Probable space group: C 2/M
;
_chemical_formula_sum "Si O2"
_cell_formula_units_Z 56
_cell_length_a 33.466575
_cell_length_b 8.731204
_cell_length_c 12.662856
_cell_angle_alpha 90.000000
_cell_angle_beta 120.162123
_cell_angle_gamma 90.000000
_cell_volume 3199.159507
_symmetry_space_group_name_H-M "C 2/M"
_symmetry_group_IT_number 12
_symmetry_cell_setting 'monoclinic'
loop_
_space_group_symop_operation_xyz
x,y,z
-x,y,-z
-x,-y,-z
x,-y,z
1/2+x,1/2+y,z
1/2-x,1/2+y,-z
1/2-x,1/2-y,-z
1/2+x,1/2-y,z
loop_
_atom_site_type_symbol
_atom_site_label
_atom_site_fract_x
_atom_site_fract_y
_atom_site_fract_z
Si Si1 0.704108 0.821407 0.818919
Si Si2 0.046609 0.681980 0.339593
Si Si3 0.448751 0.819934 0.892890
Si Si4 0.610455 0.320902 0.008813
Si Si5 0.392996 0.182081 0.390252
Si Si6 0.700658 0.177387 0.059659
Si Si7 0.945476 0.682013 0.255998
O O1 0.660130 0.765072 0.692226
O O2 0.747976 0.726062 0.837001
O O3 0.714723 0.000000 0.817172
O O4 0.693054 0.786065 0.926247
O O5 0.044356 0.500000 0.339006
O O6 0.057209 0.737079 0.235342
O O7 0.086369 0.743328 0.471616
O O8 0.997259 0.747433 0.312555
O O9 0.439336 0.000000 0.893354
O O10 0.500000 0.778561 0.000000
O O11 0.411021 0.726391 0.907947
O O12 0.604842 0.500000 0.983344
O O13 0.584808 0.230745 0.882930
O O14 0.664294 0.274810 0.079265
O O15 0.423738 0.248456 0.334949
O O16 0.395123 0.000000 0.387883
O O17 0.693261 0.000000 0.075091
O O18 0.945832 0.500000 0.258479
#
# Coordination Sequence:
#
# PCOD8079450 Si02
#       7
#     8   8   8   8   8   8   8
#     4   9  17  30  50  77 107 132 160 204 256 307
#     4   9  17  29  51  78 103 135 175 211 246 297
#     4  10  19  34  54  75 100 134 176 217 252 293
#     4  12  23  33  50  75 105 137 172 213 260 300
#     4   9  16  28  50  80 108 134 166 207 252 301
#     4  10  19  33  52  75 101 133 169 207 255 307
#     4  10  17  31  51  76 106 137 172 206 248 299
#
# _framework density 17.504597
#
# number of rings (size 3 to 8) (size 9 to 14) (size 15 to 20)
#    0.000    2.143    2.857    2.143    0.000    2.571 
#    0.000    0.000    0.000    5.143    0.000    0.000 
#    0.000    0.000    0.000    0.000    0.000    0.000 
#
# Total GULP energy -347208.916881 kJ/mol
# GULP energy per Si atom -12400.318460 kJ/mol
# Density = 1.746476 g / cm^3
# Si number density = 17.504597 Si / 1000 Ang^3
#
#
#
# Elastic Constant Matrix: (Units=GPa)
#
#
# Indices 1 2 3 4 5 6 
#
# 1 112.7663 14.6976 59.2436 0.0000 10.3054 0.0000
# 2 14.6976 16.0823 3.2092 0.0000 1.2294 0.0000
# 3 59.2436 3.2092 125.9969 0.0000 4.1417 0.0000
# 4 0.0000 0.0000 0.0000 10.2322 0.0000 2.5687
# 5 10.3054 1.2294 4.1417 0.0000 25.6161 0.0000
# 6 0.0000 0.0000 0.0000 2.5687 0.0000 23.8546
#
#
#
# Elastic Compliance Matrix: (Units=1/GPa)
#
#
# Indices 1 2 3 4 5 6 
#
# 1 0.013915 -0.011184 -0.006124 0.000000 -0.004071 0.000000
# 2 -0.011184 0.071680 0.003416 0.000000 0.000507 0.000000
# 3 -0.006124 0.003416 0.010711 0.000000 0.000568 0.000000
# 4 0.000000 0.000000 0.000000 0.100446 0.000000 -0.010816
# 5 -0.004071 0.000507 0.000568 0.000000 0.040560 0.000000
# 6 0.000000 0.000000 0.000000 -0.010816 0.000000 0.043085
#
#
# Mechanical properties :
#
#
# Convention : Reuss Voigt Hill
#
# Bulk Modulus (GPa) = 14.59369 45.46070 30.02720
# Shear Modulus (GPa) = 15.10478 23.78694 19.44586
#
# Velocity S-wave (km/s) = 2.94071 3.69032 3.33663
# Velocity P-wave (km/s) = 4.45932 6.64718 5.65997
#
# Compressibility (1/GPa) = 0.06852276
#
# Stress axis : x y z
#
# Youngs Moduli (GPa) = 71.86500 13.95081 93.36570
#
# Poissons Ratio (x) = 0.15602 0.57178
# Poissons Ratio (y) = 0.80371 -0.31895
# Poissons Ratio (z) = 0.44011 -0.04766
#
# Static dielectric constant tensor:
#      x y z
#    x 3.437000 0.000000 0.058150 
#    y 0.000000 2.916300 0.000000 
#    z 0.058150 0.000000 3.339240 
# 
# 
# High freq. dielectric constant tensor:
#      x y z
#    x 1.680680 0.000000 0.008110 
#    y 0.000000 1.644600 0.000000 
#    z 0.008110 0.000000 1.661600 
# 
# From -- ./inp_files/186865.got.cif
#   From: 2010.06.25/outbox.cif.g09.slc.cpg/sg12_94_cif.got.tgz:186865.got - 2010.06.28 00:19:55.
