data_PCOD8079308
_publ_section_title
;
Structure prediction by ZEFSAII (Michael W. Deem and Ramdas Pophale) SiO2 
 PCOD8079308
Probable space group: C 2/M
;
_chemical_formula_sum "Si O2"
_cell_formula_units_Z 56
_cell_length_a 32.180510
_cell_length_b 12.643773
_cell_length_c 9.564287
_cell_angle_alpha 90.000000
_cell_angle_beta 121.439072
_cell_angle_gamma 90.000000
_cell_volume 3320.249109
_symmetry_space_group_name_H-M "C 2/M"
_symmetry_group_IT_number 12
_symmetry_cell_setting 'monoclinic'
loop_
_space_group_symop_operation_xyz
x,y,z
-x,y,-z
-x,-y,-z
x,-y,z
1/2+x,1/2+y,z
1/2-x,1/2+y,-z
1/2-x,1/2-y,-z
1/2+x,1/2-y,z
loop_
_atom_site_type_symbol
_atom_site_label
_atom_site_fract_x
_atom_site_fract_y
_atom_site_fract_z
Si Si1 0.116357 0.215096 0.168081
Si Si2 0.268718 0.740905 0.316904
Si Si3 0.307296 0.124748 0.635926
Si Si4 0.314579 0.380443 0.919784
Si Si5 0.425494 0.623358 0.626537
Si Si6 0.025536 0.882557 0.896746
Si Si7 0.152798 0.121897 0.724715
O O1 0.140902 0.331818 0.210923
O O2 0.156858 0.136437 0.175360
O O3 0.104002 0.183288 0.304144
O O4 0.068705 0.204243 0.984075
O O5 0.297745 0.816663 0.473332
O O6 0.237906 0.650111 0.341790
O O7 0.233405 0.809896 0.158392
O O8 0.306187 0.688466 0.278680
O O9 0.311995 0.000000 0.622045
O O10 0.296638 0.500000 0.895869
O O11 0.348561 0.351341 0.112835
O O12 0.423511 0.500000 0.661910
O O13 0.482673 0.657521 0.716517
O O14 0.400218 0.648798 0.433882
O O15 0.045813 0.000000 0.888480
O O16 0.000000 0.894495 0.000000
O O17 0.165412 0.000000 0.720535
#
# Coordination Sequence:
#
# PCOD8079308 Si02
#       7
#     8   8   8   8   8   8   8
#     4  10  17  30  48  68  92 122 152 188 232 269
#     4  10  19  33  47  64  91 130 154 185 232 277
#     4  10  20  31  47  72  92 114 158 202 232 266
#     4  10  20  30  45  69  97 124 154 187 223 272
#     4   9  16  28  48  71  94 123 155 184 225 278
#     4   8  14  25  45  71  94 119 151 184 223 279
#     4  10  19  31  46  69  97 124 152 186 225 271
#
# _framework density 16.866205000000001
#
# number of rings (size 3 to 8) (size 9 to 14) (size 15 to 20)
#    0.000    2.429    1.429    3.429    0.000    0.000 
#    0.000    0.714    0.000    8.143    0.000    0.000 
#    0.000    4.571    0.000    0.000    0.000    0.000 
#
# Total GULP energy -346985.322870 kJ/mol
# GULP energy per Si atom -12392.332960 kJ/mol
# Density = 1.682782 g / cm^3
# Si number density = 16.866205 Si / 1000 Ang^3
#
#
#
# Elastic Constant Matrix: (Units=GPa)
#
#
# Indices 1 2 3 4 5 6 
#
# 1 45.5848 31.9461 24.2725 0.0000 22.0732 0.0000
# 2 31.9461 76.1481 34.0641 0.0000 12.8274 0.0000
# 3 24.2725 34.0641 88.5342 0.0000 23.8196 0.0000
# 4 0.0000 0.0000 0.0000 21.5653 0.0000 4.6692
# 5 22.0732 12.8274 23.8196 0.0000 32.0565 0.0000
# 6 0.0000 0.0000 0.0000 4.6692 0.0000 17.6409
#
#
#
# Elastic Compliance Matrix: (Units=1/GPa)
#
#
# Indices 1 2 3 4 5 6 
#
# 1 0.043739 -0.014263 0.000080 0.000000 -0.024469 0.000000
# 2 -0.014263 0.020647 -0.005566 0.000000 0.005695 0.000000
# 3 0.000080 -0.005566 0.016036 0.000000 -0.009743 0.000000
# 4 0.000000 0.000000 0.000000 0.049190 0.000000 -0.013019
# 5 -0.024469 0.005695 -0.009743 0.000000 0.053005 0.000000
# 6 0.000000 0.000000 0.000000 -0.013019 0.000000 0.060133
#
#
# Mechanical properties :
#
#
# Convention : Reuss Voigt Hill
#
# Bulk Modulus (GPa) = 24.43616 43.42584 33.93100
# Shear Modulus (GPa) = 16.89825 22.25148 19.57487
#
# Velocity S-wave (km/s) = 3.16871 3.63615 3.41045
# Velocity P-wave (km/s) = 5.28274 6.59029 5.97241
#
# Compressibility (1/GPa) = 0.04092296
#
# Stress axis : x y z
#
# Youngs Moduli (GPa) = 22.86280 48.43418 62.35943
#
# Poissons Ratio (x) = 0.69084 -0.00497
# Poissons Ratio (y) = 0.32610 0.34708
# Poissons Ratio (z) = -0.00182 0.26957
#
# Static dielectric constant tensor:
#      x y z
#    x 3.230300 0.000000 0.403570 
#    y 0.000000 2.937130 0.000000 
#    z 0.403570 0.000000 3.575560 
# 
# 
# High freq. dielectric constant tensor:
#      x y z
#    x 1.639500 0.000000 0.016880 
#    y 0.000000 1.614710 0.000000 
#    z 0.016880 0.000000 1.658310 
# 
# From -- ./inp_files/109839.got.cif
#   From: 2010.06.25/outbox.cif.g09.slc.cpg/sg12_55_cif.got.tgz:109839.got - 2010.06.28 00:19:55.
