data_PCOD8079794
_publ_section_title
;
Structure prediction by ZEFSAII (Michael W. Deem and Ramdas Pophale) SiO2 
 PCOD8079794
Probable space group: C 2/M
;
_chemical_formula_sum "Si O2"
_cell_formula_units_Z 60
_cell_length_a 14.663461
_cell_length_b 18.090515
_cell_length_c 12.035478
_cell_angle_alpha 90.000000
_cell_angle_beta 63.245007
_cell_angle_gamma 90.000000
_cell_volume 2850.840385
_symmetry_space_group_name_H-M "C 2/M"
_symmetry_group_IT_number 12
_symmetry_cell_setting 'monoclinic'
loop_
_space_group_symop_operation_xyz
x,y,z
-x,y,-z
-x,-y,-z
x,-y,z
1/2+x,1/2+y,z
1/2-x,1/2+y,-z
1/2-x,1/2-y,-z
1/2+x,1/2-y,z
loop_
_atom_site_type_symbol
_atom_site_label
_atom_site_fract_x
_atom_site_fract_y
_atom_site_fract_z
Si Si1 0.594851 0.138767 0.873984
Si Si2 0.332638 0.288256 0.212929
Si Si3 0.382011 0.710639 0.645680
Si Si4 0.500000 0.164987 0.500000
Si Si5 0.631115 0.913840 0.608715
Si Si6 0.618017 0.582664 0.958858
Si Si7 0.184138 0.916101 0.175363
Si Si8 0.317995 0.677283 0.458659
O O1 0.587300 0.228571 0.879217
O O2 0.584979 0.115054 0.750256
O O3 0.697776 0.106317 0.873134
O O4 0.500000 0.108925 0.000000
O O5 0.233790 0.238065 0.283416
O O6 0.313545 0.356459 0.140749
O O7 0.368880 0.326285 0.309133
O O8 0.450011 0.783771 0.625217
O O9 0.393578 0.640869 0.720962
O O10 0.405476 0.683549 0.505054
O O11 0.421499 0.116077 0.474416
O O12 0.750003 0.893452 0.529739
O O13 0.617090 0.000000 0.616418
O O14 0.641776 0.500000 0.900969
O O15 0.500000 0.602111 0.000000
O O16 0.649637 0.588502 0.068207
O O17 0.169099 0.000000 0.228507
O O18 0.250000 0.750000 0.500000
#
# Coordination Sequence:
#
# PCOD8079794 Si02
#       8
#     8   8   8   4   8   8   8   8
#     4  11  23  39  65  95 124 168 216 263 314 380
#     4  10  19  38  64  88 121 162 210 254 312 379
#     4  10  21  37  65  90 119 164 205 260 315 380
#     4  12  23  40  59  98 134 162 208 266 319 388
#     4  12  24  40  63  90 130 170 208 262 324 381
#     4  10  23  41  60  87 124 164 207 263 324 376
#     4  10  22  42  63  89 127 164 210 267 321 376
#     4  10  17  40  62  84 117 161 208 248 306 373
#
# _framework density 21.046427000000001
#
# number of rings (size 3 to 8) (size 9 to 14) (size 15 to 20)
#    0.000    1.467    6.667    1.000    0.000    8.000 
#    0.000    1.667    0.000    0.000    0.000    0.000 
#    0.000    0.000    0.000    0.000    0.000    0.000 
#
# Total GULP energy -371713.561554 kJ/mol
# GULP energy per Si atom -12390.452052 kJ/mol
# Density = 2.099852 g / cm^3
# Si number density = 21.046427 Si / 1000 Ang^3
#
#
#
# Elastic Constant Matrix: (Units=GPa)
#
#
# Indices 1 2 3 4 5 6 
#
# 1 46.4752 14.1773 9.9166 0.0000 20.4561 0.0000
# 2 14.1773 150.9799 51.5061 0.0000 15.9391 0.0000
# 3 9.9166 51.5061 77.0613 0.0000 17.0402 0.0000
# 4 0.0000 0.0000 0.0000 22.1377 0.0000 7.1420
# 5 20.4561 15.9391 17.0402 0.0000 24.8465 0.0000
# 6 0.0000 0.0000 0.0000 7.1420 0.0000 19.1876
#
#
#
# Elastic Compliance Matrix: (Units=1/GPa)
#
#
# Indices 1 2 3 4 5 6 
#
# 1 0.034173 -0.001067 0.002812 0.000000 -0.029379 0.000000
# 2 -0.001067 0.008686 -0.005458 0.000000 -0.000951 0.000000
# 3 0.002812 -0.005458 0.018861 0.000000 -0.011749 0.000000
# 4 0.000000 0.000000 0.000000 0.051337 0.000000 -0.019109
# 5 -0.029379 -0.000951 -0.011749 0.000000 0.073102 0.000000
# 6 0.000000 0.000000 0.000000 -0.019109 0.000000 0.059230
#
#
# Mechanical properties :
#
#
# Convention : Reuss Voigt Hill
#
# Bulk Modulus (GPa) = 18.41808 47.30180 32.85994
# Shear Modulus (GPa) = 18.45615 26.49544 22.47580
#
# Velocity S-wave (km/s) = 2.96451 3.55195 3.27144
# Velocity P-wave (km/s) = 4.52635 6.27261 5.46962
#
# Compressibility (1/GPa) = 0.05429447
#
# Stress axis : x y z
#
# Youngs Moduli (GPa) = 29.26245 115.12932 53.02013
#
# Poissons Ratio (x) = 0.12279 -0.14908
# Poissons Ratio (y) = 0.03121 0.28938
# Poissons Ratio (z) = -0.08228 0.62837
#
# Static dielectric constant tensor:
#      x y z
#    x 3.990010 0.000000 0.008380 
#    y 0.000000 4.025300 0.000000 
#    z 0.008380 0.000000 4.304730 
# 
# 
# High freq. dielectric constant tensor:
#      x y z
#    x 1.816050 0.000000 0.014790 
#    y 0.000000 1.832590 0.000000 
#    z 0.014790 0.000000 1.820530 
# 
# From -- ./inp_files/146109.got.cif
#   From: 2010.06.25/outbox.cif.g09.slc.cpg/sg12_74_cif.got.tgz:146109.got - 2010.06.28 00:19:55.
