data_PCOD8079725
_publ_section_title
;
Structure prediction by ZEFSAII (Michael W. Deem and Ramdas Pophale) SiO2 
 PCOD8079725
Probable space group: C 2/M
;
_chemical_formula_sum "Si O2"
_cell_formula_units_Z 60
_cell_length_a 20.387991
_cell_length_b 22.334137
_cell_length_c 14.905595
_cell_angle_alpha 90.000000
_cell_angle_beta 30.730451
_cell_angle_gamma 90.000000
_cell_volume 3468.276258
_symmetry_space_group_name_H-M "C 2/M"
_symmetry_group_IT_number 12
_symmetry_cell_setting 'monoclinic'
loop_
_space_group_symop_operation_xyz
x,y,z
-x,y,-z
-x,-y,-z
x,-y,z
1/2+x,1/2+y,z
1/2-x,1/2+y,-z
1/2-x,1/2-y,-z
1/2+x,1/2-y,z
loop_
_atom_site_type_symbol
_atom_site_label
_atom_site_fract_x
_atom_site_fract_y
_atom_site_fract_z
Si Si1 0.501894 0.218625 0.661218
Si Si2 0.569183 0.567588 0.825647
Si Si3 0.372466 0.430470 0.896094
Si Si4 0.000000 0.250257 0.000000
Si Si5 0.731810 0.667398 0.681871
Si Si6 0.923443 0.156781 0.680093
Si Si7 0.344776 0.783178 0.019754
Si Si8 0.290344 0.840665 0.813408
O O1 0.650197 0.202544 0.500821
O O2 0.493673 0.288895 0.648876
O O3 0.426192 0.198374 0.838310
O O4 0.436980 0.179970 0.657685
O O5 0.618579 0.500000 0.773465
O O6 0.478278 0.577618 0.848323
O O7 0.694057 0.609575 0.667037
O O8 0.500000 0.586422 0.000000
O O9 0.340048 0.500000 0.916919
O O10 0.423154 0.401301 0.744353
O O11 0.245258 0.396676 0.081188
O O12 0.108959 0.210300 0.825658
O O13 0.933031 0.291543 0.003765
O O14 0.773198 0.642809 0.730293
O O15 0.000000 0.140091 0.500000
O O16 0.778499 0.174595 0.824328
O O17 0.304057 0.714440 0.052272
#
# Coordination Sequence:
#
# PCOD8079725 Si02
#       8
#     8   8   8   4   8   8   8   8
#     4  11  20  33  56  83 110 145 175 213 272 329
#     4  10  19  34  54  76 107 147 183 219 262 309
#     4  11  21  35  59  81 103 141 188 229 265 309
#     4  10  20  32  47  80 113 138 176 218 264 320
#     4  11  20  31  53  81 113 143 177 213 264 325
#     4  11  21  38  58  81 108 140 181 223 275 314
#     4  10  19  35  55  77 113 144 167 219 269 330
#     4  10  17  35  52  78 112 140 175 217 265 320
#
# _framework density 17.299659999999999
#
# number of rings (size 3 to 8) (size 9 to 14) (size 15 to 20)
#    0.000    1.467    4.667    4.400    0.000    0.800 
#    2.400    0.667    0.000    1.600    0.000    0.467 
#    0.000    0.000    0.000    0.000    0.000    0.000 
#
# Total GULP energy -372001.416494 kJ/mol
# GULP energy per Si atom -12400.047216 kJ/mol
# Density = 1.726029 g / cm^3
# Si number density = 17.299660 Si / 1000 Ang^3
#
#
#
# Elastic Constant Matrix: (Units=GPa)
#
#
# Indices 1 2 3 4 5 6 
#
# 1 83.8502 39.2643 30.3089 -0.0010 -4.6468 0.0005
# 2 39.2643 87.0720 27.9445 -0.0024 -2.0843 0.0019
# 3 30.3089 27.9445 96.1997 -0.0041 -2.6936 0.0046
# 4 -0.0010 -0.0024 -0.0041 18.1723 0.0042 1.4992
# 5 -4.6468 -2.0843 -2.6936 0.0042 33.7414 -0.0036
# 6 0.0005 0.0019 0.0046 1.4992 -0.0036 25.2507
#
#
#
# Elastic Compliance Matrix: (Units=1/GPa)
#
#
# Indices 1 2 3 4 5 6 
#
# 1 0.016070 -0.006174 -0.003226 -0.000001 0.001574 0.000001
# 2 -0.006174 0.015045 -0.002429 0.000001 -0.000115 -0.000001
# 3 -0.003226 -0.002429 0.012127 0.000002 0.000374 -0.000002
# 4 -0.000001 0.000001 0.000002 0.055300 -0.000007 -0.003283
# 5 0.001574 -0.000115 0.000374 -0.000007 0.029877 0.000005
# 6 0.000001 -0.000001 -0.000002 -0.003283 0.000005 0.039798
#
#
# Mechanical properties :
#
#
# Convention : Reuss Voigt Hill
#
# Bulk Modulus (GPa) = 51.05452 51.35082 51.20267
# Shear Modulus (GPa) = 25.20132 26.73981 25.97057
#
# Velocity S-wave (km/s) = 3.82088 3.93578 3.87876
# Velocity P-wave (km/s) = 7.00296 7.09940 7.05134
#
# Compressibility (1/GPa) = 0.01958691
#
# Stress axis : x y z
#
# Youngs Moduli (GPa) = 62.22690 66.46539 82.45896
#
# Poissons Ratio (x) = 0.41034 0.26598
# Poissons Ratio (y) = 0.38418 0.20025
# Poissons Ratio (z) = 0.20072 0.16141
#
# Static dielectric constant tensor:
#      x y z
#    x 3.394460 -0.000010 -0.066240 
#    y -0.000010 3.108050 0.000010 
#    z -0.066240 0.000010 3.151340 
# 
# 
# High freq. dielectric constant tensor:
#      x y z
#    x 1.673610 0.000000 -0.001170 
#    y 0.000000 1.641390 0.000000 
#    z -0.001170 0.000000 1.657400 
# 
# From -- ./inp_files/235445.got.cif
#   From: 2010.06.25/outbox.cif.g09.slc.cpg/sg12_118_cif.got.tgz:235445.got - 2010.06.28 00:19:55.
