data_PCOD8079135
_publ_section_title
;
Structure prediction by ZEFSAII (Michael W. Deem and Ramdas Pophale) SiO2 
 PCOD8079135
Probable space group: C 2/M
;
_chemical_formula_sum "Si O2"
_cell_formula_units_Z 56
_cell_length_a 25.971170
_cell_length_b 12.122108
_cell_length_c 12.744175
_cell_angle_alpha 90.000000
_cell_angle_beta 120.032001
_cell_angle_gamma 90.000000
_cell_volume 3473.536668
_symmetry_space_group_name_H-M "C 2/M"
_symmetry_group_IT_number 12
_symmetry_cell_setting 'monoclinic'
loop_
_space_group_symop_operation_xyz
x,y,z
-x,y,-z
-x,-y,-z
x,-y,z
1/2+x,1/2+y,z
1/2-x,1/2+y,-z
1/2-x,1/2-y,-z
1/2+x,1/2-y,z
loop_
_atom_site_type_symbol
_atom_site_label
_atom_site_fract_x
_atom_site_fract_y
_atom_site_fract_z
Si Si1 0.946708 0.374646 0.575406
Si Si2 0.822762 0.623383 0.077375
Si Si3 0.655199 0.371484 0.671065
Si Si4 0.424993 0.193791 0.326678
Si Si5 0.236494 0.766836 0.142801
Si Si6 0.222066 0.869381 0.346207
Si Si7 0.339172 0.749817 0.533965
O O1 0.959998 0.500000 0.622883
O O2 0.919963 0.374941 0.430117
O O3 0.899641 0.320285 0.607061
O O4 0.006957 0.302518 0.642363
O O5 0.817387 0.500000 0.027551
O O6 0.886224 0.635441 0.198047
O O7 0.769488 0.642522 0.105578
O O8 0.817357 0.709690 0.975755
O O9 0.649990 0.500000 0.684689
O O10 0.599874 0.316383 0.676362
O O11 0.717310 0.329028 0.780256
O O12 0.652862 0.344203 0.545548
O O13 0.209573 0.828379 0.215760
O O14 0.287749 0.835977 0.450513
O O15 0.173340 0.810225 0.369369
O O16 0.214942 0.000000 0.346497
#
# Coordination Sequence:
#
# PCOD8079135 Si02
#       7
#     8   8   8   8   8   8   8
#     4  10  17  30  47  69  95 119 145 186 227 268
#     4  10  17  29  45  67  93 118 146 188 227 263
#     4   9  16  29  43  64  96 124 146 185 224 261
#     4   9  18  28  46  70  92 119 155 180 220 277
#     4   9  19  28  44  68  90 120 157 181 220 276
#     4  10  18  32  48  67  93 121 149 188 225 266
#     4   9  19  29  46  71  91 116 154 181 223 278
#
# _framework density 16.121898000000002
#
# number of rings (size 3 to 8) (size 9 to 14) (size 15 to 20)
#    0.000    2.571    0.000    4.286    0.000    0.000 
#    0.000    9.286    0.000    0.857    0.000    3.000 
#    0.000    0.000    0.000    0.000    0.000    0.000 
#
# Total GULP energy -347197.993430 kJ/mol
# GULP energy per Si atom -12399.928337 kJ/mol
# Density = 1.608520 g / cm^3
# Si number density = 16.121898 Si / 1000 Ang^3
#
#
#
# Elastic Constant Matrix: (Units=GPa)
#
#
# Indices 1 2 3 4 5 6 
#
# 1 101.8326 43.1556 33.3259 0.0000 -2.6075 0.0000
# 2 43.1556 100.9520 26.4568 0.0000 -3.2500 0.0000
# 3 33.3259 26.4568 76.0874 0.0000 -1.8450 0.0000
# 4 0.0000 0.0000 0.0000 14.4043 0.0000 -1.9128
# 5 -2.6075 -3.2500 -1.8450 0.0000 24.7004 0.0000
# 6 0.0000 0.0000 0.0000 -1.9128 0.0000 16.5974
#
#
#
# Elastic Compliance Matrix: (Units=1/GPa)
#
#
# Indices 1 2 3 4 5 6 
#
# 1 0.013099 -0.004493 -0.004163 0.000000 0.000481 0.000000
# 2 -0.004493 0.012473 -0.002345 0.000000 0.000992 0.000000
# 3 -0.004163 -0.002345 0.015792 0.000000 0.000432 0.000000
# 4 0.000000 0.000000 0.000000 0.070503 0.000000 0.008125
# 5 0.000481 0.000992 0.000432 0.000000 0.040699 0.000000
# 6 0.000000 0.000000 0.000000 0.008125 0.000000 0.061187
#
#
# Mechanical properties :
#
#
# Convention : Reuss Voigt Hill
#
# Bulk Modulus (GPa) = 51.64968 53.86094 52.75531
# Shear Modulus (GPa) = 20.64337 22.86933 21.75635
#
# Velocity S-wave (km/s) = 3.58223 3.77042 3.67753
# Velocity P-wave (km/s) = 7.01543 7.24126 7.12924
#
# Compressibility (1/GPa) = 0.01936121
#
# Stress axis : x y z
#
# Youngs Moduli (GPa) = 76.34207 80.17367 63.32251
#
# Poissons Ratio (x) = 0.36022 0.26363
# Poissons Ratio (y) = 0.34301 0.14849
# Poissons Ratio (z) = 0.31784 0.18801
#
# Static dielectric constant tensor:
#      x y z
#    x 2.983950 0.000000 -0.020350 
#    y 0.000000 2.965050 0.000000 
#    z -0.020350 0.000000 2.979280 
# 
# 
# High freq. dielectric constant tensor:
#      x y z
#    x 1.601650 0.000000 0.000670 
#    y 0.000000 1.621810 0.000000 
#    z 0.000670 0.000000 1.601880 
# 
# From -- ./inp_files/182197.got.cif
#   From: 2010.06.25/outbox.cif.g09.slc.cpg/sg12_92_cif.got.tgz:182197.got - 2010.06.28 00:19:55.
