data_PCOD8079015
_publ_section_title
;
Structure prediction by ZEFSAII (Michael W. Deem and Ramdas Pophale) SiO2 
 PCOD8079015
Probable space group: C 2/M
;
_chemical_formula_sum "Si O2"
_cell_formula_units_Z 48
_cell_length_a 29.926009
_cell_length_b 10.407009
_cell_length_c 26.862101
_cell_angle_alpha 90.000000
_cell_angle_beta 19.805114
_cell_angle_gamma 90.000000
_cell_volume 2834.563440
_symmetry_space_group_name_H-M "C 2/M"
_symmetry_group_IT_number 12
_symmetry_cell_setting 'monoclinic'
loop_
_space_group_symop_operation_xyz
x,y,z
-x,y,-z
-x,-y,-z
x,-y,z
1/2+x,1/2+y,z
1/2-x,1/2+y,-z
1/2-x,1/2-y,-z
1/2+x,1/2-y,z
loop_
_atom_site_type_symbol
_atom_site_label
_atom_site_fract_x
_atom_site_fract_y
_atom_site_fract_z
Si Si1 0.872819 0.500000 0.934164
Si Si2 0.470772 0.258121 0.670835
Si Si3 0.870225 0.351321 0.105814
Si Si4 0.365936 0.500000 0.951015
Si Si5 0.439497 0.000000 0.755304
Si Si6 0.596719 0.649636 0.442372
Si Si7 0.067381 0.000000 0.227649
Si Si8 0.165119 0.742210 0.964601
O O1 0.962920 0.500000 0.790199
O O2 0.721419 0.500000 0.077452
O O3 0.905496 0.626301 0.931994
O O4 0.566909 0.269432 0.522980
O O5 0.499129 0.373432 0.679509
O O6 0.321397 0.263337 0.808300
O O7 0.505382 0.125722 0.662244
O O8 0.868610 0.500000 0.091138
O O9 0.746266 0.321098 0.270744
O O10 0.865533 0.265483 0.061553
O O11 0.000000 0.314245 0.000000
O O12 0.456104 0.500000 0.807070
O O13 0.214782 0.500000 0.093600
O O14 0.397822 0.374183 0.949822
O O15 0.500000 0.696109 0.500000
O O16 0.570976 0.500000 0.480872
#
# Coordination Sequence:
#
# PCOD8079015 Si02
#       8
#     4   8   8   4   4   8   4   8
#     4   9  16  26  46  67  96 135 163 193 238 289
#     4  10  17  28  46  72 100 130 157 197 243 288
#     4  10  20  33  50  74  98 125 166 206 236 283
#     4   9  18  28  42  69 104 131 155 199 244 291
#     4   9  18  28  40  70 108 128 155 197 244 290
#     4  10  18  29  50  73  95 127 163 197 244 286
#     4   9  16  26  44  70  98 128 167 195 234 286
#     4  10  17  29  47  70  98 130 162 196 245 284
#
# _framework density 16.933824999999999
#
# number of rings (size 3 to 8) (size 9 to 14) (size 15 to 20)
#    0.000    2.333    3.333    1.000    0.000    4.000 
#    0.000    1.667    0.000    0.000    0.000    7.000 
#    0.000    0.000    0.000    0.000    0.000    0.000 
#
# Total GULP energy -297633.362827 kJ/mol
# GULP energy per Si atom -12401.390118 kJ/mol
# Density = 1.689528 g / cm^3
# Si number density = 16.933825 Si / 1000 Ang^3
#
#
#
# Elastic Constant Matrix: (Units=GPa)
#
#
# Indices 1 2 3 4 5 6 
#
# 1 72.6806 52.1860 54.4580 0.0011 29.2151 -0.0009
# 2 52.1860 136.9518 48.3978 -0.0105 30.2297 0.0048
# 3 54.4580 48.3978 88.3495 -0.0018 27.0081 0.0016
# 4 0.0011 -0.0105 -0.0018 13.3351 0.0037 6.1894
# 5 29.2151 30.2297 27.0081 0.0037 38.4400 -0.0015
# 6 -0.0009 0.0048 0.0016 6.1894 -0.0015 16.4400
#
#
#
# Elastic Compliance Matrix: (Units=1/GPa)
#
#
# Indices 1 2 3 4 5 6 
#
# 1 0.031840 -0.004945 -0.013637 -0.000008 -0.010728 0.000007
# 2 -0.004945 0.010520 -0.001699 0.000013 -0.003320 -0.000009
# 3 -0.013637 -0.001699 0.021750 0.000006 -0.003581 -0.000005
# 4 -0.000008 0.000013 0.000006 0.090869 -0.000018 -0.034211
# 5 -0.010728 -0.003320 -0.003581 -0.000018 0.039295 0.000011
# 6 0.000007 -0.000009 -0.000005 -0.034211 0.000011 0.073707
#
#
# Mechanical properties :
#
#
# Convention : Reuss Voigt Hill
#
# Bulk Modulus (GPa) = 42.47035 67.56283 55.01659
# Shear Modulus (GPa) = 15.80304 23.17237 19.48770
#
# Velocity S-wave (km/s) = 3.05818 3.70321 3.39605
# Velocity P-wave (km/s) = 6.13226 7.63347 6.92367
#
# Compressibility (1/GPa) = 0.02354584
#
# Stress axis : x y z
#
# Youngs Moduli (GPa) = 31.40657 95.05919 45.97651
#
# Poissons Ratio (x) = 0.47011 0.62700
# Poissons Ratio (y) = 0.15532 0.07813
# Poissons Ratio (z) = 0.42831 0.16155
#
# Static dielectric constant tensor:
#      x y z
#    x 2.973420 0.000000 0.326680 
#    y 0.000000 3.186580 0.000010 
#    z 0.326680 0.000010 2.953550 
# 
# 
# High freq. dielectric constant tensor:
#      x y z
#    x 1.633110 0.000000 0.040980 
#    y 0.000000 1.646960 0.000000 
#    z 0.040980 0.000000 1.628900 
# 
# From -- ./inp_files/173453.got.cif
#   From: 2010.06.25/outbox.cif.g09.slc.cpg/sg12_87_cif.got.tgz:173453.got - 2010.06.28 00:19:55.
