data_PCOD8079487
_publ_section_title
;
Structure prediction by ZEFSAII (Michael W. Deem and Ramdas Pophale) SiO2 
 PCOD8079487
Probable space group: C 2/M
;
_chemical_formula_sum "Si O2"
_cell_formula_units_Z 64
_cell_length_a 30.972077
_cell_length_b 9.001314
_cell_length_c 26.009711
_cell_angle_alpha 90.000000
_cell_angle_beta 27.441097
_cell_angle_gamma 90.000000
_cell_volume 3341.631964
_symmetry_space_group_name_H-M "C 2/M"
_symmetry_group_IT_number 12
_symmetry_cell_setting 'monoclinic'
loop_
_space_group_symop_operation_xyz
x,y,z
-x,y,-z
-x,-y,-z
x,-y,z
1/2+x,1/2+y,z
1/2-x,1/2+y,-z
1/2-x,1/2-y,-z
1/2+x,1/2-y,z
loop_
_atom_site_type_symbol
_atom_site_label
_atom_site_fract_x
_atom_site_fract_y
_atom_site_fract_z
Si Si1 0.320066 0.674836 0.508021
Si Si2 0.224516 0.328283 0.259646
Si Si3 0.878500 0.323430 0.728384
Si Si4 0.842559 0.323827 0.881336
Si Si5 0.631237 0.328430 0.720328
Si Si6 0.480683 0.671190 0.260127
Si Si7 0.905144 0.177431 0.126267
Si Si8 0.411965 0.828287 0.505186
O O1 0.309254 0.500000 0.520543
O O2 0.218940 0.743390 0.603006
O O3 0.393531 0.725148 0.386854
O O4 0.352858 0.731587 0.528392
O O5 0.248313 0.500000 0.227132
O O6 0.196704 0.258562 0.233463
O O7 0.317498 0.255443 0.186405
O O8 0.133642 0.306905 0.391088
O O9 0.876753 0.500000 0.727099
O O10 0.853470 0.266666 0.811438
O O11 0.982335 0.267394 0.604310
O O12 0.834212 0.500000 0.893096
O O13 0.930449 0.272850 0.822147
O O14 0.750000 0.250000 0.000000
O O15 0.660503 0.500000 0.693971
O O16 0.544117 0.307844 0.773699
O O17 0.602094 0.265578 0.807196
O O18 0.505559 0.500000 0.245959
O O19 0.904185 0.000000 0.127167
O O20 0.000000 0.238633 0.000000
O O21 0.408494 0.000000 0.491083
#
# Coordination Sequence:
#
# PCOD8079487 Si02
#       8
#     8   8   8   8   8   8   8   8
#     4  11  21  33  53  82 115 147 179 221 277 337
#     4   9  16  28  51  82 110 133 171 228 276 318
#     4   9  18  31  52  82 108 136 176 228 278 319
#     4  11  23  39  59  82 112 148 189 231 274 325
#     4  10  20  36  57  82 110 144 185 228 277 327
#     4  10  22  38  57  82 112 145 185 231 275 326
#     4   9  17  29  49  79 107 133 171 225 277 315
#     4  10  17  31  55  81 107 137 177 223 276 332
#
# _framework density 19.152318000000001
#
# number of rings (size 3 to 8) (size 9 to 14) (size 15 to 20)
#    0.000    2.125    2.500    1.500    0.000    3.500 
#    0.000    3.750    0.000    3.375    0.000    0.000 
#    0.000    0.000    0.000    0.000    0.000    0.000 
#
# Total GULP energy -396776.842522 kJ/mol
# GULP energy per Si atom -12399.276329 kJ/mol
# Density = 1.910873 g / cm^3
# Si number density = 19.152318 Si / 1000 Ang^3
#
#
#
# Elastic Constant Matrix: (Units=GPa)
#
#
# Indices 1 2 3 4 5 6 
#
# 1 143.7039 27.3358 63.7167 0.0141 -7.4164 -0.0025
# 2 27.3358 37.2486 34.5411 0.0333 -7.8786 -0.0231
# 3 63.7167 34.5411 142.3197 0.0304 -14.1833 -0.0102
# 4 0.0141 0.0333 0.0304 24.1113 -0.0185 -4.0151
# 5 -7.4164 -7.8786 -14.1833 -0.0185 17.5806 0.0103
# 6 -0.0025 -0.0231 -0.0102 -4.0151 0.0103 21.6370
#
#
#
# Elastic Compliance Matrix: (Units=1/GPa)
#
#
# Indices 1 2 3 4 5 6 
#
# 1 0.009070 -0.003798 -0.003183 0.000003 -0.000444 -0.000004
# 2 -0.003798 0.037760 -0.006456 -0.000030 0.010111 0.000026
# 3 -0.003183 -0.006456 0.010435 0.000000 0.004183 -0.000004
# 4 0.000003 -0.000030 0.000000 0.042797 0.000028 0.007942
# 5 -0.000444 0.010111 0.004183 0.000028 0.064599 -0.000013
# 6 -0.000004 0.000026 -0.000004 0.007942 -0.000013 0.047691
#
#
# Mechanical properties :
#
#
# Convention : Reuss Voigt Hill
#
# Bulk Modulus (GPa) = 32.90591 63.82882 48.36736
# Shear Modulus (GPa) = 20.05166 25.84435 22.94801
#
# Velocity S-wave (km/s) = 3.23918 3.67742 3.46524
# Velocity P-wave (km/s) = 5.58643 7.17151 6.42801
#
# Compressibility (1/GPa) = 0.03038968
#
# Stress axis : x y z
#
# Youngs Moduli (GPa) = 110.25818 26.48332 95.83000
#
# Poissons Ratio (x) = 0.10059 0.30501
# Poissons Ratio (y) = 0.41880 0.61869
# Poissons Ratio (z) = 0.35094 0.17098
#
# Static dielectric constant tensor:
#      x y z
#    x 3.970000 0.000060 -0.193050 
#    y 0.000060 3.108000 -0.000030 
#    z -0.193050 -0.000030 3.786910 
# 
# 
# High freq. dielectric constant tensor:
#      x y z
#    x 1.761310 0.000000 -0.000700 
#    y 0.000000 1.695300 0.000000 
#    z -0.000700 0.000000 1.746060 
# 
# From -- ./inp_files/353370.got.cif
#   From: 2010.06.25/outbox.cif.g09.slc.cpg/sg12_177_cif.got.tgz:353370.got - 2010.06.28 00:19:55.
