data_PCOD8079979
_publ_section_title
;
Structure prediction by ZEFSAII (Michael W. Deem and Ramdas Pophale) SiO2 
 PCOD8079979
Probable space group: C 2/M
;
_chemical_formula_sum "Si O2"
_cell_formula_units_Z 56
_cell_length_a 22.879098
_cell_length_b 9.203262
_cell_length_c 21.407948
_cell_angle_alpha 90.000000
_cell_angle_beta 130.799528
_cell_angle_gamma 90.000000
_cell_volume 3412.336539
_symmetry_space_group_name_H-M "C 2/M"
_symmetry_group_IT_number 12
_symmetry_cell_setting 'monoclinic'
loop_
_space_group_symop_operation_xyz
x,y,z
-x,y,-z
-x,-y,-z
x,-y,z
1/2+x,1/2+y,z
1/2-x,1/2+y,-z
1/2-x,1/2-y,-z
1/2+x,1/2-y,z
loop_
_atom_site_type_symbol
_atom_site_label
_atom_site_fract_x
_atom_site_fract_y
_atom_site_fract_z
Si Si1 0.018679 0.330960 0.767062
Si Si2 0.638588 0.839061 0.946301
Si Si3 0.251844 0.162575 0.096794
Si Si4 0.583585 0.672424 0.577623
Si Si5 0.875610 0.826873 0.255425
Si Si6 0.814408 0.170748 0.464175
Si Si7 0.851836 0.332329 0.611818
O O1 0.037398 0.500000 0.764834
O O2 0.055034 0.290806 0.860338
O O3 0.055261 0.231836 0.738977
O O4 0.927186 0.301331 0.706477
O O5 0.696068 0.839192 0.928043
O O6 0.634296 0.000000 0.972798
O O7 0.668309 0.730481 0.020771
O O8 0.293153 0.259943 0.178176
O O9 0.238573 0.000000 0.113191
O O10 0.500000 0.736243 0.500000
O O11 0.580114 0.500000 0.574855
O O12 0.607245 0.726930 0.662560
O O13 0.647661 0.728982 0.573221
O O14 0.871294 0.000000 0.246142
O O15 0.858436 0.242088 0.552969
O O16 0.723732 0.213589 0.401260
O O17 0.826893 0.000000 0.479415
O O18 0.846393 0.500000 0.588640
#
# Coordination Sequence:
#
# PCOD8079979 Si02
#       7
#     8   8   8   8   8   8   8
#     4   9  17  28  41  61  88 112 136 171 213 251
#     4   8  14  24  38  56  80 109 137 166 204 250
#     4   9  16  26  39  57  84 112 137 169 208 248
#     4   9  17  28  42  62  86 111 141 174 204 238
#     4  10  18  27  42  62  84 113 145 172 202 246
#     4   9  17  30  46  62  83 112 143 174 208 246
#     4   9  17  29  45  64  85 109 138 174 214 250
#
# _framework density 16.411041999999998
#
# number of rings (size 3 to 8) (size 9 to 14) (size 15 to 20)
#    0.000    3.000    0.000    2.571    0.000    5.143 
#    0.000    1.429    0.000    3.857    0.000    1.000 
#    0.000    8.000    0.000    0.000    0.000    0.000 
#
# Total GULP energy -347073.640491 kJ/mol
# GULP energy per Si atom -12395.487160 kJ/mol
# Density = 1.637369 g / cm^3
# Si number density = 16.411042 Si / 1000 Ang^3
#
#
#
# Elastic Constant Matrix: (Units=GPa)
#
#
# Indices 1 2 3 4 5 6 
#
# 1 64.7426 25.7232 53.2875 0.0000 7.0003 0.0000
# 2 25.7232 61.7548 48.8137 0.0000 5.0156 0.0000
# 3 53.2875 48.8137 147.3818 0.0000 21.6603 0.0000
# 4 0.0000 0.0000 0.0000 25.3677 0.0000 1.2803
# 5 7.0003 5.0156 21.6603 0.0000 22.7800 0.0000
# 6 0.0000 0.0000 0.0000 1.2803 0.0000 12.7765
#
#
#
# Elastic Compliance Matrix: (Units=1/GPa)
#
#
# Indices 1 2 3 4 5 6 
#
# 1 0.022709 -0.003997 -0.006964 0.000000 0.000523 0.000000
# 2 -0.003997 0.022754 -0.006435 0.000000 0.002337 0.000000
# 3 -0.006964 -0.006435 0.012684 0.000000 -0.008504 0.000000
# 4 0.000000 0.000000 0.000000 0.039621 0.000000 -0.003970
# 5 0.000523 0.002337 -0.008504 0.000000 0.051309 0.000000
# 6 0.000000 0.000000 0.000000 -0.003970 0.000000 0.078667
#
#
# Mechanical properties :
#
#
# Convention : Reuss Voigt Hill
#
# Bulk Modulus (GPa) = 42.81497 58.83645 50.82571
# Shear Modulus (GPa) = 18.49660 21.92180 20.20920
#
# Velocity S-wave (km/s) = 3.36085 3.65882 3.51299
# Velocity P-wave (km/s) = 6.41920 7.33341 6.89148
#
# Compressibility (1/GPa) = 0.02335632
#
# Stress axis : x y z
#
# Youngs Moduli (GPa) = 44.03552 43.94737 78.84068
#
# Poissons Ratio (x) = 0.17567 0.54902
# Poissons Ratio (y) = 0.17602 0.50731
# Poissons Ratio (z) = 0.30665 0.28278
#
# Static dielectric constant tensor:
#      x y z
#    x 2.887600 0.000000 0.205450 
#    y 0.000000 3.078080 0.000000 
#    z 0.205450 0.000000 3.376460 
# 
# 
# High freq. dielectric constant tensor:
#      x y z
#    x 1.585430 0.000000 0.021160 
#    y 0.000000 1.624370 0.000000 
#    z 0.021160 0.000000 1.640200 
# 
# From -- ./inp_files/323799.got.cif
#   From: 2010.06.25/outbox.cif.g09.slc.cpg/sg12_162_cif.got.tgz:323799.got - 2010.06.28 00:19:55.
