data_PCOD8079975
_publ_section_title
;
Structure prediction by ZEFSAII (Michael W. Deem and Ramdas Pophale) SiO2 
 PCOD8079975
Probable space group: C 2/M
;
_chemical_formula_sum "Si O2"
_cell_formula_units_Z 64
_cell_length_a 25.174798
_cell_length_b 9.164480
_cell_length_c 17.393951
_cell_angle_alpha 90.000000
_cell_angle_beta 79.013206
_cell_angle_gamma 90.000000
_cell_volume 3939.472621
_symmetry_space_group_name_H-M "C 2/M"
_symmetry_group_IT_number 12
_symmetry_cell_setting 'monoclinic'
loop_
_space_group_symop_operation_xyz
x,y,z
-x,y,-z
-x,-y,-z
x,-y,z
1/2+x,1/2+y,z
1/2-x,1/2+y,-z
1/2-x,1/2-y,-z
1/2+x,1/2-y,z
loop_
_atom_site_type_symbol
_atom_site_label
_atom_site_fract_x
_atom_site_fract_y
_atom_site_fract_z
Si Si1 0.302723 0.833192 0.508259
Si Si2 0.789905 0.327422 0.838623
Si Si3 0.658832 0.829108 0.659094
Si Si4 0.010554 0.171724 0.084851
Si Si5 0.880439 0.673758 0.929111
Si Si6 0.268766 0.828639 0.676333
Si Si7 0.903988 0.833666 0.204102
Si Si8 0.172252 0.168117 0.916501
O O1 0.250000 0.750000 0.500000
O O2 0.348845 0.797295 0.431434
O O3 0.313861 0.799644 0.595916
O O4 0.286822 0.000000 0.503761
O O5 0.790889 0.500000 0.838977
O O6 0.840170 0.267135 0.873785
O O7 0.794045 0.271076 0.749460
O O8 0.733903 0.275918 0.893358
O O9 0.713713 0.756204 0.674273
O O10 0.607248 0.762269 0.717093
O O11 0.661486 0.000000 0.676056
O O12 0.061123 0.259471 0.104860
O O13 0.959089 0.219634 0.149096
O O14 0.022311 0.000000 0.086672
O O15 0.000000 0.217900 0.000000
O O16 0.884080 0.500000 0.929646
O O17 0.859318 0.729036 0.016582
O O18 0.254133 0.000000 0.686695
O O19 0.854196 0.814956 0.159647
O O20 0.909889 0.000000 0.228953
O O21 0.167958 0.000000 0.945498
#
# Coordination Sequence:
#
# PCOD8079975 Si02
#       8
#     8   8   8   8   8   8   8   8
#     4   8  15  25  41  64  91 124 153 181 220 269
#     4   9  18  31  48  69  94 124 159 190 219 270
#     4  10  18  27  41  70 103 119 143 192 240 270
#     4  10  20  37  54  66  84 118 162 198 226 271
#     4  11  22  33  47  71  96 119 151 195 243 272
#     4   9  15  29  48  63  89 131 165 180 209 271
#     4  10  19  32  52  69  85 122 164 188 221 276
#     4  10  18  33  51  66  90 126 162 189 218 269
#
# _framework density 16.245830000000002
#
# number of rings (size 3 to 8) (size 9 to 14) (size 15 to 20)
#    0.000    2.375    2.500    1.125    0.000    1.750 
#    0.000    1.875    0.000    0.000    0.000    0.875 
#    0.000    7.000    0.000    0.000    0.000    0.000 
#
# Total GULP energy -396551.355685 kJ/mol
# GULP energy per Si atom -12392.229865 kJ/mol
# Density = 1.620885 g / cm^3
# Si number density = 16.245830 Si / 1000 Ang^3
#
#
#
# Elastic Constant Matrix: (Units=GPa)
#
#
# Indices 1 2 3 4 5 6 
#
# 1 88.9724 28.4062 36.5018 0.0000 -13.6815 0.0000
# 2 28.4062 45.7390 36.0850 0.0000 -9.4032 0.0000
# 3 36.5018 36.0850 112.1172 0.0000 -25.2397 0.0000
# 4 0.0000 0.0000 0.0000 22.9218 0.0000 -4.3068
# 5 -13.6815 -9.4032 -25.2397 0.0000 18.6148 0.0000
# 6 0.0000 0.0000 0.0000 -4.3068 0.0000 21.3818
#
#
#
# Elastic Compliance Matrix: (Units=1/GPa)
#
#
# Indices 1 2 3 4 5 6 
#
# 1 0.014894 -0.007061 -0.001317 0.000000 0.005594 0.000000
# 2 -0.007061 0.032761 -0.008187 0.000000 0.000259 0.000000
# 3 -0.001317 -0.008187 0.015594 0.000000 0.016040 0.000000
# 4 0.000000 0.000000 0.000000 0.045343 0.000000 0.009133
# 5 0.005594 0.000259 0.016040 0.000000 0.079712 0.000000
# 6 0.000000 0.000000 0.000000 0.009133 0.000000 0.048608
#
#
# Mechanical properties :
#
#
# Convention : Reuss Voigt Hill
#
# Bulk Modulus (GPa) = 33.20185 49.86826 41.53505
# Shear Modulus (GPa) = 17.85196 22.30606 20.07901
#
# Velocity S-wave (km/s) = 3.31851 3.70947 3.51942
# Velocity P-wave (km/s) = 5.93000 7.00782 6.49132
#
# Compressibility (1/GPa) = 0.03011881
#
# Stress axis : x y z
#
# Youngs Moduli (GPa) = 67.13920 30.52456 64.12735
#
# Poissons Ratio (x) = 0.21553 0.08447
# Poissons Ratio (y) = 0.47406 0.52501
# Poissons Ratio (z) = 0.08844 0.24990
#
# Static dielectric constant tensor:
#      x y z
#    x 2.931040 0.000000 -0.034860 
#    y 0.000000 2.899800 0.000000 
#    z -0.034860 0.000000 3.612990 
# 
# 
# High freq. dielectric constant tensor:
#      x y z
#    x 1.586640 0.000000 -0.012300 
#    y 0.000000 1.617440 0.000000 
#    z -0.012300 0.000000 1.636600 
# 
# From -- ./inp_files/287516.got.cif
#   From: 2010.06.25/outbox.cif.g09.slc.cpg/sg12_144_cif.got.tgz:287516.got - 2010.06.28 00:19:55.
