data_PCOD8079169
_publ_section_title
;
Structure prediction by ZEFSAII (Michael W. Deem and Ramdas Pophale) SiO2 
 PCOD8079169
Probable space group: C 2/M
;
_chemical_formula_sum "Si O2"
_cell_formula_units_Z 64
_cell_length_a 19.200385
_cell_length_b 8.999519
_cell_length_c 20.532653
_cell_angle_alpha 90.000000
_cell_angle_beta 83.118693
_cell_angle_gamma 90.000000
_cell_volume 3522.366431
_symmetry_space_group_name_H-M "C 2/M"
_symmetry_group_IT_number 12
_symmetry_cell_setting 'monoclinic'
loop_
_space_group_symop_operation_xyz
x,y,z
-x,y,-z
-x,-y,-z
x,-y,z
1/2+x,1/2+y,z
1/2-x,1/2+y,-z
1/2-x,1/2-y,-z
1/2+x,1/2-y,z
loop_
_atom_site_type_symbol
_atom_site_label
_atom_site_fract_x
_atom_site_fract_y
_atom_site_fract_z
Si Si1 0.078413 0.332518 0.017720
Si Si2 0.039339 0.827900 0.289965
Si Si3 0.881718 0.828959 0.324281
Si Si4 0.326130 0.824201 0.682410
Si Si5 0.207802 0.323702 0.772724
Si Si6 0.260415 0.330003 0.431435
Si Si7 0.128159 0.826281 0.891218
Si Si8 0.973971 0.828354 0.858210
O O1 0.107362 0.500000 0.017094
O O2 0.078637 0.265010 0.090316
O O3 0.127586 0.235315 0.965001
O O4 0.000000 0.326808 0.000000
O O5 0.093388 0.726089 0.323387
O O6 0.041524 0.783966 0.214020
O O7 0.962836 0.792355 0.328109
O O8 0.058771 0.000000 0.297615
O O9 0.852090 0.723885 0.271443
O O10 0.839255 0.802865 0.395921
O O11 0.872880 0.000000 0.301141
O O12 0.282982 0.742879 0.744227
O O13 0.295051 0.773062 0.616249
O O14 0.318514 0.000000 0.692363
O O15 0.212918 0.500000 0.775325
O O16 0.188898 0.259745 0.845696
O O17 0.246208 0.500000 0.447730
O O18 0.250000 0.250000 0.500000
O O19 0.054783 0.791584 0.863875
O O20 0.145155 0.000000 0.890887
O O21 0.958864 0.000000 0.873830
#
# Coordination Sequence:
#
# PCOD8079169 Si02
#       8
#     8   8   8   8   8   8   8   8
#     4   9  17  27  40  66 101 133 172 223 265 309
#     4  10  19  34  55  79 107 139 178 219 260 312
#     4   9  18  35  55  79 109 141 174 215 261 309
#     4  10  22  38  54  77 109 142 174 213 264 315
#     4  11  20  31  51  78 104 135 178 224 266 313
#     4   9  19  36  59  81 107 140 176 213 255 306
#     4  10  17  29  48  70 100 137 175 220 270 317
#     4   9  17  29  47  70  99 138 174 210 264 319
#
# _framework density 18.169602999999999
#
# number of rings (size 3 to 8) (size 9 to 14) (size 15 to 20)
#    0.000    2.375    1.250    3.000    0.000    5.500 
#    0.000    0.625    0.000    4.500    0.000    0.000 
#    0.000    0.000    0.000    0.000    0.000    0.000 
#
# Total GULP energy -396829.204207 kJ/mol
# GULP energy per Si atom -12400.912631 kJ/mol
# Density = 1.812825 g / cm^3
# Si number density = 18.169603 Si / 1000 Ang^3
#
#
#
# Elastic Constant Matrix: (Units=GPa)
#
#
# Indices 1 2 3 4 5 6 
#
# 1 93.5030 37.3129 43.0412 0.0000 -6.5554 0.0000
# 2 37.3129 90.1558 42.0872 0.0000 -8.3113 0.0000
# 3 43.0412 42.0872 106.6082 0.0000 -13.1904 0.0000
# 4 0.0000 0.0000 0.0000 34.5574 0.0000 -3.2663
# 5 -6.5554 -8.3113 -13.1904 0.0000 18.7178 0.0000
# 6 0.0000 0.0000 0.0000 -3.2663 0.0000 26.3125
#
#
#
# Elastic Compliance Matrix: (Units=1/GPa)
#
#
# Indices 1 2 3 4 5 6 
#
# 1 0.014184 -0.003906 -0.004146 0.000000 0.000311 0.000000
# 2 -0.003906 0.014779 -0.003960 0.000000 0.002404 0.000000
# 3 -0.004146 -0.003960 0.013387 0.000000 0.006224 0.000000
# 4 0.000000 0.000000 0.000000 0.029281 0.000000 0.003635
# 5 0.000311 0.002404 0.006224 0.000000 0.058987 0.000000
# 6 0.000000 0.000000 0.000000 0.003635 0.000000 0.038456
#
#
# Mechanical properties :
#
#
# Convention : Reuss Voigt Hill
#
# Bulk Modulus (GPa) = 54.56740 59.46107 57.01423
# Shear Modulus (GPa) = 25.09953 27.10591 26.10272
#
# Velocity S-wave (km/s) = 3.72075 3.86661 3.79438
# Velocity P-wave (km/s) = 6.96822 7.26160 7.11642
#
# Compressibility (1/GPa) = 0.01832596
#
# Stress axis : x y z
#
# Youngs Moduli (GPa) = 70.50259 67.66454 74.69745
#
# Poissons Ratio (x) = 0.26431 0.30969
# Poissons Ratio (y) = 0.27540 0.29580
# Poissons Ratio (z) = 0.29229 0.26795
#
# Static dielectric constant tensor:
#      x y z
#    x 3.186800 0.000000 -0.188090 
#    y 0.000000 3.336310 0.000000 
#    z -0.188090 0.000000 3.335420 
# 
# 
# High freq. dielectric constant tensor:
#      x y z
#    x 1.677460 0.000000 -0.018030 
#    y 0.000000 1.706800 0.000000 
#    z -0.018030 0.000000 1.698020 
# 
# From -- ./inp_files/319080.got.cif
#   From: 2010.06.25/outbox.cif.g09.slc.cpg/sg12_160_cif.got.tgz:319080.got - 2010.06.28 00:19:55.
