data_PCOD8079139
_publ_section_title
;
Structure prediction by ZEFSAII (Michael W. Deem and Ramdas Pophale) SiO2 
 PCOD8079139
Probable space group: C 2/M
;
_chemical_formula_sum "Si O2"
_cell_formula_units_Z 48
_cell_length_a 24.455511
_cell_length_b 8.689549
_cell_length_c 14.366745
_cell_angle_alpha 90.000000
_cell_angle_beta 69.363608
_cell_angle_gamma 90.000000
_cell_volume 2857.143476
_symmetry_space_group_name_H-M "C 2/M"
_symmetry_group_IT_number 12
_symmetry_cell_setting 'monoclinic'
loop_
_space_group_symop_operation_xyz
x,y,z
-x,y,-z
-x,-y,-z
x,-y,z
1/2+x,1/2+y,z
1/2-x,1/2+y,-z
1/2-x,1/2-y,-z
1/2+x,1/2-y,z
loop_
_atom_site_type_symbol
_atom_site_label
_atom_site_fract_x
_atom_site_fract_y
_atom_site_fract_z
Si Si1 0.710534 0.680585 0.944290
Si Si2 0.922133 0.180859 0.987681
Si Si3 0.771324 0.180285 0.270466
Si Si4 0.465676 0.181537 0.150331
Si Si5 0.121889 0.818109 0.666925
Si Si6 0.195754 0.680522 0.478723
O O1 0.720525 0.500000 0.937691
O O2 0.643211 0.722052 0.004990
O O3 0.729687 0.752097 0.832513
O O4 0.750000 0.750000 0.000000
O O5 0.931101 0.234782 0.088094
O O6 0.934466 0.000000 0.975384
O O7 0.966373 0.269236 0.892389
O O8 0.826384 0.243631 0.296524
O O9 0.709672 0.213847 0.360826
O O10 0.782366 0.000000 0.254997
O O11 0.437952 0.237324 0.264336
O O12 0.460513 0.000000 0.141414
O O13 0.137033 0.763053 0.552031
O O14 0.113952 0.000000 0.672817
O O15 0.191280 0.500000 0.500591
O O16 0.250000 0.750000 0.500000
#
# Coordination Sequence:
#
# PCOD8079139 Si02
#       6
#     8   8   8   8   8   8
#     4  10  20  34  50  69  93 128 166 199 233 276
#     4  10  19  33  49  65  93 130 162 191 239 291
#     4   8  15  29  45  62  91 126 157 190 232 280
#     4  11  20  29  46  72  98 122 157 199 238 282
#     4  10  17  29  46  66  95 128 157 187 235 293
#     4   9  16  26  42  65  92 123 157 192 233 283
#
# _framework density 16.799996
#
# number of rings (size 3 to 8) (size 9 to 14) (size 15 to 20)
#    0.000    2.333    1.667    5.000    0.000    1.333 
#    0.000    1.667    0.000    0.000    0.000    1.167 
#    0.000    9.333    0.000    0.000    0.000    0.000 
#
# Total GULP energy -297443.240144 kJ/mol
# GULP energy per Si atom -12393.468339 kJ/mol
# Density = 1.676176 g / cm^3
# Si number density = 16.799996 Si / 1000 Ang^3
#
#
#
# Elastic Constant Matrix: (Units=GPa)
#
#
# Indices 1 2 3 4 5 6 
#
# 1 73.8118 25.2350 45.5990 0.0000 -9.7264 0.0000
# 2 25.2350 49.2883 31.5251 0.0000 -10.0276 0.0000
# 3 45.5990 31.5251 123.9783 0.0000 -27.1543 0.0000
# 4 0.0000 0.0000 0.0000 27.9547 0.0000 -5.4280
# 5 -9.7264 -10.0276 -27.1543 0.0000 26.9351 0.0000
# 6 0.0000 0.0000 0.0000 -5.4280 0.0000 21.6541
#
#
#
# Elastic Compliance Matrix: (Units=1/GPa)
#
#
# Indices 1 2 3 4 5 6 
#
# 1 0.019065 -0.006391 -0.005647 0.000000 -0.001188 0.000000
# 2 -0.006391 0.026648 -0.003540 0.000000 0.004044 0.000000
# 3 -0.005647 -0.003540 0.013229 0.000000 0.009979 0.000000
# 4 0.000000 0.000000 0.000000 0.037602 0.000000 0.009426
# 5 -0.001188 0.004044 0.009979 0.000000 0.048264 0.000000
# 6 0.000000 0.000000 0.000000 0.009426 0.000000 0.048543
#
#
# Mechanical properties :
#
#
# Convention : Reuss Voigt Hill
#
# Bulk Modulus (GPa) = 35.98906 50.19964 43.09435
# Shear Modulus (GPa) = 21.38873 24.95672 23.17272
#
# Velocity S-wave (km/s) = 3.57198 3.85842 3.71796
# Velocity P-wave (km/s) = 6.20327 7.05660 6.64365
#
# Compressibility (1/GPa) = 0.02778622
#
# Stress axis : x y z
#
# Youngs Moduli (GPa) = 52.45205 37.52691 75.59290
#
# Poissons Ratio (x) = 0.23982 0.42689
# Poissons Ratio (y) = 0.33521 0.26757
# Poissons Ratio (z) = 0.29621 0.13283
#
# Static dielectric constant tensor:
#      x y z
#    x 2.873680 0.000000 -0.275700 
#    y 0.000000 3.113670 0.000000 
#    z -0.275700 0.000000 3.826470 
# 
# 
# High freq. dielectric constant tensor:
#      x y z
#    x 1.592680 0.000000 -0.037320 
#    y 0.000000 1.647760 0.000000 
#    z -0.037320 0.000000 1.656770 
# 
# From -- ./inp_files/236581.got.cif
#   From: 2010.06.25/outbox.cif.g09.slc.cpg/sg12_119_cif.got.tgz:236581.got - 2010.06.28 00:19:55.
