data_PCOD8079580
_publ_section_title
;
Structure prediction by ZEFSAII (Michael W. Deem and Ramdas Pophale) SiO2 
 PCOD8079580
Probable space group: C 2/M
;
_chemical_formula_sum "Si O2"
_cell_formula_units_Z 48
_cell_length_a 21.085409
_cell_length_b 14.685959
_cell_length_c 19.491807
_cell_angle_alpha 90.000000
_cell_angle_beta 25.394432
_cell_angle_gamma 90.000000
_cell_volume 2588.446360
_symmetry_space_group_name_H-M "C 2/M"
_symmetry_group_IT_number 12
_symmetry_cell_setting 'monoclinic'
loop_
_space_group_symop_operation_xyz
x,y,z
-x,y,-z
-x,-y,-z
x,-y,z
1/2+x,1/2+y,z
1/2-x,1/2+y,-z
1/2-x,1/2-y,-z
1/2+x,1/2-y,z
loop_
_atom_site_type_symbol
_atom_site_label
_atom_site_fract_x
_atom_site_fract_y
_atom_site_fract_z
Si Si1 0.976430 0.151836 0.731456
Si Si2 0.268629 0.395599 0.597012
Si Si3 0.357544 0.600283 0.297241
Si Si4 0.055561 0.723180 0.869540
Si Si5 0.411062 0.849982 0.355970
Si Si6 0.355145 0.100424 0.969435
O O1 0.054501 0.109156 0.586366
O O2 0.037237 0.101495 0.739167
O O3 0.013140 0.257144 0.696785
O O4 0.803024 0.138895 0.896184
O O5 0.212688 0.500000 0.653877
O O6 0.203880 0.340844 0.725711
O O7 0.202495 0.338396 0.596862
O O8 0.374650 0.500000 0.246683
O O9 0.407499 0.676885 0.195079
O O10 0.183781 0.610035 0.488314
O O11 0.000000 0.736755 0.000000
O O12 0.930357 0.672374 0.947315
O O13 0.546205 0.911781 0.196194
O O14 0.340648 0.000000 0.017469
#
# Coordination Sequence:
#
# PCOD8079580 Si02
#       6
#     8   8   8   8   8   8
#     4  11  18  34  56  86 116 136 165 220 283 328
#     4  10  18  33  56  80 108 141 178 219 267 325
#     4  11  20  35  58  83 108 140 181 223 270 321
#     4  11  23  39  55  74 104 152 192 221 255 312
#     4  10  17  32  55  81 110 143 167 214 274 327
#     4  11  22  34  54  87 116 138 170 221 276 326
#
# _framework density 18.543942000000001
#
# number of rings (size 3 to 8) (size 9 to 14) (size 15 to 20)
#    0.000    1.333    5.000    7.000    0.000    1.667 
#    0.000    0.833    0.000    2.000    0.000    1.167 
#    0.000    0.000    0.000    0.000    0.000    0.000 
#
# Total GULP energy -297363.713597 kJ/mol
# GULP energy per Si atom -12390.154733 kJ/mol
# Density = 1.850174 g / cm^3
# Si number density = 18.543942 Si / 1000 Ang^3
#
#
#
# Elastic Constant Matrix: (Units=GPa)
#
#
# Indices 1 2 3 4 5 6 
#
# 1 44.1569 44.8948 57.4187 -0.0004 12.0195 0.0005
# 2 44.8948 155.4742 54.8794 0.0010 9.3619 0.0000
# 3 57.4187 54.8794 143.3572 -0.0028 6.3240 0.0025
# 4 -0.0004 0.0010 -0.0028 20.6185 0.0012 0.5011
# 5 12.0195 9.3619 6.3240 0.0012 33.8112 -0.0014
# 6 0.0005 0.0000 0.0025 0.5011 -0.0014 7.2636
#
#
#
# Elastic Compliance Matrix: (Units=1/GPa)
#
#
# Indices 1 2 3 4 5 6 
#
# 1 0.065894 -0.010377 -0.021692 0.000000 -0.016494 0.000000
# 2 -0.010377 0.009151 0.000607 -0.000001 0.001042 0.000001
# 3 -0.021692 0.000607 0.015224 0.000001 0.004696 -0.000003
# 4 0.000000 -0.000001 0.000001 0.048582 -0.000002 -0.003352
# 5 -0.016494 0.001042 0.004696 -0.000002 0.034273 0.000006
# 6 0.000000 0.000001 -0.000003 -0.003352 0.000006 0.137905
#
#
# Mechanical properties :
#
#
# Convention : Reuss Voigt Hill
#
# Bulk Modulus (GPa) = 36.56980 73.04157 54.80568
# Shear Modulus (GPa) = 13.05247 24.72501 18.88874
#
# Velocity S-wave (km/s) = 2.65593 3.65543 3.19500
# Velocity P-wave (km/s) = 5.40081 7.56902 6.57491
#
# Compressibility (1/GPa) = 0.02734497
#
# Stress axis : x y z
#
# Youngs Moduli (GPa) = 15.17586 109.27181 65.68427
#
# Poissons Ratio (x) = 1.13397 1.42484
# Poissons Ratio (y) = 0.15749 -0.03988
# Poissons Ratio (z) = 0.32920 -0.06635
#
# Static dielectric constant tensor:
#      x y z
#    x 2.779970 0.000000 0.049610 
#    y 0.000000 3.536410 0.000000 
#    z 0.049610 0.000000 3.953490 
# 
# 
# High freq. dielectric constant tensor:
#      x y z
#    x 1.638710 0.000000 -0.000830 
#    y 0.000000 1.741590 0.000000 
#    z -0.000830 0.000000 1.742710 
# 
# From -- ./inp_files/278039.got.cif
#   From: 2010.06.25/outbox.cif.g09.slc.cpg/sg12_140_cif.got.tgz:278039.got - 2010.06.28 00:19:55.
