data_PCOD8079633
_publ_section_title
;
Structure prediction by ZEFSAII (Michael W. Deem and Ramdas Pophale) SiO2 
 PCOD8079633
Probable space group: C 2/M
;
_chemical_formula_sum "Si O2"
_cell_formula_units_Z 40
_cell_length_a 16.424180
_cell_length_b 28.895993
_cell_length_c 11.190028
_cell_angle_alpha 90.000000
_cell_angle_beta 24.239365
_cell_angle_gamma 90.000000
_cell_volume 2180.309437
_symmetry_space_group_name_H-M "C 2/M"
_symmetry_group_IT_number 12
_symmetry_cell_setting 'monoclinic'
loop_
_space_group_symop_operation_xyz
x,y,z
-x,y,-z
-x,-y,-z
x,-y,z
1/2+x,1/2+y,z
1/2-x,1/2+y,-z
1/2-x,1/2-y,-z
1/2+x,1/2-y,z
loop_
_atom_site_type_symbol
_atom_site_label
_atom_site_fract_x
_atom_site_fract_y
_atom_site_fract_z
Si Si1 0.051953 0.191517 0.800041
Si Si2 0.810546 0.381813 0.050713
Si Si3 0.374187 0.948694 0.288764
Si Si4 0.002305 0.293154 0.857375
Si Si5 0.956336 0.109432 0.364224
O O1 0.282574 0.202096 0.486775
O O2 0.931351 0.239802 0.939449
O O3 0.992624 0.154456 0.780826
O O4 0.000000 0.171526 0.000000
O O5 0.704246 0.380947 0.320082
O O6 0.667435 0.403429 0.140822
O O7 0.865954 0.327616 0.960343
O O8 0.009281 0.413074 0.781236
O O9 0.145947 0.931290 0.576968
O O10 0.362134 0.000000 0.362413
O O11 0.500000 0.951833 0.000000
O O12 0.000000 0.308371 0.000000
#
# Coordination Sequence:
#
# PCOD8079633 Si02
#       5
#     8   8   8   8   8
#     4  10  20  31  52  78 103 137 175 211 250 298
#     4  10  18  31  54  76 102 136 171 209 255 307
#     4   9  17  31  51  76 104 131 165 213 263 304
#     4  10  17  33  54  73 103 141 174 207 252 302
#     4  10  19  32  51  78 104 133 171 211 257 304
#
# _framework density 18.346019999999999
#
# number of rings (size 3 to 8) (size 9 to 14) (size 15 to 20)
#    0.000    2.200    4.000    0.600    0.000    1.600 
#    0.000    5.000    0.000    0.600    0.000    1.400 
#    0.000    0.000    0.000    0.000    0.000    0.000 
#
# Total GULP energy -247794.455822 kJ/mol
# GULP energy per Si atom -12389.722791 kJ/mol
# Density = 1.830426 g / cm^3
# Si number density = 18.346020 Si / 1000 Ang^3
#
#
#
# Elastic Constant Matrix: (Units=GPa)
#
#
# Indices 1 2 3 4 5 6 
#
# 1 79.8910 53.4001 39.3726 0.0002 -16.2340 0.0010
# 2 53.4001 128.9738 26.5625 0.0007 -23.0871 -0.0003
# 3 39.3726 26.5625 55.6759 -0.0012 -8.6935 -0.0018
# 4 0.0002 0.0007 -0.0012 -1.7547 -0.0015 -0.4840
# 5 -16.2340 -23.0871 -8.6935 -0.0015 25.5674 -0.0011
# 6 0.0010 -0.0003 -0.0018 -0.4840 -0.0011 13.7708
#
#
#
# Elastic Compliance Matrix: (Units=1/GPa)
#
#
# Indices 1 2 3 4 5 6 
#
# 1 0.024505 -0.006453 -0.013445 0.000006 0.005161 -0.000003
# 2 -0.006453 0.011553 0.000043 -0.000002 0.006350 0.000001
# 3 -0.013445 0.000043 0.027586 -0.000022 0.000882 0.000004
# 4 0.000006 -0.000002 -0.000022 -0.564429 -0.000040 -0.019839
# 5 0.005161 0.006350 0.000882 -0.000040 0.048423 0.000002
# 6 -0.000003 0.000001 0.000004 -0.019839 0.000002 0.071920
#
#
# Mechanical properties :
#
#
# Convention : Reuss Voigt Hill
#
# Bulk Modulus (GPa) = 41.78075 55.91236 48.84655
# Shear Modulus (GPa) = -15.02612 17.19705 1.08547
#
# Velocity S-wave (km/s) = -2.86499 3.06498 0.77003
# Velocity P-wave (km/s) = 3.44658 6.56263 5.24152
#
# Compressibility (1/GPa) = 0.02393447
#
# Stress axis : x y z
#
# Youngs Moduli (GPa) = 40.80768 86.55656 36.25021
#
# Poissons Ratio (x) = 0.55857 0.48738
# Poissons Ratio (y) = 0.26334 -0.00156
# Poissons Ratio (z) = 0.54865 -0.00373
#
# Static dielectric constant tensor:
#      x y z
#    x 3.159170 -0.000010 -0.140830 
#    y -0.000010 3.728680 0.000010 
#    z -0.140830 0.000010 3.236720 
# 
# 
# High freq. dielectric constant tensor:
#      x y z
#    x 1.676360 0.000000 -0.014460 
#    y 0.000000 1.713900 0.000000 
#    z -0.014460 0.000000 1.688400 
# 
# From -- ./inp_files/51710.got.cif
#   From: 2010.06.25/outbox.cif.g09.slc.cpg/sg12_26_cif.got.tgz:51710.got - 2010.06.28 00:19:55.
