data_PCOD8079902
_publ_section_title
;
Structure prediction by ZEFSAII (Michael W. Deem and Ramdas Pophale) SiO2 
 PCOD8079902
Probable space group: C 2/M
;
_chemical_formula_sum "Si O2"
_cell_formula_units_Z 64
_cell_length_a 24.549072
_cell_length_b 9.297308
_cell_length_c 20.289789
_cell_angle_alpha 90.000000
_cell_angle_beta 116.685425
_cell_angle_gamma 90.000000
_cell_volume 4137.684900
_symmetry_space_group_name_H-M "C 2/M"
_symmetry_group_IT_number 12
_symmetry_cell_setting 'monoclinic'
loop_
_space_group_symop_operation_xyz
x,y,z
-x,y,-z
-x,-y,-z
x,-y,z
1/2+x,1/2+y,z
1/2-x,1/2+y,-z
1/2-x,1/2-y,-z
1/2+x,1/2-y,z
loop_
_atom_site_type_symbol
_atom_site_label
_atom_site_fract_x
_atom_site_fract_y
_atom_site_fract_z
Si Si1 0.068897 0.332025 0.546268
Si Si2 0.357260 0.666569 0.303888
Si Si3 0.838803 0.659303 0.171768
Si Si4 0.217273 0.333422 0.390029
Si Si5 0.188412 0.668848 0.983549
Si Si6 0.694213 0.662977 0.109821
Si Si7 0.168711 0.665875 0.499640
Si Si8 0.284709 0.165229 0.755751
O O1 0.071780 0.500000 0.565603
O O2 0.099034 0.246358 0.621920
O O3 0.103313 0.298613 0.495945
O O4 0.000000 0.278544 0.500000
O O5 0.373921 0.500000 0.313610
O O6 0.370243 0.726182 0.237167
O O7 0.287492 0.696513 0.285130
O O8 0.860630 0.500000 0.204666
O O9 0.856271 0.687966 0.104287
O O10 0.766060 0.668521 0.137322
O O11 0.235079 0.500000 0.401716
O O12 0.169099 0.293334 0.421798
O O13 0.280167 0.251151 0.433450
O O14 0.189260 0.296661 0.302990
O O15 0.201199 0.500000 0.004084
O O16 0.250000 0.750000 0.000000
O O17 0.160655 0.744581 0.033919
O O18 0.669239 0.500000 0.095620
O O19 0.680019 0.734940 0.172898
O O20 0.185353 0.500000 0.517929
O O21 0.296910 0.000000 0.781749
#
# Coordination Sequence:
#
# PCOD8079902 Si02
#       8
#     8   8   8   8   8   8   8   8
#     4  10  20  32  44  58  79 107 136 167 204 246
#     4  10  18  27  40  57  75  98 131 169 203 238
#     4   8  15  25  36  50  70  98 129 162 196 232
#     4   9  16  27  42  60  80 100 128 167 207 242
#     4   9  15  23  34  49  70  98 131 163 194 229
#     4   9  16  23  33  50  73 101 132 161 190 230
#     4   9  17  28  43  60  77 101 131 165 204 245
#     4   9  16  25  37  54  77 102 127 162 201 237
#
# _framework density 15.467587
#
# number of rings (size 3 to 8) (size 9 to 14) (size 15 to 20)
#    0.000    2.875    1.250    1.875    0.000    4.750 
#    0.000    0.000    0.000    0.000    0.000    0.000 
#    0.000    0.000    0.000    1.125    0.000   25.875 
#
# Total GULP energy -396554.887457 kJ/mol
# GULP energy per Si atom -12392.340233 kJ/mol
# Density = 1.543238 g / cm^3
# Si number density = 15.467587 Si / 1000 Ang^3
#
#
#
# Elastic Constant Matrix: (Units=GPa)
#
#
# Indices 1 2 3 4 5 6 
#
# 1 57.6508 29.9620 41.7527 0.0000 -17.3201 0.0000
# 2 29.9620 82.7620 54.4502 0.0000 -17.4451 0.0000
# 3 41.7527 54.4502 96.6164 0.0000 -35.0399 0.0000
# 4 0.0000 0.0000 0.0000 28.6012 0.0000 -6.0198
# 5 -17.3201 -17.4451 -35.0399 0.0000 23.4619 0.0000
# 6 0.0000 0.0000 0.0000 -6.0198 0.0000 10.7348
#
#
#
# Elastic Compliance Matrix: (Units=1/GPa)
#
#
# Indices 1 2 3 4 5 6 
#
# 1 0.026148 -0.003496 -0.007137 0.000000 0.006043 0.000000
# 2 -0.003496 0.019854 -0.011476 0.000000 -0.004959 0.000000
# 3 -0.007137 -0.011476 0.032500 0.000000 0.034736 0.000000
# 4 0.000000 0.000000 0.000000 0.039643 0.000000 0.022231
# 5 0.006043 -0.004959 0.034736 0.000000 0.095274 0.000000
# 6 0.000000 0.000000 0.000000 0.022231 0.000000 0.105622
#
#
# Mechanical properties :
#
#
# Convention : Reuss Voigt Hill
#
# Bulk Modulus (GPa) = 29.17063 54.37320 41.77192
# Shear Modulus (GPa) = 13.34444 19.95054 16.64749
#
# Velocity S-wave (km/s) = 2.94042 3.59531 3.28423
# Velocity P-wave (km/s) = 5.51618 7.24323 6.43788
#
# Compressibility (1/GPa) = 0.03428106
#
# Stress axis : x y z
#
# Youngs Moduli (GPa) = 38.24412 50.36779 30.76917
#
# Poissons Ratio (x) = 0.17611 0.21961
# Poissons Ratio (y) = 0.13372 0.35312
# Poissons Ratio (z) = 0.27297 0.57804
#
# Static dielectric constant tensor:
#      x y z
#    x 2.729830 0.000000 -0.532540 
#    y 0.000000 3.085510 0.000000 
#    z -0.532540 0.000000 3.184590 
# 
# 
# High freq. dielectric constant tensor:
#      x y z
#    x 1.532550 0.000000 -0.048880 
#    y 0.000000 1.604090 0.000000 
#    z -0.048880 0.000000 1.587290 
# 
# From -- ./inp_files/326624.got.cif
#   From: 2010.06.25/outbox.cif.g09.slc.cpg/sg12_164_cif.got.tgz:326624.got - 2010.06.28 00:19:55.
