data_PCOD8079577
_publ_section_title
;
Structure prediction by ZEFSAII (Michael W. Deem and Ramdas Pophale) SiO2 
 PCOD8079577
Probable space group: C 2/M
;
_chemical_formula_sum "Si O2"
_cell_formula_units_Z 52
_cell_length_a 17.905822
_cell_length_b 15.055971
_cell_length_c 17.726829
_cell_angle_alpha 90.000000
_cell_angle_beta 144.109949
_cell_angle_gamma 90.000000
_cell_volume 2801.582263
_symmetry_space_group_name_H-M "C 2/M"
_symmetry_group_IT_number 12
_symmetry_cell_setting 'monoclinic'
loop_
_space_group_symop_operation_xyz
x,y,z
-x,y,-z
-x,-y,-z
x,-y,z
1/2+x,1/2+y,z
1/2-x,1/2+y,-z
1/2-x,1/2-y,-z
1/2+x,1/2-y,z
loop_
_atom_site_type_symbol
_atom_site_label
_atom_site_fract_x
_atom_site_fract_y
_atom_site_fract_z
Si Si1 0.208211 0.602047 0.287134
Si Si2 0.612014 0.242254 0.532246
Si Si3 0.318114 0.825461 0.901033
Si Si4 0.398773 0.803234 0.256437
Si Si5 0.751635 0.101837 0.739310
Si Si6 0.939920 0.598848 0.140242
Si Si7 0.000000 0.818732 0.000000
O O1 0.254672 0.500000 0.326804
O O2 0.316563 0.663552 0.412615
O O3 0.172824 0.628262 0.172732
O O4 0.085050 0.616894 0.237282
O O5 0.500000 0.251843 0.500000
O O6 0.546401 0.215316 0.399479
O O7 0.708732 0.164309 0.635223
O O8 0.175706 0.789499 0.796197
O O9 0.417697 0.743520 0.988582
O O10 0.350387 0.893810 0.993466
O O11 0.332529 0.876978 0.255553
O O12 0.394224 0.833400 0.166513
O O13 0.902045 0.119077 0.874307
O O14 0.729780 0.000000 0.698681
O O15 0.924224 0.500000 0.159692
#
# Coordination Sequence:
#
# PCOD8079577 Si02
#       7
#     8   8   8   8   8   8   4
#     4  11  21  36  60  86 111 147 191 237 281 335
#     4  10  19  38  55  81 111 147 191 233 280 332
#     4  11  18  37  57  81 111 149 188 233 282 338
#     4  10  22  35  55  78 116 150 185 228 286 338
#     4  10  19  32  55  81 108 147 191 232 276 329
#     4  11  22  35  54  84 115 147 188 234 286 336
#     4  10  17  32  55  78 112 134 185 238 279 320
#
# _framework density 18.560939000000001
#
# number of rings (size 3 to 8) (size 9 to 14) (size 15 to 20)
#    0.000    1.538    6.154    1.615    0.000    5.538 
#    0.000    0.000    0.000    0.000    0.000    1.077 
#    0.000    0.000    0.000    0.000    0.000    0.000 
#
# Total GULP energy -322395.059669 kJ/mol
# GULP energy per Si atom -12399.809987 kJ/mol
# Density = 1.851869 g / cm^3
# Si number density = 18.560939 Si / 1000 Ang^3
#
#
#
# Elastic Constant Matrix: (Units=GPa)
#
#
# Indices 1 2 3 4 5 6 
#
# 1 54.6948 22.3592 17.7038 0.0001 -6.4754 0.0001
# 2 22.3592 114.1355 41.7874 0.0001 12.5685 0.0001
# 3 17.7038 41.7874 113.0135 0.0003 10.2562 0.0002
# 4 0.0001 0.0001 0.0003 21.4866 0.0002 3.3255
# 5 -6.4754 12.5685 10.2562 0.0002 19.8541 0.0001
# 6 0.0001 0.0001 0.0002 3.3255 0.0001 18.2473
#
#
#
# Elastic Compliance Matrix: (Units=1/GPa)
#
#
# Indices 1 2 3 4 5 6 
#
# 1 0.022510 -0.004654 -0.002874 0.000000 0.011772 0.000000
# 2 -0.004654 0.011531 -0.002869 0.000000 -0.007336 0.000000
# 3 -0.002874 -0.002869 0.010785 0.000000 -0.004693 0.000000
# 4 0.000000 0.000000 0.000000 0.047892 0.000000 -0.008728
# 5 0.011772 -0.007336 -0.004693 0.000000 0.061275 0.000000
# 6 0.000000 0.000000 0.000000 -0.008728 0.000000 0.056393
#
#
# Mechanical properties :
#
#
# Convention : Reuss Voigt Hill
#
# Bulk Modulus (GPa) = 41.60914 49.50496 45.55705
# Shear Modulus (GPa) = 20.90386 25.25049 23.07717
#
# Velocity S-wave (km/s) = 3.35957 3.69238 3.52990
# Velocity P-wave (km/s) = 6.12497 6.70132 6.41961
#
# Compressibility (1/GPa) = 0.02403318
#
# Stress axis : x y z
#
# Youngs Moduli (GPa) = 44.42541 86.71957 92.71801
#
# Poissons Ratio (x) = 0.40358 0.26645
# Poissons Ratio (y) = 0.20675 0.26601
# Poissons Ratio (z) = 0.12767 0.24880
#
# Static dielectric constant tensor:
#      x y z
#    x 3.138650 0.000000 0.039190 
#    y 0.000000 3.385150 0.000000 
#    z 0.039190 0.000000 3.753520 
# 
# 
# High freq. dielectric constant tensor:
#      x y z
#    x 1.694210 0.000000 0.007610 
#    y 0.000000 1.719610 0.000000 
#    z 0.007610 0.000000 1.727960 
# 
# From -- ./inp_files/270773.got.cif
#   From: 2010.06.25/outbox.cif.g09.slc.cpg/sg12_136_cif.got.tgz:270773.got - 2010.06.28 00:19:55.
