data_PCOD8079148
_publ_section_title
;
Structure prediction by ZEFSAII (Michael W. Deem and Ramdas Pophale) SiO2 
 PCOD8079148
Probable space group: C 2/M
;
_chemical_formula_sum "Si O2"
_cell_formula_units_Z 56
_cell_length_a 15.595339
_cell_length_b 23.032422
_cell_length_c 14.682478
_cell_angle_alpha 90.000000
_cell_angle_beta 140.065336
_cell_angle_gamma 90.000000
_cell_volume 3385.403183
_symmetry_space_group_name_H-M "C 2/M"
_symmetry_group_IT_number 12
_symmetry_cell_setting 'monoclinic'
loop_
_space_group_symop_operation_xyz
x,y,z
-x,y,-z
-x,-y,-z
x,-y,z
1/2+x,1/2+y,z
1/2-x,1/2+y,-z
1/2-x,1/2-y,-z
1/2+x,1/2-y,z
loop_
_atom_site_type_symbol
_atom_site_label
_atom_site_fract_x
_atom_site_fract_y
_atom_site_fract_z
Si Si1 0.860363 0.333487 0.144471
Si Si2 0.015664 0.278163 0.118684
Si Si3 0.548628 0.724215 0.682591
Si Si4 0.368702 0.121166 0.341125
Si Si5 0.062917 0.159187 0.864915
Si Si6 0.405052 0.434338 0.837711
Si Si7 0.812822 0.252202 0.373481
O O1 0.953067 0.330301 0.129150
O O2 0.860396 0.267965 0.183508
O O3 0.909573 0.375014 0.267221
O O4 0.716891 0.358978 0.999335
O O5 0.948837 0.215604 0.079940
O O6 0.166542 0.270172 0.276528
O O7 0.000000 0.295184 0.000000
O O8 0.527402 0.669078 0.729790
O O9 0.403268 0.750712 0.538158
O O10 0.627591 0.708468 0.654673
O O11 0.500000 0.098761 0.500000
O O12 0.248060 0.076810 0.258875
O O13 0.318862 0.183365 0.337147
O O14 0.958362 0.109010 0.804312
O O15 0.416120 0.500000 0.810408
O O16 0.500000 0.423389 0.000000
#
# Coordination Sequence:
#
# PCOD8079148 Si02
#       7
#     8   8   8   8   8   8   8
#     4  10  19  30  44  71  96 133 171 192 243 307
#     4  11  19  27  45  69 101 134 162 193 240 301
#     4   9  18  29  44  73 101 134 164 194 237 308
#     4  11  19  35  53  69 104 138 168 208 256 295
#     4  11  19  31  50  67  99 132 168 206 250 288
#     4  11  23  37  54  72  93 129 179 220 252 290
#     4  10  17  29  46  71 107 133 162 191 243 305
#
# _framework density 16.541604
#
# number of rings (size 3 to 8) (size 9 to 14) (size 15 to 20)
#    0.000    1.571    5.714    4.714    0.000    3.714 
#    0.000    0.000    0.000    0.000    0.000    2.000 
#    0.000   10.286    0.000    0.000    0.000    0.000 
#
# Total GULP energy -346989.452565 kJ/mol
# GULP energy per Si atom -12392.480449 kJ/mol
# Density = 1.650395 g / cm^3
# Si number density = 16.541604 Si / 1000 Ang^3
#
#
#
# Elastic Constant Matrix: (Units=GPa)
#
#
# Indices 1 2 3 4 5 6 
#
# 1 78.2566 22.8867 39.1232 0.0000 2.0159 0.0000
# 2 22.8867 41.7310 17.0221 0.0000 -4.8212 0.0000
# 3 39.1232 17.0221 94.6405 0.0000 7.5427 0.0000
# 4 0.0000 0.0000 0.0000 4.8171 0.0000 2.8922
# 5 2.0159 -4.8212 7.5427 0.0000 35.5086 0.0000
# 6 0.0000 0.0000 0.0000 2.8922 0.0000 16.4966
#
#
#
# Elastic Compliance Matrix: (Units=1/GPa)
#
#
# Indices 1 2 3 4 5 6 
#
# 1 0.018009 -0.007503 -0.006035 0.000000 -0.000759 0.000000
# 2 -0.007503 0.029739 -0.002648 0.000000 0.005026 0.000000
# 3 -0.006035 -0.002648 0.013772 0.000000 -0.002942 0.000000
# 4 0.000000 0.000000 0.000000 0.232015 0.000000 -0.040676
# 5 -0.000759 0.005026 -0.002942 0.000000 0.029513 0.000000
# 6 0.000000 0.000000 0.000000 -0.040676 0.000000 0.067750
#
#
# Mechanical properties :
#
#
# Convention : Reuss Voigt Hill
#
# Bulk Modulus (GPa) = 34.30707 41.41024 37.85866
# Shear Modulus (GPa) = 11.55043 20.40421 15.97732
#
# Velocity S-wave (km/s) = 2.64534 3.51594 3.11124
# Velocity P-wave (km/s) = 5.48774 6.44754 5.98691
#
# Compressibility (1/GPa) = 0.02914851
#
# Stress axis : x y z
#
# Youngs Moduli (GPa) = 55.52659 33.62632 72.61241
#
# Poissons Ratio (x) = 0.25230 0.43820
# Poissons Ratio (y) = 0.41662 0.19226
# Poissons Ratio (z) = 0.33509 0.08903
#
# Static dielectric constant tensor:
#      x y z
#    x 3.359000 0.000000 -0.012630 
#    y 0.000000 2.661350 0.000000 
#    z -0.012630 0.000000 3.247840 
# 
# 
# High freq. dielectric constant tensor:
#      x y z
#    x 1.641870 0.000000 0.004020 
#    y 0.000000 1.565250 0.000000 
#    z 0.004020 0.000000 1.655460 
# 
# From -- ./inp_files/218291.got.cif
#   From: 2010.06.25/outbox.cif.g09.slc.cpg/sg12_110_cif.got.tgz:218291.got - 2010.06.28 00:19:55.
