data_PCOD8079128
_publ_section_title
;
Structure prediction by ZEFSAII (Michael W. Deem and Ramdas Pophale) SiO2 
 PCOD8079128
Probable space group: C 2/M
;
_chemical_formula_sum "Si O2"
_cell_formula_units_Z 40
_cell_length_a 24.536947
_cell_length_b 23.045395
_cell_length_c 8.284361
_cell_angle_alpha 90.000000
_cell_angle_beta 148.162281
_cell_angle_gamma 90.000000
_cell_volume 2471.147456
_symmetry_space_group_name_H-M "C 2/M"
_symmetry_group_IT_number 12
_symmetry_cell_setting 'monoclinic'
loop_
_space_group_symop_operation_xyz
x,y,z
-x,y,-z
-x,-y,-z
x,-y,z
1/2+x,1/2+y,z
1/2-x,1/2+y,-z
1/2-x,1/2-y,-z
1/2+x,1/2-y,z
loop_
_atom_site_type_symbol
_atom_site_label
_atom_site_fract_x
_atom_site_fract_y
_atom_site_fract_z
Si Si1 0.892847 0.739943 0.803831
Si Si2 0.841044 0.832510 0.239099
Si Si3 0.384087 0.564273 0.145188
Si Si4 0.459403 0.636769 0.058974
Si Si5 0.793615 0.737176 0.872833
O O1 0.867431 0.712022 0.915847
O O2 0.802639 0.727504 0.447992
O O3 0.892142 0.809348 0.827144
O O4 0.000000 0.715613 0.000000
O O5 0.817226 0.894699 0.095660
O O6 0.746511 0.816524 0.119628
O O7 0.948672 0.836029 0.603628
O O8 0.855453 0.783016 0.138799
O O9 0.500000 0.559978 0.500000
O O10 0.333879 0.500000 0.011941
O O11 0.387593 0.592146 0.975549
O O12 0.500000 0.603718 0.000000
#
# Coordination Sequence:
#
# PCOD8079128 Si02
#       5
#     8   8   8   8   8
#     4  10  18  30  43  66  94 125 151 184 229 272
#     4  10  18  29  44  66  93 124 156 184 225 271
#     4   9  18  30  45  63  89 126 160 187 222 273
#     4  10  17  29  44  62  95 129 153 184 223 264
#     4  10  19  28  46  67  91 128 152 186 230 279
#
# _framework density 16.186813000000001
#
# number of rings (size 3 to 8) (size 9 to 14) (size 15 to 20)
#    0.000    2.200    6.000    0.000    0.000    0.400 
#    0.000    0.000    0.000    0.000    0.000    0.000 
#    0.000    4.800    0.000    0.000    0.000    0.000 
#
# Total GULP energy -247854.548101 kJ/mol
# GULP energy per Si atom -12392.727405 kJ/mol
# Density = 1.614997 g / cm^3
# Si number density = 16.186813 Si / 1000 Ang^3
#
#
#
# Elastic Constant Matrix: (Units=GPa)
#
#
# Indices 1 2 3 4 5 6 
#
# 1 143.2154 41.3160 29.7134 0.0000 -6.4678 0.0000
# 2 41.3160 82.6552 12.9703 0.0000 -4.2701 0.0000
# 3 29.7134 12.9703 52.4846 0.0000 -9.0251 0.0000
# 4 0.0000 0.0000 0.0000 10.8532 0.0000 1.2844
# 5 -6.4678 -4.2701 -9.0251 0.0000 26.2229 0.0000
# 6 0.0000 0.0000 0.0000 1.2844 0.0000 24.8335
#
#
#
# Elastic Compliance Matrix: (Units=1/GPa)
#
#
# Indices 1 2 3 4 5 6 
#
# 1 0.008940 -0.003818 -0.004087 0.000000 0.000177 0.000000
# 2 -0.003818 0.014244 -0.001192 0.000000 0.000967 0.000000
# 3 -0.004087 -0.001192 0.022805 0.000000 0.006646 0.000000
# 4 0.000000 0.000000 0.000000 0.092706 0.000000 -0.004795
# 5 0.000177 0.000967 0.006646 0.000000 0.040623 0.000000
# 6 0.000000 0.000000 0.000000 -0.004795 0.000000 0.040516
#
#
# Mechanical properties :
#
#
# Convention : Reuss Voigt Hill
#
# Bulk Modulus (GPa) = 35.97962 49.59495 42.78729
# Shear Modulus (GPa) = 20.21886 25.33895 22.77891
#
# Velocity S-wave (km/s) = 3.53809 3.96081 3.75540
# Velocity P-wave (km/s) = 6.24233 7.18492 6.73015
#
# Compressibility (1/GPa) = 0.02779351
#
# Stress axis : x y z
#
# Youngs Moduli (GPa) = 111.85695 70.20455 43.85068
#
# Poissons Ratio (x) = 0.26806 0.17923
# Poissons Ratio (y) = 0.42710 0.05227
# Poissons Ratio (z) = 0.45719 0.08369
#
# Static dielectric constant tensor:
#      x y z
#    x 3.578060 0.000000 -0.269250 
#    y 0.000000 2.968200 0.000000 
#    z -0.269250 0.000000 2.904430 
# 
# 
# High freq. dielectric constant tensor:
#      x y z
#    x 1.643780 0.000000 -0.027310 
#    y 0.000000 1.573100 0.000000 
#    z -0.027310 0.000000 1.599310 
# 
# From -- ./inp_files/60368.got.cif
#   From: 2010.06.25/outbox.cif.g09.slc.cpg/sg12_31_cif.got.tgz:60368.got - 2010.06.28 00:19:55.
