data_PCOD8079849
_publ_section_title
;
Structure prediction by ZEFSAII (Michael W. Deem and Ramdas Pophale) SiO2 
 PCOD8079849
Probable space group: C 2/M
;
_chemical_formula_sum "Si O2"
_cell_formula_units_Z 48
_cell_length_a 20.919874
_cell_length_b 9.257025
_cell_length_c 23.434488
_cell_angle_alpha 90.000000
_cell_angle_beta 39.258817
_cell_angle_gamma 90.000000
_cell_volume 2871.899563
_symmetry_space_group_name_H-M "C 2/M"
_symmetry_group_IT_number 12
_symmetry_cell_setting 'monoclinic'
loop_
_space_group_symop_operation_xyz
x,y,z
-x,y,-z
-x,-y,-z
x,-y,z
1/2+x,1/2+y,z
1/2-x,1/2+y,-z
1/2-x,1/2-y,-z
1/2+x,1/2-y,z
loop_
_atom_site_type_symbol
_atom_site_label
_atom_site_fract_x
_atom_site_fract_y
_atom_site_fract_z
Si Si1 0.761601 0.833297 0.050539
Si Si2 0.427056 0.668722 0.223663
Si Si3 0.034324 0.169580 0.036215
Si Si4 0.243550 0.339689 0.419517
Si Si5 0.098680 0.161901 0.586586
Si Si6 0.957576 0.667025 0.759642
O O1 0.663132 0.815728 0.158219
O O2 0.780883 0.000000 0.021359
O O3 0.750000 0.750000 0.000000
O O4 0.857050 0.768458 0.019177
O O5 0.447471 0.500000 0.223752
O O6 0.449245 0.704728 0.142461
O O7 0.309416 0.706475 0.318438
O O8 0.501987 0.762614 0.210235
O O9 0.046402 0.000000 0.018818
O O10 0.000000 0.241662 0.000000
O O11 0.198194 0.500000 0.443246
O O12 0.150438 0.231575 0.494573
O O13 0.320981 0.337263 0.418373
O O14 0.001676 0.254331 0.673054
O O15 0.064240 0.000000 0.594967
O O16 0.991038 0.500000 0.735133
#
# Coordination Sequence:
#
# PCOD8079849 Si02
#       6
#     8   8   8   8   8   8
#     4  10  19  30  47  69  92 121 155 189 229 271
#     4   9  16  27  44  64  87 118 152 184 223 269
#     4   9  17  30  48  69  93 121 155 192 227 270
#     4   8  14  23  36  57  85 114 143 179 223 268
#     4   9  16  25  38  58  85 117 147 180 223 270
#     4  10  18  26  40  64  91 118 147 184 226 266
#
# _framework density 16.713677000000001
#
# number of rings (size 3 to 8) (size 9 to 14) (size 15 to 20)
#    0.000    2.833    1.667    2.000    0.000    4.667 
#    0.000    0.000    0.000    2.000    0.000    1.167 
#    0.000    9.333    0.000    0.000    0.000    0.000 
#
# Total GULP energy -297478.976202 kJ/mol
# GULP energy per Si atom -12394.957342 kJ/mol
# Density = 1.667564 g / cm^3
# Si number density = 16.713677 Si / 1000 Ang^3
#
#
#
# Elastic Constant Matrix: (Units=GPa)
#
#
# Indices 1 2 3 4 5 6 
#
# 1 73.6227 27.3123 52.3711 0.0000 3.3403 0.0000
# 2 27.3123 80.7765 58.1919 0.0001 -0.1308 -0.0001
# 3 52.3711 58.1919 153.4042 0.0000 5.8835 0.0000
# 4 0.0000 0.0001 0.0000 26.0168 0.0000 -0.3392
# 5 3.3403 -0.1308 5.8835 0.0000 13.0890 0.0000
# 6 0.0000 -0.0001 0.0000 -0.3392 0.0000 9.7564
#
#
#
# Elastic Compliance Matrix: (Units=1/GPa)
#
#
# Indices 1 2 3 4 5 6 
#
# 1 0.018318 -0.002418 -0.005247 0.000000 -0.002341 0.000000
# 2 -0.002418 0.017481 -0.005939 0.000000 0.003461 0.000000
# 3 -0.005247 -0.005939 0.010698 0.000000 -0.003529 0.000000
# 4 0.000000 0.000000 0.000000 0.038454 0.000000 0.001337
# 5 -0.002341 0.003461 -0.003529 0.000000 0.078618 0.000000
# 6 0.000000 0.000000 0.000000 0.001337 0.000000 0.102543
#
#
# Mechanical properties :
#
#
# Convention : Reuss Voigt Hill
#
# Bulk Modulus (GPa) = 51.83739 64.83932 58.33835
# Shear Modulus (GPa) = 16.68059 21.10098 18.89079
#
# Velocity S-wave (km/s) = 3.16257 3.55702 3.36558
# Velocity P-wave (km/s) = 6.66469 7.46647 7.07695
#
# Compressibility (1/GPa) = 0.01929109
#
# Stress axis : x y z
#
# Youngs Moduli (GPa) = 54.59064 57.20456 93.47527
#
# Poissons Ratio (x) = 0.13831 0.49044
# Poissons Ratio (y) = 0.13199 0.55511
# Poissons Ratio (z) = 0.28643 0.33971
#
# Static dielectric constant tensor:
#      x y z
#    x 2.763830 0.000000 -0.019180 
#    y 0.000000 3.143080 0.000000 
#    z -0.019180 0.000000 3.554300 
# 
# 
# High freq. dielectric constant tensor:
#      x y z
#    x 1.573780 0.000000 -0.003000 
#    y 0.000000 1.633930 0.000000 
#    z -0.003000 0.000000 1.667370 
# 
# From -- ./inp_files/345381.got.cif
#   From: 2010.06.25/outbox.cif.g09.slc.cpg/sg12_173_cif.got.tgz:345381.got - 2010.06.28 00:19:55.
