data_PCOD8079196
_publ_section_title
;
Structure prediction by ZEFSAII (Michael W. Deem and Ramdas Pophale) SiO2 
 PCOD8079196
Probable space group: C 2/M
;
_chemical_formula_sum "Si O2"
_cell_formula_units_Z 64
_cell_length_a 27.028973
_cell_length_b 13.254798
_cell_length_c 11.463526
_cell_angle_alpha 90.000000
_cell_angle_beta 70.514297
_cell_angle_gamma 90.000000
_cell_volume 3871.736479
_symmetry_space_group_name_H-M "C 2/M"
_symmetry_group_IT_number 12
_symmetry_cell_setting 'monoclinic'
loop_
_space_group_symop_operation_xyz
x,y,z
-x,y,-z
-x,-y,-z
x,-y,z
1/2+x,1/2+y,z
1/2-x,1/2+y,-z
1/2-x,1/2-y,-z
1/2+x,1/2-y,z
loop_
_atom_site_type_symbol
_atom_site_label
_atom_site_fract_x
_atom_site_fract_y
_atom_site_fract_z
Si Si1 0.331892 0.703256 0.483228
Si Si2 0.571403 0.384370 0.718249
Si Si3 0.544512 0.380511 0.217434
Si Si4 0.605292 0.384693 0.947441
Si Si5 0.737713 0.387479 0.084409
Si Si6 0.863758 0.114297 0.696281
Si Si7 0.737773 0.884151 0.425049
Si Si8 0.780778 0.805892 0.148215
O O1 0.384757 0.689466 0.368052
O O2 0.344051 0.684732 0.608742
O O3 0.310506 0.817596 0.487435
O O4 0.287758 0.626418 0.470940
O O5 0.581519 0.500000 0.668534
O O6 0.515039 0.342528 0.718588
O O7 0.570726 0.379120 0.858232
O O8 0.543139 0.500000 0.204367
O O9 0.579496 0.348466 0.301531
O O10 0.570592 0.337246 0.078631
O O11 0.622408 0.500000 0.960663
O O12 0.657401 0.319868 0.888694
O O13 0.758713 0.500000 0.092284
O O14 0.676087 0.378356 0.163728
O O15 0.771143 0.313638 0.140778
O O16 0.744289 0.362674 0.942962
O O17 0.867825 0.000000 0.646169
O O18 0.752336 0.847241 0.284690
O O19 0.719901 0.000000 0.436690
#
# Coordination Sequence:
#
# PCOD8079196 Si02
#       8
#     8   8   8   8   8   8   8   8
#     4  11  22  34  48  72 100 135 169 203 243 290
#     4  10  19  31  49  72 100 131 166 204 246 300
#     4   9  18  30  47  73 100 130 163 201 252 303
#     4  10  17  29  49  73 102 129 160 205 251 299
#     4  10  20  32  49  75 106 134 162 203 248 295
#     4  10  18  31  47  68 102 134 161 198 249 298
#     4  11  22  36  52  73 100 133 171 208 244 292
#     4  11  19  32  53  75  99 136 171 197 243 304
#
# _framework density 16.530049999999999
#
# number of rings (size 3 to 8) (size 9 to 14) (size 15 to 20)
#    0.000    1.750    3.750    2.625    0.000    2.000 
#    0.000    1.875    0.000    0.000    0.000    2.625 
#    0.000    2.000    0.000    0.000    0.000    0.000 
#
# Total GULP energy -396811.957431 kJ/mol
# GULP energy per Si atom -12400.373670 kJ/mol
# Density = 1.649243 g / cm^3
# Si number density = 16.530050 Si / 1000 Ang^3
#
#
#
# Elastic Constant Matrix: (Units=GPa)
#
#
# Indices 1 2 3 4 5 6 
#
# 1 112.2562 44.5277 34.3512 0.0000 -4.1830 0.0000
# 2 44.5277 89.3028 26.6244 0.0000 -3.0195 0.0000
# 3 34.3512 26.6244 74.7128 0.0000 -0.2400 0.0000
# 4 0.0000 0.0000 0.0000 19.9613 0.0000 -1.2377
# 5 -4.1830 -3.0195 -0.2400 0.0000 28.3780 0.0000
# 6 0.0000 0.0000 0.0000 -1.2377 0.0000 20.0756
#
#
#
# Elastic Compliance Matrix: (Units=1/GPa)
#
#
# Indices 1 2 3 4 5 6 
#
# 1 0.012033 -0.004822 -0.003810 0.000000 0.001228 0.000000
# 2 -0.004822 0.014509 -0.002951 0.000000 0.000808 0.000000
# 3 -0.003810 -0.002951 0.016185 0.000000 -0.000739 0.000000
# 4 0.000000 0.000000 0.000000 0.050289 0.000000 0.003100
# 5 0.001228 0.000808 -0.000739 0.000000 0.035499 0.000000
# 6 0.000000 0.000000 0.000000 0.003100 0.000000 0.050003
#
#
# Mechanical properties :
#
#
# Convention : Reuss Voigt Hill
#
# Bulk Modulus (GPa) = 51.12062 54.14204 52.63133
# Shear Modulus (GPa) = 24.01476 25.06754 24.54115
#
# Velocity S-wave (km/s) = 3.81569 3.89843 3.85728
# Velocity P-wave (km/s) = 7.09969 7.28618 7.19354
#
# Compressibility (1/GPa) = 0.01956158
#
# Stress axis : x y z
#
# Youngs Moduli (GPa) = 83.10738 68.92117 61.78380
#
# Poissons Ratio (x) = 0.33235 0.23539
# Poissons Ratio (y) = 0.40076 0.18231
# Poissons Ratio (z) = 0.31663 0.20337
#
# Static dielectric constant tensor:
#      x y z
#    x 3.189650 0.000000 0.036320 
#    y 0.000000 2.887170 0.000000 
#    z 0.036320 0.000000 3.160580 
# 
# 
# High freq. dielectric constant tensor:
#      x y z
#    x 1.635270 0.000000 0.010730 
#    y 0.000000 1.592170 0.000000 
#    z 0.010730 0.000000 1.646890 
# 
# From -- ./inp_files/183017.got.cif
#   From: 2010.06.25/outbox.cif.g09.slc.cpg/sg12_92_cif.got.tgz:183017.got - 2010.06.28 00:19:55.
