data_PCOD8079446
_publ_section_title
;
Structure prediction by ZEFSAII (Michael W. Deem and Ramdas Pophale) SiO2 
 PCOD8079446
Probable space group: C 2/M
;
_chemical_formula_sum "Si O2"
_cell_formula_units_Z 56
_cell_length_a 17.098403
_cell_length_b 13.450988
_cell_length_c 32.031967
_cell_angle_alpha 90.000000
_cell_angle_beta 23.899277
_cell_angle_gamma 90.000000
_cell_volume 2984.611446
_symmetry_space_group_name_H-M "C 2/M"
_symmetry_group_IT_number 12
_symmetry_cell_setting 'monoclinic'
loop_
_space_group_symop_operation_xyz
x,y,z
-x,y,-z
-x,-y,-z
x,-y,z
1/2+x,1/2+y,z
1/2-x,1/2+y,-z
1/2-x,1/2-y,-z
1/2+x,1/2-y,z
loop_
_atom_site_type_symbol
_atom_site_label
_atom_site_fract_x
_atom_site_fract_y
_atom_site_fract_z
Si Si1 0.809306 0.386261 0.773675
Si Si2 0.431816 0.387125 0.747350
Si Si3 0.467872 0.891939 0.104254
Si Si4 0.540526 0.805409 0.216330
Si Si5 0.961984 0.778524 0.383416
Si Si6 0.073790 0.210517 0.009332
Si Si7 0.246187 0.386291 0.706224
O O1 0.824571 0.500000 0.751586
O O2 0.936693 0.369690 0.752900
O O3 0.582884 0.361783 0.892538
O O4 0.899458 0.315937 0.694037
O O5 0.488431 0.500000 0.732522
O O6 0.213395 0.380631 0.838157
O O7 0.456735 0.312874 0.774475
O O8 0.561708 0.350699 0.645054
O O9 0.614125 0.806252 0.019031
O O10 0.405411 0.877399 0.182184
O O11 0.565286 0.000000 0.050720
O O12 0.339169 0.831840 0.292795
O O13 0.715490 0.838121 0.099746
O O14 0.750000 0.750000 0.500000
O O15 0.053791 0.835422 0.378092
O O16 0.000000 0.244812 0.000000
O O17 0.289371 0.500000 0.673805
#
# Coordination Sequence:
#
# PCOD8079446 Si02
#       7
#     8   8   8   8   8   8   8
#     4  10  20  35  52  77 110 144 185 223 262 322
#     4   9  17  34  56  79 109 143 184 226 265 319
#     4   9  16  30  51  75 103 140 184 224 260 305
#     4  10  20  32  54  80 113 149 178 217 267 319
#     4  10  20  38  61  80 101 135 182 232 281 327
#     4  10  17  31  50  79 109 148 184 218 256 314
#     4  10  20  36  56  80 109 138 176 227 275 320
#
# _framework density 18.762910999999999
#
# number of rings (size 3 to 8) (size 9 to 14) (size 15 to 20)
#    0.000    2.286    5.714    1.714    0.000    5.714 
#    0.000    3.571    0.000    5.143    0.000    0.000 
#    0.000    0.000    0.000    0.000    0.000    0.000 
#
# Total GULP energy -347051.636561 kJ/mol
# GULP energy per Si atom -12394.701306 kJ/mol
# Density = 1.872021 g / cm^3
# Si number density = 18.762911 Si / 1000 Ang^3
#
#
#
# Elastic Constant Matrix: (Units=GPa)
#
#
# Indices 1 2 3 4 5 6 
#
# 1 79.3028 38.2999 19.5437 0.0016 -13.7043 -0.0004
# 2 38.2999 130.6601 22.7180 -0.0002 -1.0147 0.0005
# 3 19.5437 22.7180 74.9371 0.0107 -7.9222 0.0062
# 4 0.0016 -0.0002 0.0107 16.1501 0.0007 2.3266
# 5 -13.7043 -1.0147 -7.9222 0.0007 11.9431 0.0007
# 6 -0.0004 0.0005 0.0062 2.3266 0.0007 22.8948
#
#
#
# Elastic Compliance Matrix: (Units=1/GPa)
#
#
# Indices 1 2 3 4 5 6 
#
# 1 0.018957 -0.005188 -0.001202 -0.000002 0.020514 0.000000
# 2 -0.005188 0.009511 -0.002230 0.000002 -0.006625 0.000000
# 3 -0.001202 -0.002230 0.015237 -0.000010 0.008538 -0.000003
# 4 -0.000002 0.000002 -0.000010 0.062839 -0.000012 -0.006386
# 5 0.020514 -0.006625 0.008538 -0.000012 0.112369 -0.000004
# 6 0.000000 0.000000 -0.000003 -0.006386 -0.000004 0.044327
#
#
# Mechanical properties :
#
#
# Convention : Reuss Voigt Hill
#
# Bulk Modulus (GPa) = 37.79005 49.55812 43.67408
# Shear Modulus (GPa) = 17.28289 23.82017 20.55153
#
# Velocity S-wave (km/s) = 3.03829 3.56692 3.31316
# Velocity P-wave (km/s) = 5.70025 6.59045 6.16145
#
# Compressibility (1/GPa) = 0.02646199
#
# Stress axis : x y z
#
# Youngs Moduli (GPa) = 52.75094 105.14496 65.63005
#
# Poissons Ratio (x) = 0.54554 0.07891
# Poissons Ratio (y) = 0.27369 0.14639
# Poissons Ratio (z) = 0.06343 0.23453
#
# Static dielectric constant tensor:
#      x y z
#    x 3.240280 0.000020 0.106790 
#    y 0.000020 3.586680 0.000050 
#    z 0.106790 0.000050 3.238630 
# 
# 
# High freq. dielectric constant tensor:
#      x y z
#    x 1.702570 0.000000 0.011210 
#    y 0.000000 1.732990 0.000000 
#    z 0.011210 0.000000 1.699640 
# 
# From -- ./inp_files/361397.got.cif
#   From: 2010.06.25/outbox.cif.g09.slc.cpg/sg12_181_cif.got.tgz:361397.got - 2010.06.28 00:19:55.
