data_PCOD8079884
_publ_section_title
;
Structure prediction by ZEFSAII (Michael W. Deem and Ramdas Pophale) SiO2 
 PCOD8079884
Probable space group: C 2/M
;
_chemical_formula_sum "Si O2"
_cell_formula_units_Z 48
_cell_length_a 36.295324
_cell_length_b 20.071285
_cell_length_c 5.215163
_cell_angle_alpha 90.000000
_cell_angle_beta 106.700527
_cell_angle_gamma 90.000000
_cell_volume 3638.962466
_symmetry_space_group_name_H-M "C 2/M"
_symmetry_group_IT_number 12
_symmetry_cell_setting 'monoclinic'
loop_
_space_group_symop_operation_xyz
x,y,z
-x,y,-z
-x,-y,-z
x,-y,z
1/2+x,1/2+y,z
1/2-x,1/2+y,-z
1/2-x,1/2-y,-z
1/2+x,1/2-y,z
loop_
_atom_site_type_symbol
_atom_site_label
_atom_site_fract_x
_atom_site_fract_y
_atom_site_fract_z
Si Si1 0.811203 0.775212 0.122382
Si Si2 0.232003 0.354411 0.963987
Si Si3 0.543207 0.579199 0.586444
Si Si4 0.833656 0.842614 0.667284
Si Si5 0.088135 0.079178 0.176303
Si Si6 0.754478 0.921792 0.508931
O O1 0.804212 0.695789 0.108429
O O2 0.835138 0.795406 0.421567
O O3 0.770780 0.812341 0.041554
O O4 0.835131 0.795393 0.918878
O O5 0.230131 0.400397 0.708893
O O6 0.230132 0.400406 0.211570
O O7 0.500000 0.608424 0.500000
O O8 0.541560 0.500000 0.583132
O O9 0.565272 0.605004 0.379258
O O10 0.565262 0.605000 0.881913
O O11 0.869536 0.891390 0.739088
O O12 0.796076 0.888231 0.592122
O O13 0.092154 0.000000 0.184344
O O14 0.760925 0.000000 0.521853
#
# Coordination Sequence:
#
# PCOD8079884 Si02
#       6
#     8   8   8   8   8   8
#     4   9  17  28  40  52  68  93 122 148 178 220
#     4   9  17  28  40  52  68  93 122 148 178 220
#     4   9  17  28  40  52  68  93 122 148 178 220
#     4  10  18  27  39  55  74  93 116 150 193 230
#     4  10  18  27  39  55  74  93 116 150 193 230
#     4  10  18  27  39  55  74  93 116 150 193 230
#
# _framework density 13.190574
#
# number of rings (size 3 to 8) (size 9 to 14) (size 15 to 20)
#    0.000    2.500    0.000    3.500    0.000    6.000 
#    0.000    5.000    0.000    0.000    0.000    0.000 
#    0.000    0.000    0.000    0.000    0.000    0.000 
#
# Total GULP energy -297592.458955 kJ/mol
# GULP energy per Si atom -12399.685790 kJ/mol
# Density = 1.316055 g / cm^3
# Si number density = 13.190574 Si / 1000 Ang^3
#
#
#
# Elastic Constant Matrix: (Units=GPa)
#
#
# Indices 1 2 3 4 5 6 
#
# 1 56.0102 27.5757 44.0615 0.0000 -9.5461 0.0000
# 2 27.5757 49.4529 36.3544 0.0000 -4.0837 0.0000
# 3 44.0615 36.3544 125.3180 0.0000 -22.6698 0.0000
# 4 0.0000 0.0000 0.0000 15.6412 0.0000 -1.5363
# 5 -9.5461 -4.0837 -22.6698 0.0000 22.3479 0.0000
# 6 0.0000 0.0000 0.0000 -1.5363 0.0000 12.3461
#
#
#
# Elastic Compliance Matrix: (Units=1/GPa)
#
#
# Indices 1 2 3 4 5 6 
#
# 1 0.028951 -0.011267 -0.006180 0.000000 0.004039 0.000000
# 2 -0.011267 0.030314 -0.005758 0.000000 -0.005114 0.000000
# 3 -0.006180 -0.005758 0.013662 0.000000 0.010167 0.000000
# 4 0.000000 0.000000 0.000000 0.064725 0.000000 0.008054
# 5 0.004039 -0.005114 0.010167 0.000000 0.055851 0.000000
# 6 0.000000 0.000000 0.000000 0.008054 0.000000 0.081999
#
#
# Mechanical properties :
#
#
# Convention : Reuss Voigt Hill
#
# Bulk Modulus (GPa) = 37.71033 49.64049 43.67541
# Shear Modulus (GPa) = 15.11711 18.25301 16.68506
#
# Velocity S-wave (km/s) = 3.38901 3.72397 3.56043
# Velocity P-wave (km/s) = 6.63060 7.49704 7.07709
#
# Compressibility (1/GPa) = 0.02651793
#
# Stress axis : x y z
#
# Youngs Moduli (GPa) = 34.54121 32.98779 73.19558
#
# Poissons Ratio (x) = 0.37167 0.45235
# Poissons Ratio (y) = 0.38917 0.42144
# Poissons Ratio (z) = 0.21346 0.18994
#
# Static dielectric constant tensor:
#      x y z
#    x 2.515730 0.000000 -0.197690 
#    y 0.000000 2.438020 0.000000 
#    z -0.197690 0.000000 2.940900 
# 
# 
# High freq. dielectric constant tensor:
#      x y z
#    x 1.475260 0.000000 -0.021120 
#    y 0.000000 1.466960 0.000000 
#    z -0.021120 0.000000 1.520680 
# 
# From -- ./inp_files/17179.got.cif
#   From: 2010.06.25/outbox.cif.g09.slc.cpg/sg12_9_cif.got.tgz:17179.got - 2010.06.28 00:19:55.
