data_PCOD8079067
_publ_section_title
;
Structure prediction by ZEFSAII (Michael W. Deem and Ramdas Pophale) SiO2 
 PCOD8079067
Probable space group: C 2/M
;
_chemical_formula_sum "Si O2"
_cell_formula_units_Z 64
_cell_length_a 18.096268
_cell_length_b 16.077812
_cell_length_c 11.466736
_cell_angle_alpha 90.000000
_cell_angle_beta 99.087671
_cell_angle_gamma 90.000000
_cell_volume 3294.351482
_symmetry_space_group_name_H-M "C 2/M"
_symmetry_group_IT_number 12
_symmetry_cell_setting 'monoclinic'
loop_
_space_group_symop_operation_xyz
x,y,z
-x,y,-z
-x,-y,-z
x,-y,z
1/2+x,1/2+y,z
1/2-x,1/2+y,-z
1/2-x,1/2-y,-z
1/2+x,1/2-y,z
loop_
_atom_site_type_symbol
_atom_site_label
_atom_site_fract_x
_atom_site_fract_y
_atom_site_fract_z
Si Si1 0.691603 0.345178 0.233249
Si Si2 0.958134 0.089688 0.868312
Si Si3 0.665702 0.756669 0.777249
Si Si4 0.382638 0.824716 0.715531
Si Si5 0.982851 0.259026 0.132726
Si Si6 0.258583 0.592424 0.270906
Si Si7 0.337841 0.407297 0.529597
Si Si8 0.913616 0.745395 0.488346
O O1 0.631674 0.395487 0.138455
O O2 0.771249 0.328518 0.189433
O O3 0.659078 0.255108 0.246485
O O4 0.704530 0.393318 0.358271
O O5 0.993929 0.167814 0.807644
O O6 0.969687 0.000000 0.806776
O O7 0.000000 0.085040 0.000000
O O8 0.604853 0.771978 0.863937
O O9 0.699337 0.662773 0.795686
O O10 0.628042 0.770352 0.642743
O O11 0.467017 0.828440 0.789052
O O12 0.332126 0.900514 0.751236
O O13 0.382638 0.820619 0.575078
O O14 0.000000 0.262710 0.000000
O O15 0.280638 0.500000 0.230451
O O16 0.279364 0.605265 0.411249
O O17 0.372840 0.500000 0.535553
O O18 0.403896 0.339990 0.532138
O O19 0.000000 0.727061 0.500000
#
# Coordination Sequence:
#
# PCOD8079067 Si02
#       8
#     8   8   8   8   8   8   8   8
#     4   9  17  30  49  73 100 135 170 205 245 299
#     4   9  18  33  51  72 100 132 162 199 254 309
#     4  10  19  32  51  78 103 131 173 211 252 304
#     4   9  17  32  51  73 101 134 173 205 253 303
#     4  10  20  34  52  75 102 133 171 215 256 296
#     4   9  18  32  51  74 102 134 167 209 254 304
#     4   9  17  28  45  74 109 137 163 199 252 310
#     4  10  17  28  48  77 107 137 167 205 249 304
#
# _framework density 19.427192999999999
#
# number of rings (size 3 to 8) (size 9 to 14) (size 15 to 20)
#    0.000    2.625    1.250    1.125    0.000    3.750 
#    0.000   10.000    0.000    2.250    0.000    0.000 
#    0.000    0.000    0.000    0.000    0.000    0.000 
#
# Total GULP energy -396421.943613 kJ/mol
# GULP energy per Si atom -12388.185738 kJ/mol
# Density = 1.938298 g / cm^3
# Si number density = 19.427193 Si / 1000 Ang^3
#
#
#
# Elastic Constant Matrix: (Units=GPa)
#
#
# Indices 1 2 3 4 5 6 
#
# 1 122.0454 13.1120 30.5497 0.0000 -3.7065 0.0000
# 2 13.1120 23.6219 15.1738 0.0000 5.5861 0.0000
# 3 30.5497 15.1738 60.5664 0.0000 -5.0244 0.0000
# 4 0.0000 0.0000 0.0000 10.5671 0.0000 -1.2070
# 5 -3.7065 5.5861 -5.0244 0.0000 28.4362 0.0000
# 6 0.0000 0.0000 0.0000 -1.2070 0.0000 18.1943
#
#
#
# Elastic Compliance Matrix: (Units=1/GPa)
#
#
# Indices 1 2 3 4 5 6 
#
# 1 0.009545 -0.003021 -0.003963 0.000000 0.001137 0.000000
# 2 -0.003021 0.056058 -0.013667 0.000000 -0.013821 0.000000
# 3 -0.003963 -0.013667 0.022443 0.000000 0.006134 0.000000
# 4 0.000000 0.000000 0.000000 0.095356 0.000000 0.006326
# 5 0.001137 -0.013821 0.006134 0.000000 0.039113 0.000000
# 6 0.000000 0.000000 0.000000 0.006326 0.000000 0.055382
#
#
# Mechanical properties :
#
#
# Convention : Reuss Voigt Hill
#
# Bulk Modulus (GPa) = 21.39368 35.98941 28.69154
# Shear Modulus (GPa) = 14.93517 21.26608 18.10062
#
# Velocity S-wave (km/s) = 2.77569 3.31215 3.05571
# Velocity P-wave (km/s) = 4.61614 5.76130 5.22022
#
# Compressibility (1/GPa) = 0.04674279
#
# Stress axis : x y z
#
# Youngs Moduli (GPa) = 104.76865 17.83868 44.55817
#
# Poissons Ratio (x) = 0.05390 0.17659
# Poissons Ratio (y) = 0.31655 0.60897
# Poissons Ratio (z) = 0.41521 0.24380
#
# Static dielectric constant tensor:
#      x y z
#    x 8.619350 0.000000 3.411030 
#    y 0.000000 3.693040 0.000000 
#    z 3.411030 0.000000 5.420370 
# 
# 
# High freq. dielectric constant tensor:
#      x y z
#    x 1.750540 0.000000 0.018310 
#    y 0.000000 1.726630 0.000000 
#    z 0.018310 0.000000 1.737770 
# 
# From -- ./inp_files/157900.got.cif
#   From: 2010.06.25/outbox.cif.g09.slc.cpg/sg12_79_cif.got.tgz:157900.got - 2010.06.28 00:19:55.
