data_PCOD8079872
_publ_section_title
;
Structure prediction by ZEFSAII (Michael W. Deem and Ramdas Pophale) SiO2 
 PCOD8079872
Probable space group: C 2/M
;
_chemical_formula_sum "Si O2"
_cell_formula_units_Z 64
_cell_length_a 24.680173
_cell_length_b 9.280789
_cell_length_c 21.367917
_cell_angle_alpha 90.000000
_cell_angle_beta 129.106402
_cell_angle_gamma 90.000000
_cell_volume 3797.900115
_symmetry_space_group_name_H-M "C 2/M"
_symmetry_group_IT_number 12
_symmetry_cell_setting 'monoclinic'
loop_
_space_group_symop_operation_xyz
x,y,z
-x,y,-z
-x,-y,-z
x,-y,z
1/2+x,1/2+y,z
1/2-x,1/2+y,-z
1/2-x,1/2-y,-z
1/2+x,1/2-y,z
loop_
_atom_site_type_symbol
_atom_site_label
_atom_site_fract_x
_atom_site_fract_y
_atom_site_fract_z
Si Si1 0.625260 0.671176 0.453327
Si Si2 0.268913 0.328024 0.364575
Si Si3 0.017148 0.833455 0.803368
Si Si4 0.358475 0.667977 0.675990
Si Si5 0.358025 0.166718 0.069769
Si Si6 0.829319 0.830188 0.278764
Si Si7 0.527330 0.671082 0.668299
Si Si8 0.230982 0.166116 0.895083
O O1 0.623462 0.500000 0.453134
O O2 0.679469 0.730768 0.543697
O O3 0.647587 0.722034 0.400291
O O4 0.546970 0.728988 0.412404
O O5 0.262845 0.500000 0.361021
O O6 0.192984 0.261136 0.319119
O O7 0.298065 0.267212 0.320049
O O8 0.066603 0.741241 0.885648
O O9 0.034916 0.783115 0.745945
O O10 0.936074 0.803477 0.758905
O O11 0.034857 0.000000 0.826302
O O12 0.339159 0.500000 0.666676
O O13 0.319538 0.236204 0.100797
O O14 0.369477 0.000000 0.092566
O O15 0.311541 0.190223 0.973491
O O16 0.907149 0.765646 0.323004
O O17 0.777780 0.790436 0.183920
O O18 0.836047 0.000000 0.291159
O O19 0.527566 0.500000 0.665025
O O20 0.208453 0.000000 0.889337
#
# Coordination Sequence:
#
# PCOD8079872 Si02
#       8
#     8   8   8   8   8   8   8   8
#     4   8  15  27  44  69  93 112 148 195 229 261
#     4  10  19  29  45  70  93 116 152 195 227 256
#     4   9  16  29  49  67  88 120 153 184 223 273
#     4   9  18  32  49  66  88 122 156 185 226 275
#     4  10  18  26  44  73  96 114 145 189 229 262
#     4   9  16  27  45  66  92 125 153 178 218 271
#     4   8  13  24  44  66  89 118 148 180 221 267
#     4   9  17  30  45  64  95 128 151 174 215 276
#
# _framework density 16.851417000000001
#
# number of rings (size 3 to 8) (size 9 to 14) (size 15 to 20)
#    0.000    3.000    1.250    2.250    0.000    1.500 
#    0.000    3.125    0.000    1.500    0.000    6.125 
#    0.000    0.000    0.000    0.000    0.000    0.000 
#
# Total GULP energy -396619.272631 kJ/mol
# GULP energy per Si atom -12394.352270 kJ/mol
# Density = 1.681306 g / cm^3
# Si number density = 16.851417 Si / 1000 Ang^3
#
#
#
# Elastic Constant Matrix: (Units=GPa)
#
#
# Indices 1 2 3 4 5 6 
#
# 1 118.0879 25.8956 52.9652 0.0000 13.9485 0.0000
# 2 25.8956 37.3648 31.8360 0.0000 11.0376 0.0000
# 3 52.9652 31.8360 91.5485 0.0000 21.5455 0.0000
# 4 0.0000 0.0000 0.0000 19.7956 0.0000 6.0883
# 5 13.9485 11.0376 21.5455 0.0000 22.5815 0.0000
# 6 0.0000 0.0000 0.0000 6.0883 0.0000 22.4608
#
#
#
# Elastic Compliance Matrix: (Units=1/GPa)
#
#
# Indices 1 2 3 4 5 6 
#
# 1 0.011723 -0.003289 -0.005561 0.000000 -0.000327 0.000000
# 2 -0.003289 0.040022 -0.010173 0.000000 -0.007824 0.000000
# 3 -0.005561 -0.010173 0.020246 0.000000 -0.010909 0.000000
# 4 0.000000 0.000000 0.000000 0.055111 0.000000 -0.014938
# 5 -0.000327 -0.007824 -0.010909 0.000000 0.058719 0.000000
# 6 0.000000 0.000000 0.000000 -0.014938 0.000000 0.048571
#
#
# Mechanical properties :
#
#
# Convention : Reuss Voigt Hill
#
# Bulk Modulus (GPa) = 29.46141 52.04387 40.75264
# Shear Modulus (GPa) = 17.62093 22.05453 19.83773
#
# Velocity S-wave (km/s) = 3.23718 3.62161 3.43478
# Velocity P-wave (km/s) = 5.61190 6.95982 6.32189
#
# Compressibility (1/GPa) = 0.03394271
#
# Stress axis : x y z
#
# Youngs Moduli (GPa) = 85.30555 24.98629 49.39291
#
# Poissons Ratio (x) = 0.08219 0.27469
# Poissons Ratio (y) = 0.28060 0.50249
# Poissons Ratio (z) = 0.47440 0.25419
#
# Static dielectric constant tensor:
#      x y z
#    x 3.139440 0.000000 0.168690 
#    y 0.000000 2.792510 0.000000 
#    z 0.168690 0.000000 3.434320 
# 
# 
# High freq. dielectric constant tensor:
#      x y z
#    x 1.630480 0.000000 0.020170 
#    y 0.000000 1.609950 0.000000 
#    z 0.020170 0.000000 1.655340 
# 
# From -- ./inp_files/348565.got.cif
#   From: 2010.06.25/outbox.cif.g09.slc.cpg/sg12_175_cif.got.tgz:348565.got - 2010.06.28 00:19:55.
