data_PCOD8079730
_publ_section_title
;
Structure prediction by ZEFSAII (Michael W. Deem and Ramdas Pophale) SiO2 
 PCOD8079730
Probable space group: C 2/M
;
_chemical_formula_sum "Si O2"
_cell_formula_units_Z 48
_cell_length_a 18.652269
_cell_length_b 13.675332
_cell_length_c 9.722298
_cell_angle_alpha 90.000000
_cell_angle_beta 71.612912
_cell_angle_gamma 90.000000
_cell_volume 2353.317314
_symmetry_space_group_name_H-M "C 2/M"
_symmetry_group_IT_number 12
_symmetry_cell_setting 'monoclinic'
loop_
_space_group_symop_operation_xyz
x,y,z
-x,y,-z
-x,-y,-z
x,-y,z
1/2+x,1/2+y,z
1/2-x,1/2+y,-z
1/2-x,1/2-y,-z
1/2+x,1/2-y,z
loop_
_atom_site_type_symbol
_atom_site_label
_atom_site_fract_x
_atom_site_fract_y
_atom_site_fract_z
Si Si1 0.019693 0.260494 0.194308
Si Si2 0.618111 0.265833 0.877955
Si Si3 0.862330 0.252476 0.662675
Si Si4 0.247252 0.612162 0.103723
Si Si5 0.262370 0.887222 0.215269
Si Si6 0.562978 0.894188 0.575915
O O1 0.060718 0.216842 0.305770
O O2 0.948307 0.194876 0.183900
O O3 0.979840 0.363289 0.258215
O O4 0.080012 0.277477 0.038333
O O5 0.672719 0.355711 0.880127
O O6 0.664453 0.174911 0.782188
O O7 0.820548 0.326160 0.792016
O O8 0.810994 0.157495 0.662579
O O9 0.878662 0.309743 0.510413
O O10 0.233331 0.500000 0.149614
O O11 0.250361 0.629205 0.939027
O O12 0.272155 0.000000 0.250881
O O13 0.500000 0.907427 0.500000
O O14 0.603354 0.000000 0.574610
#
# Coordination Sequence:
#
# PCOD8079730 Si02
#       6
#     8   8   8   8   8   8
#     4  10  19  32  52  75 107 134 161 206 262 301
#     4  10  19  34  51  77 109 132 159 212 265 299
#     4  10  17  35  55  74 101 132 173 213 247 294
#     4  10  18  32  54  76 100 134 177 210 243 298
#     4  10  19  32  52  76 102 136 173 207 248 302
#     4   9  19  32  51  77 103 135 170 204 249 306
#
# _framework density 20.396740000000001
#
# number of rings (size 3 to 8) (size 9 to 14) (size 15 to 20)
#    0.000    2.167    3.333    1.500    0.000    2.000 
#    0.000    7.500    0.000    8.500    0.000    0.000 
#    0.000    0.000    0.000    0.000    0.000    0.000 
#
# Total GULP energy -297387.338745 kJ/mol
# GULP energy per Si atom -12391.139114 kJ/mol
# Density = 2.035032 g / cm^3
# Si number density = 20.396740 Si / 1000 Ang^3
#
#
#
# Elastic Constant Matrix: (Units=GPa)
#
#
# Indices 1 2 3 4 5 6 
#
# 1 98.9693 6.6543 -1.0481 0.0000 -7.8052 0.0000
# 2 6.6543 65.8191 6.1403 0.0000 -13.7287 0.0000
# 3 -1.0481 6.1403 46.8256 0.0000 -13.1489 0.0000
# 4 0.0000 0.0000 0.0000 21.7415 0.0000 -10.9723
# 5 -7.8052 -13.7287 -13.1489 0.0000 17.0611 0.0000
# 6 0.0000 0.0000 0.0000 -10.9723 0.0000 7.9384
#
#
#
# Elastic Compliance Matrix: (Units=1/GPa)
#
#
# Indices 1 2 3 4 5 6 
#
# 1 0.010634 0.000094 0.002059 0.000000 0.006528 0.000000
# 2 0.000094 0.018439 0.002250 0.000000 0.016615 0.000000
# 3 0.002059 0.002250 0.027923 0.000000 0.024272 0.000000
# 4 0.000000 0.000000 0.000000 0.152075 0.000000 0.210196
# 5 0.006528 0.016615 0.024272 0.000000 0.093674 0.000000
# 6 0.000000 0.000000 0.000000 0.210196 0.000000 0.416500
#
#
# Mechanical properties :
#
#
# Convention : Reuss Voigt Hill
#
# Bulk Modulus (GPa) = 15.19725 26.12300 20.66013
# Shear Modulus (GPa) = 6.82711 22.67270 14.74991
#
# Velocity S-wave (km/s) = 1.83151 3.33766 2.69206
# Velocity P-wave (km/s) = 3.45537 5.26199 4.45130
#
# Compressibility (1/GPa) = 0.06580136
#
# Stress axis : x y z
#
# Youngs Moduli (GPa) = 94.03447 54.23208 35.81335
#
# Poissons Ratio (x) = -0.00512 -0.07373
# Poissons Ratio (y) = -0.00887 -0.08057
# Poissons Ratio (z) = -0.19358 -0.12200
#
# Static dielectric constant tensor:
#      x y z
#    x 3.951890 0.000000 -0.080670 
#    y 0.000000 3.575460 0.000000 
#    z -0.080670 0.000000 3.694110 
# 
# 
# High freq. dielectric constant tensor:
#      x y z
#    x 1.808500 0.000000 -0.008280 
#    y 0.000000 1.760380 0.000000 
#    z -0.008280 0.000000 1.783730 
# 
# From -- ./inp_files/155245.got.cif
#   From: 2010.06.25/outbox.cif.g09.slc.cpg/sg12_78_cif.got.tgz:155245.got - 2010.06.28 00:19:55.
