data_PCOD8079024
_publ_section_title
;
Structure prediction by ZEFSAII (Michael W. Deem and Ramdas Pophale) SiO2 
 PCOD8079024
Probable space group: C 2/M
;
_chemical_formula_sum "Si O2"
_cell_formula_units_Z 60
_cell_length_a 16.801986
_cell_length_b 17.911916
_cell_length_c 15.169915
_cell_angle_alpha 90.000000
_cell_angle_beta 44.466416
_cell_angle_gamma 90.000000
_cell_volume 3198.073301
_symmetry_space_group_name_H-M "C 2/M"
_symmetry_group_IT_number 12
_symmetry_cell_setting 'monoclinic'
loop_
_space_group_symop_operation_xyz
x,y,z
-x,y,-z
-x,-y,-z
x,-y,z
1/2+x,1/2+y,z
1/2-x,1/2+y,-z
1/2-x,1/2-y,-z
1/2+x,1/2-y,z
loop_
_atom_site_type_symbol
_atom_site_label
_atom_site_fract_x
_atom_site_fract_y
_atom_site_fract_z
Si Si1 0.001815 0.583342 0.163004
Si Si2 0.784252 0.651493 0.396173
Si Si3 0.298789 0.149999 0.899593
Si Si4 0.379027 0.319240 0.821739
Si Si5 0.134499 0.179237 0.673314
Si Si6 0.200736 0.191153 0.804830
Si Si7 0.628074 0.689134 0.369165
Si Si8 0.000000 0.694584 0.000000
O O1 0.011544 0.500000 0.116171
O O2 0.098824 0.593941 0.160638
O O3 0.882020 0.590416 0.308061
O O4 0.011538 0.643754 0.077365
O O5 0.842556 0.732486 0.346059
O O6 0.720436 0.638013 0.539018
O O7 0.694416 0.639200 0.387963
O O8 0.351665 0.232305 0.854004
O O9 0.234002 0.134720 0.857716
O O10 0.207157 0.135915 0.048709
O O11 0.506610 0.337194 0.747918
O O12 0.363045 0.348210 0.734339
O O13 0.149687 0.147356 0.760939
O O14 0.316115 0.229199 0.678889
O O15 0.112364 0.254335 0.908998
O O16 0.500000 0.700860 0.500000
#
# Coordination Sequence:
#
# PCOD8079024 Si02
#       8
#     8   8   8   8   8   8   8   4
#     4  12  24  38  55  77 121 166 193 219 264 357
#     4  10  20  33  50  77 111 143 193 227 285 338
#     4  10  20  32  49  80 110 145 185 229 289 337
#     4  10  17  29  52  79 109 136 173 241 299 332
#     4  10  17  31  54  81 107 138 178 251 296 328
#     4  10  20  30  55  82 117 136 179 250 291 336
#     4  10  17  28  46  75 105 138 167 226 290 336
#     4  12  19  38  54  90 117 148 192 226 296 340
#
# _framework density 18.761295
#
# number of rings (size 3 to 8) (size 9 to 14) (size 15 to 20)
#    0.000    1.600    5.333    3.400    0.000    0.000 
#    0.000    0.000    0.000    2.800    0.000    3.267 
#    0.000    0.000    0.000    0.000    0.000    0.000 
#
# Total GULP energy -371890.769766 kJ/mol
# GULP energy per Si atom -12396.358992 kJ/mol
# Density = 1.871859 g / cm^3
# Si number density = 18.761295 Si / 1000 Ang^3
#
#
#
# Elastic Constant Matrix: (Units=GPa)
#
#
# Indices 1 2 3 4 5 6 
#
# 1 144.2699 29.4882 63.5582 0.0000 9.0226 0.0000
# 2 29.4882 29.3395 25.9254 0.0000 -0.2746 0.0000
# 3 63.5582 25.9254 132.3731 0.0000 2.9198 0.0000
# 4 0.0000 0.0000 0.0000 9.6736 0.0000 -0.5745
# 5 9.0226 -0.2746 2.9198 0.0000 45.3646 0.0000
# 6 0.0000 0.0000 0.0000 -0.5745 0.0000 8.1463
#
#
#
# Elastic Compliance Matrix: (Units=1/GPa)
#
#
# Indices 1 2 3 4 5 6 
#
# 1 0.009971 -0.007066 -0.003364 0.000000 -0.001809 0.000000
# 2 -0.007066 0.046251 -0.005711 0.000000 0.002053 0.000000
# 3 -0.003364 -0.005711 0.010289 0.000000 -0.000028 0.000000
# 4 0.000000 0.000000 0.000000 0.103808 0.000000 0.007321
# 5 -0.001809 0.002053 -0.000028 0.000000 0.022418 0.000000
# 6 0.000000 0.000000 0.000000 0.007321 0.000000 0.123272
#
#
# Mechanical properties :
#
#
# Convention : Reuss Voigt Hill
#
# Bulk Modulus (GPa) = 29.21469 60.43625 44.82547
# Shear Modulus (GPa) = 13.90050 25.10429 19.50240
#
# Velocity S-wave (km/s) = 2.72493 3.66196 3.22763
# Velocity P-wave (km/s) = 5.05034 7.08259 6.15098
#
# Compressibility (1/GPa) = 0.03422936
#
# Stress axis : x y z
#
# Youngs Moduli (GPa) = 100.29383 21.62109 97.19580
#
# Poissons Ratio (x) = 0.15277 0.32693
# Poissons Ratio (y) = 0.70868 0.55508
# Poissons Ratio (z) = 0.33735 0.12348
#
# Static dielectric constant tensor:
#      x y z
#    x 3.875730 0.000000 0.149860 
#    y 0.000000 2.674600 0.000000 
#    z 0.149860 0.000000 3.774290 
# 
# 
# High freq. dielectric constant tensor:
#      x y z
#    x 1.755140 0.000000 -0.001380 
#    y 0.000000 1.636450 0.000000 
#    z -0.001380 0.000000 1.748650 
# 
# From -- ./inp_files/226321.got.cif
#   From: 2010.06.25/outbox.cif.g09.slc.cpg/sg12_114_cif.got.tgz:226321.got - 2010.06.28 00:19:55.
