data_PCOD8079192
_publ_section_title
;
Structure prediction by ZEFSAII (Michael W. Deem and Ramdas Pophale) SiO2 
 PCOD8079192
Probable space group: C 2/M
;
_chemical_formula_sum "Si O2"
_cell_formula_units_Z 48
_cell_length_a 19.976892
_cell_length_b 10.182422
_cell_length_c 13.747236
_cell_angle_alpha 90.000000
_cell_angle_beta 102.689663
_cell_angle_gamma 90.000000
_cell_volume 2728.064943
_symmetry_space_group_name_H-M "C 2/M"
_symmetry_group_IT_number 12
_symmetry_cell_setting 'monoclinic'
loop_
_space_group_symop_operation_xyz
x,y,z
-x,y,-z
-x,-y,-z
x,-y,z
1/2+x,1/2+y,z
1/2-x,1/2+y,-z
1/2-x,1/2-y,-z
1/2+x,1/2-y,z
loop_
_atom_site_type_symbol
_atom_site_label
_atom_site_fract_x
_atom_site_fract_y
_atom_site_fract_z
Si Si1 0.820069 0.000000 0.385130
Si Si2 0.075597 0.650430 0.056418
Si Si3 0.804491 0.260656 0.274826
Si Si4 0.307153 0.153560 0.061143
Si Si5 0.815754 0.500000 0.405655
Si Si6 0.143551 0.754746 0.260431
Si Si7 0.345427 0.500000 0.611417
Si Si8 0.340483 0.000000 0.625585
O O1 0.837329 0.874596 0.323875
O O2 0.862738 0.000000 0.500950
O O3 0.740703 0.000000 0.386324
O O4 0.078367 0.500000 0.095400
O O5 0.098108 0.750441 0.148535
O O6 0.124918 0.666444 0.980460
O O7 0.000000 0.691503 0.000000
O O8 0.827570 0.292536 0.173299
O O9 0.836425 0.371506 0.353318
O O10 0.722322 0.259543 0.252640
O O11 0.282030 0.000000 0.056803
O O12 0.250000 0.250000 0.000000
O O13 0.735650 0.500000 0.403146
O O14 0.859083 0.500000 0.518113
O O15 0.122734 0.875044 0.323174
O O16 0.125968 0.626800 0.316540
#
# Coordination Sequence:
#
# PCOD8079192 Si02
#       8
#     4   8   8   8   4   8   4   4
#     4   9  18  28  44  72 108 134 163 207 262 316
#     4  10  21  37  55  77 105 141 183 220 256 310
#     4  10  18  29  47  74 104 136 169 211 261 308
#     4  11  22  34  55  80 106 141 178 217 269 313
#     4   9  16  28  42  70 106 130 167 217 260 304
#     4  10  17  29  49  72 101 137 173 209 258 308
#     4   9  18  28  44  73 106 135 159 209 268 315
#     4   9  16  26  46  69  98 137 175 207 256 309
#
# _framework density 17.594889999999999
#
# number of rings (size 3 to 8) (size 9 to 14) (size 15 to 20)
#    0.000    2.167    3.333    1.000    1.167    4.000 
#    0.000    0.417    0.000    0.000    0.000    7.000 
#    0.000    0.000    0.000    0.000    0.000    0.000 
#
# Total GULP energy -297536.241296 kJ/mol
# GULP energy per Si atom -12397.343387 kJ/mol
# Density = 1.755484 g / cm^3
# Si number density = 17.594890 Si / 1000 Ang^3
#
#
#
# Elastic Constant Matrix: (Units=GPa)
#
#
# Indices 1 2 3 4 5 6 
#
# 1 45.6063 28.5920 35.4602 0.0000 0.7790 0.0000
# 2 28.5920 154.8313 81.0073 0.0000 -7.8113 0.0000
# 3 35.4602 81.0073 164.1282 0.0000 -16.4051 0.0000
# 4 0.0000 0.0000 0.0000 36.4150 0.0000 -3.0538
# 5 0.7790 -7.8113 -16.4051 0.0000 14.9413 0.0000
# 6 0.0000 0.0000 0.0000 -3.0538 0.0000 9.7488
#
#
#
# Elastic Compliance Matrix: (Units=1/GPa)
#
#
# Indices 1 2 3 4 5 6 
#
# 1 0.028180 -0.002698 -0.005666 0.000000 -0.009101 0.000000
# 2 -0.002698 0.008966 -0.003774 0.000000 0.000685 0.000000
# 3 -0.005666 -0.003774 0.010123 0.000000 0.009437 0.000000
# 4 0.000000 0.000000 0.000000 0.028202 0.000000 0.008834
# 5 -0.009101 0.000685 0.009437 0.000000 0.078123 0.000000
# 6 0.000000 0.000000 0.000000 0.008834 0.000000 0.105344
#
#
# Mechanical properties :
#
#
# Convention : Reuss Voigt Hill
#
# Bulk Modulus (GPa) = 43.49416 72.74276 58.11846
# Shear Modulus (GPa) = 17.18935 26.85478 22.02206
#
# Velocity S-wave (km/s) = 3.12901 3.91101 3.54166
# Velocity P-wave (km/s) = 6.15042 7.86305 7.05887
#
# Compressibility (1/GPa) = 0.02299159
#
# Stress axis : x y z
#
# Youngs Moduli (GPa) = 35.48679 111.53317 98.78669
#
# Poissons Ratio (x) = 0.30097 0.55973
# Poissons Ratio (y) = 0.09576 0.37280
# Poissons Ratio (z) = 0.20107 0.42090
#
# Static dielectric constant tensor:
#      x y z
#    x 2.707370 0.000000 -0.174750 
#    y 0.000000 3.476880 0.000000 
#    z -0.174750 0.000000 3.495630 
# 
# 
# High freq. dielectric constant tensor:
#      x y z
#    x 1.611380 0.000000 -0.015130 
#    y 0.000000 1.690690 0.000000 
#    z -0.015130 0.000000 1.700700 
# 
# From -- ./inp_files/182282.got.cif
#   From: 2010.06.25/outbox.cif.g09.slc.cpg/sg12_92_cif.got.tgz:182282.got - 2010.06.28 00:19:55.
