data_PCOD8079870
_publ_section_title
;
Structure prediction by ZEFSAII (Michael W. Deem and Ramdas Pophale) SiO2 
 PCOD8079870
Probable space group: C 2/M
;
_chemical_formula_sum "Si O2"
_cell_formula_units_Z 64
_cell_length_a 25.339603
_cell_length_b 9.383612
_cell_length_c 17.492693
_cell_angle_alpha 90.000000
_cell_angle_beta 76.711497
_cell_angle_gamma 90.000000
_cell_volume 4047.993308
_symmetry_space_group_name_H-M "C 2/M"
_symmetry_group_IT_number 12
_symmetry_cell_setting 'monoclinic'
loop_
_space_group_symop_operation_xyz
x,y,z
-x,y,-z
-x,-y,-z
x,-y,z
1/2+x,1/2+y,z
1/2-x,1/2+y,-z
1/2-x,1/2-y,-z
1/2+x,1/2-y,z
loop_
_atom_site_type_symbol
_atom_site_label
_atom_site_fract_x
_atom_site_fract_y
_atom_site_fract_z
Si Si1 0.816095 0.831940 0.595839
Si Si2 0.198390 0.335032 0.988286
Si Si3 0.492270 0.330143 0.416804
Si Si4 0.400251 0.667378 0.699426
Si Si5 0.874036 0.168088 0.424366
Si Si6 0.290498 0.333966 0.326593
Si Si7 0.783032 0.165062 0.155581
Si Si8 0.339999 0.161874 0.839025
O O1 0.856482 0.789931 0.650314
O O2 0.841549 0.773381 0.508551
O O3 0.759437 0.755272 0.626073
O O4 0.805629 0.000000 0.596639
O O5 0.213057 0.500000 0.968708
O O6 0.153795 0.322079 0.070783
O O7 0.250000 0.250000 0.000000
O O8 0.180403 0.260657 0.914605
O O9 0.500000 0.270910 0.500000
O O10 0.493631 0.500000 0.418688
O O11 0.541063 0.275287 0.346920
O O12 0.435342 0.270858 0.402424
O O13 0.401255 0.500000 0.713243
O O14 0.385061 0.740700 0.784420
O O15 0.843568 0.211934 0.356741
O O16 0.877948 0.000000 0.432220
O O17 0.276626 0.500000 0.342710
O O18 0.303134 0.300396 0.234086
O O19 0.719967 0.208549 0.168764
O O20 0.791063 0.000000 0.131192
O O21 0.350378 0.000000 0.810182
#
# Coordination Sequence:
#
# PCOD8079870 Si02
#       8
#     8   8   8   8   8   8   8   8
#     4  10  18  28  43  66  90 117 153 186 220 263
#     4   9  17  28  43  63  87 117 147 175 214 264
#     4   9  15  27  45  65  88 113 148 194 229 255
#     4  10  18  26  44  69  88 113 150 187 221 256
#     4   9  17  29  45  63  87 120 155 189 225 262
#     4  10  19  30  44  64  91 123 152 180 221 270
#     4   9  17  28  41  61  89 119 147 176 216 264
#     4   9  17  29  42  60  90 119 141 172 218 270
#
# _framework density 15.810302
#
# number of rings (size 3 to 8) (size 9 to 14) (size 15 to 20)
#    0.000    2.625    2.500    1.500    0.000    3.000 
#    0.000    0.000    0.000    1.875    0.000    0.875 
#    0.000    7.000    0.000    0.000    0.000    0.000 
#
# Total GULP energy -396668.320828 kJ/mol
# GULP energy per Si atom -12395.885026 kJ/mol
# Density = 1.577432 g / cm^3
# Si number density = 15.810302 Si / 1000 Ang^3
#
#
#
# Elastic Constant Matrix: (Units=GPa)
#
#
# Indices 1 2 3 4 5 6 
#
# 1 101.1160 30.3956 59.1543 0.0000 -0.9221 0.0000
# 2 30.3956 41.5180 44.8610 0.0000 -5.2360 0.0000
# 3 59.1543 44.8610 131.3652 0.0000 -6.8502 0.0000
# 4 0.0000 0.0000 0.0000 23.6526 0.0000 -3.2011
# 5 -0.9221 -5.2360 -6.8502 0.0000 16.1389 0.0000
# 6 0.0000 0.0000 0.0000 -3.2011 0.0000 13.1706
#
#
#
# Elastic Compliance Matrix: (Units=1/GPa)
#
#
# Indices 1 2 3 4 5 6 
#
# 1 0.014324 -0.005911 -0.004591 0.000000 -0.003048 0.000000
# 2 -0.005911 0.041401 -0.011038 0.000000 0.008409 0.000000
# 3 -0.004591 -0.011038 0.013548 0.000000 0.001907 0.000000
# 4 0.000000 0.000000 0.000000 0.043717 0.000000 0.010625
# 5 -0.003048 0.008409 0.001907 0.000000 0.065326 0.000000
# 6 0.000000 0.000000 0.000000 0.010625 0.000000 0.078509
#
#
# Mechanical properties :
#
#
# Convention : Reuss Voigt Hill
#
# Bulk Modulus (GPa) = 38.17651 60.31346 49.24499
# Shear Modulus (GPa) = 16.20034 19.89831 18.04933
#
# Velocity S-wave (km/s) = 3.20452 3.55148 3.38245
# Velocity P-wave (km/s) = 6.15556 7.41946 6.81686
#
# Compressibility (1/GPa) = 0.02619412
#
# Stress axis : x y z
#
# Youngs Moduli (GPa) = 69.81156 24.15419 73.80913
#
# Poissons Ratio (x) = 0.14278 0.33883
# Poissons Ratio (y) = 0.41266 0.81471
# Poissons Ratio (z) = 0.32048 0.26661
#
# Static dielectric constant tensor:
#      x y z
#    x 2.908180 0.000000 0.025700 
#    y 0.000000 2.837680 0.000000 
#    z 0.025700 0.000000 3.365220 
# 
# 
# High freq. dielectric constant tensor:
#      x y z
#    x 1.570950 0.000000 -0.001440 
#    y 0.000000 1.585620 0.000000 
#    z -0.001440 0.000000 1.616710 
# 
# From -- ./inp_files/287517.got.cif
#   From: 2010.06.25/outbox.cif.g09.slc.cpg/sg12_144_cif.got.tgz:287517.got - 2010.06.28 00:19:55.
