data_PCOD8079226
_publ_section_title
;
Structure prediction by ZEFSAII (Michael W. Deem and Ramdas Pophale) SiO2 
 PCOD8079226
Probable space group: C 2/M
;
_chemical_formula_sum "Si O2"
_cell_formula_units_Z 48
_cell_length_a 19.160997
_cell_length_b 17.823751
_cell_length_c 14.577781
_cell_angle_alpha 90.000000
_cell_angle_beta 32.231721
_cell_angle_gamma 90.000000
_cell_volume 2655.318346
_symmetry_space_group_name_H-M "C 2/M"
_symmetry_group_IT_number 12
_symmetry_cell_setting 'monoclinic'
loop_
_space_group_symop_operation_xyz
x,y,z
-x,y,-z
-x,-y,-z
x,-y,z
1/2+x,1/2+y,z
1/2-x,1/2+y,-z
1/2-x,1/2-y,-z
1/2+x,1/2-y,z
loop_
_atom_site_type_symbol
_atom_site_label
_atom_site_fract_x
_atom_site_fract_y
_atom_site_fract_z
Si Si1 0.997751 0.413645 0.895022
Si Si2 0.143491 0.382084 0.250068
Si Si3 0.884149 0.766512 0.799347
Si Si4 0.851086 0.418913 0.559302
Si Si5 0.232227 0.084106 0.080316
Si Si6 0.632134 0.196269 0.611492
O O1 0.040862 0.500000 0.831200
O O2 0.099952 0.358427 0.732214
O O3 0.000000 0.393842 0.000000
O O4 0.855463 0.400081 0.009007
O O5 0.113696 0.292369 0.287024
O O6 0.211253 0.402834 0.270960
O O7 0.007629 0.425299 0.390928
O O8 0.232361 0.407214 0.066186
O O9 0.880409 0.853902 0.770967
O O10 0.007558 0.748310 0.726657
O O11 0.750000 0.750000 0.000000
O O12 0.798744 0.500000 0.583441
O O13 0.812584 0.353843 0.532828
O O14 0.177521 0.000000 0.158372
O O15 0.750000 0.250000 0.500000
#
# Coordination Sequence:
#
# PCOD8079226 Si02
#       6
#     8   8   8   8   8   8
#     4  10  20  35  57  79 103 144 194 232 265 321
#     4   9  16  26  51  80 102 127 167 223 269 310
#     4   9  17  33  53  76 108 137 179 219 267 321
#     4  10  17  29  50  77 104 132 170 216 268 316
#     4  10  17  31  54  77 103 136 183 227 262 311
#     4  11  22  36  51  81 114 143 175 220 280 330
#
# _framework density 18.076929
#
# number of rings (size 3 to 8) (size 9 to 14) (size 15 to 20)
#    0.000    2.167    5.000    2.500    0.000    1.333 
#    0.000    1.667    0.000    0.000    0.000   18.667 
#    0.000    0.000    0.000    0.000    0.000    0.000 
#
# Total GULP energy -297363.133071 kJ/mol
# GULP energy per Si atom -12390.130545 kJ/mol
# Density = 1.803578 g / cm^3
# Si number density = 18.076929 Si / 1000 Ang^3
#
#
#
# Elastic Constant Matrix: (Units=GPa)
#
#
# Indices 1 2 3 4 5 6 
#
# 1 107.0553 64.6711 40.9960 -0.0003 9.6128 0.0002
# 2 64.6711 168.9275 43.3287 -0.0001 -6.5333 0.0001
# 3 40.9960 43.3287 43.7054 -0.0006 -6.6458 0.0004
# 4 -0.0003 -0.0001 -0.0006 28.4916 0.0004 -3.7638
# 5 9.6128 -6.5333 -6.6458 0.0004 22.0340 -0.0002
# 6 0.0002 0.0001 0.0004 -3.7638 -0.0002 18.2023
#
#
#
# Elastic Compliance Matrix: (Units=1/GPa)
#
#
# Indices 1 2 3 4 5 6 
#
# 1 0.019198 -0.003656 -0.016583 0.000000 -0.014461 0.000000
# 2 -0.003656 0.008634 -0.004715 0.000000 0.002733 0.000000
# 3 -0.016583 -0.004715 0.046112 0.000000 0.019745 -0.000001
# 4 0.000000 0.000000 0.000000 0.036084 0.000000 0.007461
# 5 -0.014461 0.002733 0.019745 0.000000 0.058459 0.000000
# 6 0.000000 0.000000 -0.000001 0.007461 0.000000 0.056481
#
#
# Mechanical properties :
#
#
# Convention : Reuss Voigt Hill
#
# Bulk Modulus (GPa) = 41.60217 68.63110 55.11663
# Shear Modulus (GPa) = 17.67485 25.12508 21.39997
#
# Velocity S-wave (km/s) = 3.13030 3.73218 3.44441
# Velocity P-wave (km/s) = 6.01074 7.52468 6.80991
#
# Compressibility (1/GPa) = 0.02403721
#
# Stress axis : x y z
#
# Youngs Moduli (GPa) = 52.08889 115.81659 21.68617
#
# Poissons Ratio (x) = 0.42337 0.35962
# Poissons Ratio (y) = 0.19041 0.10226
# Poissons Ratio (z) = 0.86377 0.54613
#
# Static dielectric constant tensor:
#      x y z
#    x 3.578740 0.000000 0.234650 
#    y 0.000000 4.195250 0.000000 
#    z 0.234650 0.000000 3.122840 
# 
# 
# High freq. dielectric constant tensor:
#      x y z
#    x 1.685320 0.000000 0.021790 
#    y 0.000000 1.724030 0.000000 
#    z 0.021790 0.000000 1.652270 
# 
# From -- ./inp_files/226736.got.cif
#   From: 2010.06.25/outbox.cif.g09.slc.cpg/sg12_114_cif.got.tgz:226736.got - 2010.06.28 00:19:55.
