data_PCOD8079761
_publ_section_title
;
Structure prediction by ZEFSAII (Michael W. Deem and Ramdas Pophale) SiO2 
 PCOD8079761
Probable space group: C 2/M
;
_chemical_formula_sum "Si O2"
_cell_formula_units_Z 64
_cell_length_a 20.921370
_cell_length_b 14.691398
_cell_length_c 29.129416
_cell_angle_alpha 90.000000
_cell_angle_beta 20.694870
_cell_angle_gamma 90.000000
_cell_volume 3164.030156
_symmetry_space_group_name_H-M "C 2/M"
_symmetry_group_IT_number 12
_symmetry_cell_setting 'monoclinic'
loop_
_space_group_symop_operation_xyz
x,y,z
-x,y,-z
-x,-y,-z
x,-y,z
1/2+x,1/2+y,z
1/2-x,1/2+y,-z
1/2-x,1/2-y,-z
1/2+x,1/2-y,z
loop_
_atom_site_type_symbol
_atom_site_label
_atom_site_fract_x
_atom_site_fract_y
_atom_site_fract_z
Si Si1 0.470641 0.692858 0.599058
Si Si2 0.886685 0.791134 0.755742
Si Si3 0.018784 0.100575 0.800795
Si Si4 0.329096 0.893549 0.024179
Si Si5 0.503282 0.099188 0.314675
Si Si6 0.621411 0.778635 0.778412
Si Si7 0.753004 0.842868 0.436566
Si Si8 0.198442 0.599578 0.644319
O O1 0.373117 0.672691 0.712870
O O2 0.326401 0.723759 0.658249
O O3 0.628984 0.766969 0.496829
O O4 0.582027 0.605511 0.506094
O O5 0.743001 0.849658 0.880279
O O6 0.849513 0.681266 0.780939
O O7 0.090728 0.800054 0.636834
O O8 0.056119 0.174683 0.815345
O O9 0.158729 0.100984 0.664322
O O10 0.817474 0.118152 0.917350
O O11 0.030583 0.000000 0.815380
O O12 0.376385 0.000000 0.000574
O O13 0.503862 0.835003 0.893727
O O14 0.371896 0.095259 0.447219
O O15 0.382705 0.115199 0.351075
O O16 0.601299 0.000000 0.246552
O O17 0.607229 0.826708 0.738744
O O18 0.150138 0.500000 0.696370
#
# Coordination Sequence:
#
# PCOD8079761 Si02
#       8
#     8   8   8   8   8   8   8   8
#     4  11  21  36  58  84 119 157 182 235 299 343
#     4  10  19  38  61  83 112 149 201 246 283 328
#     4  10  21  38  63  87 111 152 199 243 286 335
#     4  10  23  42  64  84 109 153 202 244 286 336
#     4  10  18  31  57  90 116 144 189 241 294 341
#     4  12  24  39  55  82 126 154 189 232 287 353
#     4  10  17  36  58  86 115 152 190 247 283 342
#     4  11  21  34  55  83 116 156 189 226 288 351
#
# _framework density 20.227367000000001
#
# number of rings (size 3 to 8) (size 9 to 14) (size 15 to 20)
#    0.000    1.500    3.750    3.000    0.000    3.000 
#    0.000    6.250    0.000    0.000    0.000    4.375 
#    0.000    0.000    0.000    0.000    0.000    0.000 
#
# Total GULP energy -396708.934829 kJ/mol
# GULP energy per Si atom -12397.154213 kJ/mol
# Density = 2.018133 g / cm^3
# Si number density = 20.227367 Si / 1000 Ang^3
#
#
#
# Elastic Constant Matrix: (Units=GPa)
#
#
# Indices 1 2 3 4 5 6 
#
# 1 33.8236 16.5450 10.8425 0.0170 6.0372 -0.0055
# 2 16.5450 119.6850 23.6698 -0.0102 14.6302 0.0150
# 3 10.8425 23.6698 54.2727 -0.1477 9.9200 0.0520
# 4 0.0170 -0.0102 -0.1477 22.5914 0.0252 5.4032
# 5 6.0372 14.6302 9.9200 0.0252 20.9333 0.0200
# 6 -0.0055 0.0150 0.0520 5.4032 0.0200 18.9152
#
#
#
# Elastic Compliance Matrix: (Units=1/GPa)
#
#
# Indices 1 2 3 4 5 6 
#
# 1 0.033441 -0.003102 -0.004337 -0.000060 -0.005421 0.000047
# 2 -0.003102 0.009921 -0.002850 -0.000008 -0.004688 0.000006
# 3 -0.004337 -0.002850 0.021834 0.000177 -0.007104 -0.000102
# 4 -0.000060 -0.000008 0.000177 0.047512 -0.000105 -0.013572
# 5 -0.005421 -0.004688 -0.007104 -0.000105 0.055978 -0.000007
# 6 0.000047 0.000006 -0.000102 -0.013572 -0.000007 0.056745
#
#
# Mechanical properties :
#
#
# Convention : Reuss Voigt Hill
#
# Bulk Modulus (GPa) = 22.41325 34.43288 28.42307
# Shear Modulus (GPa) = 19.16581 22.93625 21.05103
#
# Velocity S-wave (km/s) = 3.08152 3.37103 3.22952
# Velocity P-wave (km/s) = 4.87501 5.67553 5.29043
#
# Compressibility (1/GPa) = 0.04461646
#
# Stress axis : x y z
#
# Youngs Moduli (GPa) = 29.90379 100.79750 45.80018
#
# Poissons Ratio (x) = 0.31272 0.19864
# Poissons Ratio (y) = 0.09277 0.13053
# Poissons Ratio (z) = 0.12969 0.28728
#
# Static dielectric constant tensor:
#      x y z
#    x 3.488850 0.000000 0.189160 
#    y 0.000000 3.858310 0.000160 
#    z 0.189160 0.000160 3.513110 
# 
# 
# High freq. dielectric constant tensor:
#      x y z
#    x 1.776270 0.000000 0.017910 
#    y 0.000000 1.798080 0.000020 
#    z 0.017910 0.000020 1.768530 
# 
# From -- ./inp_files/381454.got.cif
#   From: 2010.06.25/outbox.cif.g09.slc.cpg/sg12_191_cif.got.tgz:381454.got - 2010.06.28 00:19:55.
