data_PCOD8079008
_publ_section_title
;
Structure prediction by ZEFSAII (Michael W. Deem and Ramdas Pophale) SiO2 
 PCOD8079008
Probable space group: C 2/M
;
_chemical_formula_sum "Si O2"
_cell_formula_units_Z 56
_cell_length_a 20.284943
_cell_length_b 8.970617
_cell_length_c 20.827866
_cell_angle_alpha 90.000000
_cell_angle_beta 129.975074
_cell_angle_gamma 90.000000
_cell_volume 2904.379174
_symmetry_space_group_name_H-M "C 2/M"
_symmetry_group_IT_number 12
_symmetry_cell_setting 'monoclinic'
loop_
_space_group_symop_operation_xyz
x,y,z
-x,y,-z
-x,-y,-z
x,-y,z
1/2+x,1/2+y,z
1/2-x,1/2+y,-z
1/2-x,1/2-y,-z
1/2+x,1/2-y,z
loop_
_atom_site_type_symbol
_atom_site_label
_atom_site_fract_x
_atom_site_fract_y
_atom_site_fract_z
Si Si1 0.260767 0.324153 0.773581
Si Si2 0.494678 0.325488 0.196916
Si Si3 0.046466 0.334978 0.420093
Si Si4 0.547838 0.675531 0.091706
Si Si5 0.604598 0.176950 0.758510
Si Si6 0.849058 0.667563 0.640331
Si Si7 0.808328 0.321630 0.404993
O O1 0.268487 0.500000 0.771198
O O2 0.355892 0.254242 0.841836
O O3 0.201349 0.282554 0.797735
O O4 0.213844 0.263338 0.680238
O O5 0.491044 0.500000 0.208427
O O6 0.489331 0.290556 0.117501
O O7 0.415053 0.248535 0.184390
O O8 0.585569 0.263818 0.276510
O O9 0.014667 0.500000 0.418343
O O10 0.122032 0.337216 0.414923
O O11 0.094212 0.267682 0.513440
O O12 0.962210 0.254690 0.337014
O O13 0.558931 0.500000 0.088835
O O14 0.500000 0.746112 0.000000
O O15 0.589437 0.000000 0.755404
O O16 0.844898 0.500000 0.665792
O O17 0.757315 0.746624 0.586592
O O18 0.802185 0.500000 0.407305
#
# Coordination Sequence:
#
# PCOD8079008 Si02
#       7
#     8   8   8   8   8   8   8
#     4   9  17  30  50  74  99 131 167 205 247 293
#     4  10  18  32  54  76  98 129 168 205 242 293
#     4   8  16  27  42  67  97 130 166 207 244 283
#     4   9  17  31  53  80 102 122 159 207 250 292
#     4   9  18  33  50  71 103 136 166 199 248 297
#     4  10  18  29  45  70 102 133 164 202 253 295
#     4  10  17  28  46  69  97 129 173 211 240 283
#
# _framework density 19.281229
#
# number of rings (size 3 to 8) (size 9 to 14) (size 15 to 20)
#    0.000    2.714    1.429    2.143    0.000    0.571 
#    0.000    7.143    0.000    1.714    0.000    5.000 
#    0.000    0.000    0.000    0.000    0.000    0.000 
#
# Total GULP energy -346904.469628 kJ/mol
# GULP energy per Si atom -12389.445344 kJ/mol
# Density = 1.923734 g / cm^3
# Si number density = 19.281229 Si / 1000 Ang^3
#
#
#
# Elastic Constant Matrix: (Units=GPa)
#
#
# Indices 1 2 3 4 5 6 
#
# 1 94.6647 23.5463 44.6317 0.0000 5.6362 0.0000
# 2 23.5463 39.0057 17.2643 0.0000 -2.6114 0.0000
# 3 44.6317 17.2643 120.0500 0.0000 -9.1196 0.0000
# 4 0.0000 0.0000 0.0000 12.2659 0.0000 -2.3673
# 5 5.6362 -2.6114 -9.1196 0.0000 13.7920 0.0000
# 6 0.0000 0.0000 0.0000 -2.3673 0.0000 22.5254
#
#
#
# Elastic Compliance Matrix: (Units=1/GPa)
#
#
# Indices 1 2 3 4 5 6 
#
# 1 0.015892 -0.007870 -0.005668 0.000000 -0.011732 0.000000
# 2 -0.007870 0.031375 -0.000938 0.000000 0.008537 0.000000
# 3 -0.005668 -0.000938 0.011302 0.000000 0.009612 0.000000
# 4 0.000000 0.000000 0.000000 0.083215 0.000000 0.008746
# 5 -0.011732 0.008537 0.009612 0.000000 0.085272 0.000000
# 6 0.000000 0.000000 0.000000 0.008746 0.000000 0.045313
#
#
# Mechanical properties :
#
#
# Convention : Reuss Voigt Hill
#
# Bulk Modulus (GPa) = 33.76352 47.17834 40.47093
# Shear Modulus (GPa) = 16.06725 20.93521 18.50123
#
# Velocity S-wave (km/s) = 2.88984 3.29869 3.10101
# Velocity P-wave (km/s) = 5.35575 6.24741 5.81869
#
# Compressibility (1/GPa) = 0.02961776
#
# Stress axis : x y z
#
# Youngs Moduli (GPa) = 62.92539 31.87282 88.48035
#
# Poissons Ratio (x) = 0.25085 0.50147
# Poissons Ratio (y) = 0.49524 0.08295
# Poissons Ratio (z) = 0.35664 0.02988
#
# Static dielectric constant tensor:
#      x y z
#    x 3.555880 0.000000 -0.013330 
#    y 0.000000 3.107120 0.000000 
#    z -0.013330 0.000000 3.652330 
# 
# 
# High freq. dielectric constant tensor:
#      x y z
#    x 1.751100 0.000000 -0.003670 
#    y 0.000000 1.696820 0.000000 
#    z -0.003670 0.000000 1.739830 
# 
# From -- ./inp_files/319677.got.cif
#   From: 2010.06.25/outbox.cif.g09.slc.cpg/sg12_160_cif.got.tgz:319677.got - 2010.06.28 00:19:55.
