data_PCOD8079897
_publ_section_title
;
Structure prediction by ZEFSAII (Michael W. Deem and Ramdas Pophale) SiO2 
 PCOD8079897
Probable space group: C 2/M
;
_chemical_formula_sum "Si O2"
_cell_formula_units_Z 64
_cell_length_a 22.868073
_cell_length_b 9.075653
_cell_length_c 20.839124
_cell_angle_alpha 90.000000
_cell_angle_beta 115.873722
_cell_angle_gamma 90.000000
_cell_volume 3891.460593
_symmetry_space_group_name_H-M "C 2/M"
_symmetry_group_IT_number 12
_symmetry_cell_setting 'monoclinic'
loop_
_space_group_symop_operation_xyz
x,y,z
-x,y,-z
-x,-y,-z
x,-y,z
1/2+x,1/2+y,z
1/2-x,1/2+y,-z
1/2-x,1/2-y,-z
1/2+x,1/2-y,z
loop_
_atom_site_type_symbol
_atom_site_label
_atom_site_fract_x
_atom_site_fract_y
_atom_site_fract_z
Si Si1 0.889536 0.334172 0.849706
Si Si2 0.513135 0.174639 0.609713
Si Si3 0.537478 0.833541 0.876114
Si Si4 0.998931 0.173184 0.735271
Si Si5 0.855634 0.828018 0.711028
Si Si6 0.600057 0.825991 0.535824
Si Si7 0.074250 0.833475 0.013397
Si Si8 0.759777 0.325358 0.437111
O O1 0.864124 0.500000 0.847510
O O2 0.847355 0.257293 0.774025
O O3 0.880966 0.245739 0.911974
O O4 0.964177 0.333361 0.865425
O O5 0.522940 0.260810 0.680076
O O6 0.446251 0.228783 0.544180
O O7 0.572494 0.223224 0.591759
O O8 0.512665 0.000000 0.622641
O O9 0.542344 0.746209 0.811702
O O10 0.562764 0.000000 0.878662
O O11 0.582303 0.752572 0.950149
O O12 0.923174 0.212155 0.708762
O O13 0.011263 0.000000 0.742535
O O14 0.797973 0.775594 0.637252
O O15 0.851825 0.000000 0.725089
O O16 0.672816 0.766076 0.560886
O O17 0.598714 0.000000 0.533178
O O18 0.099137 0.000000 0.016288
O O19 0.000000 0.832483 0.000000
O O20 0.760490 0.500000 0.447234
O O21 0.750000 0.250000 0.500000
#
# Coordination Sequence:
#
# PCOD8079897 Si02
#       8
#     8   8   8   8   8   8   8   8
#     4   9  16  25  38  55  77 108 145 178 206 243
#     4   9  16  29  47  63  80 107 142 177 212 253
#     4   9  16  25  37  55  79 109 144 176 205 245
#     4  10  18  27  39  59  86 113 140 173 214 254
#     4   9  18  29  40  57  84 114 142 173 212 256
#     4   8  16  30  47  64  82 107 141 177 213 254
#     4   9  15  23  36  54  79 110 140 172 211 250
#     4  10  19  31  46  64  86 112 141 175 214 255
#
# _framework density 16.446268
#
# number of rings (size 3 to 8) (size 9 to 14) (size 15 to 20)
#    0.000    2.875    0.000    3.000    0.000    5.500 
#    0.000    1.875    0.000    0.000    0.000    0.000 
#    0.000    1.000    0.000    2.750    0.000    4.000 
#
# Total GULP energy -396745.749528 kJ/mol
# GULP energy per Si atom -12398.304673 kJ/mol
# Density = 1.640884 g / cm^3
# Si number density = 16.446268 Si / 1000 Ang^3
#
#
#
# Elastic Constant Matrix: (Units=GPa)
#
#
# Indices 1 2 3 4 5 6 
#
# 1 61.2641 28.6147 50.5324 0.0000 -9.9785 0.0000
# 2 28.6147 93.2720 70.5358 0.0000 -12.8173 0.0000
# 3 50.5324 70.5358 163.2945 0.0000 -23.3050 0.0000
# 4 0.0000 0.0000 0.0000 33.6298 0.0000 -7.7167
# 5 -9.9785 -12.8173 -23.3050 0.0000 20.7056 0.0000
# 6 0.0000 0.0000 0.0000 -7.7167 0.0000 12.8247
#
#
#
# Elastic Compliance Matrix: (Units=1/GPa)
#
#
# Indices 1 2 3 4 5 6 
#
# 1 0.022452 -0.002286 -0.005502 0.000000 0.003212 0.000000
# 2 -0.002286 0.016266 -0.006004 0.000000 0.002211 0.000000
# 3 -0.005502 -0.006004 0.011331 0.000000 0.006386 0.000000
# 4 0.000000 0.000000 0.000000 0.034499 0.000000 0.020758
# 5 0.003212 0.002211 0.006386 0.000000 0.058400 0.000000
# 6 0.000000 0.000000 0.000000 0.020758 0.000000 0.090465
#
#
# Mechanical properties :
#
#
# Convention : Reuss Voigt Hill
#
# Bulk Modulus (GPa) = 44.51004 68.57737 56.54370
# Shear Modulus (GPa) = 18.62305 24.64188 21.63246
#
# Velocity S-wave (km/s) = 3.36870 3.87502 3.63070
# Velocity P-wave (km/s) = 6.50027 7.86190 7.21328
#
# Compressibility (1/GPa) = 0.02246684
#
# Stress axis : x y z
#
# Youngs Moduli (GPa) = 44.53984 61.47631 88.25196
#
# Poissons Ratio (x) = 0.14051 0.48557
# Poissons Ratio (y) = 0.10180 0.52983
# Poissons Ratio (z) = 0.24506 0.36908
#
# Static dielectric constant tensor:
#      x y z
#    x 2.916810 0.000000 -0.037250 
#    y 0.000000 3.081840 0.000000 
#    z -0.037250 0.000000 3.229670 
# 
# 
# High freq. dielectric constant tensor:
#      x y z
#    x 1.575860 0.000000 -0.016880 
#    y 0.000000 1.631930 0.000000 
#    z -0.016880 0.000000 1.643180 
# 
# From -- ./inp_files/323728.got.cif
#   From: 2010.06.25/outbox.cif.g09.slc.cpg/sg12_162_cif.got.tgz:323728.got - 2010.06.28 00:19:55.
