data_PCOD8079655
_publ_section_title
;
Structure prediction by ZEFSAII (Michael W. Deem and Ramdas Pophale) SiO2 
 PCOD8079655
Probable space group: C 2/M
;
_chemical_formula_sum "Si O2"
_cell_formula_units_Z 36
_cell_length_a 13.596970
_cell_length_b 17.971956
_cell_length_c 8.678169
_cell_angle_alpha 90.000000
_cell_angle_beta 114.556911
_cell_angle_gamma 90.000000
_cell_volume 1928.819770
_symmetry_space_group_name_H-M "C 2/M"
_symmetry_group_IT_number 12
_symmetry_cell_setting 'monoclinic'
loop_
_space_group_symop_operation_xyz
x,y,z
-x,y,-z
-x,-y,-z
x,-y,z
1/2+x,1/2+y,z
1/2-x,1/2+y,-z
1/2-x,1/2-y,-z
1/2+x,1/2-y,z
loop_
_atom_site_type_symbol
_atom_site_label
_atom_site_fract_x
_atom_site_fract_y
_atom_site_fract_z
Si Si1 0.432419 0.735723 0.234621
Si Si2 0.849865 0.713813 0.482327
Si Si3 0.897113 0.917925 0.322809
Si Si4 0.000000 0.328127 0.000000
Si Si5 0.664816 0.915030 0.318651
O O1 0.549648 0.740938 0.385861
O O2 0.347093 0.776675 0.295115
O O3 0.402955 0.647807 0.199188
O O4 0.430276 0.775486 0.068304
O O5 0.750000 0.750000 0.500000
O O6 0.855029 0.626738 0.531483
O O7 0.789308 0.906263 0.352599
O O8 0.000000 0.912134 0.500000
O O9 0.894299 0.000000 0.241239
O O10 0.086791 0.379613 0.140200
O O11 0.631278 0.000000 0.321347
#
# Coordination Sequence:
#
# PCOD8079655 Si02
#       5
#     8   8   8   4   8
#     4  10  19  34  52  82 107 140 183 215 267 319
#     4  10  17  33  56  79 104 135 182 227 260 311
#     4  10  18  32  57  82 105 135 175 227 272 309
#     4  10  23  36  51  78 112 150 176 212 263 328
#     4  10  20  35  55  80 108 141 177 221 271 316
#
# _framework density 18.664263999999999
#
# number of rings (size 3 to 8) (size 9 to 14) (size 15 to 20)
#    0.000    2.000    4.444    0.333    0.000    0.889 
#    0.000   10.556    0.000    0.000    0.000    0.000 
#    0.000    0.000    0.000    0.000    0.000    0.000 
#
# Total GULP energy -223077.370967 kJ/mol
# GULP energy per Si atom -12393.187276 kJ/mol
# Density = 1.862178 g / cm^3
# Si number density = 18.664264 Si / 1000 Ang^3
#
#
#
# Elastic Constant Matrix: (Units=GPa)
#
#
# Indices 1 2 3 4 5 6 
#
# 1 106.4675 56.0955 36.2316 0.0000 -13.3530 0.0000
# 2 56.0955 199.5131 55.0088 0.0000 -23.3163 0.0000
# 3 36.2316 55.0088 64.4015 0.0000 -21.1528 0.0000
# 4 0.0000 0.0000 0.0000 15.9200 0.0000 -4.5636
# 5 -13.3530 -23.3163 -21.1528 0.0000 33.5078 0.0000
# 6 0.0000 0.0000 0.0000 -4.5636 0.0000 33.3941
#
#
#
# Elastic Compliance Matrix: (Units=1/GPa)
#
#
# Indices 1 2 3 4 5 6 
#
# 1 0.012206 -0.002003 -0.005067 0.000000 0.000272 0.000000
# 2 -0.002003 0.006930 -0.004378 0.000000 0.001260 0.000000
# 3 -0.005067 -0.004378 0.025805 0.000000 0.011224 0.000000
# 4 0.000000 0.000000 0.000000 0.065375 0.000000 0.008934
# 5 0.000272 0.001260 0.011224 0.000000 0.037914 0.000000
# 6 0.000000 0.000000 0.000000 0.008934 0.000000 0.031166
#
#
# Mechanical properties :
#
#
# Convention : Reuss Voigt Hill
#
# Bulk Modulus (GPa) = 45.36420 73.89488 59.62954
# Shear Modulus (GPa) = 23.85028 31.43412 27.64220
#
# Velocity S-wave (km/s) = 3.57859 4.10834 3.85258
# Velocity P-wave (km/s) = 6.43687 7.88557 7.19776
#
# Compressibility (1/GPa) = 0.02204381
#
# Stress axis : x y z
#
# Youngs Moduli (GPa) = 81.92458 144.30344 38.75290
#
# Poissons Ratio (x) = 0.28907 0.19636
# Poissons Ratio (y) = 0.16411 0.16967
# Poissons Ratio (z) = 0.41510 0.63181
#
# Static dielectric constant tensor:
#      x y z
#    x 3.900780 0.000000 -0.386730 
#    y 0.000000 3.984120 0.000000 
#    z -0.386730 0.000000 3.569700 
# 
# 
# High freq. dielectric constant tensor:
#      x y z
#    x 1.739500 0.000000 0.007690 
#    y 0.000000 1.740230 0.000000 
#    z 0.007690 0.000000 1.682820 
# 
# From -- ./inp_files/46666.got.cif
#   From: 2010.06.25/outbox.cif.g09.slc.cpg/sg12_24_cif.got.tgz:46666.got - 2010.06.28 00:19:55.
