data_PCOD8079345
_publ_section_title
;
Structure prediction by ZEFSAII (Michael W. Deem and Ramdas Pophale) SiO2 
 PCOD8079345
Probable space group: C 2/M
;
_chemical_formula_sum "Si O2"
_cell_formula_units_Z 56
_cell_length_a 19.272458
_cell_length_b 9.504499
_cell_length_c 28.976859
_cell_angle_alpha 90.000000
_cell_angle_beta 141.815970
_cell_angle_gamma 90.000000
_cell_volume 3281.248708
_symmetry_space_group_name_H-M "C 2/M"
_symmetry_group_IT_number 12
_symmetry_cell_setting 'monoclinic'
loop_
_space_group_symop_operation_xyz
x,y,z
-x,y,-z
-x,-y,-z
x,-y,z
1/2+x,1/2+y,z
1/2-x,1/2+y,-z
1/2-x,1/2-y,-z
1/2+x,1/2-y,z
loop_
_atom_site_type_symbol
_atom_site_label
_atom_site_fract_x
_atom_site_fract_y
_atom_site_fract_z
Si Si1 0.333420 0.666120 0.942373
Si Si2 0.407409 0.339631 0.305260
Si Si3 0.164338 0.836380 0.424906
Si Si4 0.125465 0.836357 0.818149
Si Si5 0.877137 0.166714 0.698093
Si Si6 0.563286 0.334018 0.099342
Si Si7 0.729581 0.667186 0.263708
O O1 0.309470 0.500000 0.930878
O O2 0.219451 0.748399 0.894821
O O3 0.373736 0.720353 0.913312
O O4 0.431563 0.709844 0.030039
O O5 0.379670 0.500000 0.303907
O O6 0.539582 0.310911 0.378893
O O7 0.365734 0.307453 0.231879
O O8 0.345248 0.238215 0.308790
O O9 0.250000 0.750000 0.500000
O O10 0.172637 0.778928 0.376530
O O11 0.196621 0.000000 0.444308
O O12 0.004631 0.780319 0.772589
O O13 0.142669 0.000000 0.838559
O O14 0.798004 0.215847 0.698611
O O15 0.885615 0.000000 0.699054
O O16 0.568331 0.500000 0.100235
O O17 0.626868 0.278004 0.177954
O O18 0.744147 0.500000 0.267886
#
# Coordination Sequence:
#
# PCOD8079345 Si02
#       7
#     8   8   8   8   8   8   8
#     4   9  15  26  42  64  92 120 157 201 235 265
#     4   9  18  31  48  70  97 123 148 188 236 272
#     4   9  18  35  55  74  96 122 151 185 226 273
#     4   9  16  29  46  65  90 123 158 192 232 277
#     4   8  17  32  50  70  95 123 152 190 233 272
#     4   8  15  25  41  65  93 121 152 196 239 267
#     4  10  17  30  51  71  90 122 164 194 222 273
#
# _framework density 17.066673999999999
#
# number of rings (size 3 to 8) (size 9 to 14) (size 15 to 20)
#    0.000    3.143    1.429    2.571    0.000    0.571 
#    0.000    7.143    0.000    4.286    0.000    0.000 
#    0.000    0.000    0.000    0.000    0.000    0.000 
#
# Total GULP energy -347030.052826 kJ/mol
# GULP energy per Si atom -12393.930458 kJ/mol
# Density = 1.702783 g / cm^3
# Si number density = 17.066674 Si / 1000 Ang^3
#
#
#
# Elastic Constant Matrix: (Units=GPa)
#
#
# Indices 1 2 3 4 5 6 
#
# 1 102.2172 36.0590 42.1365 0.0000 0.0732 0.0000
# 2 36.0590 45.9277 38.7798 0.0000 6.6233 -0.0001
# 3 42.1365 38.7798 107.8633 0.0000 4.4625 0.0000
# 4 0.0000 0.0000 0.0000 30.4186 0.0000 7.5019
# 5 0.0732 6.6233 4.4625 0.0000 19.2422 0.0000
# 6 0.0000 -0.0001 0.0000 7.5019 0.0000 21.6170
#
#
#
# Elastic Compliance Matrix: (Units=1/GPa)
#
#
# Indices 1 2 3 4 5 6 
#
# 1 0.014135 -0.009842 -0.002142 0.000000 0.003831 0.000000
# 2 -0.009842 0.039464 -0.009878 0.000000 -0.011256 0.000000
# 3 -0.002142 -0.009878 0.013649 0.000000 0.000243 0.000000
# 4 0.000000 0.000000 0.000000 0.035952 0.000000 -0.012477
# 5 0.003831 -0.011256 0.000243 0.000000 0.055772 0.000000
# 6 0.000000 0.000000 0.000000 -0.012477 0.000000 0.050590
#
#
# Mechanical properties :
#
#
# Convention : Reuss Voigt Hill
#
# Bulk Modulus (GPa) = 42.50814 54.43990 48.47402
# Shear Modulus (GPa) = 19.14773 23.52443 21.33608
#
# Velocity S-wave (km/s) = 3.35317 3.71669 3.53960
# Velocity P-wave (km/s) = 6.32082 7.09831 6.72082
#
# Compressibility (1/GPa) = 0.02352491
#
# Stress axis : x y z
#
# Youngs Moduli (GPa) = 70.74562 25.33939 73.26437
#
# Poissons Ratio (x) = 0.24938 0.15693
# Poissons Ratio (y) = 0.69625 0.72372
# Poissons Ratio (z) = 0.15154 0.25031
#
# Static dielectric constant tensor:
#      x y z
#    x 3.155710 0.000000 -0.026130 
#    y 0.000000 2.843110 0.000000 
#    z -0.026130 0.000000 3.270900 
# 
# 
# High freq. dielectric constant tensor:
#      x y z
#    x 1.643270 0.000000 0.009250 
#    y 0.000000 1.626020 0.000000 
#    z 0.009250 0.000000 1.657060 
# 
# From -- ./inp_files/223355.got.cif
#   From: 2010.06.25/outbox.cif.g09.slc.cpg/sg12_112_cif.got.tgz:223355.got - 2010.06.28 00:19:55.
