data_PCOD8079436
_publ_section_title
;
Structure prediction by ZEFSAII (Michael W. Deem and Ramdas Pophale) SiO2 
 PCOD8079436
Probable space group: C 2/M
;
_chemical_formula_sum "Si O2"
_cell_formula_units_Z 48
_cell_length_a 5.266199
_cell_length_b 32.561764
_cell_length_c 17.203905
_cell_angle_alpha 90.000000
_cell_angle_beta 107.602579
_cell_angle_gamma 90.000000
_cell_volume 2811.938425
_symmetry_space_group_name_H-M "C 2/M"
_symmetry_group_IT_number 12
_symmetry_cell_setting 'monoclinic'
loop_
_space_group_symop_operation_xyz
x,y,z
-x,y,-z
-x,-y,-z
x,-y,z
1/2+x,1/2+y,z
1/2-x,1/2+y,-z
1/2-x,1/2-y,-z
1/2+x,1/2-y,z
loop_
_atom_site_type_symbol
_atom_site_label
_atom_site_fract_x
_atom_site_fract_y
_atom_site_fract_z
Si Si1 0.706759 0.951310 0.956252
Si Si2 0.942471 0.548847 0.230983
Si Si3 0.395402 0.265902 0.346958
Si Si4 0.959992 0.926974 0.677082
Si Si5 0.302640 0.500000 0.553458
Si Si6 0.500000 0.783698 0.500000
Si Si7 0.948582 0.154908 0.582518
O O1 0.610055 0.938338 0.862261
O O2 0.716389 0.000000 0.965074
O O3 0.500000 0.932992 0.000000
O O4 0.000000 0.932981 0.000000
O O5 0.941927 0.500000 0.243055
O O6 0.226594 0.566835 0.281517
O O7 0.704491 0.568845 0.258525
O O8 0.118489 0.242150 0.300001
O O9 0.587055 0.245763 0.435266
O O10 0.327861 0.313951 0.360268
O O11 0.848996 0.959697 0.607111
O O12 0.905296 0.882588 0.636302
O O13 0.500000 0.500000 0.500000
O O14 0.000000 0.500000 0.500000
O O15 0.299502 0.815177 0.441128
O O16 0.000000 0.138265 0.500000
#
# Coordination Sequence:
#
# PCOD8079436 Si02
#       7
#     8   8   8   8   4   4   8
#     4   9  17  30  55  82  95 113 152 197 235 295
#     4  11  21  40  53  69 102 132 159 199 259 317
#     4  10  17  31  49  67  89 113 147 208 263 313
#     4  12  25  35  52  68  94 136 171 212 273 276
#     4  12  24  40  50  60  84 128 194 232 246 272
#     4  10  18  32  50  67  92 117 156 222 268 304
#     4  11  21  32  48  69  91 119 176 225 242 292
#
# _framework density 17.070076
#
# number of rings (size 3 to 8) (size 9 to 14) (size 15 to 20)
#    0.000    1.333    4.167    3.500    3.500    2.667 
#    0.000    0.000    0.000    0.000    0.000    0.000 
#    0.000    0.000    0.000    0.000    0.000  233.333 
#
# Total GULP energy -297415.204333 kJ/mol
# GULP energy per Si atom -12392.300181 kJ/mol
# Density = 1.703122 g / cm^3
# Si number density = 17.070076 Si / 1000 Ang^3
#
#
#
# Elastic Constant Matrix: (Units=GPa)
#
#
# Indices 1 2 3 4 5 6 
#
# 1 103.1686 21.7806 30.8279 0.0000 -11.1117 0.0000
# 2 21.7806 104.4922 37.7031 0.0000 -5.4577 0.0000
# 3 30.8279 37.7031 73.4997 0.0000 -11.3765 0.0000
# 4 0.0000 0.0000 0.0000 10.3377 0.0000 -6.9412
# 5 -11.1117 -5.4577 -11.3765 0.0000 32.2225 0.0000
# 6 0.0000 0.0000 0.0000 -6.9412 0.0000 -3.7871
#
#
#
# Elastic Compliance Matrix: (Units=1/GPa)
#
#
# Indices 1 2 3 4 5 6 
#
# 1 0.011301 -0.000802 -0.003963 0.000000 0.002362 0.000000
# 2 -0.000802 0.011801 -0.005766 0.000000 -0.000313 0.000000
# 3 -0.003963 -0.005766 0.018895 0.000000 0.004328 0.000000
# 4 0.000000 0.000000 0.000000 0.043365 0.000000 -0.079482
# 5 0.002362 -0.000313 0.004328 0.000000 0.033324 0.000000
# 6 0.000000 0.000000 0.000000 -0.079482 0.000000 -0.118373
#
#
# Mechanical properties :
#
#
# Convention : Reuss Voigt Hill
#
# Bulk Modulus (GPa) = 47.76528 51.30930 49.53729
# Shear Modulus (GPa) = 176.34745 20.47785 98.41265
#
# Velocity S-wave (km/s) = 10.17508 3.46733 7.60114
# Velocity P-wave (km/s) = 12.88742 6.79361 10.30143
#
# Compressibility (1/GPa) = 0.02093571
#
# Stress axis : x y z
#
# Youngs Moduli (GPa) = 88.48968 84.73592 52.92367
#
# Poissons Ratio (x) = 0.06799 0.20972
# Poissons Ratio (y) = 0.07100 0.30514
# Poissons Ratio (z) = 0.35066 0.48857
#
# Static dielectric constant tensor:
#      x y z
#    x 3.517500 0.000000 -0.097730 
#    y 0.000000 3.039280 0.000000 
#    z -0.097730 0.000000 2.944250 
# 
# 
# High freq. dielectric constant tensor:
#      x y z
#    x 1.687810 0.000000 -0.009360 
#    y 0.000000 1.637070 0.000000 
#    z -0.009360 0.000000 1.614140 
# 
# From -- ./inp_files/192434.got.cif
#   From: 2010.06.25/outbox.cif.g09.slc.cpg/sg12_97_cif.got.tgz:192434.got - 2010.06.28 00:19:55.
