data_PCOD8079668
_publ_section_title
;
Structure prediction by ZEFSAII (Michael W. Deem and Ramdas Pophale) SiO2 
 PCOD8079668
Probable space group: C 2/M
;
_chemical_formula_sum "Si O2"
_cell_formula_units_Z 64
_cell_length_a 28.658594
_cell_length_b 9.036210
_cell_length_c 15.484759
_cell_angle_alpha 90.000000
_cell_angle_beta 57.065182
_cell_angle_gamma 90.000000
_cell_volume 3365.561277
_symmetry_space_group_name_H-M "C 2/M"
_symmetry_group_IT_number 12
_symmetry_cell_setting 'monoclinic'
loop_
_space_group_symop_operation_xyz
x,y,z
-x,y,-z
-x,-y,-z
x,-y,z
1/2+x,1/2+y,z
1/2-x,1/2+y,-z
1/2-x,1/2-y,-z
1/2+x,1/2-y,z
loop_
_atom_site_type_symbol
_atom_site_label
_atom_site_fract_x
_atom_site_fract_y
_atom_site_fract_z
Si Si1 0.367933 0.324464 0.967999
Si Si2 0.133954 0.173471 0.517378
Si Si3 0.864041 0.826969 0.291252
Si Si4 0.935572 0.673098 0.558332
Si Si5 0.132241 0.325135 0.205544
Si Si6 0.750290 0.824802 0.151096
Si Si7 0.745408 0.175823 0.352125
Si Si8 0.562332 0.323655 0.937545
O O1 0.369304 0.500000 0.957201
O O2 0.305439 0.264416 0.048494
O O3 0.407066 0.270462 0.006429
O O4 0.390887 0.252694 0.857000
O O5 0.113237 0.206802 0.635837
O O6 0.089270 0.241799 0.497944
O O7 0.194117 0.245295 0.448746
O O8 0.138833 0.000000 0.494742
O O9 0.801266 0.767114 0.342891
O O10 0.905534 0.757228 0.178262
O O11 0.860943 0.000000 0.275444
O O12 0.925500 0.500000 0.553018
O O13 0.905460 0.725518 0.676080
O O14 0.000000 0.713640 0.500000
O O15 0.129262 0.500000 0.196251
O O16 0.195267 0.268653 0.157500
O O17 0.748486 0.768038 0.250709
O O18 0.752199 0.000000 0.150787
O O19 0.736701 0.000000 0.366932
O O20 0.561332 0.500000 0.934526
O O21 0.500000 0.259261 0.000000
#
# Coordination Sequence:
#
# PCOD8079668 Si02
#       8
#     8   8   8   8   8   8   8   8
#     4  10  19  32  54  82 106 135 177 217 261 316
#     4  11  22  34  53  85 117 138 169 224 284 322
#     4   9  18  32  52  78 109 145 179 219 269 320
#     4  10  22  41  61  77 100 145 195 223 253 318
#     4  10  20  35  54  77 105 136 173 218 268 315
#     4   9  16  30  54  78 101 136 178 215 256 312
#     4  10  17  33  58  77 105 147 186 217 257 325
#     4   9  17  31  52  77 105 139 180 219 258 315
#
# _framework density 19.016145999999999
#
# number of rings (size 3 to 8) (size 9 to 14) (size 15 to 20)
#    0.000    2.250    2.500    1.125    0.000    1.750 
#    0.000    2.500    0.000    1.875    0.000    0.000 
#    0.000    0.000    0.000    0.000    0.000    0.000 
#
# Total GULP energy -396790.000500 kJ/mol
# GULP energy per Si atom -12399.687516 kJ/mol
# Density = 1.897286 g / cm^3
# Si number density = 19.016146 Si / 1000 Ang^3
#
#
#
# Elastic Constant Matrix: (Units=GPa)
#
#
# Indices 1 2 3 4 5 6 
#
# 1 147.2085 38.0149 99.6973 0.0000 -2.3588 0.0000
# 2 38.0149 33.4372 36.9983 -0.0001 5.4110 0.0002
# 3 99.6973 36.9983 132.5577 0.0000 15.9225 0.0000
# 4 0.0000 -0.0001 0.0000 18.8533 0.0000 7.4975
# 5 -2.3588 5.4110 15.9225 0.0000 34.4597 0.0001
# 6 0.0000 0.0002 0.0000 7.4975 0.0001 17.4877
#
#
#
# Elastic Compliance Matrix: (Units=1/GPa)
#
#
# Indices 1 2 3 4 5 6 
#
# 1 0.016385 -0.007535 -0.011114 0.000000 0.007440 0.000000
# 2 -0.007535 0.046789 -0.006827 0.000000 -0.004708 -0.000001
# 3 -0.011114 -0.006827 0.018815 0.000000 -0.008383 0.000000
# 4 0.000000 0.000000 0.000000 0.063943 0.000000 -0.027415
# 5 0.007440 -0.004708 -0.008383 0.000000 0.034141 0.000000
# 6 0.000000 -0.000001 0.000000 -0.027415 0.000000 0.068936
#
#
# Mechanical properties :
#
#
# Convention : Reuss Voigt Hill
#
# Bulk Modulus (GPa) = 32.21850 73.62493 52.92171
# Shear Modulus (GPa) = 16.11308 23.39298 19.75303
#
# Velocity S-wave (km/s) = 2.91406 3.51117 3.22646
# Velocity P-wave (km/s) = 5.31995 7.43229 6.46300
#
# Compressibility (1/GPa) = 0.03103807
#
# Stress axis : x y z
#
# Youngs Moduli (GPa) = 61.03175 21.37258 53.14889
#
# Poissons Ratio (x) = 0.16103 0.59069
# Poissons Ratio (y) = 0.45985 0.36285
# Poissons Ratio (z) = 0.67830 0.14591
#
# Static dielectric constant tensor:
#      x y z
#    x 3.609260 0.000000 -0.037250 
#    y 0.000000 3.001350 0.000000 
#    z -0.037250 0.000000 3.666300 
# 
# 
# High freq. dielectric constant tensor:
#      x y z
#    x 1.745810 0.000000 0.005700 
#    y 0.000000 1.691230 0.000000 
#    z 0.005700 0.000000 1.752170 
# 
# From -- ./inp_files/249090.got.cif
#   From: 2010.06.25/outbox.cif.g09.slc.cpg/sg12_125_cif.got.tgz:249090.got - 2010.06.28 00:19:55.
