data_PCOD8079053
_publ_section_title
;
Structure prediction by ZEFSAII (Michael W. Deem and Ramdas Pophale) SiO2 
 PCOD8079053
Probable space group: C 2/M
;
_chemical_formula_sum "Si O2"
_cell_formula_units_Z 64
_cell_length_a 22.526124
_cell_length_b 13.202721
_cell_length_c 23.399405
_cell_angle_alpha 90.000000
_cell_angle_beta 34.048932
_cell_angle_gamma 90.000000
_cell_volume 3896.419920
_symmetry_space_group_name_H-M "C 2/M"
_symmetry_group_IT_number 12
_symmetry_cell_setting 'monoclinic'
loop_
_space_group_symop_operation_xyz
x,y,z
-x,y,-z
-x,-y,-z
x,-y,z
1/2+x,1/2+y,z
1/2-x,1/2+y,-z
1/2-x,1/2-y,-z
1/2+x,1/2-y,z
loop_
_atom_site_type_symbol
_atom_site_label
_atom_site_fract_x
_atom_site_fract_y
_atom_site_fract_z
Si Si1 0.611931 0.305580 0.563072
Si Si2 0.501560 0.755182 0.933847
Si Si3 0.295856 0.885300 0.219907
Si Si4 0.074036 0.881845 0.219164
Si Si5 0.054447 0.883025 0.787430
Si Si6 0.750168 0.882507 0.446247
Si Si7 0.797663 0.384791 0.088115
Si Si8 0.605653 0.618406 0.442487
O O1 0.494722 0.311026 0.683722
O O2 0.646158 0.188457 0.525712
O O3 0.694792 0.365101 0.536679
O O4 0.611738 0.364429 0.504337
O O5 0.589341 0.840781 0.861108
O O6 0.532419 0.668427 0.865288
O O7 0.500000 0.711000 0.000000
O O8 0.391605 0.805870 0.001619
O O9 0.258556 0.875233 0.184352
O O10 0.207050 0.831278 0.330025
O O11 0.308514 0.000000 0.229093
O O12 0.040623 0.857636 0.180787
O O13 0.197953 0.856027 0.127590
O O14 0.050760 0.000000 0.252330
O O15 0.166926 0.850653 0.669715
O O16 0.057713 0.000000 0.799117
O O17 0.715839 0.000000 0.468110
O O18 0.835876 0.500000 0.045130
O O19 0.500000 0.668650 0.500000
O O20 0.605156 0.500000 0.428648
#
# Coordination Sequence:
#
# PCOD8079053 Si02
#       8
#     8   8   8   8   8   8   8   8
#     4  10  17  28  48  69  92 120 151 183 219 264
#     4  10  19  30  46  66  87 113 149 187 226 266
#     4   9  17  28  42  64  94 120 141 173 220 270
#     4   9  17  30  48  68  90 118 150 182 218 264
#     4   9  18  32  47  64  87 114 149 190 224 257
#     4   9  18  31  48  69  91 118 151 186 224 267
#     4   9  17  30  47  66  90 119 148 179 221 271
#     4  10  18  26  41  68  98 123 147 180 221 267
#
# _framework density 16.425335
#
# number of rings (size 3 to 8) (size 9 to 14) (size 15 to 20)
#    0.000    2.625    0.000    3.750    0.000    4.250 
#    0.000    0.000    0.000    4.125    0.000    3.500 
#    0.000    0.000    0.000    0.000    0.000    0.000 
#
# Total GULP energy -396700.891352 kJ/mol
# GULP energy per Si atom -12396.902855 kJ/mol
# Density = 1.638795 g / cm^3
# Si number density = 16.425335 Si / 1000 Ang^3
#
#
#
# Elastic Constant Matrix: (Units=GPa)
#
#
# Indices 1 2 3 4 5 6 
#
# 1 73.8444 30.4119 51.0322 0.0000 2.8192 0.0000
# 2 30.4119 56.6704 41.5692 0.0000 0.8663 0.0000
# 3 51.0322 41.5692 94.8640 0.0000 6.1840 0.0000
# 4 0.0000 0.0000 0.0000 26.0567 0.0000 3.4590
# 5 2.8192 0.8663 6.1840 0.0000 27.0193 0.0000
# 6 0.0000 0.0000 0.0000 3.4590 0.0000 18.6945
#
#
#
# Elastic Compliance Matrix: (Units=1/GPa)
#
#
# Indices 1 2 3 4 5 6 
#
# 1 0.022368 -0.004677 -0.009990 0.000000 0.000103 0.000000
# 2 -0.004677 0.027069 -0.009462 0.000000 0.001786 0.000000
# 3 -0.009990 -0.009462 0.020277 0.000000 -0.003295 0.000000
# 4 0.000000 0.000000 0.000000 0.039344 0.000000 -0.007280
# 5 0.000103 0.001786 -0.003295 0.000000 0.037697 0.000000
# 6 0.000000 0.000000 0.000000 -0.007280 0.000000 0.054839
#
#
# Mechanical properties :
#
#
# Convention : Reuss Voigt Hill
#
# Bulk Modulus (GPa) = 46.60845 52.37837 49.49341
# Shear Modulus (GPa) = 19.45494 21.17849 20.31672
#
# Velocity S-wave (km/s) = 3.44531 3.59469 3.52079
# Velocity P-wave (km/s) = 6.65315 7.01335 6.83562
#
# Compressibility (1/GPa) = 0.02145534
#
# Stress axis : x y z
#
# Youngs Moduli (GPa) = 44.70605 36.94237 49.31806
#
# Poissons Ratio (x) = 0.17279 0.49269
# Poissons Ratio (y) = 0.20911 0.46664
# Poissons Ratio (z) = 0.44662 0.34954
#
# Static dielectric constant tensor:
#      x y z
#    x 3.147460 0.000000 -0.010810 
#    y 0.000000 2.889800 0.000000 
#    z -0.010810 0.000000 3.197270 
# 
# 
# High freq. dielectric constant tensor:
#      x y z
#    x 1.631750 0.000000 0.000380 
#    y 0.000000 1.602670 0.000000 
#    z 0.000380 0.000000 1.634190 
# 
# From -- ./inp_files/349339.got.cif
#   From: 2010.06.25/outbox.cif.g09.slc.cpg/sg12_175_cif.got.tgz:349339.got - 2010.06.28 00:19:55.
