data_PCOD8079485
_publ_section_title
;
Structure prediction by ZEFSAII (Michael W. Deem and Ramdas Pophale) SiO2 
 PCOD8079485
Probable space group: C 2/M
;
_chemical_formula_sum "Si O2"
_cell_formula_units_Z 44
_cell_length_a 18.004569
_cell_length_b 13.375398
_cell_length_c 11.583115
_cell_angle_alpha 90.000000
_cell_angle_beta 61.405047
_cell_angle_gamma 90.000000
_cell_volume 2449.185963
_symmetry_space_group_name_H-M "C 2/M"
_symmetry_group_IT_number 12
_symmetry_cell_setting 'monoclinic'
loop_
_space_group_symop_operation_xyz
x,y,z
-x,y,-z
-x,-y,-z
x,-y,z
1/2+x,1/2+y,z
1/2-x,1/2+y,-z
1/2-x,1/2-y,-z
1/2+x,1/2-y,z
loop_
_atom_site_type_symbol
_atom_site_label
_atom_site_fract_x
_atom_site_fract_y
_atom_site_fract_z
Si Si1 0.848189 0.613173 0.131455
Si Si2 0.000000 0.753216 0.000000
Si Si3 0.631359 0.306441 0.512335
Si Si4 0.504610 0.614910 0.216858
Si Si5 0.188302 0.387635 0.574816
Si Si6 0.160626 0.884592 0.247887
O O1 0.870382 0.500000 0.077982
O O2 0.919618 0.685297 0.027444
O O3 0.846024 0.623563 0.270539
O O4 0.757248 0.645842 0.146404
O O5 0.978779 0.821129 0.125430
O O6 0.549807 0.353849 0.632298
O O7 0.712627 0.362303 0.504510
O O8 0.636018 0.187630 0.532825
O O9 0.624410 0.319463 0.380301
O O10 0.487814 0.500000 0.198182
O O11 0.602933 0.631985 0.178092
O O12 0.174279 0.500000 0.538846
O O13 0.159744 0.000000 0.289920
#
# Coordination Sequence:
#
# PCOD8079485 Si02
#       6
#     8   4   8   8   8   8
#     4   9  18  35  55  76 100 134 178 216 250 300
#     4  12  22  34  52  78 102 142 172 212 254 306
#     4  10  17  31  55  80 103 131 170 211 261 308
#     4  11  22  35  51  77 108 137 171 212 258 312
#     4   9  17  30  52  81 107 130 165 215 263 303
#     4   9  19  35  56  78 102 132 172 219 261 302
#
# _framework density 17.965152
#
# number of rings (size 3 to 8) (size 9 to 14) (size 15 to 20)
#    0.000    2.182    1.818    3.818    0.000    2.182 
#    0.000    0.000    0.000    4.364    0.000    0.000 
#    0.000    0.000    0.000    0.000    0.000    0.000 
#
# Total GULP energy -272839.152593 kJ/mol
# GULP energy per Si atom -12401.779663 kJ/mol
# Density = 1.792426 g / cm^3
# Si number density = 17.965152 Si / 1000 Ang^3
#
#
#
# Elastic Constant Matrix: (Units=GPa)
#
#
# Indices 1 2 3 4 5 6 
#
# 1 59.9904 27.9768 19.5306 0.0000 -11.0908 0.0000
# 2 27.9768 103.6486 26.7026 0.0000 -7.6531 0.0000
# 3 19.5306 26.7026 46.4238 0.0000 -16.7439 0.0000
# 4 0.0000 0.0000 0.0000 22.3071 0.0000 -5.4125
# 5 -11.0908 -7.6531 -16.7439 0.0000 24.5088 0.0000
# 6 0.0000 0.0000 0.0000 -5.4125 0.0000 20.3579
#
#
#
# Elastic Compliance Matrix: (Units=1/GPa)
#
#
# Indices 1 2 3 4 5 6 
#
# 1 0.021036 -0.004102 -0.004670 0.000000 0.005048 0.000000
# 2 -0.004102 0.012154 -0.006058 0.000000 -0.002200 0.000000
# 3 -0.004670 -0.006058 0.033898 0.000000 0.019154 0.000000
# 4 0.000000 0.000000 0.000000 0.047920 0.000000 0.012740
# 5 0.005048 -0.002200 0.019154 0.000000 0.055484 0.000000
# 6 0.000000 0.000000 0.000000 0.012740 0.000000 0.052508
#
#
# Mechanical properties :
#
#
# Convention : Reuss Voigt Hill
#
# Bulk Modulus (GPa) = 26.71846 39.83142 33.27494
# Shear Modulus (GPa) = 18.85818 22.49161 20.67490
#
# Velocity S-wave (km/s) = 3.24344 3.54214 3.39607
# Velocity P-wave (km/s) = 5.37877 6.24088 5.82580
#
# Compressibility (1/GPa) = 0.03742731
#
# Stress axis : x y z
#
# Youngs Moduli (GPa) = 47.53767 82.27998 29.50008
#
# Poissons Ratio (x) = 0.33754 0.13775
# Poissons Ratio (y) = 0.19501 0.17872
# Poissons Ratio (z) = 0.22198 0.49849
#
# Static dielectric constant tensor:
#      x y z
#    x 3.225460 0.000000 -0.196820 
#    y 0.000000 3.408100 0.000000 
#    z -0.196820 0.000000 3.054330 
# 
# 
# High freq. dielectric constant tensor:
#      x y z
#    x 1.683990 0.000000 -0.018250 
#    y 0.000000 1.697490 0.000000 
#    z -0.018250 0.000000 1.677910 
# 
# From -- ./inp_files/154113.got.cif
#   From: 2010.06.25/outbox.cif.g09.slc.cpg/sg12_78_cif.got.tgz:154113.got - 2010.06.28 00:19:55.
