data_PCOD8079679
_publ_section_title
;
Structure prediction by ZEFSAII (Michael W. Deem and Ramdas Pophale) SiO2 
 PCOD8079679
Probable space group: C 2/M
;
_chemical_formula_sum "Si O2"
_cell_formula_units_Z 64
_cell_length_a 25.415709
_cell_length_b 14.098147
_cell_length_c 18.043967
_cell_angle_alpha 90.000000
_cell_angle_beta 149.897287
_cell_angle_gamma 90.000000
_cell_volume 3242.739015
_symmetry_space_group_name_H-M "C 2/M"
_symmetry_group_IT_number 12
_symmetry_cell_setting 'monoclinic'
loop_
_space_group_symop_operation_xyz
x,y,z
-x,y,-z
-x,-y,-z
x,-y,z
1/2+x,1/2+y,z
1/2-x,1/2+y,-z
1/2-x,1/2-y,-z
1/2+x,1/2-y,z
loop_
_atom_site_type_symbol
_atom_site_label
_atom_site_fract_x
_atom_site_fract_y
_atom_site_fract_z
Si Si1 0.336094 0.612159 0.600133
Si Si2 0.327701 0.338527 0.100205
Si Si3 0.710798 0.776859 0.564673
Si Si4 0.394375 0.893251 0.329422
Si Si5 0.972241 0.316224 0.278840
Si Si6 0.071815 0.894056 0.923152
Si Si7 0.669755 0.105023 0.018140
Si Si8 0.784762 0.767457 0.820200
O O1 0.317843 0.500000 0.563142
O O2 0.290248 0.674670 0.476858
O O3 0.279267 0.644524 0.605901
O O4 0.458439 0.638377 0.755933
O O5 0.439900 0.292577 0.260464
O O6 0.343216 0.390895 0.040520
O O7 0.250000 0.250000 0.000000
O O8 0.276049 0.406832 0.098047
O O9 0.596811 0.824474 0.432991
O O10 0.762861 0.759414 0.707196
O O11 0.500000 0.865679 0.500000
O O12 0.417886 0.887975 0.270440
O O13 0.308846 0.817918 0.250081
O O14 0.357073 0.000000 0.303567
O O15 0.925939 0.342611 0.141300
O O16 0.065460 0.000000 0.946832
O O17 0.109238 0.827659 0.036137
O O18 0.633175 0.000000 0.996864
O O19 0.698274 0.162466 0.126833
#
# Coordination Sequence:
#
# PCOD8079679 Si02
#       8
#     8   8   8   8   8   8   8   8
#     4  10  24  45  66  88 110 149 206 249 295 361
#     4  10  17  33  60  84 117 156 200 236 274 342
#     4  11  24  41  66  86 115 156 192 252 308 348
#     4  11  22  34  54  89 126 160 196 243 298 350
#     4  11  19  39  60  82 122 164 203 238 291 349
#     4  11  21  38  62  87 120 156 195 244 294 345
#     4  11  22  35  57  89 124 163 202 239 281 351
#     4  12  22  38  59  88 126 155 194 242 300 360
#
# _framework density 19.736401999999998
#
# number of rings (size 3 to 8) (size 9 to 14) (size 15 to 20)
#    0.000    1.125    6.250    1.875    0.000    3.000 
#    0.000    1.250    0.000    1.125    0.000    5.250 
#    0.000    0.000    0.000    0.000    0.000    0.000 
#
# Total GULP energy -396745.052205 kJ/mol
# GULP energy per Si atom -12398.282881 kJ/mol
# Density = 1.969148 g / cm^3
# Si number density = 19.736402 Si / 1000 Ang^3
#
#
#
# Elastic Constant Matrix: (Units=GPa)
#
#
# Indices 1 2 3 4 5 6 
#
# 1 95.5023 27.6629 41.7130 0.0000 -16.0822 0.0000
# 2 27.6629 102.6092 39.2224 0.0000 -10.3088 0.0000
# 3 41.7130 39.2224 85.0972 0.0000 -19.8132 0.0000
# 4 0.0000 0.0000 0.0000 22.7360 0.0000 -0.3232
# 5 -16.0822 -10.3088 -19.8132 0.0000 29.4711 0.0000
# 6 0.0000 0.0000 0.0000 -0.3232 0.0000 21.7026
#
#
#
# Elastic Compliance Matrix: (Units=1/GPa)
#
#
# Indices 1 2 3 4 5 6 
#
# 1 0.013767 -0.001326 -0.005330 0.000000 0.003465 0.000000
# 2 -0.001326 0.011965 -0.004812 0.000000 0.000227 0.000000
# 3 -0.005330 -0.004812 0.018392 0.000000 0.007773 0.000000
# 4 0.000000 0.000000 0.000000 0.043992 0.000000 0.000655
# 5 0.003465 0.000227 0.007773 0.000000 0.041127 0.000000
# 6 0.000000 0.000000 0.000000 0.000655 0.000000 0.046087
#
#
# Mechanical properties :
#
#
# Convention : Reuss Voigt Hill
#
# Bulk Modulus (GPa) = 47.19869 55.60059 51.39964
# Shear Modulus (GPa) = 24.35106 26.42265 25.38686
#
# Velocity S-wave (km/s) = 3.51638 3.66290 3.59039
# Velocity P-wave (km/s) = 6.36027 6.79131 6.57932
#
# Compressibility (1/GPa) = 0.02118703
#
# Stress axis : x y z
#
# Youngs Moduli (GPa) = 72.63955 83.57397 54.37185
#
# Poissons Ratio (x) = 0.11080 0.28982
# Poissons Ratio (y) = 0.09630 0.26166
# Poissons Ratio (z) = 0.38719 0.40219
#
# Static dielectric constant tensor:
#      x y z
#    x 3.524560 0.000000 0.129320 
#    y 0.000000 3.598680 0.000000 
#    z 0.129320 0.000000 3.781210 
# 
# 
# High freq. dielectric constant tensor:
#      x y z
#    x 1.749870 0.000000 0.006000 
#    y 0.000000 1.768070 0.000000 
#    z 0.006000 0.000000 1.771610 
# 
# From -- ./inp_files/290129.got.cif
#   From: 2010.06.25/outbox.cif.g09.slc.cpg/sg12_146_cif.got.tgz:290129.got - 2010.06.28 00:19:55.
