data_PCOD8079199
_publ_section_title
;
Structure prediction by ZEFSAII (Michael W. Deem and Ramdas Pophale) SiO2 
 PCOD8079199
Probable space group: C 2/M
;
_chemical_formula_sum "Si O2"
_cell_formula_units_Z 56
_cell_length_a 30.085232
_cell_length_b 9.105101
_cell_length_c 16.580876
_cell_angle_alpha 90.000000
_cell_angle_beta 133.138825
_cell_angle_gamma 90.000000
_cell_volume 3314.281696
_symmetry_space_group_name_H-M "C 2/M"
_symmetry_group_IT_number 12
_symmetry_cell_setting 'monoclinic'
loop_
_space_group_symop_operation_xyz
x,y,z
-x,y,-z
-x,-y,-z
x,-y,z
1/2+x,1/2+y,z
1/2-x,1/2+y,-z
1/2-x,1/2-y,-z
1/2+x,1/2-y,z
loop_
_atom_site_type_symbol
_atom_site_label
_atom_site_fract_x
_atom_site_fract_y
_atom_site_fract_z
Si Si1 0.196949 0.670433 0.481808
Si Si2 0.127055 0.671545 0.140060
Si Si3 0.720507 0.329707 0.842696
Si Si4 0.056446 0.325940 0.896925
Si Si5 0.660185 0.830288 0.908299
Si Si6 0.253705 0.170303 0.284822
Si Si7 0.076896 0.328925 0.251202
O O1 0.201220 0.500000 0.462848
O O2 0.250000 0.750000 0.500000
O O3 0.202377 0.693283 0.584139
O O4 0.131991 0.738182 0.372702
O O5 0.143108 0.500000 0.148810
O O6 0.189452 0.758306 0.225788
O O7 0.087081 0.700537 0.169499
O O8 0.089142 0.735046 0.017707
O O9 0.707426 0.500000 0.812711
O O10 0.670362 0.267932 0.842278
O O11 0.713458 0.246935 0.749616
O O12 0.788065 0.300976 0.960599
O O13 0.052791 0.500000 0.901858
O O14 0.095744 0.282945 0.867021
O O15 0.988398 0.258231 0.804935
O O16 0.660893 0.000000 0.882935
O O17 0.243832 0.000000 0.252627
O O18 0.073860 0.500000 0.266372
#
# Coordination Sequence:
#
# PCOD8079199 Si02
#       7
#     8   8   8   8   8   8   8
#     4  10  20  33  50  72  97 130 169 206 242 281
#     4  10  17  29  49  74 100 130 165 197 239 292
#     4  10  19  32  50  73  98 127 163 199 245 297
#     4   9  16  28  48  76 102 126 160 202 245 289
#     4   9  17  30  49  74 101 124 154 200 250 296
#     4  11  21  31  47  72 103 132 162 202 245 285
#     4   9  17  29  49  73  99 130 166 205 240 282
#
# _framework density 16.896573
#
# number of rings (size 3 to 8) (size 9 to 14) (size 15 to 20)
#    0.000    2.286    2.857    1.286    0.000    2.857 
#    0.000    0.000    0.000    5.143    0.000    6.000 
#    0.000    0.000    0.000    0.000    0.000    0.000 
#
# Total GULP energy -347183.677033 kJ/mol
# GULP energy per Si atom -12399.417037 kJ/mol
# Density = 1.685812 g / cm^3
# Si number density = 16.896573 Si / 1000 Ang^3
#
#
#
# Elastic Constant Matrix: (Units=GPa)
#
#
# Indices 1 2 3 4 5 6 
#
# 1 114.3290 40.5017 53.9923 0.0000 7.4627 0.0000
# 2 40.5017 58.2745 32.3326 0.0000 -7.5940 0.0000
# 3 53.9923 32.3326 84.0093 0.0000 8.4304 0.0000
# 4 0.0000 0.0000 0.0000 18.0899 0.0000 -3.5068
# 5 7.4627 -7.5940 8.4304 0.0000 27.5585 0.0000
# 6 0.0000 0.0000 0.0000 -3.5068 0.0000 22.5309
#
#
#
# Elastic Compliance Matrix: (Units=1/GPa)
#
#
# Indices 1 2 3 4 5 6 
#
# 1 0.014435 -0.007160 -0.006119 0.000000 -0.004010 0.000000
# 2 -0.007160 0.027687 -0.007237 0.000000 0.011782 0.000000
# 3 -0.006119 -0.007237 0.019246 0.000000 -0.006225 0.000000
# 4 0.000000 0.000000 0.000000 0.056999 0.000000 0.008872
# 5 -0.004010 0.011782 -0.006225 0.000000 0.042523 0.000000
# 6 0.000000 0.000000 0.000000 0.008872 0.000000 0.045764
#
#
# Mechanical properties :
#
#
# Convention : Reuss Voigt Hill
#
# Bulk Modulus (GPa) = 49.17277 56.69623 52.93450
# Shear Modulus (GPa) = 19.64918 22.28827 20.96873
#
# Velocity S-wave (km/s) = 3.41385 3.63588 3.52661
# Velocity P-wave (km/s) = 6.68614 7.15918 6.92670
#
# Compressibility (1/GPa) = 0.02033646
#
# Stress axis : x y z
#
# Youngs Moduli (GPa) = 69.27837 36.11838 51.95910
#
# Poissons Ratio (x) = 0.25860 0.31794
# Poissons Ratio (y) = 0.49601 0.37601
# Poissons Ratio (z) = 0.42392 0.26137
#
# Static dielectric constant tensor:
#      x y z
#    x 3.273570 0.000000 0.061450 
#    y 0.000000 2.968420 0.000000 
#    z 0.061450 0.000000 3.300640 
# 
# 
# High freq. dielectric constant tensor:
#      x y z
#    x 1.653370 0.000000 -0.007230 
#    y 0.000000 1.625310 0.000000 
#    z -0.007230 0.000000 1.639880 
# 
# From -- ./inp_files/237867.got.cif
#   From: 2010.06.25/outbox.cif.g09.slc.cpg/sg12_119_cif.got.tgz:237867.got - 2010.06.28 00:19:55.
