data_PCOD8079197
_publ_section_title
;
Structure prediction by ZEFSAII (Michael W. Deem and Ramdas Pophale) SiO2 
 PCOD8079197
Probable space group: C 2/M
;
_chemical_formula_sum "Si O2"
_cell_formula_units_Z 64
_cell_length_a 33.570983
_cell_length_b 17.281649
_cell_length_c 12.507463
_cell_angle_alpha 90.000000
_cell_angle_beta 149.972892
_cell_angle_gamma 90.000000
_cell_volume 3631.149822
_symmetry_space_group_name_H-M "C 2/M"
_symmetry_group_IT_number 12
_symmetry_cell_setting 'monoclinic'
loop_
_space_group_symop_operation_xyz
x,y,z
-x,y,-z
-x,-y,-z
x,-y,z
1/2+x,1/2+y,z
1/2-x,1/2+y,-z
1/2-x,1/2-y,-z
1/2+x,1/2-y,z
loop_
_atom_site_type_symbol
_atom_site_label
_atom_site_fract_x
_atom_site_fract_y
_atom_site_fract_z
Si Si1 0.849565 0.411032 0.778741
Si Si2 0.561104 0.347617 0.352440
Si Si3 0.001328 0.689353 0.128317
Si Si4 0.185364 0.092067 0.060099
Si Si5 0.651176 0.088720 0.469850
Si Si6 0.322221 0.408879 0.540484
Si Si7 0.401450 0.412498 0.936977
Si Si8 0.582170 0.411328 0.628445
O O1 0.877771 0.500000 0.860743
O O2 0.825472 0.397962 0.599375
O O3 0.772153 0.392820 0.670611
O O4 0.919780 0.352462 0.975460
O O5 0.516494 0.266314 0.230931
O O6 0.642795 0.359438 0.476797
O O7 0.581718 0.356526 0.524613
O O8 0.497225 0.411007 0.163757
O O9 0.072714 0.632497 0.322380
O O10 0.000000 0.709169 0.000000
O O11 0.276469 0.118281 0.287512
O O12 0.133644 0.127758 0.037761
O O13 0.175889 0.000000 0.041567
O O14 0.151801 0.120831 0.868240
O O15 0.633207 0.000000 0.450715
O O16 0.338833 0.500000 0.562166
O O17 0.366797 0.374070 0.748741
O O18 0.370523 0.500000 0.861371
O O19 0.500000 0.405592 0.500000
O O20 0.597773 0.500000 0.628909
#
# Coordination Sequence:
#
# PCOD8079197 Si02
#       8
#     8   8   8   8   8   8   8   8
#     4   9  17  33  56  79 103 136 178 219 258 304
#     4  12  22  33  45  73 113 147 170 203 260 319
#     4  10  21  35  49  76 108 141 176 209 260 317
#     4   9  16  29  52  79  97 121 170 222 261 290
#     4   9  16  32  56  78 100 129 174 227 262 295
#     4  10  19  31  50  77 108 140 173 209 256 318
#     4  10  17  29  49  73 103 136 169 204 249 310
#     4  10  19  33  53  74  98 136 183 222 253 295
#
# _framework density 17.625271000000001
#
# number of rings (size 3 to 8) (size 9 to 14) (size 15 to 20)
#    0.000    2.125    2.500    2.625    0.000    2.500 
#    2.250    2.500    0.000    0.000    0.000    0.000 
#    0.000    6.000    0.000    0.000    0.000    0.000 
#
# Total GULP energy -396723.013417 kJ/mol
# GULP energy per Si atom -12397.594169 kJ/mol
# Density = 1.758516 g / cm^3
# Si number density = 17.625271 Si / 1000 Ang^3
#
#
#
# Elastic Constant Matrix: (Units=GPa)
#
#
# Indices 1 2 3 4 5 6 
#
# 1 98.1155 37.4322 63.5694 0.0000 -4.1558 0.0000
# 2 37.4322 55.5683 47.4788 0.0000 -7.1457 0.0000
# 3 63.5694 47.4788 130.9985 0.0000 0.0397 0.0000
# 4 0.0000 0.0000 0.0000 22.0864 0.0000 -3.7494
# 5 -4.1558 -7.1457 0.0397 0.0000 24.8030 0.0000
# 6 0.0000 0.0000 0.0000 -3.7494 0.0000 12.8515
#
#
#
# Elastic Compliance Matrix: (Units=1/GPa)
#
#
# Indices 1 2 3 4 5 6 
#
# 1 0.016188 -0.005882 -0.005724 0.000000 0.001027 0.000000
# 2 -0.005882 0.029691 -0.007909 0.000000 0.007581 0.000000
# 3 -0.005724 -0.007909 0.013279 0.000000 -0.003259 0.000000
# 4 0.000000 0.000000 0.000000 0.047636 0.000000 0.013898
# 5 0.001027 0.007581 -0.003259 0.000000 0.042679 0.000000
# 6 0.000000 0.000000 0.000000 0.013898 0.000000 0.081866
#
#
# Mechanical properties :
#
#
# Convention : Reuss Voigt Hill
#
# Bulk Modulus (GPa) = 49.68283 64.62702 57.15492
# Shear Modulus (GPa) = 18.04544 21.02830 19.53687
#
# Velocity S-wave (km/s) = 3.20322 3.45784 3.33296
# Velocity P-wave (km/s) = 6.47537 7.25872 6.87821
#
# Compressibility (1/GPa) = 0.02012768
#
# Stress axis : x y z
#
# Youngs Moduli (GPa) = 61.77302 33.68074 75.30737
#
# Poissons Ratio (x) = 0.19811 0.43107
# Poissons Ratio (y) = 0.36335 0.59560
# Poissons Ratio (z) = 0.35360 0.26638
#
# Static dielectric constant tensor:
#      x y z
#    x 3.131070 0.000000 0.003560 
#    y 0.000000 3.018780 0.000000 
#    z 0.003560 0.000000 3.394630 
# 
# 
# High freq. dielectric constant tensor:
#      x y z
#    x 1.660040 0.000000 0.011430 
#    y 0.000000 1.650100 0.000000 
#    z 0.011430 0.000000 1.685230 
# 
# From -- ./inp_files/190070.got.cif
#   From: 2010.06.25/outbox.cif.g09.slc.cpg/sg12_96_cif.got.tgz:190070.got - 2010.06.28 00:19:55.
