data_PCOD8079489
_publ_section_title
;
Structure prediction by ZEFSAII (Michael W. Deem and Ramdas Pophale) SiO2 
 PCOD8079489
Probable space group: C 2/M
;
_chemical_formula_sum "Si O2"
_cell_formula_units_Z 64
_cell_length_a 20.540939
_cell_length_b 18.437391
_cell_length_c 24.897013
_cell_angle_alpha 90.000000
_cell_angle_beta 20.675912
_cell_angle_gamma 90.000000
_cell_volume 3329.216316
_symmetry_space_group_name_H-M "C 2/M"
_symmetry_group_IT_number 12
_symmetry_cell_setting 'monoclinic'
loop_
_space_group_symop_operation_xyz
x,y,z
-x,y,-z
-x,-y,-z
x,-y,z
1/2+x,1/2+y,z
1/2-x,1/2+y,-z
1/2-x,1/2-y,-z
1/2+x,1/2-y,z
loop_
_atom_site_type_symbol
_atom_site_label
_atom_site_fract_x
_atom_site_fract_y
_atom_site_fract_z
Si Si1 0.301767 0.578911 0.128996
Si Si2 0.789924 0.083186 0.649455
Si Si3 0.185180 0.582138 0.608674
Si Si4 0.567922 0.703603 0.136588
Si Si5 0.592216 0.693758 0.622719
Si Si6 0.722300 0.078703 0.071229
Si Si7 0.578903 0.780740 0.852126
Si Si8 0.726418 0.238534 0.196195
O O1 0.226792 0.500000 0.210120
O O2 0.322766 0.568877 0.049935
O O3 0.181075 0.651796 0.230015
O O4 0.500000 0.597399 0.000000
O O5 0.774094 0.089564 0.598071
O O6 0.633989 0.135271 0.796960
O O7 0.000000 0.106928 0.500000
O O8 0.752691 0.000000 0.697436
O O9 0.160898 0.500000 0.608110
O O10 0.321995 0.616678 0.459612
O O11 0.979018 0.617816 0.768078
O O12 0.474626 0.695271 0.265312
O O13 0.431755 0.736107 0.195781
O O14 0.750000 0.750000 0.000000
O O15 0.633295 0.622646 0.074803
O O16 0.750000 0.750000 0.500000
O O17 0.445852 0.715920 0.690666
O O18 0.693363 0.000000 0.065745
O O19 0.740683 0.753360 0.766314
O O20 0.389881 0.767097 0.030767
#
# Coordination Sequence:
#
# PCOD8079489 Si02
#       8
#     8   8   8   8   8   8   8   8
#     4  10  17  31  55  82 111 144 186 232 285 345
#     4  10  21  39  61  82 113 158 205 243 294 366
#     4  10  22  40  59  83 116 155 202 247 296 361
#     4  12  21  36  58  85 119 151 196 247 300 360
#     4  12  24  37  59  85 120 160 200 247 303 359
#     4  10  20  36  59  84 113 150 193 244 296 354
#     4  11  21  36  59  86 119 152 196 255 297 345
#     4  11  21  37  56  87 123 152 196 252 297 356
#
# _framework density 19.223742999999999
#
# number of rings (size 3 to 8) (size 9 to 14) (size 15 to 20)
#    0.000    1.250    3.750    3.750    0.000    0.500 
#    0.000    1.875    0.000    0.000    0.000    0.000 
#    0.000   16.500    0.000    0.000    0.000    0.000 
#
# Total GULP energy -396420.453560 kJ/mol
# GULP energy per Si atom -12388.139174 kJ/mol
# Density = 1.917999 g / cm^3
# Si number density = 19.223743 Si / 1000 Ang^3
#
#
#
# Elastic Constant Matrix: (Units=GPa)
#
#
# Indices 1 2 3 4 5 6 
#
# 1 128.7367 33.8915 51.2250 -0.0165 -7.5051 -0.0164
# 2 33.8915 126.3805 52.4840 -0.0036 14.6534 -0.1124
# 3 51.2250 52.4840 90.8211 -0.1841 -4.8595 -0.0616
# 4 -0.0165 -0.0036 -0.1841 31.4106 0.0302 -1.8381
# 5 -7.5051 14.6534 -4.8595 0.0302 29.9885 0.0228
# 6 -0.0164 -0.1124 -0.0616 -1.8381 0.0228 21.3170
#
#
#
# Elastic Compliance Matrix: (Units=1/GPa)
#
#
# Indices 1 2 3 4 5 6 
#
# 1 0.010153 -0.000839 -0.005128 -0.000028 0.002120 -0.000016
# 2 -0.000839 0.011725 -0.006678 -0.000029 -0.007021 0.000047
# 3 -0.005128 -0.006678 0.018025 0.000098 0.004901 0.000016
# 4 -0.000028 -0.000029 0.000098 0.031998 -0.000011 0.002759
# 5 0.002120 -0.007021 0.004901 -0.000011 0.038102 -0.000063
# 6 -0.000016 0.000047 0.000016 0.002759 -0.000063 0.047149
#
#
# Mechanical properties :
#
#
# Convention : Reuss Voigt Hill
#
# Bulk Modulus (GPa) = 68.43758 69.01546 68.72652
# Shear Modulus (GPa) = 26.69318 30.43240 28.56279
#
# Velocity S-wave (km/s) = 3.73037 3.98309 3.85880
# Velocity P-wave (km/s) = 7.36424 7.55860 7.46205
#
# Compressibility (1/GPa) = 0.01461186
#
# Stress axis : x y z
#
# Youngs Moduli (GPa) = 98.49539 85.28687 55.47884
#
# Poissons Ratio (x) = 0.07153 0.28451
# Poissons Ratio (y) = 0.08261 0.37051
# Poissons Ratio (z) = 0.50512 0.56958
#
# Static dielectric constant tensor:
#      x y z
#    x 3.736520 -0.000020 -0.291060 
#    y -0.000020 4.162950 0.000650 
#    z -0.291060 0.000650 3.123320 
# 
# 
# High freq. dielectric constant tensor:
#      x y z
#    x 1.763440 -0.000010 -0.024550 
#    y -0.000010 1.761530 0.000040 
#    z -0.024550 0.000040 1.719990 
# 
# From -- ./inp_files/366805.got.cif
#   From: 2010.06.25/outbox.cif.g09.slc.cpg/sg12_184_cif.got.tgz:366805.got - 2010.06.28 00:19:55.
