data_PCOD8079140
_publ_section_title
;
Structure prediction by ZEFSAII (Michael W. Deem and Ramdas Pophale) SiO2 
 PCOD8079140
Probable space group: C 2/M
;
_chemical_formula_sum "Si O2"
_cell_formula_units_Z 48
_cell_length_a 24.515053
_cell_length_b 8.717731
_cell_length_c 21.758581
_cell_angle_alpha 90.000000
_cell_angle_beta 37.859773
_cell_angle_gamma 90.000000
_cell_volume 2853.940778
_symmetry_space_group_name_H-M "C 2/M"
_symmetry_group_IT_number 12
_symmetry_cell_setting 'monoclinic'
loop_
_space_group_symop_operation_xyz
x,y,z
-x,y,-z
-x,-y,-z
x,-y,z
1/2+x,1/2+y,z
1/2-x,1/2+y,-z
1/2-x,1/2-y,-z
1/2+x,1/2-y,z
loop_
_atom_site_type_symbol
_atom_site_label
_atom_site_fract_x
_atom_site_fract_y
_atom_site_fract_z
Si Si1 0.713761 0.182271 0.968914
Si Si2 0.621293 0.181255 0.225084
Si Si3 0.449774 0.319039 0.837034
Si Si4 0.676846 0.319545 0.485683
Si Si5 0.852572 0.820616 0.350606
Si Si6 0.005808 0.820172 0.566129
O O1 0.777823 0.251579 0.859281
O O2 0.717103 0.000000 0.964771
O O3 0.750000 0.250000 0.000000
O O4 0.611702 0.240777 0.055568
O O5 0.570553 0.255309 0.212595
O O6 0.571246 0.225603 0.331820
O O7 0.625117 0.000000 0.212966
O O8 0.432647 0.500000 0.850873
O O9 0.551653 0.279168 0.763422
O O10 0.683171 0.500000 0.479006
O O11 0.773729 0.254502 0.380532
O O12 0.650658 0.257550 0.576591
O O13 0.601983 0.263456 0.504572
O O14 0.836655 0.000000 0.364831
O O15 0.000000 0.780950 0.500000
O O16 0.991757 0.000000 0.592149
#
# Coordination Sequence:
#
# PCOD8079140 Si02
#       6
#     8   8   8   8   8   8
#     4  10  18  28  43  65  93 123 156 189 232 282
#     4  11  20  30  45  66  94 125 157 194 236 276
#     4  10  17  29  46  67  96 125 157 189 231 283
#     4   9  17  30  45  66  92 121 157 192 230 276
#     4   9  17  28  45  67  94 125 153 187 232 278
#     4  10  20  35  52  68  91 126 163 198 235 274
#
# _framework density 16.818847999999999
#
# number of rings (size 3 to 8) (size 9 to 14) (size 15 to 20)
#    0.000    2.167    1.667    5.500    0.000    2.333 
#    0.000    0.000    0.000    0.000    0.000    1.167 
#    0.000    9.333    0.000    0.000    0.000    0.000 
#
# Total GULP energy -297509.799537 kJ/mol
# GULP energy per Si atom -12396.241647 kJ/mol
# Density = 1.678057 g / cm^3
# Si number density = 16.818848 Si / 1000 Ang^3
#
#
#
# Elastic Constant Matrix: (Units=GPa)
#
#
# Indices 1 2 3 4 5 6 
#
# 1 79.1149 26.1056 58.8641 0.0012 -18.2748 0.0000
# 2 26.1056 83.9130 54.5098 0.0016 -12.6695 -0.0009
# 3 58.8641 54.5098 134.9926 -0.0001 -32.8834 -0.0010
# 4 0.0012 0.0016 -0.0001 31.3439 -0.0001 -6.8474
# 5 -18.2748 -12.6695 -32.8834 -0.0001 24.6698 0.0006
# 6 0.0000 -0.0009 -0.0010 -6.8474 0.0006 17.7649
#
#
#
# Elastic Compliance Matrix: (Units=1/GPa)
#
#
# Indices 1 2 3 4 5 6 
#
# 1 0.019078 -0.000765 -0.006905 -0.000001 0.004535 -0.000001
# 2 -0.000765 0.016191 -0.006393 -0.000001 -0.000772 0.000000
# 3 -0.006905 -0.006393 0.016222 0.000001 0.013224 0.000000
# 4 -0.000001 -0.000001 0.000001 0.034838 0.000000 0.013428
# 5 0.004535 -0.000772 0.013224 0.000000 0.061125 -0.000002
# 6 -0.000001 0.000000 0.000000 0.013428 -0.000002 0.061466
#
#
# Mechanical properties :
#
#
# Convention : Reuss Voigt Hill
#
# Bulk Modulus (GPa) = 42.79929 64.10883 53.45406
# Shear Modulus (GPa) = 20.42211 25.32512 22.87361
#
# Velocity S-wave (km/s) = 3.48837 3.88462 3.69182
# Velocity P-wave (km/s) = 6.45968 7.63678 7.07276
#
# Compressibility (1/GPa) = 0.02336487
#
# Stress axis : x y z
#
# Youngs Moduli (GPa) = 52.41769 61.76265 61.64645
#
# Poissons Ratio (x) = 0.04723 0.42569
# Poissons Ratio (y) = 0.04008 0.39408
# Poissons Ratio (z) = 0.36196 0.39482
#
# Static dielectric constant tensor:
#      x y z
#    x 2.914250 -0.000010 -0.448420 
#    y -0.000010 3.135130 0.000010 
#    z -0.448420 0.000010 3.654010 
# 
# 
# High freq. dielectric constant tensor:
#      x y z
#    x 1.596790 0.000000 -0.037990 
#    y 0.000000 1.654900 0.000000 
#    z -0.037990 0.000000 1.652310 
# 
# From -- ./inp_files/323514.got.cif
#   From: 2010.06.25/outbox.cif.g09.slc.cpg/sg12_162_cif.got.tgz:323514.got - 2010.06.28 00:19:55.
