data_PCOD8079776
_publ_section_title
;
Structure prediction by ZEFSAII (Michael W. Deem and Ramdas Pophale) SiO2 
 PCOD8079776
Probable space group: C 2/M
;
_chemical_formula_sum "Si O2"
_cell_formula_units_Z 40
_cell_length_a 18.457215
_cell_length_b 19.065530
_cell_length_c 12.058755
_cell_angle_alpha 90.000000
_cell_angle_beta 148.960477
_cell_angle_gamma 90.000000
_cell_volume 2188.038985
_symmetry_space_group_name_H-M "C 2/M"
_symmetry_group_IT_number 12
_symmetry_cell_setting 'monoclinic'
loop_
_space_group_symop_operation_xyz
x,y,z
-x,y,-z
-x,-y,-z
x,-y,z
1/2+x,1/2+y,z
1/2-x,1/2+y,-z
1/2-x,1/2-y,-z
1/2+x,1/2-y,z
loop_
_atom_site_type_symbol
_atom_site_label
_atom_site_fract_x
_atom_site_fract_y
_atom_site_fract_z
Si Si1 0.500000 0.123297 0.000000
Si Si2 0.886049 0.359363 0.445656
Si Si3 0.909711 0.271511 0.688367
Si Si4 0.169546 0.500000 0.502375
Si Si5 0.685383 0.000000 0.276312
Si Si6 0.071552 0.857734 0.974735
Si Si7 0.947658 0.000000 0.751790
O O1 0.536145 0.171921 0.151623
O O2 0.632983 0.071525 0.147482
O O3 0.925714 0.300790 0.586414
O O4 0.885191 0.433598 0.504347
O O5 0.000000 0.359126 0.500000
O O6 0.735753 0.342562 0.195898
O O7 0.750000 0.250000 0.500000
O O8 0.004570 0.202619 0.812434
O O9 0.109233 0.500000 0.298334
O O10 0.341598 0.500000 0.719813
O O11 0.854043 0.000000 0.515325
O O12 0.045645 0.932057 0.881452
O O13 0.000000 0.855121 0.000000
#
# Coordination Sequence:
#
# PCOD8079776 Si02
#       7
#     4   8   8   4   4   8   4
#     4  11  18  32  56  85 120 146 192 247 292 332
#     4  12  25  38  56  89 125 154 192 244 298 355
#     4  12  21  37  60  88 116 151 204 245 286 353
#     4  10  17  37  56  82 120 149 185 242 288 341
#     4   9  18  31  55  86 116 149 188 253 286 325
#     4  12  20  36  62  84 111 156 193 244 298 335
#     4  10  19  35  61  88 116 138 207 249 278 349
#
# _framework density 18.281209
#
# number of rings (size 3 to 8) (size 9 to 14) (size 15 to 20)
#    0.600    0.200    7.000    2.400    0.000    0.800 
#    0.000    0.000    0.000    0.000    0.000    2.100 
#    0.000    0.000    0.000    0.000    0.000    0.000 
#
# Total GULP energy -247963.936756 kJ/mol
# GULP energy per Si atom -12398.196838 kJ/mol
# Density = 1.823960 g / cm^3
# Si number density = 18.281209 Si / 1000 Ang^3
#
#
#
# Elastic Constant Matrix: (Units=GPa)
#
#
# Indices 1 2 3 4 5 6 
#
# 1 65.1184 27.2291 37.0227 0.0000 8.3396 0.0000
# 2 27.2291 155.3404 66.5061 0.0000 -9.2594 0.0000
# 3 37.0227 66.5061 140.1018 0.0000 0.1416 0.0000
# 4 0.0000 0.0000 0.0000 28.4649 0.0000 1.7735
# 5 8.3396 -9.2594 0.1416 0.0000 22.3687 0.0000
# 6 0.0000 0.0000 0.0000 1.7735 0.0000 13.9808
#
#
#
# Elastic Compliance Matrix: (Units=1/GPa)
#
#
# Indices 1 2 3 4 5 6 
#
# 1 0.019678 -0.002153 -0.004170 0.000000 -0.008201 0.000000
# 2 -0.002153 0.008577 -0.003507 0.000000 0.004375 0.000000
# 3 -0.004170 -0.003507 0.009904 0.000000 0.000040 0.000000
# 4 0.000000 0.000000 0.000000 0.035411 0.000000 -0.004492
# 5 -0.008201 0.004375 0.000040 0.000000 0.049574 0.000000
# 6 0.000000 0.000000 0.000000 -0.004492 0.000000 0.072096
#
#
# Mechanical properties :
#
#
# Convention : Reuss Voigt Hill
#
# Bulk Modulus (GPa) = 54.05434 69.11961 61.58697
# Shear Modulus (GPa) = 22.61766 28.28306 25.45036
#
# Velocity S-wave (km/s) = 3.52121 3.93760 3.73521
# Velocity P-wave (km/s) = 6.79444 7.65272 7.23631
#
# Compressibility (1/GPa) = 0.01849990
#
# Stress axis : x y z
#
# Youngs Moduli (GPa) = 50.81853 116.58911 100.96640
#
# Poissons Ratio (x) = 0.25101 0.42100
# Poissons Ratio (y) = 0.10941 0.35409
# Poissons Ratio (z) = 0.21190 0.40888
#
# Static dielectric constant tensor:
#      x y z
#    x 2.858950 0.000000 -0.158840 
#    y 0.000000 3.667460 0.000000 
#    z -0.158840 0.000000 3.613220 
# 
# 
# High freq. dielectric constant tensor:
#      x y z
#    x 1.646740 0.000000 -0.012430 
#    y 0.000000 1.732650 0.000000 
#    z -0.012430 0.000000 1.731920 
# 
# From -- ./inp_files/77821.got.cif
#   From: 2010.06.25/outbox.cif.g09.slc.cpg/sg12_39_cif.got.tgz:77821.got - 2010.06.28 00:19:55.
