data_PCOD8079337
_publ_section_title
;
Structure prediction by ZEFSAII (Michael W. Deem and Ramdas Pophale) SiO2 
 PCOD8079337
Probable space group: C 2/M
;
_chemical_formula_sum "Si O2"
_cell_formula_units_Z 64
_cell_length_a 13.536627
_cell_length_b 24.787710
_cell_length_c 11.244876
_cell_angle_alpha 90.000000
_cell_angle_beta 99.895532
_cell_angle_gamma 90.000000
_cell_volume 3716.994165
_symmetry_space_group_name_H-M "C 2/M"
_symmetry_group_IT_number 12
_symmetry_cell_setting 'monoclinic'
loop_
_space_group_symop_operation_xyz
x,y,z
-x,y,-z
-x,-y,-z
x,-y,z
1/2+x,1/2+y,z
1/2-x,1/2+y,-z
1/2-x,1/2-y,-z
1/2+x,1/2-y,z
loop_
_atom_site_type_symbol
_atom_site_label
_atom_site_fract_x
_atom_site_fract_y
_atom_site_fract_z
Si Si1 0.084893 0.740390 0.274199
Si Si2 0.676024 0.560762 0.816645
Si Si3 0.551615 0.441915 0.289236
Si Si4 0.635304 0.258996 0.829040
Si Si5 0.248008 0.159787 0.688936
Si Si6 0.388991 0.412429 0.941700
Si Si7 0.826430 0.199967 0.920516
Si Si8 0.897524 0.159569 0.550915
O O1 0.139265 0.682855 0.310772
O O2 0.115895 0.758090 0.149392
O O3 0.117170 0.785886 0.376091
O O4 0.965218 0.732452 0.244803
O O5 0.712031 0.500000 0.790271
O O6 0.565784 0.572621 0.743373
O O7 0.749189 0.605705 0.771873
O O8 0.673530 0.563493 0.960382
O O9 0.564693 0.500000 0.357923
O O10 0.600505 0.451935 0.168777
O O11 0.603701 0.393428 0.368069
O O12 0.683731 0.292322 0.732788
O O13 0.707749 0.212566 0.895624
O O14 0.620917 0.299071 0.938061
O O15 0.198074 0.148971 0.551732
O O16 0.333628 0.360530 0.876155
O O17 0.500000 0.394522 0.000000
O O18 0.000000 0.164189 0.500000
#
# Coordination Sequence:
#
# PCOD8079337 Si02
#       8
#     8   8   8   8   8   8   8   8
#     4  11  21  35  51  71 105 137 169 213 251 304
#     4  10  19  32  50  75 105 133 167 210 253 308
#     4  10  20  32  50  74 102 138 171 204 254 307
#     4  10  19  33  49  78 104 128 164 206 255 308
#     4  11  22  34  51  75 101 138 176 204 257 302
#     4  10  17  30  50  74 104 134 163 201 251 307
#     4  10  19  29  53  76 102 130 163 203 255 311
#     4  12  21  34  50  69 103 143 171 212 249 295
#
# _framework density 17.218214
#
# number of rings (size 3 to 8) (size 9 to 14) (size 15 to 20)
#    0.000    1.500    5.000    1.875    0.000    2.250 
#    0.000    0.000    0.000    0.000    0.000    2.625 
#    0.000    1.500    0.000    0.000    0.000    0.000 
#
# Total GULP energy -396587.519007 kJ/mol
# GULP energy per Si atom -12393.359969 kJ/mol
# Density = 1.717902 g / cm^3
# Si number density = 17.218214 Si / 1000 Ang^3
#
#
#
# Elastic Constant Matrix: (Units=GPa)
#
#
# Indices 1 2 3 4 5 6 
#
# 1 59.4133 35.9855 21.8479 0.0000 6.1086 0.0000
# 2 35.9855 109.2747 28.9983 0.0000 4.3951 0.0000
# 3 21.8479 28.9983 72.1175 0.0000 0.6491 0.0000
# 4 0.0000 0.0000 0.0000 16.2063 0.0000 0.8353
# 5 6.1086 4.3951 0.6491 0.0000 20.8682 0.0000
# 6 0.0000 0.0000 0.0000 0.8353 0.0000 21.3404
#
#
#
# Elastic Compliance Matrix: (Units=1/GPa)
#
#
# Indices 1 2 3 4 5 6 
#
# 1 0.022666 -0.006095 -0.004369 0.000000 -0.005215 0.000000
# 2 -0.006095 0.011970 -0.002961 0.000000 -0.000645 0.000000
# 3 -0.004369 -0.002961 0.016368 0.000000 0.001393 0.000000
# 4 0.000000 0.000000 0.000000 0.061829 0.000000 -0.002420
# 5 -0.005215 -0.000645 0.001393 0.000000 0.049539 0.000000
# 6 0.000000 0.000000 0.000000 -0.002420 0.000000 0.046954
#
#
# Mechanical properties :
#
#
# Convention : Reuss Voigt Hill
#
# Bulk Modulus (GPa) = 41.40068 46.05210 43.72639
# Shear Modulus (GPa) = 20.47284 21.94792 21.21038
#
# Velocity S-wave (km/s) = 3.45196 3.57416 3.51359
# Velocity P-wave (km/s) = 6.32337 6.62095 6.47387
#
# Compressibility (1/GPa) = 0.02415419
#
# Stress axis : x y z
#
# Youngs Moduli (GPa) = 44.11979 83.54183 61.09553
#
# Poissons Ratio (x) = 0.50918 0.26691
# Poissons Ratio (y) = 0.26891 0.18090
# Poissons Ratio (z) = 0.19275 0.24736
#
# Static dielectric constant tensor:
#      x y z
#    x 3.086470 0.000000 -0.068930 
#    y 0.000000 3.180860 0.000000 
#    z -0.068930 0.000000 3.346540 
# 
# 
# High freq. dielectric constant tensor:
#      x y z
#    x 1.626500 0.000000 -0.013950 
#    y 0.000000 1.658400 0.000000 
#    z -0.013950 0.000000 1.670900 
# 
# From -- ./inp_files/148656.got.cif
#   From: 2010.06.25/outbox.cif.g09.slc.cpg/sg12_75_cif.got.tgz:148656.got - 2010.06.28 00:19:55.
