data_PCOD8079384
_publ_section_title
;
Structure prediction by ZEFSAII (Michael W. Deem and Ramdas Pophale) SiO2 
 PCOD8079384
Probable space group: C 2/M
;
_chemical_formula_sum "Si O2"
_cell_formula_units_Z 56
_cell_length_a 30.438592
_cell_length_b 8.733188
_cell_length_c 16.932989
_cell_angle_alpha 90.000000
_cell_angle_beta 45.771032
_cell_angle_gamma 90.000000
_cell_volume 3225.390982
_symmetry_space_group_name_H-M "C 2/M"
_symmetry_group_IT_number 12
_symmetry_cell_setting 'monoclinic'
loop_
_space_group_symop_operation_xyz
x,y,z
-x,y,-z
-x,-y,-z
x,-y,z
1/2+x,1/2+y,z
1/2-x,1/2+y,-z
1/2-x,1/2-y,-z
1/2+x,1/2-y,z
loop_
_atom_site_type_symbol
_atom_site_label
_atom_site_fract_x
_atom_site_fract_y
_atom_site_fract_z
Si Si1 0.528096 0.318646 0.347229
Si Si2 0.907295 0.818225 0.582848
Si Si3 0.489977 0.318359 0.803553
Si Si4 0.699521 0.317918 0.391741
Si Si5 0.942700 0.680205 0.019067
Si Si6 0.130061 0.818575 0.633503
Si Si7 0.671043 0.681188 0.751736
O O1 0.522934 0.500000 0.355307
O O2 0.463155 0.252783 0.459807
O O3 0.582716 0.264787 0.338266
O O4 0.540099 0.266707 0.242293
O O5 0.842946 0.760166 0.627903
O O6 0.908385 0.000000 0.576178
O O7 0.485375 0.500000 0.823977
O O8 0.452761 0.228876 0.916482
O O9 0.560227 0.261372 0.715716
O O10 0.705825 0.500000 0.385659
O O11 0.669663 0.255410 0.510585
O O12 0.765319 0.244614 0.295467
O O13 0.933316 0.500000 0.037236
O O14 0.882069 0.763121 0.124330
O O15 0.000000 0.735925 0.000000
O O16 0.159605 0.755765 0.677436
O O17 0.130292 0.000000 0.630800
O O18 0.672258 0.500000 0.750718
#
# Coordination Sequence:
#
# PCOD8079384 Si02
#       7
#     8   8   8   8   8   8   8
#     4   8  13  23  45  77 104 128 162 200 241 290
#     4   8  13  23  44  75 106 131 159 199 242 289
#     4  10  17  30  53  77 102 131 164 203 244 292
#     4  10  18  31  50  74 106 138 165 199 244 292
#     4  11  23  37  52  72  97 128 167 211 254 294
#     4   9  17  29  48  74 102 133 164 197 242 291
#     4  11  22  35  50  70  99 136 175 207 240 290
#
# _framework density 17.362234999999998
#
# number of rings (size 3 to 8) (size 9 to 14) (size 15 to 20)
#    0.000    2.429    2.857    2.143    0.000    0.571 
#    0.000    1.429    0.000    1.714    0.000    2.000 
#    0.000    0.000    0.000    0.000    0.000    0.000 
#
# Total GULP energy -347085.123537 kJ/mol
# GULP energy per Si atom -12395.897269 kJ/mol
# Density = 1.732272 g / cm^3
# Si number density = 17.362235 Si / 1000 Ang^3
#
#
#
# Elastic Constant Matrix: (Units=GPa)
#
#
# Indices 1 2 3 4 5 6 
#
# 1 165.0695 22.9802 73.7564 -0.0002 4.5926 0.0001
# 2 22.9802 23.6958 14.5450 0.0008 -1.4560 0.0000
# 3 73.7564 14.5450 99.1329 -0.0005 -4.8871 0.0002
# 4 -0.0002 0.0008 -0.0005 10.9129 -0.0001 -0.1709
# 5 4.5926 -1.4560 -4.8871 -0.0001 29.4252 0.0001
# 6 0.0001 0.0000 0.0002 -0.1709 0.0001 13.6804
#
#
#
# Elastic Compliance Matrix: (Units=1/GPa)
#
#
# Indices 1 2 3 4 5 6 
#
# 1 0.009923 -0.005696 -0.006692 0.000000 -0.002942 0.000000
# 2 -0.005696 0.049689 -0.002911 -0.000004 0.002864 0.000000
# 3 -0.006692 -0.002911 0.015666 0.000001 0.003502 0.000000
# 4 0.000000 -0.000004 0.000001 0.091652 0.000000 0.001145
# 5 -0.002942 0.002864 0.003502 0.000000 0.035167 0.000000
# 6 0.000000 0.000000 0.000000 0.001145 0.000000 0.073111
#
#
# Mechanical properties :
#
#
# Convention : Reuss Voigt Hill
#
# Bulk Modulus (GPa) = 22.38186 56.71790 39.54988
# Shear Modulus (GPa) = 15.59082 22.57817 19.08450
#
# Velocity S-wave (km/s) = 2.99987 3.61004 3.31901
# Velocity P-wave (km/s) = 4.99180 7.07919 6.12507
#
# Compressibility (1/GPa) = 0.04467905
#
# Stress axis : x y z
#
# Youngs Moduli (GPa) = 100.77428 20.12524 63.83097
#
# Poissons Ratio (x) = 0.11464 0.42717
# Poissons Ratio (y) = 0.57405 0.18581
# Poissons Ratio (z) = 0.67441 0.05858
#
# Static dielectric constant tensor:
#      x y z
#    x 3.660120 0.000000 0.143480 
#    y 0.000000 2.801530 0.000000 
#    z 0.143480 0.000000 3.134410 
# 
# 
# High freq. dielectric constant tensor:
#      x y z
#    x 1.679880 0.000000 0.007700 
#    y 0.000000 1.630530 0.000000 
#    z 0.007700 0.000000 1.654090 
# 
# From -- ./inp_files/288468.got.cif
#   From: 2010.06.25/outbox.cif.g09.slc.cpg/sg12_145_cif.got.tgz:288468.got - 2010.06.28 00:19:55.
