data_PCOD8079397
_publ_section_title
;
Structure prediction by ZEFSAII (Michael W. Deem and Ramdas Pophale) SiO2 
 PCOD8079397
Probable space group: C 2/M
;
_chemical_formula_sum "Si O2"
_cell_formula_units_Z 52
_cell_length_a 22.890920
_cell_length_b 12.184401
_cell_length_c 13.433051
_cell_angle_alpha 90.000000
_cell_angle_beta 48.697471
_cell_angle_gamma 90.000000
_cell_volume 2814.607941
_symmetry_space_group_name_H-M "C 2/M"
_symmetry_group_IT_number 12
_symmetry_cell_setting 'monoclinic'
loop_
_space_group_symop_operation_xyz
x,y,z
-x,y,-z
-x,-y,-z
x,-y,z
1/2+x,1/2+y,z
1/2-x,1/2+y,-z
1/2-x,1/2-y,-z
1/2+x,1/2-y,z
loop_
_atom_site_type_symbol
_atom_site_label
_atom_site_fract_x
_atom_site_fract_y
_atom_site_fract_z
Si Si1 0.127967 0.778039 0.578687
Si Si2 0.878665 0.000000 0.973397
Si Si3 0.795342 0.776221 0.083973
Si Si4 0.790992 0.767598 0.314016
Si Si5 0.511704 0.127000 0.597348
Si Si6 0.157796 0.627633 0.141541
Si Si7 0.448004 0.500000 0.294119
Si Si8 0.663977 0.500000 0.756646
O O1 0.141234 0.743576 0.680304
O O2 0.212314 0.794427 0.432901
O O3 0.082164 0.682613 0.575656
O O4 0.080210 0.890688 0.616811
O O5 0.836954 0.114696 0.992132
O O6 0.881650 0.000000 0.088693
O O7 0.959922 0.000000 0.824117
O O8 0.816964 0.738540 0.172055
O O9 0.703435 0.804681 0.176596
O O10 0.817274 0.670958 0.994446
O O11 0.778021 0.898813 0.326763
O O12 0.500000 0.176203 0.500000
O O13 0.433518 0.147478 0.746494
O O14 0.534052 0.000000 0.563999
O O15 0.179234 0.500000 0.127233
O O16 0.409674 0.500000 0.230505
#
# Coordination Sequence:
#
# PCOD8079397 Si02
#       8
#     8   4   8   8   8   8   4   4
#     4  10  20  36  53  80 111 144 178 224 268 330
#     4  10  17  30  54  78  99 137 177 223 273 310
#     4  10  19  34  56  79 104 142 180 226 267 321
#     4   9  19  34  55  80 106 142 186 223 273 315
#     4  10  21  36  58  81 105 139 181 229 269 311
#     4  10  20  35  52  79 109 138 180 222 267 321
#     4  10  19  32  49  76 114 139 168 216 271 330
#     4   8  17  30  52  78 101 132 184 231 263 306
#
# _framework density 18.475041000000001
#
# number of rings (size 3 to 8) (size 9 to 14) (size 15 to 20)
#    0.000    2.308    0.769    2.077    1.077    0.000 
#    2.769    2.692    0.000    1.846    0.000    0.000 
#    0.000    0.000    0.000    0.000    0.000    0.000 
#
# Total GULP energy -322231.628291 kJ/mol
# GULP energy per Si atom -12393.524165 kJ/mol
# Density = 1.843299 g / cm^3
# Si number density = 18.475041 Si / 1000 Ang^3
#
#
#
# Elastic Constant Matrix: (Units=GPa)
#
#
# Indices 1 2 3 4 5 6 
#
# 1 95.6675 30.6845 36.1844 0.0000 13.6333 0.0000
# 2 30.6845 49.4543 30.3978 0.0000 2.4193 0.0000
# 3 36.1844 30.3978 71.8606 0.0000 0.9710 0.0000
# 4 0.0000 0.0000 0.0000 25.7018 0.0000 -1.2161
# 5 13.6333 2.4193 0.9710 0.0000 31.9577 0.0000
# 6 0.0000 0.0000 0.0000 -1.2161 0.0000 29.9946
#
#
#
# Elastic Compliance Matrix: (Units=1/GPa)
#
#
# Indices 1 2 3 4 5 6 
#
# 1 0.015098 -0.006024 -0.004975 0.000000 -0.005834 0.000000
# 2 -0.006024 0.029824 -0.009591 0.000000 0.000604 0.000000
# 3 -0.004975 -0.009591 0.020448 0.000000 0.002227 0.000000
# 4 0.000000 0.000000 0.000000 0.038983 0.000000 0.001581
# 5 -0.005834 0.000604 0.002227 0.000000 0.033667 0.000000
# 6 0.000000 0.000000 0.000000 0.001581 0.000000 0.033403
#
#
# Mechanical properties :
#
#
# Convention : Reuss Voigt Hill
#
# Bulk Modulus (GPa) = 41.33987 45.72397 43.53192
# Shear Modulus (GPa) = 22.65861 25.51187 24.08524
#
# Velocity S-wave (km/s) = 3.50586 3.72005 3.61455
# Velocity P-wave (km/s) = 6.22999 6.57682 6.40575
#
# Compressibility (1/GPa) = 0.02418972
#
# Stress axis : x y z
#
# Youngs Moduli (GPa) = 66.23261 33.53001 48.90485
#
# Poissons Ratio (x) = 0.20200 0.24332
# Poissons Ratio (y) = 0.39901 0.46902
# Poissons Ratio (z) = 0.32953 0.32157
#
# Static dielectric constant tensor:
#      x y z
#    x 3.473160 0.000000 0.073650 
#    y 0.000000 3.394890 0.000000 
#    z 0.073650 0.000000 3.244140 
# 
# 
# High freq. dielectric constant tensor:
#      x y z
#    x 1.721120 0.000000 -0.000010 
#    y 0.000000 1.707280 0.000000 
#    z -0.000010 0.000000 1.706630 
# 
# From -- ./inp_files/232368.got.cif
#   From: 2010.06.25/outbox.cif.g09.slc.cpg/sg12_117_cif.got.tgz:232368.got - 2010.06.28 00:19:55.
