data_PCOD8079874
_publ_section_title
;
Structure prediction by ZEFSAII (Michael W. Deem and Ramdas Pophale) SiO2 
 PCOD8079874
Probable space group: C 2/M
;
_chemical_formula_sum "Si O2"
_cell_formula_units_Z 64
_cell_length_a 24.557921
_cell_length_b 9.158876
_cell_length_c 16.565672
_cell_angle_alpha 90.000000
_cell_angle_beta 85.365633
_cell_angle_gamma 90.000000
_cell_volume 3713.818064
_symmetry_space_group_name_H-M "C 2/M"
_symmetry_group_IT_number 12
_symmetry_cell_setting 'monoclinic'
loop_
_space_group_symop_operation_xyz
x,y,z
-x,y,-z
-x,-y,-z
x,-y,z
1/2+x,1/2+y,z
1/2-x,1/2+y,-z
1/2-x,1/2-y,-z
1/2+x,1/2-y,z
loop_
_atom_site_type_symbol
_atom_site_label
_atom_site_fract_x
_atom_site_fract_y
_atom_site_fract_z
Si Si1 0.613817 0.835026 0.200852
Si Si2 0.192001 0.331537 0.339487
Si Si3 0.603025 0.330421 0.444694
Si Si4 0.176632 0.168625 0.070919
Si Si5 0.189863 0.172497 0.721749
Si Si6 0.587140 0.330124 0.634604
Si Si7 0.214691 0.169143 0.895082
Si Si8 0.475880 0.172928 0.663126
O O1 0.664490 0.815535 0.255401
O O2 0.623443 0.736912 0.120371
O O3 0.558397 0.787009 0.252579
O O4 0.609002 0.000000 0.171069
O O5 0.189494 0.500000 0.368166
O O6 0.160778 0.233719 0.408655
O O7 0.253676 0.270652 0.324750
O O8 0.599293 0.500000 0.421573
O O9 0.599836 0.305752 0.539892
O O10 0.552116 0.246926 0.411042
O O11 0.230896 0.239489 0.099862
O O12 0.178541 0.000000 0.092441
O O13 0.173215 0.195164 0.974767
O O14 0.138155 0.233797 0.679194
O O15 0.185188 0.219942 0.816191
O O16 0.190552 0.000000 0.714431
O O17 0.575821 0.500000 0.654909
O O18 0.535865 0.235374 0.668645
O O19 0.232462 0.000000 0.887695
O O20 0.476724 0.000000 0.648107
#
# Coordination Sequence:
#
# PCOD8079874 Si02
#       8
#     8   8   8   8   8   8   8   8
#     4   9  17  31  50  71  97 129 161 197 244 292
#     4   9  17  31  51  72  96 134 171 194 234 296
#     4  10  20  33  50  75 103 124 155 210 259 287
#     4  10  18  26  46  78 103 124 158 201 242 280
#     4   9  17  33  53  69  97 138 170 193 233 298
#     4  10  21  35  52  73  96 129 167 205 249 289
#     4   9  17  31  48  69 101 136 162 190 232 289
#     4  10  21  36  54  73  94 127 168 206 246 294
#
# _framework density 17.232938000000001
#
# number of rings (size 3 to 8) (size 9 to 14) (size 15 to 20)
#    0.000    2.500    1.250    2.250    0.000    6.000 
#    0.000    1.250    0.000    0.750    0.000    5.250 
#    0.000    0.000    0.000    0.000    0.000    0.000 
#
# Total GULP energy -396772.261407 kJ/mol
# GULP energy per Si atom -12399.133169 kJ/mol
# Density = 1.719372 g / cm^3
# Si number density = 17.232938 Si / 1000 Ang^3
#
#
#
# Elastic Constant Matrix: (Units=GPa)
#
#
# Indices 1 2 3 4 5 6 
#
# 1 133.3091 46.6096 66.4521 0.0000 -3.9058 0.0000
# 2 46.6096 72.2260 44.7722 0.0000 -13.2538 0.0000
# 3 66.4521 44.7722 84.5157 0.0000 -18.5794 0.0000
# 4 0.0000 0.0000 0.0000 23.1063 0.0000 -8.6676
# 5 -3.9058 -13.2538 -18.5794 0.0000 18.1136 0.0000
# 6 0.0000 0.0000 0.0000 -8.6676 0.0000 27.7113
#
#
#
# Elastic Compliance Matrix: (Units=1/GPa)
#
#
# Indices 1 2 3 4 5 6 
#
# 1 0.014539 -0.004272 -0.011835 0.000000 -0.012131 0.000000
# 2 -0.004272 0.022229 -0.006512 0.000000 0.008664 0.000000
# 3 -0.011835 -0.006512 0.029669 0.000000 0.023115 0.000000
# 4 0.000000 0.000000 0.000000 0.049031 0.000000 0.015336
# 5 -0.012131 0.008664 0.023115 0.000000 0.082640 0.000000
# 6 0.000000 0.000000 0.000000 0.015336 0.000000 0.040883
#
#
# Mechanical properties :
#
#
# Convention : Reuss Voigt Hill
#
# Bulk Modulus (GPa) = 47.17339 67.30207 57.23773
# Shear Modulus (GPa) = 17.16456 22.60072 19.88264
#
# Velocity S-wave (km/s) = 3.15942 3.62537 3.40039
# Velocity P-wave (km/s) = 6.38300 7.52752 6.97876
#
# Compressibility (1/GPa) = 0.02119839
#
# Stress axis : x y z
#
# Youngs Moduli (GPa) = 68.77895 44.98603 33.70494
#
# Poissons Ratio (x) = 0.19218 0.39891
# Poissons Ratio (y) = 0.29383 0.21949
# Poissons Ratio (z) = 0.81403 0.29296
#
# Static dielectric constant tensor:
#      x y z
#    x 3.231410 0.000000 -0.125060 
#    y 0.000000 3.173560 0.000000 
#    z -0.125060 0.000000 3.320020 
# 
# 
# High freq. dielectric constant tensor:
#      x y z
#    x 1.648370 0.000000 -0.020260 
#    y 0.000000 1.658550 0.000000 
#    z -0.020260 0.000000 1.663240 
# 
# From -- ./inp_files/281301.got.cif
#   From: 2010.06.25/outbox.cif.g09.slc.cpg/sg12_141_cif.got.tgz:281301.got - 2010.06.28 00:19:55.
