data_PCOD8079280
_publ_section_title
;
Structure prediction by ZEFSAII (Michael W. Deem and Ramdas Pophale) SiO2 
 PCOD8079280
Probable space group: C 2/M
;
_chemical_formula_sum "Si O2"
_cell_formula_units_Z 36
_cell_length_a 15.628762
_cell_length_b 14.067865
_cell_length_c 7.883716
_cell_angle_alpha 90.000000
_cell_angle_beta 95.251055
_cell_angle_gamma 90.000000
_cell_volume 1726.065519
_symmetry_space_group_name_H-M "C 2/M"
_symmetry_group_IT_number 12
_symmetry_cell_setting 'monoclinic'
loop_
_space_group_symop_operation_xyz
x,y,z
-x,y,-z
-x,-y,-z
x,-y,z
1/2+x,1/2+y,z
1/2-x,1/2+y,-z
1/2-x,1/2-y,-z
1/2+x,1/2-y,z
loop_
_atom_site_type_symbol
_atom_site_label
_atom_site_fract_x
_atom_site_fract_y
_atom_site_fract_z
Si Si1 0.919212 0.390958 0.302193
Si Si2 0.160410 0.299120 0.017434
Si Si3 0.563113 0.397532 0.355162
Si Si4 0.894436 0.690908 0.641936
Si Si5 0.500000 0.661412 0.000000
O O1 0.948326 0.500000 0.319705
O O2 0.867142 0.361681 0.463895
O O3 0.003934 0.325575 0.303004
O O4 0.856993 0.377907 0.130160
O O5 0.159277 0.347829 0.205324
O O6 0.250000 0.250000 0.000000
O O7 0.085500 0.222786 0.995693
O O8 0.500000 0.387637 0.500000
O O9 0.612846 0.500000 0.376517
O O10 0.624545 0.304770 0.373818
O O11 0.509012 0.401446 0.170351
#
# Coordination Sequence:
#
# PCOD8079280 Si02
#       5
#     8   8   8   8   4
#     4  11  21  38  65  93 122 163 209 256 310 371
#     4  11  22  38  63  87 124 167 201 253 313 366
#     4  10  17  29  56  84 111 151 197 239 292 356
#     4  10  19  38  60  91 124 157 203 256 314 359
#     4  10  19  40  55  82 118 156 199 252 303 354
#
# _framework density 20.856683
#
# number of rings (size 3 to 8) (size 9 to 14) (size 15 to 20)
#    0.000    1.556    6.667    1.667    0.000    3.556 
#    0.000    5.556    0.000    5.333    0.000    0.000 
#    0.000    0.000    0.000    0.000    0.000    0.000 
#
# Total GULP energy -223040.769249 kJ/mol
# GULP energy per Si atom -12391.153847 kJ/mol
# Density = 2.080921 g / cm^3
# Si number density = 20.856683 Si / 1000 Ang^3
#
#
#
# Elastic Constant Matrix: (Units=GPa)
#
#
# Indices 1 2 3 4 5 6 
#
# 1 79.0524 17.7905 32.1821 0.0000 -13.1549 0.0000
# 2 17.7905 115.1381 33.0102 0.0000 0.1076 0.0000
# 3 32.1821 33.0102 177.9485 0.0000 -40.2300 0.0000
# 4 0.0000 0.0000 0.0000 81.4104 0.0000 -15.8737
# 5 -13.1549 0.1076 -40.2300 0.0000 23.4390 0.0000
# 6 0.0000 0.0000 0.0000 -15.8737 0.0000 10.7602
#
#
#
# Elastic Compliance Matrix: (Units=1/GPa)
#
#
# Indices 1 2 3 4 5 6 
#
# 1 0.014556 -0.002068 -0.000653 0.000000 0.007058 0.000000
# 2 -0.002068 0.009816 -0.002810 0.000000 -0.006028 0.000000
# 3 -0.000653 -0.002810 0.010097 0.000000 0.016976 0.000000
# 4 0.000000 0.000000 0.000000 0.017243 0.000000 0.025438
# 5 0.007058 -0.006028 0.016976 0.000000 0.075790 0.000000
# 6 0.000000 0.000000 0.000000 0.025438 0.000000 0.130462
#
#
# Mechanical properties :
#
#
# Convention : Reuss Voigt Hill
#
# Bulk Modulus (GPa) = 42.72402 59.78941 51.25672
# Shear Modulus (GPa) = 18.06170 42.39900 30.23035
#
# Velocity S-wave (km/s) = 2.94596 4.51363 3.81127
# Velocity P-wave (km/s) = 5.66574 7.47615 6.63300
#
# Compressibility (1/GPa) = 0.02340604
#
# Stress axis : x y z
#
# Youngs Moduli (GPa) = 68.70180 101.87440 99.04044
#
# Poissons Ratio (x) = 0.21072 0.06468
# Poissons Ratio (y) = 0.14210 0.27828
# Poissons Ratio (z) = 0.04487 0.28624
#
# Static dielectric constant tensor:
#      x y z
#    x 3.157260 0.000000 -0.245370 
#    y 0.000000 3.807300 0.000000 
#    z -0.245370 0.000000 4.661830 
# 
# 
# High freq. dielectric constant tensor:
#      x y z
#    x 1.753600 0.000000 -0.024080 
#    y 0.000000 1.810240 0.000000 
#    z -0.024080 0.000000 1.852100 
# 
# From -- ./inp_files/58608.got.cif
#   From: 2010.06.25/outbox.cif.g09.slc.cpg/sg12_30_cif.got.tgz:58608.got - 2010.06.28 00:19:55.
