data_PCOD8079076
_publ_section_title
;
Structure prediction by ZEFSAII (Michael W. Deem and Ramdas Pophale) SiO2 
 PCOD8079076
Probable space group: C 2/M
;
_chemical_formula_sum "Si O2"
_cell_formula_units_Z 56
_cell_length_a 10.119253
_cell_length_b 25.271204
_cell_length_c 15.362917
_cell_angle_alpha 90.000000
_cell_angle_beta 62.007352
_cell_angle_gamma 90.000000
_cell_volume 3469.066499
_symmetry_space_group_name_H-M "C 2/M"
_symmetry_group_IT_number 12
_symmetry_cell_setting 'monoclinic'
loop_
_space_group_symop_operation_xyz
x,y,z
-x,y,-z
-x,-y,-z
x,-y,z
1/2+x,1/2+y,z
1/2-x,1/2+y,-z
1/2-x,1/2-y,-z
1/2+x,1/2-y,z
loop_
_atom_site_type_symbol
_atom_site_label
_atom_site_fract_x
_atom_site_fract_y
_atom_site_fract_z
Si Si1 0.066485 0.297072 0.615628
Si Si2 0.973915 0.599284 0.739541
Si Si3 0.171817 0.098850 0.728558
Si Si4 0.935882 0.938344 0.927410
Si Si5 0.070300 0.500000 0.615773
Si Si6 0.734873 0.000000 0.396482
Si Si7 0.094106 0.438514 0.055412
Si Si8 0.266631 0.796231 0.611664
O O1 0.049159 0.346231 0.685983
O O2 0.145986 0.250468 0.644126
O O3 0.170397 0.313306 0.502047
O O4 0.903840 0.278492 0.631330
O O5 0.078539 0.551894 0.673184
O O6 0.807634 0.591936 0.753875
O O7 0.964626 0.597266 0.846917
O O8 0.173324 0.052290 0.656995
O O9 0.178960 0.154208 0.677282
O O10 0.016707 0.096182 0.828629
O O11 0.968717 0.000000 0.899304
O O12 0.762563 0.924185 0.978483
O O13 0.000000 0.921033 0.000000
O O14 0.212091 0.500000 0.507440
O O15 0.922043 0.500000 0.604149
O O16 0.080566 0.500000 0.086859
O O17 0.000000 0.424311 0.000000
#
# Coordination Sequence:
#
# PCOD8079076 Si02
#       8
#     8   8   8   8   4   4   8   8
#     4   9  18  33  53  74  97 131 168 205 241 290
#     4  10  17  29  50  73 100 131 161 199 249 292
#     4  10  17  28  49  76 102 127 158 204 248 290
#     4  10  18  29  50  73  98 131 166 200 244 292
#     4   9  16  24  42  73 106 129 151 191 248 303
#     4   9  16  24  40  76 108 124 149 197 250 294
#     4  10  20  33  48  71 102 134 168 202 237 294
#     4   9  18  33  52  74 100 129 168 204 241 289
#
# _framework density 16.142671
#
# number of rings (size 3 to 8) (size 9 to 14) (size 15 to 20)
#    0.000    2.429    2.857    0.857    0.000    3.429 
#    2.571    0.000    0.000    1.714    0.000    1.000 
#    0.000    0.000    0.000    0.000    0.000    0.000 
#
# Total GULP energy -347220.191284 kJ/mol
# GULP energy per Si atom -12400.721117 kJ/mol
# Density = 1.610593 g / cm^3
# Si number density = 16.142671 Si / 1000 Ang^3
#
#
#
# Elastic Constant Matrix: (Units=GPa)
#
#
# Indices 1 2 3 4 5 6 
#
# 1 80.7206 53.9024 54.8027 0.0000 -0.4210 0.0000
# 2 53.9024 112.5222 76.5660 0.0000 0.0846 0.0000
# 3 54.8027 76.5660 138.9749 0.0000 -2.3471 0.0000
# 4 0.0000 0.0000 0.0000 26.3268 0.0000 -0.6288
# 5 -0.4210 0.0846 -2.3471 0.0000 17.5208 0.0000
# 6 0.0000 0.0000 0.0000 -0.6288 0.0000 35.1829
#
#
#
# Elastic Compliance Matrix: (Units=1/GPa)
#
#
# Indices 1 2 3 4 5 6 
#
# 1 0.019563 -0.006593 -0.004083 0.000000 -0.000045 0.000000
# 2 -0.006593 0.016461 -0.006488 0.000000 -0.001107 0.000000
# 3 -0.004083 -0.006488 0.012407 0.000000 0.001595 0.000000
# 4 0.000000 0.000000 0.000000 0.038000 0.000000 0.000679
# 5 -0.000045 -0.001107 0.001595 0.000000 0.057293 0.000000
# 6 0.000000 0.000000 0.000000 0.000679 0.000000 0.028435
#
#
# Mechanical properties :
#
#
# Convention : Reuss Voigt Hill
#
# Bulk Modulus (GPa) = 70.90516 78.08442 74.49479
# Shear Modulus (GPa) = 23.67575 25.60253 24.63914
#
# Velocity S-wave (km/s) = 3.83385 3.98680 3.91107
# Velocity P-wave (km/s) = 7.97604 8.34681 8.16353
#
# Compressibility (1/GPa) = 0.01410335
#
# Stress axis : x y z
#
# Youngs Moduli (GPa) = 51.11789 60.75008 80.60202
#
# Poissons Ratio (x) = 0.40054 0.32906
# Poissons Ratio (y) = 0.33703 0.52292
# Poissons Ratio (z) = 0.20869 0.39412
#
# Static dielectric constant tensor:
#      x y z
#    x 2.808660 0.000000 -0.004480 
#    y 0.000000 2.886450 0.000000 
#    z -0.004480 0.000000 3.078370 
# 
# 
# High freq. dielectric constant tensor:
#      x y z
#    x 1.594970 0.000000 -0.002640 
#    y 0.000000 1.602460 0.000000 
#    z -0.002640 0.000000 1.630060 
# 
# From -- ./inp_files/199734.got.cif
#   From: 2010.06.25/outbox.cif.g09.slc.cpg/sg12_100_cif.got.tgz:199734.got - 2010.06.28 00:19:55.
