data_PCOD8079358
_publ_section_title
;
Structure prediction by ZEFSAII (Michael W. Deem and Ramdas Pophale) SiO2 
 PCOD8079358
Probable space group: C 2/M
;
_chemical_formula_sum "Si O2"
_cell_formula_units_Z 52
_cell_length_a 20.453711
_cell_length_b 14.772730
_cell_length_c 17.862602
_cell_angle_alpha 90.000000
_cell_angle_beta 32.572885
_cell_angle_gamma 90.000000
_cell_volume 2905.762350
_symmetry_space_group_name_H-M "C 2/M"
_symmetry_group_IT_number 12
_symmetry_cell_setting 'monoclinic'
loop_
_space_group_symop_operation_xyz
x,y,z
-x,y,-z
-x,-y,-z
x,-y,z
1/2+x,1/2+y,z
1/2-x,1/2+y,-z
1/2-x,1/2-y,-z
1/2+x,1/2-y,z
loop_
_atom_site_type_symbol
_atom_site_label
_atom_site_fract_x
_atom_site_fract_y
_atom_site_fract_z
Si Si1 0.653905 0.716914 0.216191
Si Si2 0.250928 0.265385 0.711389
Si Si3 0.933506 0.600306 0.759057
Si Si4 0.624772 0.899912 0.023850
Si Si5 0.000000 0.326834 0.000000
Si Si6 0.441088 0.603326 0.475136
Si Si7 0.398036 0.100903 0.538128
O O1 0.686605 0.726536 0.269927
O O2 0.651788 0.816886 0.182773
O O3 0.527365 0.660295 0.334598
O O4 0.761585 0.664933 0.070426
O O5 0.105315 0.268101 0.858942
O O6 0.309543 0.346114 0.604432
O O7 0.282792 0.166597 0.648833
O O8 0.872570 0.500000 0.804404
O O9 0.964147 0.610856 0.818194
O O10 0.054146 0.604967 0.592867
O O11 0.679935 0.000000 0.966365
O O12 0.555503 0.886329 0.012757
O O13 0.500000 0.600537 0.500000
O O14 0.422973 0.500000 0.463475
O O15 0.500000 0.133653 0.500000
O O16 0.355339 0.000000 0.601186
#
# Coordination Sequence:
#
# PCOD8079358 Si02
#       7
#     8   8   8   8   4   8   8
#     4  10  17  30  51  76 107 130 159 211 269 310
#     4  10  18  32  49  75 102 133 173 210 247 305
#     4  10  19  31  52  82 106 130 167 211 262 309
#     4  10  21  35  51  75 105 139 176 210 248 304
#     4  10  23  36  53  68 100 146 181 210 247 294
#     4   9  16  26  45  73 100 129 165 208 256 300
#     4  10  17  30  55  81 104 131 164 210 262 307
#
# _framework density 17.895475999999999
#
# number of rings (size 3 to 8) (size 9 to 14) (size 15 to 20)
#    0.000    2.154    3.077    1.615    0.000    4.308 
#    0.000    1.154    0.000    0.923    0.000    0.000 
#    0.000    0.000    0.000    0.000    0.000    0.000 
#
# Total GULP energy -322117.916850 kJ/mol
# GULP energy per Si atom -12389.150648 kJ/mol
# Density = 1.785474 g / cm^3
# Si number density = 17.895476 Si / 1000 Ang^3
#
#
#
# Elastic Constant Matrix: (Units=GPa)
#
#
# Indices 1 2 3 4 5 6 
#
# 1 24.8654 20.3044 34.8912 0.0000 -2.9632 0.0000
# 2 20.3044 142.6070 60.0170 0.0000 -16.3238 0.0000
# 3 34.8912 60.0170 121.6634 0.0001 -6.0487 0.0000
# 4 0.0000 0.0000 0.0001 29.4197 0.0000 0.8970
# 5 -2.9632 -16.3238 -6.0487 0.0000 27.9598 0.0000
# 6 0.0000 0.0000 0.0000 0.8970 0.0000 11.6068
#
#
#
# Elastic Compliance Matrix: (Units=1/GPa)
#
#
# Indices 1 2 3 4 5 6 
#
# 1 0.067816 -0.001591 -0.018552 0.000000 0.002245 0.000000
# 2 -0.001591 0.009421 -0.003969 0.000000 0.004473 0.000000
# 3 -0.018552 -0.003969 0.015451 0.000000 -0.000941 0.000000
# 4 0.000000 0.000000 0.000000 0.034071 0.000000 -0.002633
# 5 0.002245 0.004473 -0.000941 0.000000 0.038412 0.000000
# 6 0.000000 0.000000 0.000000 -0.002633 0.000000 0.086360
#
#
# Mechanical properties :
#
#
# Convention : Reuss Voigt Hill
#
# Bulk Modulus (GPa) = 22.49012 57.72901 40.10957
# Shear Modulus (GPa) = 15.89447 25.39215 20.64331
#
# Velocity S-wave (km/s) = 2.98347 3.77093 3.40008
# Velocity P-wave (km/s) = 4.94600 7.16163 6.15434
#
# Compressibility (1/GPa) = 0.04446397
#
# Stress axis : x y z
#
# Youngs Moduli (GPa) = 14.74589 106.14444 64.72101
#
# Poissons Ratio (x) = 0.16886 1.20071
# Poissons Ratio (y) = 0.02346 0.25687
# Poissons Ratio (z) = 0.27357 0.42127
#
# Static dielectric constant tensor:
#      x y z
#    x 2.945350 0.000000 0.047870 
#    y 0.000000 3.743070 0.000000 
#    z 0.047870 0.000000 3.641120 
# 
# 
# High freq. dielectric constant tensor:
#      x y z
#    x 1.631090 0.000000 0.019710 
#    y 0.000000 1.710110 0.000000 
#    z 0.019710 0.000000 1.697650 
# 
# From -- ./inp_files/289750.got.cif
#   From: 2010.06.25/outbox.cif.g09.slc.cpg/sg12_145_cif.got.tgz:289750.got - 2010.06.28 00:19:55.
