data_PCOD8079960
_publ_section_title
;
Structure prediction by ZEFSAII (Michael W. Deem and Ramdas Pophale) SiO2 
 PCOD8079960
Probable space group: C 2/M
;
_chemical_formula_sum "Si O2"
_cell_formula_units_Z 64
_cell_length_a 34.032346
_cell_length_b 9.018699
_cell_length_c 13.606917
_cell_angle_alpha 90.000000
_cell_angle_beta 102.467182
_cell_angle_gamma 90.000000
_cell_volume 4077.858036
_symmetry_space_group_name_H-M "C 2/M"
_symmetry_group_IT_number 12
_symmetry_cell_setting 'monoclinic'
loop_
_space_group_symop_operation_xyz
x,y,z
-x,y,-z
-x,-y,-z
x,-y,z
1/2+x,1/2+y,z
1/2-x,1/2+y,-z
1/2-x,1/2-y,-z
1/2+x,1/2-y,z
loop_
_atom_site_type_symbol
_atom_site_label
_atom_site_fract_x
_atom_site_fract_y
_atom_site_fract_z
Si Si1 0.723754 0.172928 0.285214
Si Si2 0.237432 0.172181 0.894407
Si Si3 0.496013 0.663287 0.381465
Si Si4 0.653709 0.833720 0.377714
Si Si5 0.917556 0.675130 0.352533
Si Si6 0.158434 0.174224 0.741164
Si Si7 0.083881 0.174208 0.438038
Si Si8 0.796714 0.330886 0.403588
O O1 0.732320 0.219925 0.177109
O O2 0.676850 0.202150 0.287569
O O3 0.751367 0.270824 0.372163
O O4 0.735060 0.000000 0.306285
O O5 0.191500 0.215254 0.841600
O O6 0.240928 0.000000 0.916134
O O7 0.250000 0.250000 0.000000
O O8 0.500000 0.656649 0.500000
O O9 0.484317 0.500000 0.334846
O O10 0.461163 0.778450 0.332759
O O11 0.540165 0.711956 0.366246
O O12 0.617240 0.720782 0.376278
O O13 0.688663 0.820073 0.477234
O O14 0.635706 0.000000 0.366646
O O15 0.914456 0.500000 0.354422
O O16 0.883546 0.740738 0.261003
O O17 0.909829 0.737207 0.457576
O O18 0.174313 0.226835 0.644391
O O19 0.150192 0.000000 0.732808
O O20 0.087026 0.000000 0.463302
O O21 0.798838 0.500000 0.366046
#
# Coordination Sequence:
#
# PCOD8079960 Si02
#       8
#     8   8   8   8   8   8   8   8
#     4   9  19  33  45  61  86 117 146 178 222 268
#     4   9  19  34  51  67  86 113 144 180 226 268
#     4   8  16  29  41  56  81 117 154 184 217 257
#     4  10  19  29  42  61  88 117 151 186 215 252
#     4  11  19  27  42  64  87 114 151 190 221 253
#     4  10  19  31  46  64  88 119 148 180 223 269
#     4  10  19  29  42  59  85 122 156 183 218 258
#     4  10  18  27  41  63  86 113 148 184 215 249
#
# _framework density 15.694514
#
# number of rings (size 3 to 8) (size 9 to 14) (size 15 to 20)
#    0.000    2.375    1.250    4.125    0.000    6.250 
#    0.000    0.000    0.000    0.000    0.000    0.000 
#    0.000    1.000    0.000   11.250    0.000    5.000 
#
# Total GULP energy -396648.881406 kJ/mol
# GULP energy per Si atom -12395.277544 kJ/mol
# Density = 1.565879 g / cm^3
# Si number density = 15.694514 Si / 1000 Ang^3
#
#
#
# Elastic Constant Matrix: (Units=GPa)
#
#
# Indices 1 2 3 4 5 6 
#
# 1 127.8704 61.0967 42.5343 0.0000 -1.2596 0.0000
# 2 61.0967 92.4751 32.6308 0.0000 5.1742 0.0000
# 3 42.5343 32.6308 53.3708 0.0000 1.2853 0.0000
# 4 0.0000 0.0000 0.0000 18.0869 0.0000 2.2375
# 5 -1.2596 5.1742 1.2853 0.0000 13.4307 0.0000
# 6 0.0000 0.0000 0.0000 2.2375 0.0000 26.6098
#
#
#
# Elastic Compliance Matrix: (Units=1/GPa)
#
#
# Indices 1 2 3 4 5 6 
#
# 1 0.013242 -0.006676 -0.006579 0.000000 0.004444 0.000000
# 2 -0.006676 0.017433 -0.005173 0.000000 -0.006847 0.000000
# 3 -0.006579 -0.005173 0.027172 0.000000 -0.001224 0.000000
# 4 0.000000 0.000000 0.000000 0.055870 0.000000 -0.004698
# 5 0.004444 -0.006847 -0.001224 0.000000 0.077628 0.000000
# 6 0.000000 0.000000 0.000000 -0.004698 0.000000 0.037975
#
#
# Mechanical properties :
#
#
# Convention : Reuss Voigt Hill
#
# Bulk Modulus (GPa) = 47.63826 60.69333 54.16580
# Shear Modulus (GPa) = 18.30335 20.78912 19.54624
#
# Velocity S-wave (km/s) = 3.41871 3.64347 3.53288
# Velocity P-wave (km/s) = 6.78253 7.51368 7.15745
#
# Compressibility (1/GPa) = 0.02099153
#
# Stress axis : x y z
#
# Youngs Moduli (GPa) = 75.51445 57.36221 36.80243
#
# Poissons Ratio (x) = 0.38297 0.24212
# Poissons Ratio (y) = 0.50416 0.19038
# Poissons Ratio (z) = 0.49680 0.29673
#
# Static dielectric constant tensor:
#      x y z
#    x 3.363120 0.000000 0.009450 
#    y 0.000000 3.062870 0.000000 
#    z 0.009450 0.000000 2.565760 
# 
# 
# High freq. dielectric constant tensor:
#      x y z
#    x 1.611260 0.000000 -0.001170 
#    y 0.000000 1.611990 0.000000 
#    z -0.001170 0.000000 1.535840 
# 
# From -- ./inp_files/248349.got.cif
#   From: 2010.06.25/outbox.cif.g09.slc.cpg/sg12_125_cif.got.tgz:248349.got - 2010.06.28 00:19:55.
