data_PCOD8079283
_publ_section_title
;
Structure prediction by ZEFSAII (Michael W. Deem and Ramdas Pophale) SiO2 
 PCOD8079283
Probable space group: C 2/M
;
_chemical_formula_sum "Si O2"
_cell_formula_units_Z 48
_cell_length_a 13.954414
_cell_length_b 28.449952
_cell_length_c 14.656031
_cell_angle_alpha 90.000000
_cell_angle_beta 149.128730
_cell_angle_gamma 90.000000
_cell_volume 2985.525455
_symmetry_space_group_name_H-M "C 2/M"
_symmetry_group_IT_number 12
_symmetry_cell_setting 'monoclinic'
loop_
_space_group_symop_operation_xyz
x,y,z
-x,y,-z
-x,-y,-z
x,-y,z
1/2+x,1/2+y,z
1/2-x,1/2+y,-z
1/2-x,1/2-y,-z
1/2+x,1/2-y,z
loop_
_atom_site_type_symbol
_atom_site_label
_atom_site_fract_x
_atom_site_fract_y
_atom_site_fract_z
Si Si1 0.840354 0.192899 0.945131
Si Si2 0.892417 0.807164 0.682596
Si Si3 0.521229 0.248687 0.414385
Si Si4 0.255639 0.401147 0.630635
Si Si5 0.348866 0.500000 0.736103
Si Si6 0.339661 0.100304 0.242353
Si Si7 0.246235 0.500000 0.849175
O O1 0.670969 0.225901 0.776348
O O2 0.758321 0.140616 0.897709
O O3 0.000000 0.191724 0.000000
O O4 0.937808 0.212805 0.116583
O O5 0.691735 0.787991 0.551228
O O6 0.930777 0.793488 0.609426
O O7 0.893593 0.863564 0.696892
O O8 0.500000 0.267224 0.500000
O O9 0.310976 0.453868 0.643140
O O10 0.276068 0.400926 0.757150
O O11 0.051099 0.385680 0.433218
O O12 0.211526 0.500000 0.711262
O O13 0.549057 0.500000 0.944638
O O14 0.341606 0.049856 0.190755
#
# Coordination Sequence:
#
# PCOD8079283 Si02
#       7
#     8   8   8   8   4   8   4
#     4  12  20  32  52  72  98 136 163 203 243 291
#     4  11  22  34  54  72  98 129 168 201 248 292
#     4  11  22  38  51  72  97 129 165 212 246 290
#     4  10  17  30  43  69  92 132 163 197 235 288
#     4   9  17  25  43  59  97 126 162 194 234 280
#     4  10  18  27  45  64 101 129 164 194 233 285
#     4   9  17  25  35  67  93 133 161 188 230 283
#
# _framework density 16.077572
#
# number of rings (size 3 to 8) (size 9 to 14) (size 15 to 20)
#    0.000    1.500    5.000    2.000    2.333    2.000 
#    0.000    0.000    0.000    0.000    0.000    0.583 
#    0.000    0.000    0.000    5.917    0.000    0.167 
#
# Total GULP energy -297419.768395 kJ/mol
# GULP energy per Si atom -12392.490350 kJ/mol
# Density = 1.604098 g / cm^3
# Si number density = 16.077572 Si / 1000 Ang^3
#
#
#
# Elastic Constant Matrix: (Units=GPa)
#
#
# Indices 1 2 3 4 5 6 
#
# 1 59.7018 33.5317 29.9896 0.0000 -6.9750 0.0000
# 2 33.5317 92.5767 30.9348 0.0000 -3.1604 0.0000
# 3 29.9896 30.9348 94.0924 0.0000 2.8259 0.0000
# 4 0.0000 0.0000 0.0000 21.0256 0.0000 1.6771
# 5 -6.9750 -3.1604 2.8259 0.0000 18.3858 0.0000
# 6 0.0000 0.0000 0.0000 1.6771 0.0000 14.5063
#
#
#
# Elastic Compliance Matrix: (Units=1/GPa)
#
#
# Indices 1 2 3 4 5 6 
#
# 1 0.024472 -0.006580 -0.005909 0.000000 0.009061 0.000000
# 2 -0.006580 0.014040 -0.002528 0.000000 0.000306 0.000000
# 3 -0.005909 -0.002528 0.013485 0.000000 -0.004749 0.000000
# 4 0.000000 0.000000 0.000000 0.048004 0.000000 -0.005550
# 5 0.009061 0.000306 -0.004749 0.000000 0.058610 0.000000
# 6 0.000000 0.000000 0.000000 -0.005550 0.000000 0.069577
#
#
# Mechanical properties :
#
#
# Convention : Reuss Voigt Hill
#
# Bulk Modulus (GPa) = 45.52945 48.36479 46.94712
# Shear Modulus (GPa) = 18.82930 20.91119 19.87025
#
# Velocity S-wave (km/s) = 3.42592 3.61036 3.51935
# Velocity P-wave (km/s) = 6.63546 6.89398 6.76596
#
# Compressibility (1/GPa) = 0.02196380
#
# Stress axis : x y z
#
# Youngs Moduli (GPa) = 40.86221 71.22286 74.15733
#
# Poissons Ratio (x) = 0.46867 0.43818
# Poissons Ratio (y) = 0.26889 0.18747
# Poissons Ratio (z) = 0.24144 0.18005
#
# Static dielectric constant tensor:
#      x y z
#    x 2.604740 0.000000 0.103510 
#    y 0.000000 3.190080 0.000000 
#    z 0.103510 0.000000 3.247970 
# 
# 
# High freq. dielectric constant tensor:
#      x y z
#    x 1.543170 0.000000 0.019860 
#    y 0.000000 1.621470 0.000000 
#    z 0.019860 0.000000 1.643490 
# 
# From -- ./inp_files/209803.got.cif
#   From: 2010.06.25/outbox.cif.g09.slc.cpg/sg12_105_cif.got.tgz:209803.got - 2010.06.28 00:19:55.
