data_PCOD8079703
_publ_section_title
;
Structure prediction by ZEFSAII (Michael W. Deem and Ramdas Pophale) SiO2 
 PCOD8079703
Probable space group: C 2/M
;
_chemical_formula_sum "Si O2"
_cell_formula_units_Z 48
_cell_length_a 17.114291
_cell_length_b 31.314230
_cell_length_c 8.589882
_cell_angle_alpha 90.000000
_cell_angle_beta 34.333406
_cell_angle_gamma 90.000000
_cell_volume 2596.407216
_symmetry_space_group_name_H-M "C 2/M"
_symmetry_group_IT_number 12
_symmetry_cell_setting 'monoclinic'
loop_
_space_group_symop_operation_xyz
x,y,z
-x,y,-z
-x,-y,-z
x,-y,z
1/2+x,1/2+y,z
1/2-x,1/2+y,-z
1/2-x,1/2-y,-z
1/2+x,1/2-y,z
loop_
_atom_site_type_symbol
_atom_site_label
_atom_site_fract_x
_atom_site_fract_y
_atom_site_fract_z
Si Si1 0.701039 0.670419 0.293281
Si Si2 0.105485 0.827948 0.099786
Si Si3 0.152452 0.748356 0.808260
Si Si4 0.340481 0.000000 0.232804
Si Si5 0.146965 0.000000 0.838813
Si Si6 0.661496 0.907053 0.770926
Si Si7 0.147248 0.091863 0.838885
O O1 0.561712 0.673461 0.626103
O O2 0.665325 0.675667 0.172559
O O3 0.804218 0.708865 0.157343
O O4 0.780318 0.626364 0.199379
O O5 0.163472 0.791055 0.892828
O O6 0.163511 0.872691 0.942933
O O7 0.250000 0.750000 0.500000
O O8 0.000000 0.739662 0.000000
O O9 0.305350 0.045571 0.208260
O O10 0.268338 0.000000 0.516168
O O11 0.500000 0.000000 0.000000
O O12 0.160157 0.954570 0.906920
O O13 0.000000 0.000000 0.000000
O O14 0.735882 0.901637 0.482971
O O15 0.500000 0.899782 0.000000
O O16 0.000000 0.096735 0.000000
#
# Coordination Sequence:
#
# PCOD8079703 Si02
#       7
#     8   8   8   4   4   8   8
#     4  11  23  39  57  84 117 147 183 229 286 340
#     4  11  23  39  57  83 118 150 176 231 294 333
#     4  12  23  41  63  84 106 143 193 231 274 332
#     4   8  16  30  53  81 113 145 184 233 275 312
#     4   8  16  26  51  83 107 139 186 236 259 312
#     4  10  19  35  58  86 113 148 192 233 272 325
#     4  10  17  34  57  81 111 148 191 224 272 327
#
# _framework density 18.487085
#
# number of rings (size 3 to 8) (size 9 to 14) (size 15 to 20)
#    0.000    1.667    3.333    2.500    0.000    0.000 
#    0.000    3.333    0.000    2.000    0.000    7.000 
#    0.000    0.000    0.000    0.000    0.000    0.000 
#
# Total GULP energy -297389.078465 kJ/mol
# GULP energy per Si atom -12391.211603 kJ/mol
# Density = 1.844501 g / cm^3
# Si number density = 18.487085 Si / 1000 Ang^3
#
#
#
# Elastic Constant Matrix: (Units=GPa)
#
#
# Indices 1 2 3 4 5 6 
#
# 1 72.5695 61.3924 41.0305 0.0000 -5.1748 0.0000
# 2 61.3924 195.1585 48.1332 0.0000 2.2951 0.0000
# 3 41.0305 48.1332 125.9598 0.0000 -6.4262 0.0000
# 4 0.0000 0.0000 0.0000 25.3137 0.0000 5.0962
# 5 -5.1748 2.2951 -6.4262 0.0000 21.6483 0.0000
# 6 0.0000 0.0000 0.0000 5.0962 0.0000 -20.4903
#
#
#
# Elastic Compliance Matrix: (Units=1/GPa)
#
#
# Indices 1 2 3 4 5 6 
#
# 1 0.021503 -0.005678 -0.004611 0.000000 0.004373 0.000000
# 2 -0.005678 0.007191 -0.001022 0.000000 -0.002423 0.000000
# 3 -0.004611 -0.001022 0.009931 0.000000 0.001954 0.000000
# 4 0.000000 0.000000 0.000000 0.037621 0.000000 0.009357
# 5 0.004373 -0.002423 0.001954 0.000000 0.048075 0.000000
# 6 0.000000 0.000000 0.000000 0.009357 0.000000 -0.046477
#
#
# Mechanical properties :
#
#
# Convention : Reuss Voigt Hill
#
# Bulk Modulus (GPa) = 62.49271 77.20001 69.84636
# Shear Modulus (GPa) = 47.25836 21.50312 34.38074
#
# Velocity S-wave (km/s) = 5.06146 3.41419 4.31712
# Velocity P-wave (km/s) = 8.24831 7.57574 7.91917
#
# Compressibility (1/GPa) = 0.01600187
#
# Stress axis : x y z
#
# Youngs Moduli (GPa) = 46.50558 139.06609 100.69163
#
# Poissons Ratio (x) = 0.78967 0.46433
# Poissons Ratio (y) = 0.26408 0.10288
# Poissons Ratio (z) = 0.21446 0.14209
#
# Static dielectric constant tensor:
#      x y z
#    x 3.039220 0.000000 -0.141550 
#    y 0.000000 4.122930 0.000000 
#    z -0.141550 0.000000 3.805760 
# 
# 
# High freq. dielectric constant tensor:
#      x y z
#    x 1.676280 0.000000 -0.013950 
#    y 0.000000 1.748470 0.000000 
#    z -0.013950 0.000000 1.730720 
# 
# From -- ./inp_files/80663.got.cif
#   From: 2010.06.25/outbox.cif.g09.slc.cpg/sg12_41_cif.got.tgz:80663.got - 2010.06.28 00:19:55.
