data_PCOD8079218
_publ_section_title
;
Structure prediction by ZEFSAII (Michael W. Deem and Ramdas Pophale) SiO2 
 PCOD8079218
Probable space group: C 2/M
;
_chemical_formula_sum "Si O2"
_cell_formula_units_Z 56
_cell_length_a 19.336703
_cell_length_b 9.047953
_cell_length_c 24.200637
_cell_angle_alpha 90.000000
_cell_angle_beta 48.268930
_cell_angle_gamma 90.000000
_cell_volume 3159.801584
_symmetry_space_group_name_H-M "C 2/M"
_symmetry_group_IT_number 12
_symmetry_cell_setting 'monoclinic'
loop_
_space_group_symop_operation_xyz
x,y,z
-x,y,-z
-x,-y,-z
x,-y,z
1/2+x,1/2+y,z
1/2-x,1/2+y,-z
1/2-x,1/2-y,-z
1/2+x,1/2-y,z
loop_
_atom_site_type_symbol
_atom_site_label
_atom_site_fract_x
_atom_site_fract_y
_atom_site_fract_z
Si Si1 0.195250 0.327969 0.197572
Si Si2 0.639968 0.675314 0.399566
Si Si3 0.500017 0.674875 0.697409
Si Si4 0.047505 0.174484 0.554680
Si Si5 0.701348 0.173565 0.763910
Si Si6 0.185840 0.669280 0.077159
Si Si7 0.020340 0.327107 0.796723
O O1 0.179409 0.500000 0.219268
O O2 0.101560 0.239932 0.259472
O O3 0.277232 0.262144 0.191548
O O4 0.224877 0.306089 0.118081
O O5 0.643372 0.500000 0.396617
O O6 0.628892 0.731187 0.469629
O O7 0.551997 0.736854 0.412316
O O8 0.733396 0.733762 0.320712
O O9 0.490804 0.500000 0.709449
O O10 0.563444 0.718258 0.610290
O O11 0.548306 0.743985 0.725435
O O12 0.041690 0.000000 0.552227
O O13 0.595483 0.207856 0.803720
O O14 0.716674 0.000000 0.766575
O O15 0.187001 0.500000 0.059316
O O16 0.080078 0.729275 0.129362
O O17 0.250000 0.750000 0.000000
O O18 0.016017 0.500000 0.784339
#
# Coordination Sequence:
#
# PCOD8079218 Si02
#       7
#     8   8   8   8   8   8   8
#     4  10  20  33  51  76 105 129 157 204 251 285
#     4   8  13  23  42  69  97 125 162 210 249 278
#     4  10  17  29  50  73  95 130 178 210 239 294
#     4   8  13  22  41  70  97 121 164 217 247 274
#     4  10  18  32  53  74  98 134 174 200 237 299
#     4   9  19  36  55  75  98 126 158 196 242 290
#     4   9  20  35  50  73 105 132 158 203 253 290
#
# _framework density 17.722631
#
# number of rings (size 3 to 8) (size 9 to 14) (size 15 to 20)
#    0.000    2.857    1.429    2.571    0.000    3.429 
#    0.000    1.429    0.000    6.857    0.000    0.000 
#    0.000    0.000    0.000    0.000    0.000    0.000 
#
# Total GULP energy -346980.400924 kJ/mol
# GULP energy per Si atom -12392.157176 kJ/mol
# Density = 1.768229 g / cm^3
# Si number density = 17.722631 Si / 1000 Ang^3
#
#
#
# Elastic Constant Matrix: (Units=GPa)
#
#
# Indices 1 2 3 4 5 6 
#
# 1 100.9143 34.5472 42.5891 0.0000 4.4757 0.0000
# 2 34.5472 48.2198 28.5505 0.0001 7.5141 -0.0002
# 3 42.5891 28.5505 108.1339 0.0000 8.5638 0.0000
# 4 0.0000 0.0001 0.0000 18.6738 0.0000 5.9809
# 5 4.4757 7.5141 8.5638 0.0000 20.2505 0.0000
# 6 0.0000 -0.0002 0.0000 5.9809 0.0000 25.9782
#
#
#
# Elastic Compliance Matrix: (Units=1/GPa)
#
#
# Indices 1 2 3 4 5 6 
#
# 1 0.014164 -0.008298 -0.003501 0.000000 0.001429 0.000000
# 2 -0.008298 0.030325 -0.004131 0.000000 -0.007671 0.000000
# 3 -0.003501 -0.004131 0.011934 0.000000 -0.002740 0.000000
# 4 0.000000 0.000000 0.000000 0.057814 0.000000 -0.013311
# 5 0.001429 -0.007671 -0.002740 0.000000 0.053071 0.000000
# 6 0.000000 0.000000 0.000000 -0.013311 0.000000 0.041558
#
#
# Mechanical properties :
#
#
# Convention : Reuss Voigt Hill
#
# Bulk Modulus (GPa) = 40.71015 52.07129 46.39072
# Shear Modulus (GPa) = 20.08725 23.08591 21.58658
#
# Velocity S-wave (km/s) = 3.37029 3.61310 3.49381
# Velocity P-wave (km/s) = 6.17784 6.84478 6.51984
#
# Compressibility (1/GPa) = 0.02456390
#
# Stress axis : x y z
#
# Youngs Moduli (GPa) = 70.60038 32.97648 83.79160
#
# Poissons Ratio (x) = 0.27363 0.29335
# Poissons Ratio (y) = 0.58583 0.34614
# Poissons Ratio (z) = 0.24717 0.13622
#
# Static dielectric constant tensor:
#      x y z
#    x 3.219600 0.000000 0.143430 
#    y 0.000000 3.037460 0.000000 
#    z 0.143430 0.000000 3.447710 
# 
# 
# High freq. dielectric constant tensor:
#      x y z
#    x 1.669380 0.000000 0.015490 
#    y 0.000000 1.658380 0.000000 
#    z 0.015490 0.000000 1.682040 
# 
# From -- ./inp_files/342297.got.cif
#   From: 2010.06.25/outbox.cif.g09.slc.cpg/sg12_172_cif.got.tgz:342297.got - 2010.06.28 00:19:55.
