data_PCOD8079530
_publ_section_title
;
Structure prediction by ZEFSAII (Michael W. Deem and Ramdas Pophale) SiO2 
 PCOD8079530
Probable space group: C 2/M
;
_chemical_formula_sum "Si O2"
_cell_formula_units_Z 40
_cell_length_a 15.397333
_cell_length_b 9.770906
_cell_length_c 18.328655
_cell_angle_alpha 90.000000
_cell_angle_beta 134.927438
_cell_angle_gamma 90.000000
_cell_volume 1952.294141
_symmetry_space_group_name_H-M "C 2/M"
_symmetry_group_IT_number 12
_symmetry_cell_setting 'monoclinic'
loop_
_space_group_symop_operation_xyz
x,y,z
-x,y,-z
-x,-y,-z
x,-y,z
1/2+x,1/2+y,z
1/2-x,1/2+y,-z
1/2-x,1/2-y,-z
1/2+x,1/2-y,z
loop_
_atom_site_type_symbol
_atom_site_label
_atom_site_fract_x
_atom_site_fract_y
_atom_site_fract_z
Si Si1 0.094851 0.000000 0.990472
Si Si2 0.310179 0.714202 0.316647
Si Si3 0.504631 0.500000 0.386469
Si Si4 0.104236 0.000000 0.836473
Si Si5 0.967251 0.500000 0.269666
Si Si6 0.883669 0.500000 0.383872
Si Si7 0.764183 0.500000 0.618451
Si Si8 0.714226 0.773614 0.860358
O O1 0.174104 0.138430 0.042325
O O2 0.032861 0.000000 0.872485
O O3 0.000000 0.000000 0.000000
O O4 0.441180 0.635533 0.383204
O O5 0.227262 0.628932 0.322686
O O6 0.250710 0.734904 0.202225
O O7 0.313282 0.860083 0.359109
O O8 0.488506 0.500000 0.288339
O O9 0.647200 0.500000 0.494458
O O10 0.194489 0.131195 0.890408
O O11 0.113843 0.500000 0.357246
O O12 0.920212 0.500000 0.322676
O O13 0.911171 0.361103 0.202607
O O14 0.000000 0.500000 0.500000
#
# Coordination Sequence:
#
# PCOD8079530 Si02
#       8
#     4   8   4   4   4   4   4   8
#     4  11  23  39  62  88 113 143 184 240 296 337
#     4   9  18  33  56  78 109 150 185 227 278 330
#     4   9  18  34  55  82 115 153 196 229 269 331
#     4  10  20  39  63  82 110 155 193 228 280 339
#     4   9  21  36  54  79 116 152 185 230 283 329
#     4  10  17  32  49  69 102 146 184 220 274 327
#     4  11  19  34  57  86 115 151 193 235 270 323
#     4   9  20  41  59  81 115 151 186 226 285 351
#
# _framework density 20.488714999999999
#
# number of rings (size 3 to 8) (size 9 to 14) (size 15 to 20)
#    0.000    2.400    0.000    4.200    0.000    1.600 
#    0.000   21.500    0.000    0.000    0.000    0.000 
#    0.000    0.000    0.000    0.000    0.000    0.000 
#
# Total GULP energy -247789.296537 kJ/mol
# GULP energy per Si atom -12389.464827 kJ/mol
# Density = 2.044208 g / cm^3
# Si number density = 20.488715 Si / 1000 Ang^3
#
#
#
# Elastic Constant Matrix: (Units=GPa)
#
#
# Indices 1 2 3 4 5 6 
#
# 1 44.3651 27.4578 16.8990 0.0000 9.2984 0.0000
# 2 27.4578 170.5761 26.6806 0.0000 -4.4065 0.0000
# 3 16.8990 26.6806 73.1389 0.0000 -5.5256 0.0000
# 4 0.0000 0.0000 0.0000 6.7682 0.0000 -9.1390
# 5 9.2984 -4.4065 -5.5256 0.0000 26.2044 0.0000
# 6 0.0000 0.0000 0.0000 -9.1390 0.0000 21.5893
#
#
#
# Elastic Compliance Matrix: (Units=1/GPa)
#
#
# Indices 1 2 3 4 5 6 
#
# 1 0.030271 -0.004198 -0.006430 0.000000 -0.012803 0.000000
# 2 -0.004198 0.006808 -0.001336 0.000000 0.002353 0.000000
# 3 -0.006430 -0.001336 0.016057 0.000000 0.005443 0.000000
# 4 0.000000 0.000000 0.000000 0.344885 0.000000 0.145995
# 5 -0.012803 0.002353 0.005443 0.000000 0.044248 0.000000
# 6 0.000000 0.000000 0.000000 0.145995 0.000000 0.108121
#
#
# Mechanical properties :
#
#
# Convention : Reuss Voigt Hill
#
# Bulk Modulus (GPa) = 34.23693 47.79497 41.01595
# Shear Modulus (GPa) = 8.56086 25.38189 16.97138
#
# Velocity S-wave (km/s) = 2.04631 3.52351 2.88119
# Velocity P-wave (km/s) = 4.72542 6.31915 5.57948
#
# Compressibility (1/GPa) = 0.02920823
#
# Stress axis : x y z
#
# Youngs Moduli (GPa) = 33.03502 146.88782 62.27870
#
# Poissons Ratio (x) = 0.61659 0.40046
# Poissons Ratio (y) = 0.13867 0.08319
# Poissons Ratio (z) = 0.21242 0.19622
#
# Static dielectric constant tensor:
#      x y z
#    x 3.326390 0.000000 -0.283900 
#    y 0.000000 5.523760 0.000000 
#    z -0.283900 0.000000 3.584030 
# 
# 
# High freq. dielectric constant tensor:
#      x y z
#    x 1.765110 0.000000 -0.028190 
#    y 0.000000 1.827550 0.000000 
#    z -0.028190 0.000000 1.790710 
# 
# From -- ./inp_files/268270.got.cif
#   From: 2010.06.25/outbox.cif.g09.slc.cpg/sg12_135_cif.got.tgz:268270.got - 2010.06.28 00:19:55.
