data_PCOD8079367
_publ_section_title
;
Structure prediction by ZEFSAII (Michael W. Deem and Ramdas Pophale) SiO2 
 PCOD8079367
Probable space group: C 2/M
;
_chemical_formula_sum "Si O2"
_cell_formula_units_Z 56
_cell_length_a 25.085130
_cell_length_b 9.023789
_cell_length_c 16.883385
_cell_angle_alpha 90.000000
_cell_angle_beta 120.112827
_cell_angle_gamma 90.000000
_cell_volume 3305.982589
_symmetry_space_group_name_H-M "C 2/M"
_symmetry_group_IT_number 12
_symmetry_cell_setting 'monoclinic'
loop_
_space_group_symop_operation_xyz
x,y,z
-x,y,-z
-x,-y,-z
x,-y,z
1/2+x,1/2+y,z
1/2-x,1/2+y,-z
1/2-x,1/2-y,-z
1/2+x,1/2-y,z
loop_
_atom_site_type_symbol
_atom_site_label
_atom_site_fract_x
_atom_site_fract_y
_atom_site_fract_z
Si Si1 0.494774 0.825305 0.286969
Si Si2 0.811204 0.826741 0.723135
Si Si3 0.941551 0.325545 0.409766
Si Si4 0.374501 0.324075 0.608024
Si Si5 0.903420 0.324719 0.897587
Si Si6 0.474961 0.174990 0.098530
Si Si7 0.825528 0.324698 0.420074
O O1 0.446464 0.784835 0.320370
O O2 0.557524 0.740305 0.350812
O O3 0.464679 0.772377 0.181328
O O4 0.509824 0.000000 0.297204
O O5 0.845646 0.772096 0.669626
O O6 0.840231 0.748859 0.821782
O O7 0.739754 0.781820 0.666560
O O8 0.819625 0.000000 0.740451
O O9 0.942379 0.500000 0.422573
O O10 0.877931 0.264549 0.398727
O O11 0.000000 0.256215 0.500000
O O12 0.376250 0.500000 0.601778
O O13 0.331298 0.258074 0.507659
O O14 0.895439 0.500000 0.887034
O O15 0.958907 0.266900 0.882672
O O16 0.919619 0.271038 0.999605
O O17 0.477044 0.000000 0.094054
O O18 0.830492 0.500000 0.439149
#
# Coordination Sequence:
#
# PCOD8079367 Si02
#       7
#     8   8   8   8   8   8   8
#     4  10  17  30  52  72  94 123 154 193 236 273
#     4  10  21  33  46  68  98 128 156 188 233 282
#     4   9  16  28  50  74  88 113 164 203 225 263
#     4  11  21  31  44  70 100 124 154 188 231 286
#     4   9  16  29  49  71  95 121 154 193 231 278
#     4   8  15  27  47  74  95 118 153 192 234 274
#     4  10  20  35  50  65  92 128 163 196 225 269
#
# _framework density 16.938987999999998
#
# number of rings (size 3 to 8) (size 9 to 14) (size 15 to 20)
#    0.000    2.429    2.857    1.714    0.000    1.143 
#    0.000    3.571    0.000    0.857    0.000    0.000 
#    0.000    0.000    0.000    0.000    0.000    0.000 
#
# Total GULP energy -347097.583537 kJ/mol
# GULP energy per Si atom -12396.342269 kJ/mol
# Density = 1.690043 g / cm^3
# Si number density = 16.938988 Si / 1000 Ang^3
#
#
#
# Elastic Constant Matrix: (Units=GPa)
#
#
# Indices 1 2 3 4 5 6 
#
# 1 77.6454 17.2176 52.6090 0.0000 7.6852 0.0000
# 2 17.2176 28.0095 31.3776 0.0000 4.6739 0.0000
# 3 52.6090 31.3776 156.4231 0.0000 3.3538 0.0000
# 4 0.0000 0.0000 0.0000 25.0262 0.0000 4.9196
# 5 7.6852 4.6739 3.3538 0.0000 26.7218 0.0000
# 6 0.0000 0.0000 0.0000 4.9196 0.0000 14.0633
#
#
#
# Elastic Compliance Matrix: (Units=1/GPa)
#
#
# Indices 1 2 3 4 5 6 
#
# 1 0.017602 -0.004735 -0.004893 0.000000 -0.003620 0.000000
# 2 -0.004735 0.048634 -0.008032 0.000000 -0.006137 0.000000
# 3 -0.004893 -0.008032 0.009615 0.000000 0.001605 0.000000
# 4 0.000000 0.000000 0.000000 0.042909 0.000000 -0.015010
# 5 -0.003620 -0.006137 0.001605 0.000000 0.039336 0.000000
# 6 0.000000 0.000000 0.000000 -0.015010 0.000000 0.076358
#
#
# Mechanical properties :
#
#
# Convention : Reuss Voigt Hill
#
# Bulk Modulus (GPa) = 24.67135 51.60960 38.14047
# Shear Modulus (GPa) = 17.65014 23.88721 20.76868
#
# Velocity S-wave (km/s) = 3.23148 3.75932 3.50535
# Velocity P-wave (km/s) = 5.34039 7.02691 6.24088
#
# Compressibility (1/GPa) = 0.04053285
#
# Stress axis : x y z
#
# Youngs Moduli (GPa) = 56.81032 20.56164 104.00281
#
# Poissons Ratio (x) = 0.09736 0.50885
# Poissons Ratio (y) = 0.26901 0.83531
# Poissons Ratio (z) = 0.27795 0.16514
#
# Static dielectric constant tensor:
#      x y z
#    x 3.194270 0.000000 -0.145080 
#    y 0.000000 2.852250 0.000000 
#    z -0.145080 0.000000 3.506220 
# 
# 
# High freq. dielectric constant tensor:
#      x y z
#    x 1.634010 0.000000 -0.004840 
#    y 0.000000 1.622160 0.000000 
#    z -0.004840 0.000000 1.661400 
# 
# From -- ./inp_files/287360.got.cif
#   From: 2010.06.25/outbox.cif.g09.slc.cpg/sg12_144_cif.got.tgz:287360.got - 2010.06.28 00:19:55.
