data_PCOD8079017
_publ_section_title
;
Structure prediction by ZEFSAII (Michael W. Deem and Ramdas Pophale) SiO2 
 PCOD8079017
Probable space group: C 2/M
;
_chemical_formula_sum "Si O2"
_cell_formula_units_Z 60
_cell_length_a 15.521310
_cell_length_b 17.554689
_cell_length_c 13.000752
_cell_angle_alpha 90.000000
_cell_angle_beta 121.974435
_cell_angle_gamma 90.000000
_cell_volume 3004.910193
_symmetry_space_group_name_H-M "C 2/M"
_symmetry_group_IT_number 12
_symmetry_cell_setting 'monoclinic'
loop_
_space_group_symop_operation_xyz
x,y,z
-x,y,-z
-x,-y,-z
x,-y,z
1/2+x,1/2+y,z
1/2-x,1/2+y,-z
1/2-x,1/2-y,-z
1/2+x,1/2-y,z
loop_
_atom_site_type_symbol
_atom_site_label
_atom_site_fract_x
_atom_site_fract_y
_atom_site_fract_z
Si Si1 0.142034 0.085134 0.645471
Si Si2 0.822742 0.273161 0.138025
Si Si3 0.872304 0.673764 0.605183
Si Si4 0.992877 0.814677 0.671080
Si Si5 0.000000 0.637243 0.000000
Si Si6 0.317647 0.413929 0.570108
Si Si7 0.305054 0.802299 0.785002
Si Si8 0.949217 0.584813 0.185698
O O1 0.154998 0.084405 0.532308
O O2 0.245253 0.117394 0.761170
O O3 0.046819 0.137899 0.614968
O O4 0.122965 0.000000 0.675807
O O5 0.765071 0.264075 0.210675
O O6 0.853753 0.361082 0.148345
O O7 0.924491 0.220429 0.197519
O O8 0.750000 0.250000 0.000000
O O9 0.928182 0.743520 0.580970
O O10 0.786613 0.634023 0.480205
O O11 0.824440 0.713281 0.677079
O O12 0.951873 0.608735 0.687140
O O13 0.913585 0.870056 0.682633
O O14 0.907424 0.693442 0.915491
O O15 0.024162 0.584548 0.918083
O O16 0.305609 0.500000 0.606144
O O17 0.918323 0.500000 0.199614
#
# Coordination Sequence:
#
# PCOD8079017 Si02
#       8
#     8   8   8   8   4   8   8   8
#     4   9  18  31  48  73 104 130 156 198 253 302
#     4  10  19  35  48  68  99 131 168 203 241 287
#     4   9  19  32  48  72 101 129 162 198 245 293
#     4  10  19  30  47  70  98 132 167 194 232 298
#     4  10  17  28  46  72  99 118 154 198 251 292
#     4  10  18  31  51  75 103 130 155 198 255 302
#     4   9  18  31  49  69  95 131 165 199 242 291
#     4  10  19  30  48  72  97 125 158 199 246 293
#
# _framework density 19.967319
#
# number of rings (size 3 to 8) (size 9 to 14) (size 15 to 20)
#    0.000    2.400    1.333    1.800    0.000    4.800 
#    0.000    0.667    0.000    1.600    0.000    0.467 
#    0.000   20.267    0.000    0.000    0.000    0.000 
#
# Total GULP energy -371823.778277 kJ/mol
# GULP energy per Si atom -12394.125943 kJ/mol
# Density = 1.992187 g / cm^3
# Si number density = 19.967319 Si / 1000 Ang^3
#
#
#
# Elastic Constant Matrix: (Units=GPa)
#
#
# Indices 1 2 3 4 5 6 
#
# 1 71.3020 59.3586 21.4412 0.0000 22.8945 0.0000
# 2 59.3586 145.8412 25.4782 0.0000 15.1468 0.0000
# 3 21.4412 25.4782 55.2547 0.0000 29.6440 0.0000
# 4 0.0000 0.0000 0.0000 16.2292 0.0000 5.4657
# 5 22.8945 15.1468 29.6440 0.0000 29.6940 0.0000
# 6 0.0000 0.0000 0.0000 5.4657 0.0000 31.0834
#
#
#
# Elastic Compliance Matrix: (Units=1/GPa)
#
#
# Indices 1 2 3 4 5 6 
#
# 1 0.027633 -0.009955 0.005541 0.000000 -0.021759 0.000000
# 2 -0.009955 0.011053 -0.005010 0.000000 0.007039 0.000000
# 3 0.005541 -0.005010 0.041298 0.000000 -0.042945 0.000000
# 4 0.000000 0.000000 0.000000 0.065496 0.000000 -0.011517
# 5 -0.021759 0.007039 -0.042945 0.000000 0.089736 0.000000
# 6 0.000000 0.000000 0.000000 -0.011517 0.000000 0.034197
#
#
# Mechanical properties :
#
#
# Convention : Reuss Voigt Hill
#
# Bulk Modulus (GPa) = 16.35694 53.88378 35.12036
# Shear Modulus (GPa) = 16.20029 26.47599 21.33814
#
# Velocity S-wave (km/s) = 2.85149 3.64533 3.27257
# Velocity P-wave (km/s) = 4.36474 6.69048 5.64861
#
# Compressibility (1/GPa) = 0.06113614
#
# Stress axis : x y z
#
# Youngs Moduli (GPa) = 36.18906 90.47589 24.21450
#
# Poissons Ratio (x) = 0.90068 -0.13418
# Poissons Ratio (y) = 0.36026 0.12131
# Poissons Ratio (z) = -0.20053 0.45326
#
# Static dielectric constant tensor:
#      x y z
#    x 3.699210 0.000000 0.405820 
#    y 0.000000 3.743070 0.000000 
#    z 0.405820 0.000000 3.537290 
# 
# 
# High freq. dielectric constant tensor:
#      x y z
#    x 1.764980 0.000000 0.040180 
#    y 0.000000 1.772400 0.000000 
#    z 0.040180 0.000000 1.760710 
# 
# From -- ./inp_files/277623.got.cif
#   From: 2010.06.25/outbox.cif.g09.slc.cpg/sg12_139_cif.got.tgz:277623.got - 2010.06.28 00:19:55.
