data_PCOD8079420
_publ_section_title
;
Structure prediction by ZEFSAII (Michael W. Deem and Ramdas Pophale) SiO2 
 PCOD8079420
Probable space group: C 2/M
;
_chemical_formula_sum "Si O2"
_cell_formula_units_Z 64
_cell_length_a 25.838049
_cell_length_b 14.689686
_cell_length_c 11.470907
_cell_angle_alpha 90.000000
_cell_angle_beta 137.189018
_cell_angle_gamma 90.000000
_cell_volume 2958.774109
_symmetry_space_group_name_H-M "C 2/M"
_symmetry_group_IT_number 12
_symmetry_cell_setting 'monoclinic'
loop_
_space_group_symop_operation_xyz
x,y,z
-x,y,-z
-x,-y,-z
x,-y,z
1/2+x,1/2+y,z
1/2-x,1/2+y,-z
1/2-x,1/2-y,-z
1/2+x,1/2-y,z
loop_
_atom_site_type_symbol
_atom_site_label
_atom_site_fract_x
_atom_site_fract_y
_atom_site_fract_z
Si Si1 0.431163 0.102254 0.462624
Si Si2 0.324441 0.751371 0.352598
Si Si3 0.123284 0.719579 0.315422
Si Si4 0.586727 0.604973 0.630108
Si Si5 0.987844 0.603929 0.157279
Si Si6 0.341589 0.222445 0.881353
Si Si7 0.955141 0.901076 0.807159
Si Si8 0.601579 0.398657 0.916299
O O1 0.500000 0.141761 0.500000
O O2 0.356608 0.166645 0.323607
O O3 0.464895 0.102978 0.646855
O O4 0.408167 0.000000 0.385360
O O5 0.328683 0.798728 0.488163
O O6 0.376575 0.663939 0.412695
O O7 0.239316 0.714779 0.186228
O O8 0.171067 0.701995 0.276973
O O9 0.108801 0.826135 0.308485
O O10 0.044825 0.661208 0.167576
O O11 0.500000 0.633236 0.500000
O O12 0.596546 0.500000 0.610560
O O13 0.623441 0.624215 0.818622
O O14 0.974846 0.500000 0.091020
O O15 0.906020 0.653957 0.038263
O O16 0.363729 0.327230 0.936114
O O17 0.010444 0.895707 0.785610
O O18 0.915434 0.000000 0.745405
O O19 0.000000 0.882796 0.000000
O O20 0.631777 0.500000 0.998350
#
# Coordination Sequence:
#
# PCOD8079420 Si02
#       8
#     8   8   8   8   8   8   8   8
#     4   9  20  41  66  90 115 157 212 254 291 352
#     4  11  25  38  61  87 125 160 196 247 310 359
#     4  11  21  40  60  86 118 164 207 248 290 357
#     4  10  22  41  63  87 118 156 197 237 291 367
#     4  10  22  40  63  88 119 161 209 255 296 348
#     4  12  24  38  58  91 125 156 200 252 308 358
#     4  10  17  30  57  90 115 142 190 246 291 342
#     4  10  21  37  59  88 120 152 190 241 298 353
#
# _framework density 21.630579000000001
#
# number of rings (size 3 to 8) (size 9 to 14) (size 15 to 20)
#    0.000    1.625    2.500    1.875    3.500    4.000 
#    0.000    0.000    0.000    4.500    0.000    0.000 
#    0.000    0.000    0.000    0.000    0.000    0.000 
#
# Total GULP energy -396508.293002 kJ/mol
# GULP energy per Si atom -12390.884156 kJ/mol
# Density = 2.158135 g / cm^3
# Si number density = 21.630579 Si / 1000 Ang^3
#
#
#
# Elastic Constant Matrix: (Units=GPa)
#
#
# Indices 1 2 3 4 5 6 
#
# 1 100.1601 41.6335 18.7203 0.0000 19.4484 0.0000
# 2 41.6335 121.6640 21.8098 0.0000 21.3326 0.0000
# 3 18.7203 21.8098 35.2132 0.0000 16.9218 0.0000
# 4 0.0000 0.0000 0.0000 19.1344 0.0000 -5.0689
# 5 19.4484 21.3326 16.9218 0.0000 36.3088 0.0000
# 6 0.0000 0.0000 0.0000 -5.0689 0.0000 18.6412
#
#
#
# Elastic Compliance Matrix: (Units=1/GPa)
#
#
# Indices 1 2 3 4 5 6 
#
# 1 0.012528 -0.003134 -0.003066 0.000000 -0.003440 0.000000
# 2 -0.003134 0.010402 -0.003410 0.000000 -0.002843 0.000000
# 3 -0.003066 -0.003410 0.039158 0.000000 -0.014604 0.000000
# 4 0.000000 0.000000 0.000000 0.056319 0.000000 0.015314
# 5 -0.003440 -0.002843 -0.014604 0.000000 0.037861 0.000000
# 6 0.000000 0.000000 0.000000 0.015314 0.000000 0.057809
#
#
# Mechanical properties :
#
#
# Convention : Reuss Voigt Hill
#
# Bulk Modulus (GPa) = 23.32727 46.81827 35.07277
# Shear Modulus (GPa) = 20.19504 26.47514 23.33509
#
# Velocity S-wave (km/s) = 3.05886 3.50232 3.28807
# Velocity P-wave (km/s) = 4.82528 6.16818 5.53759
#
# Compressibility (1/GPa) = 0.04286829
#
# Stress axis : x y z
#
# Youngs Moduli (GPa) = 79.82238 96.13810 25.53733
#
# Poissons Ratio (x) = 0.30132 0.07829
# Poissons Ratio (y) = 0.25018 0.08708
# Poissons Ratio (z) = 0.24471 0.32781
#
# Static dielectric constant tensor:
#      x y z
#    x 4.067890 0.000000 -0.198820 
#    y 0.000000 4.165660 0.000000 
#    z -0.198820 0.000000 3.657610 
# 
# 
# High freq. dielectric constant tensor:
#      x y z
#    x 1.848440 0.000000 -0.020970 
#    y 0.000000 1.855060 0.000000 
#    z -0.020970 0.000000 1.816470 
# 
# From -- ./inp_files/183823.got.cif
#   From: 2010.06.25/outbox.cif.g09.slc.cpg/sg12_92_cif.got.tgz:183823.got - 2010.06.28 00:19:55.
