data_PCOD8079026
_publ_section_title
;
Structure prediction by ZEFSAII (Michael W. Deem and Ramdas Pophale) SiO2 
 PCOD8079026
Probable space group: C 2/M
;
_chemical_formula_sum "Si O2"
_cell_formula_units_Z 64
_cell_length_a 24.614164
_cell_length_b 13.131481
_cell_length_c 28.255672
_cell_angle_alpha 90.000000
_cell_angle_beta 152.923196
_cell_angle_gamma 90.000000
_cell_volume 4157.113449
_symmetry_space_group_name_H-M "C 2/M"
_symmetry_group_IT_number 12
_symmetry_cell_setting 'monoclinic'
loop_
_space_group_symop_operation_xyz
x,y,z
-x,y,-z
-x,-y,-z
x,-y,z
1/2+x,1/2+y,z
1/2-x,1/2+y,-z
1/2-x,1/2-y,-z
1/2+x,1/2-y,z
loop_
_atom_site_type_symbol
_atom_site_label
_atom_site_fract_x
_atom_site_fract_y
_atom_site_fract_z
Si Si1 0.161752 0.120312 0.490807
Si Si2 0.642280 0.886423 0.239849
Si Si3 0.235352 0.690902 0.061591
Si Si4 0.096078 0.884403 0.541178
Si Si5 0.500252 0.382720 0.722770
Si Si6 0.457736 0.881219 0.018291
Si Si7 0.910503 0.700262 0.704855
Si Si8 0.837770 0.384671 0.096314
O O1 0.110350 0.165842 0.500310
O O2 0.294222 0.166054 0.584575
O O3 0.067413 0.150798 0.377639
O O4 0.179384 0.000000 0.508872
O O5 0.780976 0.879685 0.334600
O O6 0.611295 0.805722 0.256196
O O7 0.610846 0.000000 0.234787
O O8 0.573880 0.861426 0.139402
O O9 0.359598 0.638776 0.172599
O O10 0.151231 0.681604 0.042657
O O11 0.252620 0.809052 0.060231
O O12 0.175438 0.633419 0.970484
O O13 0.000000 0.826517 0.500000
O O14 0.052392 0.000000 0.499099
O O15 0.477177 0.500000 0.716621
O O16 0.441607 0.317943 0.719319
O O17 0.420813 0.000000 0.986958
O O18 0.500000 0.839702 0.000000
O O19 0.025654 0.631720 0.781154
O O20 0.799215 0.500000 0.078110
#
# Coordination Sequence:
#
# PCOD8079026 Si02
#       8
#     8   8   8   8   8   8   8   8
#     4   9  17  28  42  62  90 119 145 180 222 267
#     4   9  16  27  43  63  86 111 146 187 218 258
#     4  10  20  31  45  68  94 119 148 187 228 272
#     4   8  14  24  39  59  82 111 145 175 208 254
#     4  10  20  30  41  62  94 122 144 181 232 276
#     4  10  19  30  45  65  92 123 151 182 226 277
#     4  10  17  28  47  65  85 117 154 187 220 264
#     4  10  18  30  50  69  88 116 152 191 227 266
#
# _framework density 15.395299
#
# number of rings (size 3 to 8) (size 9 to 14) (size 15 to 20)
#    0.000    2.500    1.250    3.375    0.000    1.000 
#    0.000    3.750    0.000    0.375    0.000    0.000 
#    0.000    8.000    0.000    0.000    0.000    1.000 
#
# Total GULP energy -396611.785758 kJ/mol
# GULP energy per Si atom -12394.118305 kJ/mol
# Density = 1.536026 g / cm^3
# Si number density = 15.395299 Si / 1000 Ang^3
#
#
#
# Elastic Constant Matrix: (Units=GPa)
#
#
# Indices 1 2 3 4 5 6 
#
# 1 110.9019 44.1660 47.2367 0.0000 6.5457 0.0000
# 2 44.1660 72.8020 33.2967 0.0000 2.0319 0.0000
# 3 47.2367 33.2967 108.1864 -0.0001 -1.3199 0.0000
# 4 0.0000 0.0000 -0.0001 17.8358 0.0000 0.5434
# 5 6.5457 2.0319 -1.3199 0.0000 21.9361 0.0000
# 6 0.0000 0.0000 0.0000 0.5434 0.0000 17.1622
#
#
#
# Elastic Compliance Matrix: (Units=1/GPa)
#
#
# Indices 1 2 3 4 5 6 
#
# 1 0.013403 -0.006205 -0.003987 0.000000 -0.003664 0.000000
# 2 -0.006205 0.018929 -0.003117 0.000000 -0.000089 0.000000
# 3 -0.003987 -0.003117 0.011970 0.000000 0.002199 0.000000
# 4 0.000000 0.000000 0.000000 0.056121 0.000000 -0.001777
# 5 -0.003664 -0.000089 0.002199 0.000000 0.046821 0.000000
# 6 0.000000 0.000000 0.000000 -0.001777 0.000000 0.058324
#
#
# Mechanical properties :
#
#
# Convention : Reuss Voigt Hill
#
# Bulk Modulus (GPa) = 56.55258 60.14327 58.34792
# Shear Modulus (GPa) = 21.00130 22.53287 21.76708
#
# Velocity S-wave (km/s) = 3.69743 3.82988 3.76424
# Velocity P-wave (km/s) = 7.41899 7.66212 7.54154
#
# Compressibility (1/GPa) = 0.01768266
#
# Stress axis : x y z
#
# Youngs Moduli (GPa) = 74.61288 52.83023 83.53978
#
# Poissons Ratio (x) = 0.32782 0.33306
# Poissons Ratio (y) = 0.46298 0.26043
# Poissons Ratio (z) = 0.29747 0.16470
#
# Static dielectric constant tensor:
#      x y z
#    x 2.924690 0.000000 0.030120 
#    y 0.000000 2.724830 0.000000 
#    z 0.030120 0.000000 3.179530 
# 
# 
# High freq. dielectric constant tensor:
#      x y z
#    x 1.574180 0.000000 0.005410 
#    y 0.000000 1.551500 0.000000 
#    z 0.005410 0.000000 1.610080 
# 
# From -- ./inp_files/367832.got.cif
#   From: 2010.06.25/outbox.cif.g09.slc.cpg/sg12_184_cif.got.tgz:367832.got - 2010.06.28 00:19:55.
