data_PCOD8079185
_publ_section_title
;
Structure prediction by ZEFSAII (Michael W. Deem and Ramdas Pophale) SiO2 
 PCOD8079185
Probable space group: C 2/M
;
_chemical_formula_sum "Si O2"
_cell_formula_units_Z 56
_cell_length_a 18.716747
_cell_length_b 29.531973
_cell_length_c 10.038859
_cell_angle_alpha 90.000000
_cell_angle_beta 140.463924
_cell_angle_gamma 90.000000
_cell_volume 3532.232016
_symmetry_space_group_name_H-M "C 2/M"
_symmetry_group_IT_number 12
_symmetry_cell_setting 'monoclinic'
loop_
_space_group_symop_operation_xyz
x,y,z
-x,y,-z
-x,-y,-z
x,-y,z
1/2+x,1/2+y,z
1/2-x,1/2+y,-z
1/2-x,1/2-y,-z
1/2+x,1/2-y,z
loop_
_atom_site_type_symbol
_atom_site_label
_atom_site_fract_x
_atom_site_fract_y
_atom_site_fract_z
Si Si1 0.545571 0.500000 0.419278
Si Si2 0.403105 0.229134 0.966504
Si Si3 0.550938 0.598089 0.426978
Si Si4 0.777460 0.815335 0.699342
Si Si5 0.400393 0.500000 0.961196
Si Si6 0.686282 0.683890 0.560432
Si Si7 0.049013 0.270035 0.426464
Si Si8 0.898603 0.901846 0.956886
O O1 0.500000 0.500000 0.500000
O O2 0.609580 0.548079 0.490256
O O3 0.440695 0.500000 0.170285
O O4 0.356415 0.280045 0.889742
O O5 0.304902 0.192912 0.800926
O O6 0.500000 0.220355 0.000000
O O7 0.448448 0.221457 0.179419
O O8 0.500000 0.604034 0.500000
O O9 0.650057 0.633386 0.545099
O O10 0.448824 0.604900 0.176602
O O11 0.803193 0.809497 0.581440
O O12 0.647556 0.805686 0.539269
O O13 0.802903 0.865290 0.790296
O O14 0.337932 0.451550 0.851253
O O15 0.500000 0.500000 0.000000
O O16 0.593104 0.718756 0.479125
O O17 0.000000 0.279569 0.500000
O O18 0.000000 0.895047 0.000000
#
# Coordination Sequence:
#
# PCOD8079185 Si02
#       8
#     4   8   8   8   4   8   8   8
#     4   8  16  30  44  64 100 131 145 182 242 283
#     4  11  19  34  52  65  94 128 159 193 232 279
#     4  10  19  30  47  73 101 126 156 191 232 283
#     4  11  20  32  52  71  91 130 162 186 237 284
#     4   8  16  26  42  72  96 120 151 188 233 279
#     4  11  20  32  51  73  91 127 166 187 231 284
#     4  11  23  35  48  71  98 121 157 204 234 268
#     4  10  17  29  49  70 100 126 152 192 234 280
#
# _framework density 15.853999
#
# number of rings (size 3 to 8) (size 9 to 14) (size 15 to 20)
#    0.000    1.714    4.286    2.571    0.000    3.429 
#    0.000    0.000    0.000    0.000    0.000    2.000 
#    0.000    0.000    0.000    0.000    0.000    0.000 
#
# Total GULP energy -347039.100736 kJ/mol
# GULP energy per Si atom -12394.253598 kJ/mol
# Density = 1.581791 g / cm^3
# Si number density = 15.853999 Si / 1000 Ang^3
#
#
#
# Elastic Constant Matrix: (Units=GPa)
#
#
# Indices 1 2 3 4 5 6 
#
# 1 60.8246 27.7511 32.9966 0.0000 -11.4587 0.0000
# 2 27.7511 148.1837 46.1173 0.0000 14.6597 0.0000
# 3 32.9966 46.1173 103.9523 0.0000 -7.2374 0.0000
# 4 0.0000 0.0000 0.0000 23.8415 0.0000 0.9611
# 5 -11.4587 14.6597 -7.2374 0.0000 29.0483 0.0000
# 6 0.0000 0.0000 0.0000 0.9611 0.0000 16.0149
#
#
#
# Elastic Compliance Matrix: (Units=1/GPa)
#
#
# Indices 1 2 3 4 5 6 
#
# 1 0.022542 -0.003646 -0.004875 0.000000 0.009517 0.000000
# 2 -0.003646 0.009171 -0.003392 0.000000 -0.006911 0.000000
# 3 -0.004875 -0.003392 0.012881 0.000000 0.002998 0.000000
# 4 0.000000 0.000000 0.000000 0.042045 0.000000 -0.002523
# 5 0.009517 -0.006911 0.002998 0.000000 0.042415 0.000000
# 6 0.000000 0.000000 0.000000 -0.002523 0.000000 0.062593
#
#
# Mechanical properties :
#
#
# Convention : Reuss Voigt Hill
#
# Bulk Modulus (GPa) = 48.15407 58.52117 53.33762
# Shear Modulus (GPa) = 22.48243 27.52065 25.00154
#
# Velocity S-wave (km/s) = 3.76984 4.17091 3.97544
# Velocity P-wave (km/s) = 7.02768 7.75809 7.40190
#
# Compressibility (1/GPa) = 0.02076668
#
# Stress axis : x y z
#
# Youngs Moduli (GPa) = 44.36206 109.04329 77.63357
#
# Poissons Ratio (x) = 0.39755 0.37848
# Poissons Ratio (y) = 0.16174 0.26336
# Poissons Ratio (z) = 0.21627 0.36992
#
# Static dielectric constant tensor:
#      x y z
#    x 2.715860 0.000000 -0.453450 
#    y 0.000000 3.421450 0.000000 
#    z -0.453450 0.000000 2.804490 
# 
# 
# High freq. dielectric constant tensor:
#      x y z
#    x 1.594280 0.000000 -0.032580 
#    y 0.000000 1.616240 0.000000 
#    z -0.032580 0.000000 1.600150 
# 
# From -- ./inp_files/80509.got.cif
#   From: 2010.06.25/outbox.cif.g09.slc.cpg/sg12_41_cif.got.tgz:80509.got - 2010.06.28 00:19:55.
