data_PCOD8079354
_publ_section_title
;
Structure prediction by ZEFSAII (Michael W. Deem and Ramdas Pophale) SiO2 
 PCOD8079354
Probable space group: C 2/M
;
_chemical_formula_sum "Si O2"
_cell_formula_units_Z 56
_cell_length_a 26.322433
_cell_length_b 13.606131
_cell_length_c 10.359838
_cell_angle_alpha 90.000000
_cell_angle_beta 120.533619
_cell_angle_gamma 90.000000
_cell_volume 3195.831139
_symmetry_space_group_name_H-M "C 2/M"
_symmetry_group_IT_number 12
_symmetry_cell_setting 'monoclinic'
loop_
_space_group_symop_operation_xyz
x,y,z
-x,y,-z
-x,-y,-z
x,-y,z
1/2+x,1/2+y,z
1/2-x,1/2+y,-z
1/2-x,1/2-y,-z
1/2+x,1/2-y,z
loop_
_atom_site_type_symbol
_atom_site_label
_atom_site_fract_x
_atom_site_fract_y
_atom_site_fract_z
Si Si1 0.802869 0.606554 0.272665
Si Si2 0.208150 0.388483 0.032209
Si Si3 0.383997 0.387400 0.600807
Si Si4 0.685567 0.610605 0.251017
Si Si5 0.125148 0.786585 0.938162
Si Si6 0.330649 0.684944 0.278009
Si Si7 0.007763 0.885619 0.857467
O O1 0.836253 0.500000 0.326084
O O2 0.756143 0.613274 0.329124
O O3 0.844498 0.701598 0.337246
O O4 0.771206 0.612389 0.090977
O O5 0.197443 0.500000 0.067351
O O6 0.260420 0.338250 0.183485
O O7 0.146338 0.328059 0.963181
O O8 0.389850 0.500000 0.643208
O O9 0.335713 0.342831 0.639488
O O10 0.363134 0.378736 0.427108
O O11 0.449116 0.344561 0.710471
O O12 0.661814 0.500000 0.207426
O O13 0.659314 0.669099 0.100325
O O14 0.141764 0.839271 0.824919
O O15 0.056280 0.807318 0.871107
O O16 0.023065 0.000000 0.841645
O O17 0.000000 0.875871 0.000000
#
# Coordination Sequence:
#
# PCOD8079354 Si02
#       7
#     8   8   8   8   8   8   8
#     4   9  17  31  52  77 104 136 175 206 242 307
#     4  10  19  32  51  78 108 135 168 210 254 302
#     4  10  22  34  48  77 110 135 163 208 263 305
#     4  10  17  30  51  75 100 133 171 202 243 305
#     4  11  19  33  55  77  96 137 179 206 245 304
#     4  11  20  33  51  79 110 135 162 211 265 300
#     4  10  20  35  55  77 100 132 175 212 248 304
#
# _framework density 17.522828000000001
#
# number of rings (size 3 to 8) (size 9 to 14) (size 15 to 20)
#    0.000    1.857    4.286    1.714    0.000    2.857 
#    0.000    1.429    0.000    1.286    0.000    4.000 
#    0.000    0.000    0.000    0.000    0.000    0.000 
#
# Total GULP energy -346873.961500 kJ/mol
# GULP energy per Si atom -12388.355768 kJ/mol
# Density = 1.748295 g / cm^3
# Si number density = 17.522828 Si / 1000 Ang^3
#
#
#
# Elastic Constant Matrix: (Units=GPa)
#
#
# Indices 1 2 3 4 5 6 
#
# 1 86.8265 33.7346 29.9299 0.0000 -3.1865 0.0000
# 2 33.7346 64.2275 11.5321 0.0000 -2.7887 0.0000
# 3 29.9299 11.5321 70.7178 0.0000 -7.8088 0.0000
# 4 0.0000 0.0000 0.0000 10.1749 0.0000 -1.2930
# 5 -3.1865 -2.7887 -7.8088 0.0000 23.0858 0.0000
# 6 0.0000 0.0000 0.0000 -1.2930 0.0000 22.0880
#
#
#
# Elastic Compliance Matrix: (Units=1/GPa)
#
#
# Indices 1 2 3 4 5 6 
#
# 1 0.016454 -0.007630 -0.005787 0.000000 -0.000608 0.000000
# 2 -0.007630 0.019604 0.000184 0.000000 0.001377 0.000000
# 3 -0.005787 0.000184 0.017113 0.000000 0.005012 0.000000
# 4 0.000000 0.000000 0.000000 0.099017 0.000000 0.005796
# 5 -0.000608 0.001377 0.005012 0.000000 0.045094 0.000000
# 6 0.000000 0.000000 0.000000 0.005796 0.000000 0.045613
#
#
# Mechanical properties :
#
#
# Convention : Reuss Voigt Hill
#
# Bulk Modulus (GPa) = 37.44355 41.35166 39.39761
# Shear Modulus (GPa) = 17.96870 20.84144 19.40507
#
# Velocity S-wave (km/s) = 3.20573 3.45249 3.33140
# Velocity P-wave (km/s) = 5.92597 6.28831 6.10983
#
# Compressibility (1/GPa) = 0.02670687
#
# Stress axis : x y z
#
# Youngs Moduli (GPa) = 60.77553 51.01081 58.43429
#
# Poissons Ratio (x) = 0.38919 0.33815
# Poissons Ratio (y) = 0.46369 -0.01077
# Poissons Ratio (z) = 0.35169 -0.00940
#
# Static dielectric constant tensor:
#      x y z
#    x 3.639430 0.000000 -0.140370 
#    y 0.000000 3.384710 0.000000 
#    z -0.140370 0.000000 3.047270 
# 
# 
# High freq. dielectric constant tensor:
#      x y z
#    x 1.658890 0.000000 -0.018640 
#    y 0.000000 1.664540 0.000000 
#    z -0.018640 0.000000 1.662520 
# 
# From -- ./inp_files/96259.got.cif
#   From: 2010.06.25/outbox.cif.g09.slc.cpg/sg12_49_cif.got.tgz:96259.got - 2010.06.28 00:19:55.
