data_PCOD8079681
_publ_section_title
;
Structure prediction by ZEFSAII (Michael W. Deem and Ramdas Pophale) SiO2 
 PCOD8079681
Probable space group: C 2/M
;
_chemical_formula_sum "Si O2"
_cell_formula_units_Z 64
_cell_length_a 17.006914
_cell_length_b 30.200156
_cell_length_c 8.669608
_cell_angle_alpha 90.000000
_cell_angle_beta 135.872165
_cell_angle_gamma 90.000000
_cell_volume 3100.320557
_symmetry_space_group_name_H-M "C 2/M"
_symmetry_group_IT_number 12
_symmetry_cell_setting 'monoclinic'
loop_
_space_group_symop_operation_xyz
x,y,z
-x,y,-z
-x,-y,-z
x,-y,z
1/2+x,1/2+y,z
1/2-x,1/2+y,-z
1/2-x,1/2-y,-z
1/2+x,1/2-y,z
loop_
_atom_site_type_symbol
_atom_site_label
_atom_site_fract_x
_atom_site_fract_y
_atom_site_fract_z
Si Si1 0.959736 0.331925 0.134760
Si Si2 0.717720 0.868258 0.332947
Si Si3 0.804634 0.292804 0.498607
Si Si4 0.970832 0.577718 0.290683
Si Si5 0.732082 0.798660 0.914515
Si Si6 0.770062 0.948810 0.952600
Si Si7 0.808901 0.548064 0.497652
Si Si8 0.375806 0.370685 0.263288
O O1 0.004440 0.381035 0.231220
O O2 0.875569 0.319762 0.154758
O O3 0.060160 0.295627 0.277124
O O4 0.895053 0.340069 0.879741
O O5 0.763261 0.835493 0.529682
O O6 0.704991 0.917324 0.383762
O O7 0.797318 0.873046 0.300883
O O8 0.750000 0.250000 0.500000
O O9 0.785001 0.294061 0.290187
O O10 0.842535 0.560595 0.103654
O O11 0.000000 0.594547 0.500000
O O12 0.058856 0.540388 0.359371
O O13 0.750000 0.750000 0.000000
O O14 0.840070 0.829695 0.103982
O O15 0.754210 0.937406 0.749365
O O16 0.805255 0.000000 0.023927
O O17 0.867349 0.916680 0.155612
O O18 0.763295 0.500000 0.489014
O O19 0.500000 0.362702 0.500000
#
# Coordination Sequence:
#
# PCOD8079681 Si02
#       8
#     8   8   8   8   8   8   8   8
#     4  11  22  39  64  93 128 168 203 246 307 385
#     4  11  23  40  62  93 129 164 204 262 323 371
#     4  12  24  40  64  95 128 162 203 256 317 381
#     4  10  17  33  61  92 126 169 203 244 304 377
#     4  11  24  44  67  90 119 167 213 258 313 378
#     4  10  20  38  64  94 129 172 219 255 305 382
#     4  10  21  36  61  99 136 168 204 254 315 380
#     4  11  25  45  65  88 121 166 220 272 318 375
#
# _framework density 20.643028000000001
#
# number of rings (size 3 to 8) (size 9 to 14) (size 15 to 20)
#    0.000    1.250    3.750    4.125    0.000    4.250 
#    0.000    4.375    0.000    1.500    0.000    0.000 
#    0.000    0.000    0.000    0.000    0.000    0.000 
#
# Total GULP energy -396521.555753 kJ/mol
# GULP energy per Si atom -12391.298617 kJ/mol
# Density = 2.059604 g / cm^3
# Si number density = 20.643028 Si / 1000 Ang^3
#
#
#
# Elastic Constant Matrix: (Units=GPa)
#
#
# Indices 1 2 3 4 5 6 
#
# 1 71.7112 48.8948 62.8794 0.0000 -21.0638 0.0000
# 2 48.8948 147.8204 69.5119 0.0000 -12.2087 0.0000
# 3 62.8794 69.5119 130.3870 0.0000 -7.1375 0.0000
# 4 0.0000 0.0000 0.0000 30.7849 0.0000 -6.3176
# 5 -21.0638 -12.2087 -7.1375 0.0000 39.1817 0.0000
# 6 0.0000 0.0000 0.0000 -6.3176 0.0000 34.6978
#
#
#
# Elastic Compliance Matrix: (Units=1/GPa)
#
#
# Indices 1 2 3 4 5 6 
#
# 1 0.031098 -0.003298 -0.012504 0.000000 0.013412 0.000000
# 2 -0.003298 0.009529 -0.003459 0.000000 0.000566 0.000000
# 3 -0.012504 -0.003459 0.015269 0.000000 -0.005018 0.000000
# 4 0.000000 0.000000 0.000000 0.033744 0.000000 0.006144
# 5 0.013412 0.000566 -0.005018 0.000000 0.031995 0.000000
# 6 0.000000 0.000000 0.000000 0.006144 0.000000 0.029939
#
#
# Mechanical properties :
#
#
# Convention : Reuss Voigt Hill
#
# Bulk Modulus (GPa) = 57.56009 79.16566 68.36287
# Shear Modulus (GPa) = 25.52496 32.17504 28.85000
#
# Velocity S-wave (km/s) = 3.52020 3.95224 3.74246
# Velocity P-wave (km/s) = 6.66832 7.69806 7.20161
#
# Compressibility (1/GPa) = 0.01737315
#
# Stress axis : x y z
#
# Youngs Moduli (GPa) = 32.15683 104.94195 65.49322
#
# Poissons Ratio (x) = 0.34614 0.81894
# Poissons Ratio (y) = 0.10607 0.22651
# Poissons Ratio (z) = 0.40210 0.36294
#
# Static dielectric constant tensor:
#      x y z
#    x 3.805520 0.000000 -0.083850 
#    y 0.000000 3.888090 0.000000 
#    z -0.083850 0.000000 3.862660 
# 
# 
# High freq. dielectric constant tensor:
#      x y z
#    x 1.805500 0.000000 -0.027330 
#    y 0.000000 1.815830 0.000000 
#    z -0.027330 0.000000 1.799120 
# 
# From -- ./inp_files/80780.got.cif
#   From: 2010.06.25/outbox.cif.g09.slc.cpg/sg12_41_cif.got.tgz:80780.got - 2010.06.28 00:19:55.
