data_PCOD8079924
_publ_section_title
;
Structure prediction by ZEFSAII (Michael W. Deem and Ramdas Pophale) SiO2 
 PCOD8079924
Probable space group: C 2/M
;
_chemical_formula_sum "Si O2"
_cell_formula_units_Z 56
_cell_length_a 27.442986
_cell_length_b 9.021757
_cell_length_c 14.392121
_cell_angle_alpha 90.000000
_cell_angle_beta 76.393340
_cell_angle_gamma 90.000000
_cell_volume 3463.250570
_symmetry_space_group_name_H-M "C 2/M"
_symmetry_group_IT_number 12
_symmetry_cell_setting 'monoclinic'
loop_
_space_group_symop_operation_xyz
x,y,z
-x,y,-z
-x,-y,-z
x,-y,z
1/2+x,1/2+y,z
1/2-x,1/2+y,-z
1/2-x,1/2-y,-z
1/2+x,1/2-y,z
loop_
_atom_site_type_symbol
_atom_site_label
_atom_site_fract_x
_atom_site_fract_y
_atom_site_fract_z
Si Si1 0.314557 0.166917 0.771537
Si Si2 0.203715 0.830190 0.886203
Si Si3 0.131706 0.324993 0.781252
Si Si4 0.444796 0.824932 0.033160
Si Si5 0.642475 0.826544 0.060054
Si Si6 0.183839 0.171538 0.607291
Si Si7 0.785869 0.171466 0.608767
O O1 0.263080 0.184212 0.850972
O O2 0.357568 0.204028 0.828832
O O3 0.318638 0.277094 0.682355
O O4 0.320939 0.000000 0.730550
O O5 0.179686 0.729862 0.816866
O O6 0.185975 0.000000 0.883378
O O7 0.186882 0.767807 0.993446
O O8 0.133822 0.500000 0.769336
O O9 0.081365 0.274152 0.858328
O O10 0.135985 0.251218 0.677016
O O11 0.450214 0.000000 0.031439
O O12 0.500000 0.751190 0.000000
O O13 0.410778 0.776493 0.960360
O O14 0.652465 0.000000 0.034828
O O15 0.180789 0.198725 0.498292
O O16 0.235296 0.234663 0.626215
O O17 0.182608 0.000000 0.633906
O O18 0.771214 0.000000 0.625002
#
# Coordination Sequence:
#
# PCOD8079924 Si02
#       7
#     8   8   8   8   8   8   8
#     4  10  19  29  41  61  90 122 151 183 219 256
#     4  10  18  27  40  60  88 121 150 179 217 256
#     4  10  18  28  46  68  89 118 153 184 221 267
#     4   8  15  29  48  69  91 113 142 184 228 268
#     4   9  18  30  44  63  87 117 152 183 219 267
#     4  10  19  31  44  63  90 119 152 188 222 255
#     4  10  20  30  44  63  87 122 157 185 215 257
#
# _framework density 16.169779999999999
#
# number of rings (size 3 to 8) (size 9 to 14) (size 15 to 20)
#    0.000    2.429    1.429    3.000    0.000    2.857 
#    0.000    0.000    0.000   10.714    0.000    1.000 
#    0.000    8.000    0.000    0.000    0.000    0.000 
#
# Total GULP energy -347078.347872 kJ/mol
# GULP energy per Si atom -12395.655281 kJ/mol
# Density = 1.613298 g / cm^3
# Si number density = 16.169780 Si / 1000 Ang^3
#
#
#
# Elastic Constant Matrix: (Units=GPa)
#
#
# Indices 1 2 3 4 5 6 
#
# 1 67.8308 28.3856 51.9456 0.0000 -1.2920 0.0000
# 2 28.3856 71.4778 52.2364 0.0000 -0.2977 0.0000
# 3 51.9456 52.2364 120.3458 0.0000 5.8409 0.0000
# 4 0.0000 0.0000 0.0000 29.9841 0.0000 2.6514
# 5 -1.2920 -0.2977 5.8409 0.0000 19.5840 0.0000
# 6 0.0000 0.0000 0.0000 2.6514 0.0000 11.2660
#
#
#
# Elastic Compliance Matrix: (Units=1/GPa)
#
#
# Indices 1 2 3 4 5 6 
#
# 1 0.022686 -0.002475 -0.008918 0.000000 0.004119 0.000000
# 2 -0.002475 0.020936 -0.008145 0.000000 0.002584 0.000000
# 3 -0.008918 -0.008145 0.015959 0.000000 -0.005472 0.000000
# 4 0.000000 0.000000 0.000000 0.034060 0.000000 -0.008016
# 5 0.004119 0.002584 -0.005472 0.000000 0.053005 0.000000
# 6 0.000000 0.000000 0.000000 -0.008016 0.000000 0.090649
#
#
# Mechanical properties :
#
#
# Convention : Reuss Voigt Hill
#
# Bulk Modulus (GPa) = 48.76362 58.30993 53.53677
# Shear Modulus (GPa) = 17.65504 20.63928 19.14716
#
# Velocity S-wave (km/s) = 3.30791 3.57656 3.44486
# Velocity P-wave (km/s) = 6.69420 7.29350 7.00027
#
# Compressibility (1/GPa) = 0.02050709
#
# Stress axis : x y z
#
# Youngs Moduli (GPa) = 44.07996 47.76463 62.65915
#
# Poissons Ratio (x) = 0.11821 0.55878
# Poissons Ratio (y) = 0.10909 0.51033
# Poissons Ratio (z) = 0.39310 0.38902
#
# Static dielectric constant tensor:
#      x y z
#    x 2.920350 0.000000 0.003350 
#    y 0.000000 3.075040 0.000000 
#    z 0.003350 0.000000 3.297760 
# 
# 
# High freq. dielectric constant tensor:
#      x y z
#    x 1.572240 0.000000 0.010570 
#    y 0.000000 1.621350 0.000000 
#    z 0.010570 0.000000 1.625090 
# 
# From -- ./inp_files/243005.got.cif
#   From: 2010.06.25/outbox.cif.g09.slc.cpg/sg12_122_cif.got.tgz:243005.got - 2010.06.28 00:19:55.
