data_PCOD8079567
_publ_section_title
;
Structure prediction by ZEFSAII (Michael W. Deem and Ramdas Pophale) SiO2 
 PCOD8079567
Probable space group: C 2/M
;
_chemical_formula_sum "Si O2"
_cell_formula_units_Z 56
_cell_length_a 22.492405
_cell_length_b 17.469571
_cell_length_c 9.210869
_cell_angle_alpha 90.000000
_cell_angle_beta 116.396552
_cell_angle_gamma 90.000000
_cell_volume 3241.902802
_symmetry_space_group_name_H-M "C 2/M"
_symmetry_group_IT_number 12
_symmetry_cell_setting 'monoclinic'
loop_
_space_group_symop_operation_xyz
x,y,z
-x,y,-z
-x,-y,-z
x,-y,z
1/2+x,1/2+y,z
1/2-x,1/2+y,-z
1/2-x,1/2-y,-z
1/2+x,1/2-y,z
loop_
_atom_site_type_symbol
_atom_site_label
_atom_site_fract_x
_atom_site_fract_y
_atom_site_fract_z
Si Si1 0.552687 0.086239 0.183761
Si Si2 0.617865 0.299115 0.455029
Si Si3 0.146750 0.762145 0.804290
Si Si4 0.005978 0.295809 0.673916
Si Si5 0.203757 0.090325 0.397720
Si Si6 0.224291 0.192537 0.153434
Si Si7 0.817653 0.678976 0.674022
O O1 0.517773 0.125660 0.281660
O O2 0.617789 0.132450 0.205952
O O3 0.572685 0.000000 0.248777
O O4 0.500000 0.087303 0.000000
O O5 0.627605 0.309555 0.638486
O O6 0.542509 0.274898 0.335040
O O7 0.634415 0.377870 0.389073
O O8 0.668627 0.234122 0.449411
O O9 0.080974 0.723588 0.800282
O O10 0.199810 0.696224 0.819982
O O11 0.176959 0.817317 0.961027
O O12 0.000000 0.313068 0.500000
O O13 0.214126 0.119387 0.244626
O O14 0.262065 0.118732 0.566496
O O15 0.201088 0.000000 0.391891
O O16 0.206734 0.271923 0.215565
#
# Coordination Sequence:
#
# PCOD8079567 Si02
#       7
#     8   8   8   8   8   8   8
#     4  10  20  32  46  71 105 133 160 198 243 290
#     4   9  17  34  54  73  97 125 173 207 233 288
#     4  10  17  32  54  77  97 127 166 204 248 280
#     4   9  19  32  53  74  95 129 168 201 239 292
#     4  11  20  33  51  75 101 129 164 207 255 291
#     4  10  19  31  55  76 102 125 166 211 241 294
#     4  10  17  33  52  72  95 132 171 205 234 284
#
# _framework density 17.273806
#
# number of rings (size 3 to 8) (size 9 to 14) (size 15 to 20)
#    0.000    2.143    2.857    2.143    0.000    0.286 
#    0.000    1.429    0.000    5.571    0.000    0.000 
#    0.000    0.000    0.000    0.000    0.000    0.000 
#
# Total GULP energy -347167.208373 kJ/mol
# GULP energy per Si atom -12398.828870 kJ/mol
# Density = 1.723449 g / cm^3
# Si number density = 17.273806 Si / 1000 Ang^3
#
#
#
# Elastic Constant Matrix: (Units=GPa)
#
#
# Indices 1 2 3 4 5 6 
#
# 1 111.9660 51.1663 30.0599 0.0000 8.0211 0.0000
# 2 51.1663 124.4176 35.6159 0.0000 0.9131 0.0000
# 3 30.0599 35.6159 72.0013 0.0000 1.6084 0.0000
# 4 0.0000 0.0000 0.0000 18.9380 0.0000 -1.0574
# 5 8.0211 0.9131 1.6084 0.0000 24.4111 0.0000
# 6 0.0000 0.0000 0.0000 -1.0574 0.0000 15.0616
#
#
#
# Elastic Compliance Matrix: (Units=1/GPa)
#
#
# Indices 1 2 3 4 5 6 
#
# 1 0.011780 -0.004000 -0.002861 0.000000 -0.003533 0.000000
# 2 -0.004000 0.010721 -0.003659 0.000000 0.001154 0.000000
# 3 -0.002861 -0.003659 0.016894 0.000000 -0.000036 0.000000
# 4 0.000000 0.000000 0.000000 0.053012 0.000000 0.003722
# 5 -0.003533 0.001154 -0.000036 0.000000 0.042085 0.000000
# 6 0.000000 0.000000 0.000000 0.003722 0.000000 0.066655
#
#
# Mechanical properties :
#
#
# Convention : Reuss Voigt Hill
#
# Bulk Modulus (GPa) = 54.47840 60.22989 57.35414
# Shear Modulus (GPa) = 21.90049 24.45168 23.17609
#
# Velocity S-wave (km/s) = 3.56454 3.76644 3.66688
# Velocity P-wave (km/s) = 6.96763 7.33882 7.15563
#
# Compressibility (1/GPa) = 0.01835590
#
# Stress axis : x y z
#
# Youngs Moduli (GPa) = 84.88828 93.27163 59.19306
#
# Poissons Ratio (x) = 0.37306 0.16933
# Poissons Ratio (y) = 0.33953 0.21661
# Poissons Ratio (z) = 0.24284 0.34131
#
# Static dielectric constant tensor:
#      x y z
#    x 3.722990 0.000000 -0.077890 
#    y 0.000000 2.979810 0.000000 
#    z -0.077890 0.000000 3.326340 
# 
# 
# High freq. dielectric constant tensor:
#      x y z
#    x 1.682030 0.000000 0.000010 
#    y 0.000000 1.625320 0.000000 
#    z 0.000010 0.000000 1.672610 
# 
# From -- ./inp_files/97619.got.cif
#   From: 2010.06.25/outbox.cif.g09.slc.cpg/sg12_49_cif.got.tgz:97619.got - 2010.06.28 00:19:55.
