data_PCOD8079044
_publ_section_title
;
Structure prediction by ZEFSAII (Michael W. Deem and Ramdas Pophale) SiO2 
 PCOD8079044
Probable space group: C 2/M
;
_chemical_formula_sum "Si O2"
_cell_formula_units_Z 64
_cell_length_a 26.038372
_cell_length_b 12.566365
_cell_length_c 11.333155
_cell_angle_alpha 90.000000
_cell_angle_beta 102.574457
_cell_angle_gamma 90.000000
_cell_volume 3619.347941
_symmetry_space_group_name_H-M "C 2/M"
_symmetry_group_IT_number 12
_symmetry_cell_setting 'monoclinic'
loop_
_space_group_symop_operation_xyz
x,y,z
-x,y,-z
-x,-y,-z
x,-y,z
1/2+x,1/2+y,z
1/2-x,1/2+y,-z
1/2-x,1/2-y,-z
1/2+x,1/2-y,z
loop_
_atom_site_type_symbol
_atom_site_label
_atom_site_fract_x
_atom_site_fract_y
_atom_site_fract_z
Si Si1 0.397324 0.378912 0.637806
Si Si2 0.701763 0.122753 0.047343
Si Si3 0.910301 0.115222 0.020105
Si Si4 0.318131 0.691645 0.129829
Si Si5 0.609698 0.625195 0.636736
Si Si6 0.483986 0.681301 0.256073
Si Si7 0.119788 0.721167 0.178715
Si Si8 0.484275 0.880940 0.858559
O O1 0.380520 0.500000 0.658807
O O2 0.382816 0.350996 0.496633
O O3 0.459490 0.367092 0.688276
O O4 0.364466 0.295273 0.701729
O O5 0.762813 0.131730 0.108735
O O6 0.671039 0.172373 0.143703
O O7 0.685645 0.000000 0.020293
O O8 0.688348 0.187008 0.920638
O O9 0.855050 0.127291 0.059639
O O10 0.958717 0.118144 0.134414
O O11 0.910519 0.000000 0.958019
O O12 0.915555 0.204238 0.923799
O O13 0.344568 0.690272 0.272173
O O14 0.613892 0.500000 0.667930
O O15 0.552593 0.668750 0.647392
O O16 0.486279 0.805095 0.219798
O O17 0.078945 0.628287 0.191912
O O18 0.501948 0.000000 0.835688
O O19 0.500000 0.852904 0.000000
#
# Coordination Sequence:
#
# PCOD8079044 Si02
#       8
#     8   8   8   8   8   8   8   8
#     4  10  20  32  50  73 102 138 170 201 239 291
#     4  10  19  34  56  78 100 128 161 204 256 301
#     4  10  17  28  47  73 104 128 153 202 259 301
#     4   9  19  33  53  79 101 125 161 204 251 303
#     4  10  19  34  53  74 102 134 165 201 248 296
#     4  10  18  30  49  75  98 128 168 207 245 295
#     4  10  20  32  46  73 100 130 170 205 243 293
#     4  10  19  32  46  65  96 131 165 201 244 294
#
# _framework density 17.682744
#
# number of rings (size 3 to 8) (size 9 to 14) (size 15 to 20)
#    0.000    2.125    1.250    4.125    0.000    1.000 
#    0.000    3.125    0.000   10.500    0.000    0.000 
#    0.000    0.000    0.000    0.000    0.000    0.000 
#
# Total GULP energy -396735.332181 kJ/mol
# GULP energy per Si atom -12397.979131 kJ/mol
# Density = 1.764250 g / cm^3
# Si number density = 17.682744 Si / 1000 Ang^3
#
#
#
# Elastic Constant Matrix: (Units=GPa)
#
#
# Indices 1 2 3 4 5 6 
#
# 1 68.5256 33.3608 32.4552 0.0000 7.8525 0.0000
# 2 33.3608 111.8775 43.6033 0.0000 -7.7721 0.0000
# 3 32.4552 43.6033 90.7374 0.0000 -7.2219 0.0000
# 4 0.0000 0.0000 0.0000 24.3788 0.0000 -2.8277
# 5 7.8525 -7.7721 -7.2219 0.0000 18.8280 0.0000
# 6 0.0000 0.0000 0.0000 -2.8277 0.0000 17.2253
#
#
#
# Elastic Compliance Matrix: (Units=1/GPa)
#
#
# Indices 1 2 3 4 5 6 
#
# 1 0.021551 -0.004848 -0.006451 0.000000 -0.013463 0.000000
# 2 -0.004848 0.012213 -0.003685 0.000000 0.005649 0.000000
# 3 -0.006451 -0.003685 0.015670 0.000000 0.007180 0.000000
# 4 0.000000 0.000000 0.000000 0.041815 0.000000 0.006864
# 5 -0.013463 0.005649 0.007180 0.000000 0.063814 0.000000
# 6 0.000000 0.000000 0.000000 0.006864 0.000000 0.059181
#
#
# Mechanical properties :
#
#
# Convention : Reuss Voigt Hill
#
# Bulk Modulus (GPa) = 51.36770 54.44211 52.90490
# Shear Modulus (GPa) = 19.94420 22.86783 21.40602
#
# Velocity S-wave (km/s) = 3.36205 3.60005 3.48308
# Velocity P-wave (km/s) = 6.64710 6.93798 6.79410
#
# Compressibility (1/GPa) = 0.01946749
#
# Stress axis : x y z
#
# Youngs Moduli (GPa) = 46.40160 81.88295 63.81468
#
# Poissons Ratio (x) = 0.39693 0.41164
# Poissons Ratio (y) = 0.22493 0.23517
# Poissons Ratio (z) = 0.29932 0.30175
#
# Static dielectric constant tensor:
#      x y z
#    x 3.199140 0.000000 -0.038860 
#    y 0.000000 3.284750 0.000000 
#    z -0.038860 0.000000 3.287400 
# 
# 
# High freq. dielectric constant tensor:
#      x y z
#    x 1.675310 0.000000 -0.002260 
#    y 0.000000 1.684990 0.000000 
#    z -0.002260 0.000000 1.666170 
# 
# From -- ./inp_files/188366.got.cif
#   From: 2010.06.25/outbox.cif.g09.slc.cpg/sg12_95_cif.got.tgz:188366.got - 2010.06.28 00:19:55.
