data_PCOD8079435
_publ_section_title
;
Structure prediction by ZEFSAII (Michael W. Deem and Ramdas Pophale) SiO2 
 PCOD8079435
Probable space group: C 2/M
;
_chemical_formula_sum "Si O2"
_cell_formula_units_Z 60
_cell_length_a 11.834970
_cell_length_b 26.146685
_cell_length_c 12.475555
_cell_angle_alpha 90.000000
_cell_angle_beta 63.290082
_cell_angle_gamma 90.000000
_cell_volume 3448.560841
_symmetry_space_group_name_H-M "C 2/M"
_symmetry_group_IT_number 12
_symmetry_cell_setting 'monoclinic'
loop_
_space_group_symop_operation_xyz
x,y,z
-x,y,-z
-x,-y,-z
x,-y,z
1/2+x,1/2+y,z
1/2-x,1/2+y,-z
1/2-x,1/2-y,-z
1/2+x,1/2-y,z
loop_
_atom_site_type_symbol
_atom_site_label
_atom_site_fract_x
_atom_site_fract_y
_atom_site_fract_z
Si Si1 0.500000 0.879973 0.500000
Si Si2 0.396001 0.942318 0.863269
Si Si3 0.464984 0.606266 0.132387
Si Si4 0.766280 0.871125 0.930889
Si Si5 0.773054 0.444215 0.693119
Si Si6 0.218288 0.810723 0.864531
Si Si7 0.384691 0.201485 0.131913
Si Si8 0.993707 0.654534 0.724349
O O1 0.379115 0.912567 0.586686
O O2 0.447580 0.847654 0.420356
O O3 0.296602 0.946024 0.809890
O O4 0.502996 0.901076 0.780853
O O5 0.449606 0.000000 0.866038
O O6 0.320792 0.919131 0.996541
O O7 0.591055 0.610582 0.150447
O O8 0.371007 0.575265 0.250235
O O9 0.401317 0.661219 0.137388
O O10 0.500000 0.581639 0.000000
O O11 0.705179 0.847443 0.850303
O O12 0.771248 0.824630 0.014619
O O13 0.778444 0.500000 0.638057
O O14 0.200208 0.751331 0.848202
O O15 0.349195 0.830152 0.758762
O O16 0.436668 0.196643 0.231564
O O17 0.500000 0.201614 0.000000
#
# Coordination Sequence:
#
# PCOD8079435 Si02
#       8
#     4   8   8   8   8   8   8   8
#     4  10  19  40  56  74 112 140 186 238 263 312
#     4   9  16  30  49  75 109 140 172 212 271 321
#     4  10  17  31  48  79 118 141 166 217 278 335
#     4  10  19  31  47  78 118 145 170 211 271 336
#     4  10  18  30  55  83 104 141 184 230 277 316
#     4  10  19  32  50  80 107 144 175 216 276 316
#     4  12  21  32  55  80 112 143 188 223 270 337
#     4  10  21  37  54  79 106 142 182 231 270 316
#
# _framework density 17.398561999999998
#
# number of rings (size 3 to 8) (size 9 to 14) (size 15 to 20)
#    0.000    1.867    8.000    1.800    1.867    1.333 
#    0.000    2.000    0.000    0.800    0.000    0.933 
#    0.000    0.000    0.000    0.000    0.000    0.000 
#
# Total GULP energy -371685.634032 kJ/mol
# GULP energy per Si atom -12389.521134 kJ/mol
# Density = 1.735896 g / cm^3
# Si number density = 17.398562 Si / 1000 Ang^3
#
#
#
# Elastic Constant Matrix: (Units=GPa)
#
#
# Indices 1 2 3 4 5 6 
#
# 1 42.8004 16.7303 31.4823 0.0000 -2.7180 0.0000
# 2 16.7303 82.5095 28.4152 0.0000 4.7781 0.0000
# 3 31.4823 28.4152 85.4272 0.0000 -6.0702 0.0000
# 4 0.0000 0.0000 0.0000 10.4230 0.0000 1.9690
# 5 -2.7180 4.7781 -6.0702 0.0000 21.8560 0.0000
# 6 0.0000 0.0000 0.0000 1.9690 0.0000 12.6535
#
#
#
# Elastic Compliance Matrix: (Units=1/GPa)
#
#
# Indices 1 2 3 4 5 6 
#
# 1 0.032671 -0.002954 -0.010939 0.000000 0.001671 0.000000
# 2 -0.002954 0.014371 -0.004020 0.000000 -0.004626 0.000000
# 3 -0.010939 -0.004020 0.017383 0.000000 0.004346 0.000000
# 4 0.000000 0.000000 0.000000 0.098847 0.000000 -0.015382
# 5 0.001671 -0.004626 0.004346 0.000000 0.048180 0.000000
# 6 0.000000 0.000000 0.000000 -0.015382 0.000000 0.081423
#
#
# Mechanical properties :
#
#
# Convention : Reuss Voigt Hill
#
# Bulk Modulus (GPa) = 34.96614 40.44365 37.70490
# Shear Modulus (GPa) = 14.78256 17.92712 16.35484
#
# Velocity S-wave (km/s) = 2.91802 3.21343 3.06929
# Velocity P-wave (km/s) = 5.61195 6.08803 5.85483
#
# Compressibility (1/GPa) = 0.02859909
#
# Stress axis : x y z
#
# Youngs Moduli (GPa) = 30.60777 69.58352 57.52659
#
# Poissons Ratio (x) = 0.20557 0.62928
# Poissons Ratio (y) = 0.09042 0.23127
# Poissons Ratio (z) = 0.33482 0.27974
#
# Static dielectric constant tensor:
#      x y z
#    x 3.188040 0.000000 -0.079490 
#    y 0.000000 3.407110 0.000000 
#    z -0.079490 0.000000 3.027810 
# 
# 
# High freq. dielectric constant tensor:
#      x y z
#    x 1.657950 0.000000 -0.013500 
#    y 0.000000 1.668400 0.000000 
#    z -0.013500 0.000000 1.631350 
# 
# From -- ./inp_files/136985.got.cif
#   From: 2010.06.25/outbox.cif.g09.slc.cpg/sg12_69_cif.got.tgz:136985.got - 2010.06.28 00:19:55.
