data_PCOD8079935
_publ_section_title
;
Structure prediction by ZEFSAII (Michael W. Deem and Ramdas Pophale) SiO2 
 PCOD8079935
Probable space group: C 2/M
;
_chemical_formula_sum "Si O2"
_cell_formula_units_Z 56
_cell_length_a 22.875760
_cell_length_b 9.078082
_cell_length_c 25.803749
_cell_angle_alpha 90.000000
_cell_angle_beta 141.218755
_cell_angle_gamma 90.000000
_cell_volume 3356.360509
_symmetry_space_group_name_H-M "C 2/M"
_symmetry_group_IT_number 12
_symmetry_cell_setting 'monoclinic'
loop_
_space_group_symop_operation_xyz
x,y,z
-x,y,-z
-x,-y,-z
x,-y,z
1/2+x,1/2+y,z
1/2-x,1/2+y,-z
1/2-x,1/2-y,-z
1/2+x,1/2-y,z
loop_
_atom_site_type_symbol
_atom_site_label
_atom_site_fract_x
_atom_site_fract_y
_atom_site_fract_z
Si Si1 0.392769 0.334171 0.594270
Si Si2 0.854856 0.326890 0.727275
Si Si3 0.279275 0.174574 0.072891
Si Si4 0.228548 0.333739 0.563862
Si Si5 0.486968 0.171945 0.244749
Si Si6 0.877675 0.826024 0.958471
Si Si7 0.581463 0.325414 0.127258
O O1 0.419575 0.500000 0.596917
O O2 0.307995 0.333403 0.575605
O O3 0.363502 0.245410 0.522466
O O4 0.481944 0.257492 0.682168
O O5 0.838286 0.500000 0.719290
O O6 0.763846 0.254770 0.638345
O O7 0.864854 0.260346 0.790998
O O8 0.947148 0.287845 0.758129
O O9 0.383306 0.224129 0.159215
O O10 0.210625 0.233870 0.070544
O O11 0.272146 0.000000 0.061036
O O12 0.250000 0.250000 0.000000
O O13 0.202589 0.500000 0.562080
O O14 0.492145 0.000000 0.261240
O O15 0.870382 0.776733 0.893569
O O16 0.880632 0.000000 0.961487
O O17 0.973804 0.771250 0.051274
O O18 0.588993 0.500000 0.142145
#
# Coordination Sequence:
#
# PCOD8079935 Si02
#       7
#     8   8   8   8   8   8   8
#     4   9  16  26  41  61  86 115 146 179 214 254
#     4  10  18  27  40  63  92 117 143 178 218 258
#     4  10  19  31  46  65  89 117 148 182 218 256
#     4   9  16  26  41  61  86 116 146 176 213 258
#     4   9  18  29  41  60  89 121 148 175 213 262
#     4   8  16  30  47  64  84 113 149 185 219 257
#     4   9  16  29  47  64  83 112 149 185 220 258
#
# _framework density 16.684739
#
# number of rings (size 3 to 8) (size 9 to 14) (size 15 to 20)
#    0.000    2.857    0.000    3.000    0.000    4.571 
#    0.000    2.143    0.000    0.000    0.000    1.000 
#    0.000    8.000    0.000    0.000    0.000    0.000 
#
# Total GULP energy -347158.311999 kJ/mol
# GULP energy per Si atom -12398.511143 kJ/mol
# Density = 1.664676 g / cm^3
# Si number density = 16.684739 Si / 1000 Ang^3
#
#
#
# Elastic Constant Matrix: (Units=GPa)
#
#
# Indices 1 2 3 4 5 6 
#
# 1 69.9785 28.9942 56.3637 0.0000 -6.1813 -0.0001
# 2 28.9942 80.8996 68.5779 -0.0001 -7.9582 -0.0005
# 3 56.3637 68.5779 170.7600 0.0000 -13.7623 0.0000
# 4 0.0000 -0.0001 0.0000 33.8401 0.0000 -5.9602
# 5 -6.1813 -7.9582 -13.7623 0.0000 22.2795 0.0000
# 6 -0.0001 -0.0005 0.0000 -5.9602 0.0000 13.9035
#
#
#
# Elastic Compliance Matrix: (Units=1/GPa)
#
#
# Indices 1 2 3 4 5 6 
#
# 1 0.019790 -0.002300 -0.005506 0.000000 0.001268 0.000000
# 2 -0.002300 0.019107 -0.006752 0.000000 0.002016 0.000001
# 3 -0.005506 -0.006752 0.010595 0.000000 0.002605 0.000000
# 4 0.000000 0.000000 0.000000 0.031964 0.000000 0.013703
# 5 0.001268 0.002016 0.002605 0.000000 0.047565 0.000000
# 6 0.000000 0.000001 0.000000 0.013703 0.000000 0.077799
#
#
# Mechanical properties :
#
#
# Convention : Reuss Voigt Hill
#
# Bulk Modulus (GPa) = 49.07805 69.94553 59.51179
# Shear Modulus (GPa) = 20.59907 25.18478 22.89193
#
# Velocity S-wave (km/s) = 3.51751 3.88938 3.70811
# Velocity P-wave (km/s) = 6.78056 7.88559 7.35386
#
# Compressibility (1/GPa) = 0.02037571
#
# Stress axis : x y z
#
# Youngs Moduli (GPa) = 50.53017 52.33642 94.38314
#
# Poissons Ratio (x) = 0.12040 0.51969
# Poissons Ratio (y) = 0.11624 0.63724
# Poissons Ratio (z) = 0.27823 0.35336
#
# Static dielectric constant tensor:
#      x y z
#    x 3.088000 0.000000 0.013460 
#    y 0.000000 3.066700 0.000000 
#    z 0.013460 0.000000 3.239470 
# 
# 
# High freq. dielectric constant tensor:
#      x y z
#    x 1.596420 0.000000 -0.008470 
#    y 0.000000 1.637100 0.000000 
#    z -0.008470 0.000000 1.653760 
# 
# From -- ./inp_files/348630.got.cif
#   From: 2010.06.25/outbox.cif.g09.slc.cpg/sg12_175_cif.got.tgz:348630.got - 2010.06.28 00:19:55.
