data_PCOD8079610
_publ_section_title
;
Structure prediction by ZEFSAII (Michael W. Deem and Ramdas Pophale) SiO2 
 PCOD8079610
Probable space group: C 2/M
;
_chemical_formula_sum "Si O2"
_cell_formula_units_Z 44
_cell_length_a 27.427778
_cell_length_b 11.589299
_cell_length_c 9.898333
_cell_angle_alpha 90.000000
_cell_angle_beta 134.301412
_cell_angle_gamma 90.000000
_cell_volume 2251.780308
_symmetry_space_group_name_H-M "C 2/M"
_symmetry_group_IT_number 12
_symmetry_cell_setting 'monoclinic'
loop_
_space_group_symop_operation_xyz
x,y,z
-x,y,-z
-x,-y,-z
x,-y,z
1/2+x,1/2+y,z
1/2-x,1/2+y,-z
1/2-x,1/2-y,-z
1/2+x,1/2-y,z
loop_
_atom_site_type_symbol
_atom_site_label
_atom_site_fract_x
_atom_site_fract_y
_atom_site_fract_z
Si Si1 0.919668 0.135615 0.467424
Si Si2 0.609918 0.000000 0.142629
Si Si3 0.970714 0.500000 0.263335
Si Si4 0.319468 0.758951 0.456851
Si Si5 0.061279 0.244142 0.776306
Si Si6 0.334162 0.238409 0.791685
Si Si7 0.113515 0.500000 0.448712
O O1 0.852060 0.164311 0.420990
O O2 0.908125 0.175843 0.291194
O O3 0.984294 0.202322 0.657661
O O4 0.934004 0.000000 0.497756
O O5 0.660950 0.897829 0.207376
O O6 0.580929 0.000000 0.236747
O O7 0.542574 0.000000 0.922177
O O8 0.938929 0.381634 0.262076
O O9 0.052538 0.500000 0.440885
O O10 0.340790 0.717617 0.649546
O O11 0.238443 0.766647 0.283944
O O12 0.342485 0.884946 0.451572
O O13 0.106142 0.213045 0.995441
#
# Coordination Sequence:
#
# PCOD8079610 Si02
#       7
#     8   4   4   8   8   8   4
#     4  11  24  41  59  80 115 161 193 239 287 337
#     4   8  17  30  57  84 119 144 177 228 289 343
#     4  10  17  32  60  89 106 146 181 237 285 337
#     4  10  21  38  60  87 119 148 189 235 288 344
#     4  10  21  39  60  84 117 149 194 236 285 342
#     4   9  20  38  60  89 114 152 188 233 288 342
#     4  10  17  33  54  88 118 140 180 238 287 335
#
# _framework density 19.540095000000001
#
# number of rings (size 3 to 8) (size 9 to 14) (size 15 to 20)
#    0.000    2.182    1.818    1.364    1.273    3.636 
#    4.909    0.909    0.000    0.000    0.000    0.000 
#    0.000    0.000    0.000    0.000    0.000    0.000 
#
# Total GULP energy -272657.988864 kJ/mol
# GULP energy per Si atom -12393.544948 kJ/mol
# Density = 1.949562 g / cm^3
# Si number density = 19.540095 Si / 1000 Ang^3
#
#
#
# Elastic Constant Matrix: (Units=GPa)
#
#
# Indices 1 2 3 4 5 6 
#
# 1 80.5053 17.3951 12.1783 0.0000 3.1429 0.0000
# 2 17.3951 100.2159 16.7969 0.0000 -0.7003 0.0000
# 3 12.1783 16.7969 83.8952 0.0000 1.1127 0.0000
# 4 0.0000 0.0000 0.0000 20.1083 0.0000 -4.7312
# 5 3.1429 -0.7003 1.1127 0.0000 19.0272 0.0000
# 6 0.0000 0.0000 0.0000 -4.7312 0.0000 20.2094
#
#
#
# Elastic Compliance Matrix: (Units=1/GPa)
#
#
# Indices 1 2 3 4 5 6 
#
# 1 0.013173 -0.002055 -0.001472 0.000000 -0.002165 0.000000
# 2 -0.002055 0.010650 -0.001845 0.000000 0.000839 0.000000
# 3 -0.001472 -0.001845 0.012510 0.000000 -0.000556 0.000000
# 4 0.000000 0.000000 0.000000 0.052630 0.000000 0.012321
# 5 -0.002165 0.000839 -0.000556 0.000000 0.052977 0.000000
# 6 0.000000 0.000000 0.000000 0.012321 0.000000 0.052367
#
#
# Mechanical properties :
#
#
# Convention : Reuss Voigt Hill
#
# Bulk Modulus (GPa) = 39.07934 39.70635 39.39284
# Shear Modulus (GPa) = 23.41037 26.41872 24.91454
#
# Velocity S-wave (km/s) = 3.46507 3.68098 3.57465
# Velocity P-wave (km/s) = 6.00432 6.19925 6.10257
#
# Compressibility (1/GPa) = 0.02558897
#
# Stress axis : x y z
#
# Youngs Moduli (GPa) = 75.91416 93.89442 79.93531
#
# Poissons Ratio (x) = 0.19294 0.11767
# Poissons Ratio (y) = 0.15599 0.14749
# Poissons Ratio (z) = 0.11175 0.17325
#
# Static dielectric constant tensor:
#      x y z
#    x 3.395470 0.000000 -0.076940 
#    y 0.000000 3.550370 0.000000 
#    z -0.076940 0.000000 3.612840 
# 
# 
# High freq. dielectric constant tensor:
#      x y z
#    x 1.756900 0.000000 -0.002960 
#    y 0.000000 1.759070 0.000000 
#    z -0.002960 0.000000 1.754900 
# 
# From -- ./inp_files/103389.got.cif
#   From: 2010.06.25/outbox.cif.g09.slc.cpg/sg12_52_cif.got.tgz:103389.got - 2010.06.28 00:19:55.
