data_PCOD8079385
_publ_section_title
;
Structure prediction by ZEFSAII (Michael W. Deem and Ramdas Pophale) SiO2 
 PCOD8079385
Probable space group: C 2/M
;
_chemical_formula_sum "Si O2"
_cell_formula_units_Z 56
_cell_length_a 25.272865
_cell_length_b 8.796812
_cell_length_c 15.005974
_cell_angle_alpha 90.000000
_cell_angle_beta 74.213979
_cell_angle_gamma 90.000000
_cell_volume 3210.313323
_symmetry_space_group_name_H-M "C 2/M"
_symmetry_group_IT_number 12
_symmetry_cell_setting 'monoclinic'
loop_
_space_group_symop_operation_xyz
x,y,z
-x,y,-z
-x,-y,-z
x,-y,z
1/2+x,1/2+y,z
1/2-x,1/2+y,-z
1/2-x,1/2-y,-z
1/2+x,1/2-y,z
loop_
_atom_site_type_symbol
_atom_site_label
_atom_site_fract_x
_atom_site_fract_y
_atom_site_fract_z
Si Si1 0.105546 0.179860 0.770073
Si Si2 0.173216 0.678172 0.589942
Si Si3 0.293153 0.321826 0.601720
Si Si4 0.007780 0.179819 0.095161
Si Si5 0.816211 0.819707 0.107810
Si Si6 0.696561 0.819888 0.216095
Si Si7 0.873302 0.819316 0.902730
O O1 0.122453 0.264474 0.672069
O O2 0.143293 0.240300 0.833733
O O3 0.042876 0.227263 0.818848
O O4 0.112348 0.000000 0.753999
O O5 0.168910 0.500000 0.574261
O O6 0.229571 0.721594 0.614604
O O7 0.170177 0.763676 0.497135
O O8 0.301633 0.500000 0.609453
O O9 0.314331 0.237902 0.679666
O O10 0.064316 0.238556 0.112464
O O11 0.010573 0.000000 0.083662
O O12 0.000000 0.250533 0.000000
O O13 0.755047 0.756647 0.153360
O O14 0.817436 0.000000 0.108101
O O15 0.837072 0.760190 0.002743
O O16 0.648244 0.756933 0.176899
O O17 0.695827 0.000000 0.215883
O O18 0.870011 0.000000 0.895021
#
# Coordination Sequence:
#
# PCOD8079385 Si02
#       7
#     8   8   8   8   8   8   8
#     4  10  17  30  53  78 104 135 172 214 256 298
#     4  10  20  33  51  78 107 134 164 206 261 313
#     4  10  20  34  53  76 102 134 171 210 252 305
#     4   9  16  29  53  78  99 132 180 223 253 287
#     4   9  17  29  49  74 103 137 173 211 251 297
#     4  11  21  33  49  74 107 142 172 207 259 312
#     4  10  19  33  51  74 103 139 181 218 250 295
#
# _framework density 17.443781999999999
#
# number of rings (size 3 to 8) (size 9 to 14) (size 15 to 20)
#    0.000    2.143    2.857    1.714    0.000    1.143 
#    0.000    2.143    0.000    1.714    0.000    6.000 
#    0.000    0.000    0.000    0.000    0.000    0.000 
#
# Total GULP energy -347260.048308 kJ/mol
# GULP energy per Si atom -12402.144582 kJ/mol
# Density = 1.740408 g / cm^3
# Si number density = 17.443782 Si / 1000 Ang^3
#
#
#
# Elastic Constant Matrix: (Units=GPa)
#
#
# Indices 1 2 3 4 5 6 
#
# 1 124.4527 28.7234 69.4944 0.0000 6.9491 0.0000
# 2 28.7234 39.5696 27.7760 0.0000 2.6331 0.0000
# 3 69.4944 27.7760 130.5230 0.0000 4.9975 0.0000
# 4 0.0000 0.0000 0.0000 25.3899 0.0000 1.0896
# 5 6.9491 2.6331 4.9975 0.0000 24.9256 0.0000
# 6 0.0000 0.0000 0.0000 1.0896 0.0000 19.9990
#
#
#
# Elastic Compliance Matrix: (Units=1/GPa)
#
#
# Indices 1 2 3 4 5 6 
#
# 1 0.012323 -0.005017 -0.005424 0.000000 -0.001818 0.000000
# 2 -0.005017 0.031841 -0.004061 0.000000 -0.001151 0.000000
# 3 -0.005424 -0.004061 0.011427 0.000000 -0.000350 0.000000
# 4 0.000000 0.000000 0.000000 0.039478 0.000000 -0.002151
# 5 -0.001818 -0.001151 -0.000350 0.000000 0.040818 0.000000
# 6 0.000000 0.000000 0.000000 -0.002151 0.000000 0.050120
#
#
# Mechanical properties :
#
#
# Convention : Reuss Voigt Hill
#
# Bulk Modulus (GPa) = 37.61153 60.72589 49.16871
# Shear Modulus (GPa) = 22.33410 25.29967 23.81689
#
# Velocity S-wave (km/s) = 3.58208 3.81248 3.69907
# Velocity P-wave (km/s) = 6.22228 7.36668 6.81853
#
# Compressibility (1/GPa) = 0.02658759
#
# Stress axis : x y z
#
# Youngs Moduli (GPa) = 81.14602 31.40634 87.51248
#
# Poissons Ratio (x) = 0.15757 0.47468
# Poissons Ratio (y) = 0.40712 0.35535
# Poissons Ratio (z) = 0.44014 0.12753
#
# Static dielectric constant tensor:
#      x y z
#    x 3.232510 0.000000 -0.071050 
#    y 0.000000 2.928400 0.000000 
#    z -0.071050 0.000000 3.290440 
# 
# 
# High freq. dielectric constant tensor:
#      x y z
#    x 1.656440 0.000000 -0.001290 
#    y 0.000000 1.650990 0.000000 
#    z -0.001290 0.000000 1.679850 
# 
# From -- ./inp_files/237433.got.cif
#   From: 2010.06.25/outbox.cif.g09.slc.cpg/sg12_119_cif.got.tgz:237433.got - 2010.06.28 00:19:55.
