data_PCOD8079614
_publ_section_title
;
Structure prediction by ZEFSAII (Michael W. Deem and Ramdas Pophale) SiO2 
 PCOD8079614
Probable space group: C 2/M
;
_chemical_formula_sum "Si O2"
_cell_formula_units_Z 64
_cell_length_a 24.917046
_cell_length_b 30.684524
_cell_length_c 9.065215
_cell_angle_alpha 90.000000
_cell_angle_beta 29.047278
_cell_angle_gamma 90.000000
_cell_volume 3365.202124
_symmetry_space_group_name_H-M "C 2/M"
_symmetry_group_IT_number 12
_symmetry_cell_setting 'monoclinic'
loop_
_space_group_symop_operation_xyz
x,y,z
-x,y,-z
-x,-y,-z
x,-y,z
1/2+x,1/2+y,z
1/2-x,1/2+y,-z
1/2-x,1/2-y,-z
1/2+x,1/2-y,z
loop_
_atom_site_type_symbol
_atom_site_label
_atom_site_fract_x
_atom_site_fract_y
_atom_site_fract_z
Si Si1 0.798811 0.845680 0.554420
Si Si2 0.095224 0.903714 0.168819
Si Si3 0.183574 0.284316 0.256770
Si Si4 0.058190 0.072037 0.721138
Si Si5 0.683002 0.323115 0.816011
Si Si6 0.267978 0.548274 0.927037
Si Si7 0.130920 0.631632 0.196095
Si Si8 0.965216 0.223137 0.246046
O O1 0.893029 0.882713 0.333013
O O2 0.765530 0.833703 0.467277
O O3 0.852261 0.804665 0.509292
O O4 0.685348 0.859377 0.906163
O O5 0.155654 0.941791 0.114981
O O6 0.000000 0.882578 0.500000
O O7 0.042815 0.922676 0.147693
O O8 0.181560 0.866402 0.919121
O O9 0.242917 0.288772 0.273566
O O10 0.170443 0.330909 0.211899
O O11 0.062123 0.264724 0.585344
O O12 0.250000 0.250000 0.000000
O O13 0.157783 0.046933 0.400739
O O14 0.000000 0.047336 0.000000
O O15 0.559639 0.304877 0.096450
O O16 0.216016 0.500000 0.070828
O O17 0.171727 0.584244 0.152404
O O18 0.000000 0.630563 0.500000
O O19 0.000000 0.238684 0.000000
#
# Coordination Sequence:
#
# PCOD8079614 Si02
#       8
#     8   8   8   8   8   8   8   8
#     4  10  19  39  60  88 123 160 203 239 294 361
#     4  10  19  32  60  89 122 156 193 231 297 362
#     4  12  26  38  57  90 125 159 209 247 291 346
#     4  10  17  32  61  94 126 153 186 238 300 369
#     4  11  22  37  63  85 121 169 196 237 303 355
#     4  10  23  41  61  88 121 155 201 249 301 366
#     4  11  25  43  63  87 116 156 205 260 299 346
#     4  10  22  37  59  88 123 163 199 240 295 354
#
# _framework density 19.018174999999999
#
# number of rings (size 3 to 8) (size 9 to 14) (size 15 to 20)
#    0.000    1.500    5.000    0.375    3.500    5.750 
#    0.000    0.000    0.000    0.000    0.000    0.875 
#    0.000    0.000    0.000    0.000    0.000    0.000 
#
# Total GULP energy -396699.718489 kJ/mol
# GULP energy per Si atom -12396.866203 kJ/mol
# Density = 1.897489 g / cm^3
# Si number density = 19.018175 Si / 1000 Ang^3
#
#
#
# Elastic Constant Matrix: (Units=GPa)
#
#
# Indices 1 2 3 4 5 6 
#
# 1 117.9018 43.4393 49.4556 0.0000 10.2578 0.0001
# 2 43.4393 118.2832 45.1411 -0.0001 5.5916 0.0000
# 3 49.4556 45.1411 109.0074 0.0000 0.2994 0.0008
# 4 0.0000 -0.0001 0.0000 16.0443 0.0000 -6.7916
# 5 10.2578 5.5916 0.2994 0.0000 23.5878 -0.0003
# 6 0.0001 0.0000 0.0008 -6.7916 -0.0003 -0.5930
#
#
#
# Elastic Compliance Matrix: (Units=1/GPa)
#
#
# Indices 1 2 3 4 5 6 
#
# 1 0.011521 -0.002415 -0.004215 0.000000 -0.004384 0.000000
# 2 -0.002415 0.010677 -0.003322 0.000000 -0.001439 -0.000001
# 3 -0.004215 -0.003322 0.012455 0.000001 0.002462 0.000003
# 4 0.000000 0.000000 0.000001 0.010659 -0.000002 -0.122061
# 5 -0.004384 -0.001439 0.002462 -0.000002 0.044611 -0.000004
# 6 0.000000 -0.000001 0.000003 -0.122061 -0.000004 -0.288355
#
#
# Mechanical properties :
#
#
# Convention : Reuss Voigt Hill
#
# Bulk Modulus (GPa) = 67.80054 69.02938 68.41496
# Shear Modulus (GPa) = -28.79960 21.61823 -3.59069
#
# Velocity S-wave (km/s) = -3.89565 3.37518 -1.37555
# Velocity P-wave (km/s) = 3.93612 7.18084 5.79040
#
# Compressibility (1/GPa) = 0.01474915
#
# Stress axis : x y z
#
# Youngs Moduli (GPa) = 86.79916 93.65942 80.29142
#
# Poissons Ratio (x) = 0.22622 0.33840
# Poissons Ratio (y) = 0.20965 0.26670
# Poissons Ratio (z) = 0.36583 0.31111
#
# Static dielectric constant tensor:
#      x y z
#    x 3.548610 0.000000 0.189630 
#    y 0.000000 3.365230 0.000000 
#    z 0.189630 0.000000 3.397020 
# 
# 
# High freq. dielectric constant tensor:
#      x y z
#    x 1.740380 0.000000 0.018130 
#    y 0.000000 1.727670 0.000000 
#    z 0.018130 0.000000 1.727650 
# 
# From -- ./inp_files/100206.got.cif
#   From: 2010.06.25/outbox.cif.g09.slc.cpg/sg12_51_cif.got.tgz:100206.got - 2010.06.28 00:19:55.
