data_PCOD8079641
_publ_section_title
;
Structure prediction by ZEFSAII (Michael W. Deem and Ramdas Pophale) SiO2 
 PCOD8079641
Probable space group: C 2/M
;
_chemical_formula_sum "Si O2"
_cell_formula_units_Z 52
_cell_length_a 5.002013
_cell_length_b 30.464864
_cell_length_c 21.131290
_cell_angle_alpha 90.000000
_cell_angle_beta 120.686676
_cell_angle_gamma 90.000000
_cell_volume 2769.197067
_symmetry_space_group_name_H-M "C 2/M"
_symmetry_group_IT_number 12
_symmetry_cell_setting 'monoclinic'
loop_
_space_group_symop_operation_xyz
x,y,z
-x,y,-z
-x,-y,-z
x,-y,z
1/2+x,1/2+y,z
1/2-x,1/2+y,-z
1/2-x,1/2-y,-z
1/2+x,1/2-y,z
loop_
_atom_site_type_symbol
_atom_site_label
_atom_site_fract_x
_atom_site_fract_y
_atom_site_fract_z
Si Si1 0.865596 0.000000 0.051595
Si Si2 0.466072 0.452103 0.270708
Si Si3 0.679080 0.778952 0.586239
Si Si4 0.301083 0.158176 0.207310
Si Si5 0.001044 0.145929 0.697215
Si Si6 0.202278 0.222498 0.080853
Si Si7 0.734432 0.937413 0.822877
O O1 0.993600 0.042681 0.102182
O O2 0.500000 0.000000 0.000000
O O3 0.000000 0.000000 0.000000
O O4 0.523273 0.500000 0.312410
O O5 0.528679 0.407259 0.318937
O O6 0.708980 0.450313 0.242897
O O7 0.113161 0.452992 0.201353
O O8 0.500000 0.788754 0.500000
O O9 0.464732 0.754134 0.610804
O O10 0.778152 0.826779 0.623804
O O11 0.649848 0.160472 0.276541
O O12 0.242429 0.194798 0.148732
O O13 0.243203 0.113870 0.161988
O O14 0.068662 0.159980 0.238873
O O15 0.527471 0.234193 0.086545
O O16 0.000000 0.199797 0.000000
#
# Coordination Sequence:
#
# PCOD8079641 Si02
#       7
#     4   8   8   8   8   8   8
#     4  12  22  32  48  70  96 130 171 210 259 318
#     4  10  17  33  55  71 100 135 166 215 264 306
#     4  10  21  37  56  80 116 153 174 206 265 321
#     4  10  21  35  53  77 103 130 172 225 265 298
#     4  10  21  33  54  85 103 133 184 218 254 314
#     4  10  21  36  52  69  95 133 171 209 265 322
#     4  10  20  34  49  70  98 130 166 211 262 315
#
# _framework density 18.778006999999999
#
# number of rings (size 3 to 8) (size 9 to 14) (size 15 to 20)
#    0.000    1.846    1.538    2.769    0.000    4.308 
#    0.000    2.308    0.000    0.462    0.000    0.000 
#    0.000   11.077    0.000    0.000    0.000    1.846 
#
# Total GULP energy -322159.298280 kJ/mol
# GULP energy per Si atom -12390.742242 kJ/mol
# Density = 1.873527 g / cm^3
# Si number density = 18.778007 Si / 1000 Ang^3
#
#
#
# Elastic Constant Matrix: (Units=GPa)
#
#
# Indices 1 2 3 4 5 6 
#
# 1 86.0929 13.0981 11.2681 0.0000 10.3824 0.0000
# 2 13.0981 120.1570 55.6243 0.0000 12.8118 0.0000
# 3 11.2681 55.6243 61.1315 0.0000 8.0209 0.0000
# 4 0.0000 0.0000 0.0000 17.4879 0.0000 4.3794
# 5 10.3824 12.8118 8.0209 0.0000 19.7840 0.0000
# 6 0.0000 0.0000 0.0000 4.3794 0.0000 19.5136
#
#
#
# Elastic Compliance Matrix: (Units=1/GPa)
#
#
# Indices 1 2 3 4 5 6 
#
# 1 0.012534 -0.000041 -0.001493 0.000000 -0.005946 0.000000
# 2 -0.000041 0.014723 -0.012823 0.000000 -0.004314 0.000000
# 3 -0.001493 -0.012823 0.028632 0.000000 -0.002521 0.000000
# 4 0.000000 0.000000 0.000000 0.060588 0.000000 -0.013597
# 5 -0.005946 -0.004314 -0.002521 0.000000 0.057482 0.000000
# 6 0.000000 0.000000 0.000000 -0.013597 0.000000 0.054298
#
#
# Mechanical properties :
#
#
# Convention : Reuss Voigt Hill
#
# Bulk Modulus (GPa) = 36.79851 47.48471 42.14161
# Shear Modulus (GPa) = 18.79494 23.84981 21.32238
#
# Velocity S-wave (km/s) = 3.16714 3.56770 3.37337
# Velocity P-wave (km/s) = 5.74574 6.50489 6.13706
#
# Compressibility (1/GPa) = 0.02717502
#
# Stress axis : x y z
#
# Youngs Moduli (GPa) = 79.78277 67.92026 34.92605
#
# Poissons Ratio (x) = 0.00281 0.05213
# Poissons Ratio (y) = 0.00330 0.44786
# Poissons Ratio (z) = 0.11908 0.87095
#
# Static dielectric constant tensor:
#      x y z
#    x 3.731490 0.000000 0.035490 
#    y 0.000000 3.677340 0.000000 
#    z 0.035490 0.000000 3.051580 
# 
# 
# High freq. dielectric constant tensor:
#      x y z
#    x 1.756020 0.000000 0.003340 
#    y 0.000000 1.734400 0.000000 
#    z 0.003340 0.000000 1.683210 
# 
# From -- ./inp_files/298554.got.cif
#   From: 2010.06.25/outbox.cif.g09.slc.cpg/sg12_150_cif.got.tgz:298554.got - 2010.06.28 00:19:55.
