data_PCOD8079751
_publ_section_title
;
Structure prediction by ZEFSAII (Michael W. Deem and Ramdas Pophale) SiO2 
 PCOD8079751
Probable space group: C 2/M
;
_chemical_formula_sum "Si O2"
_cell_formula_units_Z 64
_cell_length_a 29.353640
_cell_length_b 20.087404
_cell_length_c 16.744540
_cell_angle_alpha 90.000000
_cell_angle_beta 20.399005
_cell_angle_gamma 90.000000
_cell_volume 3441.369268
_symmetry_space_group_name_H-M "C 2/M"
_symmetry_group_IT_number 12
_symmetry_cell_setting 'monoclinic'
loop_
_space_group_symop_operation_xyz
x,y,z
-x,y,-z
-x,-y,-z
x,-y,z
1/2+x,1/2+y,z
1/2-x,1/2+y,-z
1/2-x,1/2-y,-z
1/2+x,1/2-y,z
loop_
_atom_site_type_symbol
_atom_site_label
_atom_site_fract_x
_atom_site_fract_y
_atom_site_fract_z
Si Si1 0.461518 0.684594 0.303487
Si Si2 0.649905 0.700116 0.264439
Si Si3 0.655022 0.179263 0.454210
Si Si4 0.072279 0.770933 0.963972
Si Si5 0.273619 0.076310 0.979447
Si Si6 0.250577 0.662923 0.121684
Si Si7 0.460166 0.926824 0.815437
Si Si8 0.727554 0.848008 0.776712
O O1 0.433511 0.755521 0.390674
O O2 0.474068 0.693069 0.187288
O O3 0.337247 0.636084 0.528334
O O4 0.594406 0.653909 0.119752
O O5 0.500000 0.717988 0.500000
O O6 0.727817 0.767508 0.110779
O O7 0.673327 0.632529 0.175959
O O8 0.692192 0.689756 0.286333
O O9 0.670704 0.162318 0.335262
O O10 0.583582 0.120896 0.619799
O O11 0.796072 0.186282 0.264450
O O12 0.113765 0.699597 0.930796
O O13 0.000000 0.761178 0.000000
O O14 0.302671 0.099443 0.841067
O O15 0.403737 0.079621 0.818676
O O16 0.217383 0.000000 0.073680
O O17 0.344824 0.912431 0.069252
O O18 0.512018 0.000000 0.748485
#
# Coordination Sequence:
#
# PCOD8079751 Si02
#       8
#     8   8   8   8   8   8   8   8
#     4  10  17  36  55  81 115 139 180 230 279 336
#     4  11  20  32  55  81 107 156 194 236 277 326
#     4  10  20  34  57  83 112 145 184 228 286 337
#     4  10  20  34  59  91 116 135 170 232 298 338
#     4  10  23  35  48  75 115 153 195 239 278 327
#     4  11  21  33  54  80 112 148 197 238 275 331
#     4  10  21  39  56  76 112 155 193 227 273 332
#     4  10  19  35  54  82 113 144 188 227 279 333
#
# _framework density 18.597249999999999
#
# number of rings (size 3 to 8) (size 9 to 14) (size 15 to 20)
#    0.000    1.750    5.000    1.875    1.750    2.750 
#    0.000    4.375    0.000    1.500    0.000    0.000 
#    0.000    0.000    0.000    0.000    0.000    0.000 
#
# Total GULP energy -396571.007125 kJ/mol
# GULP energy per Si atom -12392.843973 kJ/mol
# Density = 1.855492 g / cm^3
# Si number density = 18.597250 Si / 1000 Ang^3
#
#
#
# Elastic Constant Matrix: (Units=GPa)
#
#
# Indices 1 2 3 4 5 6 
#
# 1 96.6929 21.5328 23.2043 -0.0003 -7.8770 0.0000
# 2 21.5328 86.7830 30.7386 -0.0024 1.7025 0.0005
# 3 23.2043 30.7386 84.5263 -0.0026 8.8298 0.0001
# 4 -0.0003 -0.0024 -0.0026 12.0846 0.0010 3.6989
# 5 -7.8770 1.7025 8.8298 0.0010 20.4675 -0.0002
# 6 0.0000 0.0005 0.0001 3.6989 -0.0002 6.6900
#
#
#
# Elastic Compliance Matrix: (Units=1/GPa)
#
#
# Indices 1 2 3 4 5 6 
#
# 1 0.012064 -0.001966 -0.003245 -0.000002 0.006207 0.000001
# 2 -0.001966 0.013567 -0.004395 0.000002 0.000011 -0.000002
# 3 -0.003245 -0.004395 0.015092 0.000003 -0.007394 -0.000002
# 4 -0.000002 0.000002 0.000003 0.099607 -0.000008 -0.055073
# 5 0.006207 0.000011 -0.007394 -0.000008 0.054436 0.000006
# 6 0.000001 -0.000002 -0.000002 -0.055073 0.000006 0.179928
#
#
# Mechanical properties :
#
#
# Convention : Reuss Voigt Hill
#
# Bulk Modulus (GPa) = 46.48778 46.55042 46.51910
# Shear Modulus (GPa) = 12.46641 20.68351 16.57496
#
# Velocity S-wave (km/s) = 2.59189 3.33856 2.98863
# Velocity P-wave (km/s) = 5.83169 6.32032 6.08091
#
# Compressibility (1/GPa) = 0.02151103
#
# Stress axis : x y z
#
# Youngs Moduli (GPa) = 82.88996 73.70630 66.25833
#
# Poissons Ratio (x) = 0.14488 0.21504
# Poissons Ratio (y) = 0.16293 0.29123
# Poissons Ratio (z) = 0.26901 0.32397
#
# Static dielectric constant tensor:
#      x y z
#    x 3.290140 0.000000 0.235870 
#    y 0.000000 3.255650 0.000000 
#    z 0.235870 0.000000 3.580830 
# 
# 
# High freq. dielectric constant tensor:
#      x y z
#    x 1.702850 0.000000 0.011610 
#    y 0.000000 1.691990 0.000000 
#    z 0.011610 0.000000 1.728040 
# 
# From -- ./inp_files/265098.got.cif
#   From: 2010.06.25/outbox.cif.g09.slc.cpg/sg12_133_cif.got.tgz:265098.got - 2010.06.28 00:19:55.
