data_PCOD8079462
_publ_section_title
;
Structure prediction by ZEFSAII (Michael W. Deem and Ramdas Pophale) SiO2 
 PCOD8079462
Probable space group: C 2/M
;
_chemical_formula_sum "Si O2"
_cell_formula_units_Z 56
_cell_length_a 17.849304
_cell_length_b 15.576414
_cell_length_c 18.249648
_cell_angle_alpha 90.000000
_cell_angle_beta 38.092014
_cell_angle_gamma 90.000000
_cell_volume 3130.231545
_symmetry_space_group_name_H-M "C 2/M"
_symmetry_group_IT_number 12
_symmetry_cell_setting 'monoclinic'
loop_
_space_group_symop_operation_xyz
x,y,z
-x,y,-z
-x,-y,-z
x,-y,z
1/2+x,1/2+y,z
1/2-x,1/2+y,-z
1/2-x,1/2-y,-z
1/2+x,1/2-y,z
loop_
_atom_site_type_symbol
_atom_site_label
_atom_site_fract_x
_atom_site_fract_y
_atom_site_fract_z
Si Si1 0.668413 0.257601 0.842238
Si Si2 0.466454 0.802974 0.914519
Si Si3 0.949794 0.155839 0.816521
Si Si4 0.189316 0.402786 0.066239
Si Si5 0.405044 0.218956 0.734627
Si Si6 0.665413 0.404102 0.734095
Si Si7 0.573314 0.097738 0.518122
O O1 0.602931 0.181972 0.843425
O O2 0.814124 0.255755 0.737425
O O3 0.629637 0.346308 0.831760
O O4 0.613686 0.249753 0.965287
O O5 0.474594 0.744619 0.837686
O O6 0.401113 0.888552 0.934311
O O7 0.948674 0.188848 0.733015
O O8 0.061735 0.094166 0.750891
O O9 0.825097 0.109569 0.932356
O O10 0.171987 0.500000 0.107165
O O11 0.168270 0.338267 0.149734
O O12 0.517813 0.163300 0.619628
O O13 0.684141 0.500000 0.750276
O O14 0.789296 0.371445 0.601375
O O15 0.500000 0.103285 0.500000
O O16 0.569124 0.000000 0.552218
#
# Coordination Sequence:
#
# PCOD8079462 Si02
#       7
#     8   8   8   8   8   8   8
#     4  10  17  31  53  69  99 135 165 198 244 295
#     4   9  18  33  47  71 102 134 163 201 245 292
#     4  10  19  34  49  72 104 132 164 203 246 298
#     4  11  20  32  51  75 102 131 167 204 248 296
#     4  11  19  33  54  73  99 134 169 201 245 300
#     4  10  21  34  50  75 106 132 161 206 252 292
#     4  10  20  33  49  75 106 129 160 207 253 292
#
# _framework density 17.890049999999999
#
# number of rings (size 3 to 8) (size 9 to 14) (size 15 to 20)
#    0.000    1.857    4.286    1.714    0.000    1.143 
#    0.000    3.571    0.000    0.000    0.000    0.000 
#    0.000   10.286    0.000    0.000    0.000    0.000 
#
# Total GULP energy -346883.128850 kJ/mol
# GULP energy per Si atom -12388.683173 kJ/mol
# Density = 1.784933 g / cm^3
# Si number density = 17.890050 Si / 1000 Ang^3
#
#
#
# Elastic Constant Matrix: (Units=GPa)
#
#
# Indices 1 2 3 4 5 6 
#
# 1 105.4827 18.1061 18.7779 -0.0001 -16.9662 0.0000
# 2 18.1061 33.8211 13.8277 -0.0001 -1.2218 0.0000
# 3 18.7779 13.8277 59.1899 -0.0001 -10.2869 0.0000
# 4 -0.0001 -0.0001 -0.0001 22.2745 0.0000 4.4800
# 5 -16.9662 -1.2218 -10.2869 0.0000 22.2614 0.0000
# 6 0.0000 0.0000 0.0000 4.4800 0.0000 18.2459
#
#
#
# Elastic Compliance Matrix: (Units=1/GPa)
#
#
# Indices 1 2 3 4 5 6 
#
# 1 0.011982 -0.005696 -0.001020 0.000000 0.008348 0.000000
# 2 -0.005696 0.035471 -0.007498 0.000000 -0.005859 0.000000
# 3 -0.001020 -0.007498 0.020402 0.000000 0.008239 0.000000
# 4 0.000000 0.000000 0.000000 0.047227 0.000000 -0.011596
# 5 0.008348 -0.005859 0.008239 0.000000 0.054769 0.000000
# 6 0.000000 0.000000 0.000000 -0.011596 0.000000 0.057654
#
#
# Mechanical properties :
#
#
# Convention : Reuss Voigt Hill
#
# Bulk Modulus (GPa) = 25.36308 33.32412 29.34360
# Shear Modulus (GPa) = 18.58225 22.40847 20.49536
#
# Velocity S-wave (km/s) = 3.22637 3.54300 3.38839
# Velocity P-wave (km/s) = 5.29974 5.95019 5.63436
#
# Compressibility (1/GPa) = 0.03942739
#
# Stress axis : x y z
#
# Youngs Moduli (GPa) = 83.45662 28.19238 49.01540
#
# Poissons Ratio (x) = 0.16059 0.04998
# Poissons Ratio (y) = 0.47539 0.36750
# Poissons Ratio (z) = 0.08510 0.21138
#
# Static dielectric constant tensor:
#      x y z
#    x 3.870350 0.000000 -0.198040 
#    y 0.000000 3.130060 0.000000 
#    z -0.198040 0.000000 3.152000 
# 
# 
# High freq. dielectric constant tensor:
#      x y z
#    x 1.709480 0.000000 -0.014890 
#    y 0.000000 1.659790 0.000000 
#    z -0.014890 0.000000 1.668080 
# 
# From -- ./inp_files/157343.got.cif
#   From: 2010.06.25/outbox.cif.g09.slc.cpg/sg12_79_cif.got.tgz:157343.got - 2010.06.28 00:19:55.
