data_PCOD8079801
_publ_section_title
;
Structure prediction by ZEFSAII (Michael W. Deem and Ramdas Pophale) SiO2 
 PCOD8079801
Probable space group: C 2/M
;
_chemical_formula_sum "Si O2"
_cell_formula_units_Z 56
_cell_length_a 17.192962
_cell_length_b 23.425928
_cell_length_c 12.679132
_cell_angle_alpha 90.000000
_cell_angle_beta 132.687761
_cell_angle_gamma 90.000000
_cell_volume 3753.699396
_symmetry_space_group_name_H-M "C 2/M"
_symmetry_group_IT_number 12
_symmetry_cell_setting 'monoclinic'
loop_
_space_group_symop_operation_xyz
x,y,z
-x,y,-z
-x,-y,-z
x,-y,z
1/2+x,1/2+y,z
1/2-x,1/2+y,-z
1/2-x,1/2-y,-z
1/2+x,1/2-y,z
loop_
_atom_site_type_symbol
_atom_site_label
_atom_site_fract_x
_atom_site_fract_y
_atom_site_fract_z
Si Si1 0.741602 0.235996 0.158491
Si Si2 0.583111 0.264004 0.841509
Si Si3 0.960024 0.347074 0.668764
Si Si4 0.084893 0.436765 0.669786
Si Si5 0.791260 0.652926 0.331236
Si Si6 0.207782 0.312431 0.341152
Si Si7 0.366630 0.312431 0.658848
O O1 0.825138 0.211678 0.150276
O O2 0.788287 0.292872 0.252562
O O3 0.722014 0.186502 0.227987
O O4 0.630406 0.250000 1.000000
O O5 0.535725 0.207128 0.747438
O O6 0.494027 0.313498 0.772012
O O7 0.887168 0.335809 0.500000
O O8 0.885488 0.355017 0.704112
O O9 0.032289 0.403187 0.719873
O O10 0.119857 0.500000 0.739714
O O11 0.187584 0.403187 0.719873
O O12 0.000000 0.442240 0.500000
O O13 0.681376 0.644983 0.295888
O O14 0.318789 0.328201 0.500000
O O15 0.171478 0.250000 0.342957
#
# Coordination Sequence:
#
# PCOD8079801 Si02
#       7
#     8   8   8   8   8   8   8
#     4  10  18  25  36  58  85 109 144 164 197 240
#     4  10  18  25  36  58  85 109 144 164 197 240
#     4   9  16  27  41  57  83 112 135 164 204 244
#     4   9  16  26  43  64  82 104 136 173 212 249
#     4   9  16  27  41  57  83 112 135 164 204 244
#     4   8  15  25  37  54  76 108 139 159 194 246
#     4   8  15  25  37  54  76 108 139 159 194 246
#
# _framework density 14.918616999999999
#
# number of rings (size 3 to 8) (size 9 to 14) (size 15 to 20)
#    0.000    3.000    1.429    2.571    0.000    6.857 
#    0.000    0.000    0.000    0.000    0.000    4.000 
#    0.000    0.000    0.000   11.143    0.000    1.143 
#
# Total GULP energy -346957.325323 kJ/mol
# GULP energy per Si atom -12391.333047 kJ/mol
# Density = 1.488466 g / cm^3
# Si number density = 14.918617 Si / 1000 Ang^3
#
#
#
# Elastic Constant Matrix: (Units=GPa)
#
#
# Indices 1 2 3 4 5 6 
#
# 1 120.1169 37.8908 50.2585 0.0000 -2.2802 0.0000
# 2 37.8908 61.1653 13.6193 0.0000 -1.6555 0.0000
# 3 50.2585 13.6193 65.1940 0.0000 -1.4662 0.0000
# 4 0.0000 0.0000 0.0000 5.1560 0.0000 -0.7856
# 5 -2.2802 -1.6555 -1.4662 0.0000 18.2697 0.0000
# 6 0.0000 0.0000 0.0000 -0.7856 0.0000 16.6741
#
#
#
# Elastic Compliance Matrix: (Units=1/GPa)
#
#
# Indices 1 2 3 4 5 6 
#
# 1 0.014600 -0.006848 -0.009816 0.000000 0.000414 0.000000
# 2 -0.006848 0.020388 0.001044 0.000000 0.001077 0.000000
# 3 -0.009816 0.001044 0.022703 0.000000 0.000692 0.000000
# 4 0.000000 0.000000 0.000000 0.195353 0.000000 0.009204
# 5 0.000414 0.001077 0.000692 0.000000 0.054940 0.000000
# 6 0.000000 0.000000 0.000000 0.009204 0.000000 0.060407
#
#
# Mechanical properties :
#
#
# Convention : Reuss Voigt Hill
#
# Bulk Modulus (GPa) = 37.80326 50.00149 43.90238
# Shear Modulus (GPa) = 12.24150 17.66713 14.95432
#
# Velocity S-wave (km/s) = 2.86764 3.44500 3.16949
# Velocity P-wave (km/s) = 6.02985 7.02944 6.54874
#
# Compressibility (1/GPa) = 0.02645274
#
# Stress axis : x y z
#
# Youngs Moduli (GPa) = 68.49251 49.04881 44.04681
#
# Poissons Ratio (x) = 0.33587 0.43234
# Poissons Ratio (y) = 0.46902 -0.04599
# Poissons Ratio (z) = 0.67229 -0.05121
#
# Static dielectric constant tensor:
#      x y z
#    x 3.340700 0.000000 -0.033310 
#    y 0.000000 2.678930 0.000000 
#    z -0.033310 0.000000 2.852270 
# 
# 
# High freq. dielectric constant tensor:
#      x y z
#    x 1.583460 0.000000 -0.001570 
#    y 0.000000 1.504020 0.000000 
#    z -0.001570 0.000000 1.560470 
# 
# From -- ./inp_files/160082.got.cif
#   From: 2010.06.25/outbox.cif.g09.slc.cpg/sg12_81_cif.got.tgz:160082.got - 2010.06.28 00:19:55.
