data_PCOD8079790
_publ_section_title
;
Structure prediction by ZEFSAII (Michael W. Deem and Ramdas Pophale) SiO2 
 PCOD8079790
Probable space group: C 2/M
;
_chemical_formula_sum "Si O2"
_cell_formula_units_Z 44
_cell_length_a 12.535956
_cell_length_b 13.443338
_cell_length_c 11.423431
_cell_angle_alpha 90.000000
_cell_angle_beta 86.930186
_cell_angle_gamma 90.000000
_cell_volume 1922.372255
_symmetry_space_group_name_H-M "C 2/M"
_symmetry_group_IT_number 12
_symmetry_cell_setting 'monoclinic'
loop_
_space_group_symop_operation_xyz
x,y,z
-x,y,-z
-x,-y,-z
x,-y,z
1/2+x,1/2+y,z
1/2-x,1/2+y,-z
1/2-x,1/2-y,-z
1/2+x,1/2-y,z
loop_
_atom_site_type_symbol
_atom_site_label
_atom_site_fract_x
_atom_site_fract_y
_atom_site_fract_z
Si Si1 0.181667 0.389730 0.733858
Si Si2 0.500000 0.659034 0.500000
Si Si3 0.229056 0.679297 0.246037
Si Si4 0.618394 0.847969 0.490246
Si Si5 0.474914 0.191523 0.866174
Si Si6 0.034221 0.892317 0.756088
O O1 0.219128 0.500000 0.776353
O O2 0.259287 0.299796 0.765873
O O3 0.184160 0.393469 0.593043
O O4 0.061572 0.368449 0.785785
O O5 0.606072 0.728241 0.504959
O O6 0.497822 0.597816 0.379671
O O7 0.181203 0.634076 0.367675
O O8 0.341565 0.626677 0.223184
O O9 0.143926 0.648284 0.150292
O O10 0.500000 0.897233 0.500000
O O11 0.468899 0.305776 0.823259
O O12 0.500000 0.182179 0.000000
O O13 0.005256 0.000000 0.812138
#
# Coordination Sequence:
#
# PCOD8079790 Si02
#       6
#     8   4   8   8   8   8
#     4  11  24  39  63  98 126 159 209 257 311 376
#     4  10  17  40  61  88 128 164 191 242 307 370
#     4  11  21  43  62  91 128 165 206 254 316 372
#     4  10  17  38  62  87 125 164 195 239 305 376
#     4  11  24  46  68  83 122 172 212 263 314 361
#     4  11  24  39  64  99 128 161 208 255 309 377
#
# _framework density 22.888387999999999
#
# number of rings (size 3 to 8) (size 9 to 14) (size 15 to 20)
#    0.545    0.727    7.273    0.818    0.000    6.182 
#    0.000    1.818    0.000    0.000    0.000    0.000 
#    0.000    0.000    0.000    0.000    0.000    0.000 
#
# Total GULP energy -272553.538408 kJ/mol
# GULP energy per Si atom -12388.797200 kJ/mol
# Density = 2.283629 g / cm^3
# Si number density = 22.888388 Si / 1000 Ang^3
#
#
#
# Elastic Constant Matrix: (Units=GPa)
#
#
# Indices 1 2 3 4 5 6 
#
# 1 76.7646 -7.5164 21.7554 0.0000 13.4787 0.0000
# 2 -7.5164 101.2896 12.5958 0.0000 -3.0954 0.0000
# 3 21.7554 12.5958 108.0186 0.0000 24.9880 0.0000
# 4 0.0000 0.0000 0.0000 3.4001 0.0000 9.2385
# 5 13.4787 -3.0954 24.9880 0.0000 24.2307 0.0000
# 6 0.0000 0.0000 0.0000 9.2385 0.0000 5.5946
#
#
#
# Elastic Compliance Matrix: (Units=1/GPa)
#
#
# Indices 1 2 3 4 5 6 
#
# 1 0.014712 0.001098 -0.001616 0.000000 -0.006377 0.000000
# 2 0.001098 0.010300 -0.002082 0.000000 0.002852 0.000000
# 3 -0.001616 -0.002082 0.012712 0.000000 -0.012476 0.000000
# 4 0.000000 0.000000 0.000000 -0.084349 0.000000 0.139286
# 5 -0.006377 0.002852 -0.012476 0.000000 0.058048 0.000000
# 6 0.000000 0.000000 0.000000 0.139286 0.000000 -0.051262
#
#
# Mechanical properties :
#
#
# Convention : Reuss Voigt Hill
#
# Bulk Modulus (GPa) = 30.74635 37.74917 34.24776
# Shear Modulus (GPa) = -210.10838 23.92763 -93.09037
#
# Velocity S-wave (km/s) = -9.59147 3.23678 -6.38434
# Velocity P-wave (km/s) = 10.44985 5.52246 6.27303
#
# Compressibility (1/GPa) = 0.03252418
#
# Stress axis : x y z
#
# Youngs Moduli (GPa) = 67.97176 97.08541 78.66546
#
# Poissons Ratio (x) = -0.10658 0.12711
# Poissons Ratio (y) = -0.07462 0.16378
# Poissons Ratio (z) = 0.10983 0.20213
#
# Static dielectric constant tensor:
#      x y z
#    x 4.089460 0.000000 0.071150 
#    y 0.000000 4.014180 0.000000 
#    z 0.071150 0.000000 3.813340 
# 
# 
# High freq. dielectric constant tensor:
#      x y z
#    x 1.903910 0.000000 0.011940 
#    y 0.000000 1.889710 0.000000 
#    z 0.011940 0.000000 1.872670 
# 
# From -- ./inp_files/129767.got.cif
#   From: 2010.06.25/outbox.cif.g09.slc.cpg/sg12_65_cif.got.tgz:129767.got - 2010.06.28 00:19:55.
