data_PCOD8079770
_publ_section_title
;
Structure prediction by ZEFSAII (Michael W. Deem and Ramdas Pophale) SiO2 
 PCOD8079770
Probable space group: C 2/M
;
_chemical_formula_sum "Si O2"
_cell_formula_units_Z 44
_cell_length_a 16.787243
_cell_length_b 30.672945
_cell_length_c 11.485052
_cell_angle_alpha 90.000000
_cell_angle_beta 159.030853
_cell_angle_gamma 90.000000
_cell_volume 2116.348864
_symmetry_space_group_name_H-M "C 2/M"
_symmetry_group_IT_number 12
_symmetry_cell_setting 'monoclinic'
loop_
_space_group_symop_operation_xyz
x,y,z
-x,y,-z
-x,-y,-z
x,-y,z
1/2+x,1/2+y,z
1/2-x,1/2+y,-z
1/2-x,1/2-y,-z
1/2+x,1/2-y,z
loop_
_atom_site_type_symbol
_atom_site_label
_atom_site_fract_x
_atom_site_fract_y
_atom_site_fract_z
Si Si1 0.060115 0.698755 0.317418
Si Si2 0.250435 0.049214 0.627984
Si Si3 0.083490 0.125268 0.242054
Si Si4 0.830455 0.153934 0.104008
Si Si5 0.500000 0.414925 0.500000
Si Si6 0.338289 0.272258 0.377765
O O1 0.235315 0.663936 0.508535
O O2 0.190498 0.739166 0.553775
O O3 0.901864 0.678817 0.201866
O O4 0.907893 0.716619 0.004614
O O5 0.181727 0.081466 0.431059
O O6 0.118026 0.054735 0.567191
O O7 0.217221 0.000000 0.536900
O O8 0.500000 0.060093 0.000000
O O9 0.864812 0.138452 0.018152
O O10 0.000000 0.114507 0.000000
O O11 0.824126 0.114773 0.188906
O O12 0.047082 0.183101 0.426136
O O13 0.500000 0.251145 0.500000
#
# Coordination Sequence:
#
# PCOD8079770 Si02
#       6
#     8   8   8   8   4   8
#     4  11  23  41  59  86 126 167 210 264 302 358
#     4  10  22  41  69  98 122 154 201 256 316 379
#     4  11  27  40  60  93 124 168 208 248 312 375
#     4  10  20  39  62  87 122 164 211 252 310 356
#     4  10  17  36  66  96 122 154 202 252 307 366
#     4  10  21  37  61  86 116 169 208 259 310 346
#
# _framework density 20.790523
#
# number of rings (size 3 to 8) (size 9 to 14) (size 15 to 20)
#    0.000    1.636    2.727    3.545    7.636    1.091 
#    0.000    0.000    0.000    0.000    0.000   10.182 
#    0.000    0.000    0.000    0.000    0.000    0.000 
#
# Total GULP energy -272780.290548 kJ/mol
# GULP energy per Si atom -12399.104116 kJ/mol
# Density = 2.074320 g / cm^3
# Si number density = 20.790523 Si / 1000 Ang^3
#
#
#
# Elastic Constant Matrix: (Units=GPa)
#
#
# Indices 1 2 3 4 5 6 
#
# 1 85.4991 16.7243 30.4691 -0.0185 -15.1123 -0.0190
# 2 16.7243 60.1832 40.8845 -0.0087 -1.4112 -0.0097
# 3 30.4691 40.8845 76.2508 -0.0299 -4.0318 -0.0327
# 4 -0.0185 -0.0087 -0.0299 21.6094 -0.0116 -5.1883
# 5 -15.1123 -1.4112 -4.0318 -0.0116 25.1441 -0.0111
# 6 -0.0190 -0.0097 -0.0327 -5.1883 -0.0111 32.5711
#
#
#
# Elastic Compliance Matrix: (Units=1/GPa)
#
#
# Indices 1 2 3 4 5 6 
#
# 1 0.015152 -0.000315 -0.005452 0.000012 0.008215 0.000008
# 2 -0.000315 0.026158 -0.013950 -0.000012 -0.000958 -0.000009
# 3 -0.005452 -0.013950 0.022751 0.000026 -0.000411 0.000019
# 4 0.000012 -0.000012 0.000026 0.048116 0.000036 0.007665
# 5 0.008215 -0.000958 -0.000411 0.000036 0.044589 0.000025
# 6 0.000008 -0.000009 0.000019 0.007665 0.000025 0.031923
#
#
# Mechanical properties :
#
#
# Convention : Reuss Voigt Hill
#
# Bulk Modulus (GPa) = 40.60372 44.23212 42.41792
# Shear Modulus (GPa) = 21.15664 24.78860 22.97262
#
# Velocity S-wave (km/s) = 3.19346 3.45672 3.32769
# Velocity P-wave (km/s) = 5.75933 6.10354 5.93393
#
# Compressibility (1/GPa) = 0.02462829
#
# Stress axis : x y z
#
# Youngs Moduli (GPa) = 65.99586 38.22939 43.95341
#
# Poissons Ratio (x) = 0.01202 0.23962
# Poissons Ratio (y) = 0.02076 0.61317
# Poissons Ratio (z) = 0.35979 0.53332
#
# Static dielectric constant tensor:
#      x y z
#    x 4.016330 0.000000 -0.080230 
#    y 0.000000 3.700040 0.000000 
#    z -0.080230 0.000000 3.451170 
# 
# 
# High freq. dielectric constant tensor:
#      x y z
#    x 1.831560 0.000000 0.002680 
#    y 0.000000 1.806430 0.000000 
#    z 0.002680 0.000000 1.798320 
# 
# From -- ./inp_files/161278.got.cif
#   From: 2010.06.25/outbox.cif.g09.slc.cpg/sg12_81_cif.got.tgz:161278.got - 2010.06.28 00:19:55.
