data_PCOD8079537
_publ_section_title
;
Structure prediction by ZEFSAII (Michael W. Deem and Ramdas Pophale) SiO2 
 PCOD8079537
Probable space group: C 2/M
;
_chemical_formula_sum "Si O2"
_cell_formula_units_Z 56
_cell_length_a 19.805601
_cell_length_b 27.179441
_cell_length_c 9.183583
_cell_angle_alpha 90.000000
_cell_angle_beta 141.246528
_cell_angle_gamma 90.000000
_cell_volume 3094.530218
_symmetry_space_group_name_H-M "C 2/M"
_symmetry_group_IT_number 12
_symmetry_cell_setting 'monoclinic'
loop_
_space_group_symop_operation_xyz
x,y,z
-x,y,-z
-x,-y,-z
x,-y,z
1/2+x,1/2+y,z
1/2-x,1/2+y,-z
1/2-x,1/2-y,-z
1/2+x,1/2-y,z
loop_
_atom_site_type_symbol
_atom_site_label
_atom_site_fract_x
_atom_site_fract_y
_atom_site_fract_z
Si Si1 0.376138 0.218461 0.803242
Si Si2 0.384574 0.054491 0.879428
Si Si3 0.981190 0.601510 0.311216
Si Si4 0.167503 0.692021 0.947442
Si Si5 0.686742 0.871617 0.470334
Si Si6 0.605994 0.673191 0.102142
Si Si7 0.103889 0.201872 0.769862
O O1 0.326110 0.185869 0.590877
O O2 0.358570 0.276802 0.750609
O O3 0.500000 0.203860 0.000000
O O4 0.325971 0.201045 0.870210
O O5 0.310399 0.093681 0.668690
O O6 0.332086 0.000000 0.783463
O O7 0.500000 0.054523 0.000000
O O8 0.401813 0.069137 0.076910
O O9 0.097104 0.609880 0.431656
O O10 0.000000 0.575337 0.500000
O O11 0.921279 0.652204 0.243748
O O12 0.128676 0.740283 0.795488
O O13 0.286975 0.674306 0.098796
O O14 0.804502 0.870167 0.743334
O O15 0.500000 0.651116 0.000000
O O16 0.576806 0.687602 0.889031
O O17 0.000000 0.186869 0.500000
#
# Coordination Sequence:
#
# PCOD8079537 Si02
#       7
#     8   8   8   8   8   8   8
#     4  10  17  32  50  75  99 138 179 214 254 302
#     4   9  19  35  55  79 104 133 170 216 274 324
#     4  11  20  31  54  78 107 139 173 217 260 318
#     4  10  19  33  49  72 100 139 184 211 250 310
#     4  11  19  35  54  75 105 139 178 217 262 317
#     4  10  23  33  48  76 103 139 184 219 252 301
#     4  10  22  35  47  69 106 144 177 216 260 299
#
# _framework density 18.096444999999999
#
# number of rings (size 3 to 8) (size 9 to 14) (size 15 to 20)
#    0.000    1.857    2.857    2.143    2.000    2.571 
#    0.000    0.000    0.000    0.429    0.000    0.000 
#    0.000    3.429    0.000    0.000    0.000    0.000 
#
# Total GULP energy -347076.915209 kJ/mol
# GULP energy per Si atom -12395.604115 kJ/mol
# Density = 1.805526 g / cm^3
# Si number density = 18.096445 Si / 1000 Ang^3
#
#
#
# Elastic Constant Matrix: (Units=GPa)
#
#
# Indices 1 2 3 4 5 6 
#
# 1 99.8415 16.7649 37.8668 0.0000 2.5865 0.0000
# 2 16.7649 55.2243 42.7704 0.0000 0.4670 0.0000
# 3 37.8668 42.7704 97.6840 0.0000 -1.4061 0.0000
# 4 0.0000 0.0000 0.0000 14.2641 0.0000 1.7684
# 5 2.5865 0.4670 -1.4061 0.0000 33.7726 0.0000
# 6 0.0000 0.0000 0.0000 1.7684 0.0000 -6.0228
#
#
#
# Elastic Compliance Matrix: (Units=1/GPa)
#
#
# Indices 1 2 3 4 5 6 
#
# 1 0.011782 -0.000027 -0.004571 0.000000 -0.001092 0.000000
# 2 -0.000027 0.027425 -0.012010 0.000000 -0.000877 0.000000
# 3 -0.004571 -0.012010 0.017285 0.000000 0.001236 0.000000
# 4 0.000000 0.000000 0.000000 0.067644 0.000000 0.019862
# 5 -0.001092 -0.000877 0.001236 0.000000 0.029757 0.000000
# 6 0.000000 0.000000 0.000000 0.019862 0.000000 -0.160204
#
#
# Mechanical properties :
#
#
# Convention : Reuss Voigt Hill
#
# Bulk Modulus (GPa) = 42.96263 49.72823 46.34543
# Shear Modulus (GPa) = 144.23531 18.75931 81.49731
#
# Velocity S-wave (km/s) = 8.93738 3.22317 6.71809
# Velocity P-wave (km/s) = 11.41467 6.43358 9.26514
#
# Compressibility (1/GPa) = 0.02327604
#
# Stress axis : x y z
#
# Youngs Moduli (GPa) = 84.87184 36.46267 57.85221
#
# Poissons Ratio (x) = 0.00100 0.26445
# Poissons Ratio (y) = 0.00232 0.69481
# Poissons Ratio (z) = 0.38796 0.43792
#
# Static dielectric constant tensor:
#      x y z
#    x 3.302850 0.000000 -0.384950 
#    y 0.000000 3.205860 0.000000 
#    z -0.384950 0.000000 2.212550 
# 
# 
# High freq. dielectric constant tensor:
#      x y z
#    x 1.704050 0.000000 -0.007710 
#    y 0.000000 1.654900 0.000000 
#    z -0.007710 0.000000 1.695270 
# 
# From -- ./inp_files/80495.got.cif
#   From: 2010.06.25/outbox.cif.g09.slc.cpg/sg12_41_cif.got.tgz:80495.got - 2010.06.28 00:19:55.
