data_PCOD8079079
_publ_section_title
;
Structure prediction by ZEFSAII (Michael W. Deem and Ramdas Pophale) SiO2 
 PCOD8079079
Probable space group: C 2/M
;
_chemical_formula_sum "Si O2"
_cell_formula_units_Z 64
_cell_length_a 22.114036
_cell_length_b 13.508696
_cell_length_c 16.987760
_cell_angle_alpha 90.000000
_cell_angle_beta 49.514705
_cell_angle_gamma 90.000000
_cell_volume 3859.741732
_symmetry_space_group_name_H-M "C 2/M"
_symmetry_group_IT_number 12
_symmetry_cell_setting 'monoclinic'
loop_
_space_group_symop_operation_xyz
x,y,z
-x,y,-z
-x,-y,-z
x,-y,z
1/2+x,1/2+y,z
1/2-x,1/2+y,-z
1/2-x,1/2-y,-z
1/2+x,1/2-y,z
loop_
_atom_site_type_symbol
_atom_site_label
_atom_site_fract_x
_atom_site_fract_y
_atom_site_fract_z
Si Si1 0.841148 0.383171 0.288620
Si Si2 0.479982 0.882545 0.283965
Si Si3 0.794489 0.887939 0.945891
Si Si4 0.125902 0.110264 0.281865
Si Si5 0.129303 0.300392 0.064346
Si Si6 0.835028 0.113927 0.575375
Si Si7 0.482102 0.748572 0.425166
Si Si8 0.593787 0.112631 0.929626
O O1 0.848450 0.500000 0.273865
O O2 0.750712 0.352673 0.386214
O O3 0.867770 0.339817 0.181499
O O4 0.899344 0.347072 0.308702
O O5 0.552383 0.832705 0.177325
O O6 0.474772 0.846775 0.378705
O O7 0.490653 0.000000 0.274043
O O8 0.808669 0.874561 0.840601
O O9 0.855438 0.817325 0.941170
O O10 0.810357 0.000000 0.960688
O O11 0.703552 0.858905 0.039769
O O12 0.170452 0.127818 0.326207
O O13 0.053692 0.184602 0.329962
O O14 0.089169 0.000000 0.310345
O O15 0.120366 0.321306 0.980080
O O16 0.902343 0.184291 0.483191
O O17 0.854490 0.000000 0.536828
O O18 0.500000 0.779325 0.500000
O O19 0.622766 0.000000 0.920416
O O20 0.500000 0.115098 0.000000
#
# Coordination Sequence:
#
# PCOD8079079 Si02
#       8
#     8   8   8   8   8   8   8   8
#     4   9  18  31  49  75 100 124 158 205 256 293
#     4  11  21  34  50  70  99 131 167 205 242 291
#     4  10  20  32  50  76 104 131 162 200 241 295
#     4   9  16  30  50  73 101 125 153 198 249 299
#     4  11  20  32  51  76 103 134 162 193 250 299
#     4   9  17  30  50  74  98 123 155 205 258 298
#     4  10  20  33  49  71  96 128 169 200 243 290
#     4  10  17  28  49  77 105 129 158 199 248 299
#
# _framework density 16.581420000000001
#
# number of rings (size 3 to 8) (size 9 to 14) (size 15 to 20)
#    0.000    2.125    2.500    2.250    0.000    4.250 
#    0.000    0.000    0.000    0.375    0.000    0.000 
#    0.000    0.000    0.000    0.000    0.000    0.000 
#
# Total GULP energy -396773.215323 kJ/mol
# GULP energy per Si atom -12399.162979 kJ/mol
# Density = 1.654368 g / cm^3
# Si number density = 16.581420 Si / 1000 Ang^3
#
#
#
# Elastic Constant Matrix: (Units=GPa)
#
#
# Indices 1 2 3 4 5 6 
#
# 1 104.4810 49.6870 41.2548 0.0000 -7.5116 0.0000
# 2 49.6870 83.7913 25.3933 0.0000 2.2030 0.0000
# 3 41.2548 25.3933 57.8549 0.0000 -5.3895 0.0000
# 4 0.0000 0.0000 0.0000 20.4296 0.0000 5.0368
# 5 -7.5116 2.2030 -5.3895 0.0000 29.7654 0.0000
# 6 0.0000 0.0000 0.0000 5.0368 0.0000 8.4984
#
#
#
# Elastic Compliance Matrix: (Units=1/GPa)
#
#
# Indices 1 2 3 4 5 6 
#
# 1 0.016602 -0.007421 -0.008280 0.000000 0.003240 0.000000
# 2 -0.007421 0.017219 -0.002603 0.000000 -0.003619 0.000000
# 3 -0.008280 -0.002603 0.024569 0.000000 0.002552 0.000000
# 4 0.000000 0.000000 0.000000 0.057325 0.000000 -0.033975
# 5 0.003240 -0.003619 0.002552 0.000000 0.035143 0.000000
# 6 0.000000 0.000000 0.000000 -0.033975 0.000000 0.137805
#
#
# Mechanical properties :
#
#
# Convention : Reuss Voigt Hill
#
# Bulk Modulus (GPa) = 45.90785 53.19970 49.55377
# Shear Modulus (GPa) = 15.03613 20.39152 17.71383
#
# Velocity S-wave (km/s) = 3.01459 3.51063 3.27202
# Velocity P-wave (km/s) = 6.31375 6.97038 6.65018
#
# Compressibility (1/GPa) = 0.02178277
#
# Stress axis : x y z
#
# Youngs Moduli (GPa) = 60.23189 58.07565 40.70186
#
# Poissons Ratio (x) = 0.43098 0.33700
# Poissons Ratio (y) = 0.44698 0.10595
# Poissons Ratio (z) = 0.49871 0.15117
#
# Static dielectric constant tensor:
#      x y z
#    x 3.225150 0.000000 -0.084390 
#    y 0.000000 2.967200 0.000000 
#    z -0.084390 0.000000 3.118200 
# 
# 
# High freq. dielectric constant tensor:
#      x y z
#    x 1.639740 0.000000 -0.012830 
#    y 0.000000 1.611100 0.000000 
#    z -0.012830 0.000000 1.640370 
# 
# From -- ./inp_files/225247.got.cif
#   From: 2010.06.25/outbox.cif.g09.slc.cpg/sg12_113_cif.got.tgz:225247.got - 2010.06.28 00:19:55.
