data_PCOD8079058
_publ_section_title
;
Structure prediction by ZEFSAII (Michael W. Deem and Ramdas Pophale) SiO2 
 PCOD8079058
Probable space group: C 2/M
;
_chemical_formula_sum "Si O2"
_cell_formula_units_Z 52
_cell_length_a 17.495700
_cell_length_b 17.571211
_cell_length_c 14.878710
_cell_angle_alpha 90.000000
_cell_angle_beta 44.566613
_cell_angle_gamma 90.000000
_cell_volume 3209.765521
_symmetry_space_group_name_H-M "C 2/M"
_symmetry_group_IT_number 12
_symmetry_cell_setting 'monoclinic'
loop_
_space_group_symop_operation_xyz
x,y,z
-x,y,-z
-x,-y,-z
x,-y,z
1/2+x,1/2+y,z
1/2-x,1/2+y,-z
1/2-x,1/2-y,-z
1/2+x,1/2-y,z
loop_
_atom_site_type_symbol
_atom_site_label
_atom_site_fract_x
_atom_site_fract_y
_atom_site_fract_z
Si Si1 0.904746 0.790883 0.799520
Si Si2 0.500000 0.679085 0.000000
Si Si3 0.471551 0.588310 0.206416
Si Si4 0.771864 0.414848 0.609727
Si Si5 0.305699 0.085374 0.787480
Si Si6 0.017108 0.673167 0.587647
Si Si7 0.309246 0.731160 0.064533
O O1 0.791330 0.790671 0.836361
O O2 0.954211 0.874167 0.777454
O O3 0.997273 0.743298 0.670954
O O4 0.874273 0.749008 0.918942
O O5 0.502369 0.626555 0.910570
O O6 0.606820 0.733381 0.921492
O O7 0.501599 0.500000 0.175116
O O8 0.345039 0.601429 0.337643
O O9 0.811699 0.500000 0.553091
O O10 0.755503 0.407270 0.730216
O O11 0.860395 0.355842 0.497950
O O12 0.434062 0.104095 0.676855
O O13 0.241834 0.145676 0.902843
O O14 0.289703 0.000000 0.839107
O O15 0.000000 0.701697 0.500000
#
# Coordination Sequence:
#
# PCOD8079058 Si02
#       7
#     8   4   8   8   8   8   8
#     4   9  19  31  42  63  95 127 158 187 224 271
#     4  10  17  28  48  70  95 122 146 182 235 290
#     4  10  19  29  45  70  98 122 148 185 233 283
#     4   9  16  26  42  68  95 121 149 181 222 277
#     4   9  15  25  43  69  96 122 147 177 227 284
#     4   9  17  29  45  62  91 128 161 190 220 263
#     4   9  17  29  44  65  96 125 151 185 224 279
#
# _framework density 16.200559999999999
#
# number of rings (size 3 to 8) (size 9 to 14) (size 15 to 20)
#    0.000    2.769    1.538    0.692    0.000    4.923 
#    0.000    0.000    0.000    0.462    0.000    0.538 
#    0.000    1.538    0.000    1.538    0.000    0.000 
#
# Total GULP energy -322194.947421 kJ/mol
# GULP energy per Si atom -12392.113362 kJ/mol
# Density = 1.616369 g / cm^3
# Si number density = 16.200560 Si / 1000 Ang^3
#
#
#
# Elastic Constant Matrix: (Units=GPa)
#
#
# Indices 1 2 3 4 5 6 
#
# 1 104.9606 63.9239 26.6742 0.0000 -21.8830 0.0000
# 2 63.9239 65.2034 34.3947 0.0000 -2.7888 0.0000
# 3 26.6742 34.3947 72.2146 0.0000 -6.0091 0.0000
# 4 0.0000 0.0000 0.0000 18.1463 0.0000 0.8648
# 5 -21.8830 -2.7888 -6.0091 0.0000 19.2388 0.0000
# 6 0.0000 0.0000 0.0000 0.8648 0.0000 26.3905
#
#
#
# Elastic Compliance Matrix: (Units=1/GPa)
#
#
# Indices 1 2 3 4 5 6 
#
# 1 0.048597 -0.051060 0.010629 0.000000 0.051194 0.000000
# 2 -0.051060 0.074131 -0.020930 0.000000 -0.053870 0.000000
# 3 0.010629 -0.020930 0.021195 0.000000 0.015676 0.000000
# 4 0.000000 0.000000 0.000000 0.055194 0.000000 -0.001809
# 5 0.051194 -0.053870 0.015676 0.000000 0.107297 0.000000
# 6 0.000000 0.000000 0.000000 -0.001809 0.000000 0.037952
#
#
# Mechanical properties :
#
#
# Convention : Reuss Voigt Hill
#
# Bulk Modulus (GPa) = 47.16963 54.70714 50.93839
# Shear Modulus (GPa) = 10.54511 20.58084 15.56297
#
# Velocity S-wave (km/s) = 2.55406 3.56810 3.10279
# Velocity P-wave (km/s) = 6.15442 7.12861 6.65936
#
# Compressibility (1/GPa) = 0.02120008
#
# Stress axis : x y z
#
# Youngs Moduli (GPa) = 20.57758 13.48961 47.18183
#
# Poissons Ratio (x) = 0.68878 -0.50148
# Poissons Ratio (y) = 1.05069 0.98751
# Poissons Ratio (z) = -0.21871 0.28234
#
# Static dielectric constant tensor:
#      x y z
#    x 3.295270 0.000000 -0.296130 
#    y 0.000000 2.914540 0.000000 
#    z -0.296130 0.000000 2.999660 
# 
# 
# High freq. dielectric constant tensor:
#      x y z
#    x 1.611840 0.000000 -0.033840 
#    y 0.000000 1.591970 0.000000 
#    z -0.033840 0.000000 1.616220 
# 
# From -- ./inp_files/226045.got.cif
#   From: 2010.06.25/outbox.cif.g09.slc.cpg/sg12_114_cif.got.tgz:226045.got - 2010.06.28 00:19:55.
