data_PCOD8079920
_publ_section_title
;
Structure prediction by ZEFSAII (Michael W. Deem and Ramdas Pophale) SiO2 
 PCOD8079920
Probable space group: C 2/M
;
_chemical_formula_sum "Si O2"
_cell_formula_units_Z 64
_cell_length_a 27.101038
_cell_length_b 8.720024
_cell_length_c 17.204283
_cell_angle_alpha 90.000000
_cell_angle_beta 101.633523
_cell_angle_gamma 90.000000
_cell_volume 3982.224592
_symmetry_space_group_name_H-M "C 2/M"
_symmetry_group_IT_number 12
_symmetry_cell_setting 'monoclinic'
loop_
_space_group_symop_operation_xyz
x,y,z
-x,y,-z
-x,-y,-z
x,-y,z
1/2+x,1/2+y,z
1/2-x,1/2+y,-z
1/2-x,1/2-y,-z
1/2+x,1/2-y,z
loop_
_atom_site_type_symbol
_atom_site_label
_atom_site_fract_x
_atom_site_fract_y
_atom_site_fract_z
Si Si1 0.434091 0.676315 0.820051
Si Si2 0.965939 0.820144 0.664131
Si Si3 0.558135 0.829700 0.495344
Si Si4 0.304862 0.681142 0.024090
Si Si5 0.627997 0.178358 0.831710
Si Si6 0.953544 0.822536 0.091286
Si Si7 0.110290 0.681051 0.054394
Si Si8 0.072871 0.319859 0.665696
O O1 0.416935 0.500000 0.816348
O O2 0.437038 0.738193 0.732313
O O3 0.487701 0.698299 0.878182
O O4 0.393146 0.775289 0.855301
O O5 0.933307 0.774768 0.577753
O O6 0.022286 0.756995 0.681062
O O7 0.971468 0.000000 0.670613
O O8 0.500000 0.831355 0.500000
O O9 0.586814 0.765472 0.581799
O O10 0.577019 0.000000 0.480007
O O11 0.303182 0.500000 0.013085
O O12 0.327094 0.722700 0.116419
O O13 0.250000 0.750000 0.000000
O O14 0.338562 0.754605 0.966846
O O15 0.575346 0.219118 0.855324
O O16 0.620040 0.216821 0.737510
O O17 0.640311 0.000000 0.848503
O O18 0.937048 0.000000 0.094823
O O19 0.937760 0.761860 0.001400
O O20 0.108686 0.500000 0.042199
O O21 0.061131 0.500000 0.659643
#
# Coordination Sequence:
#
# PCOD8079920 Si02
#       8
#     8   8   8   8   8   8   8   8
#     4  10  20  31  42  60  90 124 156 190 228 267
#     4  10  18  27  40  60  86 120 160 195 227 263
#     4   8  15  27  39  55  82 119 156 189 228 266
#     4  11  22  38  56  71  92 117 144 183 231 276
#     4  10  18  29  47  70  92 118 155 191 227 270
#     4  10  18  30  44  60  88 123 153 187 229 266
#     4  11  22  33  47  68  88 113 152 189 225 270
#     4   9  17  28  42  60  88 121 154 191 227 268
#
# _framework density 16.071418999999999
#
# number of rings (size 3 to 8) (size 9 to 14) (size 15 to 20)
#    0.000    2.125    1.250    6.000    0.000    6.250 
#    0.000    0.000    0.000    0.000    0.000    0.000 
#    0.000    1.000    0.000    3.000    0.000    4.625 
#
# Total GULP energy -396609.989296 kJ/mol
# GULP energy per Si atom -12394.062165 kJ/mol
# Density = 1.603484 g / cm^3
# Si number density = 16.071419 Si / 1000 Ang^3
#
#
#
# Elastic Constant Matrix: (Units=GPa)
#
#
# Indices 1 2 3 4 5 6 
#
# 1 52.8535 25.1181 46.3332 0.0000 1.4330 0.0000
# 2 25.1181 58.4022 36.2252 0.0000 -0.5789 0.0000
# 3 46.3332 36.2252 141.5030 0.0000 -3.1251 0.0000
# 4 0.0000 0.0000 0.0000 26.6938 0.0000 -0.5856
# 5 1.4330 -0.5789 -3.1251 0.0000 12.5773 0.0000
# 6 0.0000 0.0000 0.0000 -0.5856 0.0000 19.4321
#
#
#
# Elastic Compliance Matrix: (Units=1/GPa)
#
#
# Indices 1 2 3 4 5 6 
#
# 1 0.029721 -0.007994 -0.007811 0.000000 -0.005695 0.000000
# 2 -0.007994 0.022507 -0.003118 0.000000 0.001172 0.000000
# 3 -0.007811 -0.003118 0.010497 0.000000 0.003355 0.000000
# 4 0.000000 0.000000 0.000000 0.037487 0.000000 0.001130
# 5 -0.005695 0.001172 0.003355 0.000000 0.081044 0.000000
# 6 0.000000 0.000000 0.000000 0.001130 0.000000 0.051495
#
#
# Mechanical properties :
#
#
# Convention : Reuss Voigt Hill
#
# Bulk Modulus (GPa) = 40.19655 52.01240 46.10448
# Shear Modulus (GPa) = 17.92817 21.41281 19.67049
#
# Velocity S-wave (km/s) = 3.34358 3.65410 3.50228
# Velocity P-wave (km/s) = 6.32230 7.08779 6.71596
#
# Compressibility (1/GPa) = 0.02487776
#
# Stress axis : x y z
#
# Youngs Moduli (GPa) = 33.64599 44.43134 95.26542
#
# Poissons Ratio (x) = 0.35519 0.74412
# Poissons Ratio (y) = 0.26897 0.29706
# Poissons Ratio (z) = 0.26281 0.13855
#
# Static dielectric constant tensor:
#      x y z
#    x 2.568540 0.000000 0.083380 
#    y 0.000000 3.125600 0.000000 
#    z 0.083380 0.000000 3.613000 
# 
# 
# High freq. dielectric constant tensor:
#      x y z
#    x 1.553440 0.000000 -0.000150 
#    y 0.000000 1.627210 0.000000 
#    z -0.000150 0.000000 1.630440 
# 
# From -- ./inp_files/291626.got.cif
#   From: 2010.06.25/outbox.cif.g09.slc.cpg/sg12_146_cif.got.tgz:291626.got - 2010.06.28 00:19:55.
