data_PCOD8079837
_publ_section_title
;
Structure prediction by ZEFSAII (Michael W. Deem and Ramdas Pophale) SiO2 
 PCOD8079837
Probable space group: C 2/M
;
_chemical_formula_sum "Si O2"
_cell_formula_units_Z 56
_cell_length_a 27.119450
_cell_length_b 14.146172
_cell_length_c 9.370115
_cell_angle_alpha 90.000000
_cell_angle_beta 63.205549
_cell_angle_gamma 90.000000
_cell_volume 3208.750572
_symmetry_space_group_name_H-M "C 2/M"
_symmetry_group_IT_number 12
_symmetry_cell_setting 'monoclinic'
loop_
_space_group_symop_operation_xyz
x,y,z
-x,y,-z
-x,-y,-z
x,-y,z
1/2+x,1/2+y,z
1/2-x,1/2+y,-z
1/2-x,1/2-y,-z
1/2+x,1/2-y,z
loop_
_atom_site_type_symbol
_atom_site_label
_atom_site_fract_x
_atom_site_fract_y
_atom_site_fract_z
Si Si1 0.734834 0.892417 0.246763
Si Si2 0.170975 0.751163 0.867213
Si Si3 0.185335 0.393878 0.613132
Si Si4 0.051857 0.224850 0.005410
Si Si5 0.476240 0.813086 0.679646
Si Si6 0.860387 0.391816 0.844116
Si Si7 0.440298 0.895194 0.213208
O O1 0.785148 0.826005 0.131201
O O2 0.724416 0.876855 0.427122
O O3 0.679977 0.864913 0.232567
O O4 0.752142 0.000000 0.191566
O O5 0.199330 0.688940 0.706492
O O6 0.114873 0.810210 0.893803
O O7 0.152523 0.676750 0.009119
O O8 0.196412 0.500000 0.660740
O O9 0.121939 0.384508 0.648196
O O10 0.049377 0.329604 0.937894
O O11 0.040668 0.228129 0.190268
O O12 0.000000 0.166571 0.000000
O O13 0.500000 0.771479 0.500000
O O14 0.423202 0.877076 0.711436
O O15 0.522353 0.874761 0.698267
O O16 0.851927 0.500000 0.904126
O O17 0.451658 0.000000 0.141058
#
# Coordination Sequence:
#
# PCOD8079837 Si02
#       7
#     8   8   8   8   8   8   8
#     4  10  20  32  45  64  89 114 146 188 224 250
#     4  10  18  31  49  64  85 118 150 176 213 262
#     4   9  17  29  46  68  91 115 144 177 212 254
#     4   8  17  29  42  60  82 108 141 176 208 249
#     4  10  18  26  39  61  89 118 142 165 200 249
#     4  10  20  31  43  63  91 120 149 178 208 252
#     4   9  16  26  39  57  85 117 141 162 196 246
#
# _framework density 17.452275
#
# number of rings (size 3 to 8) (size 9 to 14) (size 15 to 20)
#    0.000    2.571    0.000    2.571    0.000    8.286 
#    0.000    0.000    0.000    0.429    0.000    0.000 
#    0.000    9.143    0.000    0.000    0.000   11.286 
#
# Total GULP energy -346928.538316 kJ/mol
# GULP energy per Si atom -12390.304940 kJ/mol
# Density = 1.741255 g / cm^3
# Si number density = 17.452275 Si / 1000 Ang^3
#
#
#
# Elastic Constant Matrix: (Units=GPa)
#
#
# Indices 1 2 3 4 5 6 
#
# 1 92.2945 33.5028 20.3778 0.0000 0.7441 0.0000
# 2 33.5028 30.3731 11.5432 0.0000 -3.9669 0.0000
# 3 20.3778 11.5432 74.5189 0.0000 3.6156 0.0000
# 4 0.0000 0.0000 0.0000 8.1750 0.0000 0.0295
# 5 0.7441 -3.9669 3.6156 0.0000 23.6566 0.0000
# 6 0.0000 0.0000 0.0000 0.0295 0.0000 17.7326
#
#
#
# Elastic Compliance Matrix: (Units=1/GPa)
#
#
# Indices 1 2 3 4 5 6 
#
# 1 0.018659 -0.020401 -0.001761 0.000000 -0.003739 0.000000
# 2 -0.020401 0.058391 -0.004002 0.000000 0.011045 0.000000
# 3 -0.001761 -0.004002 0.014659 0.000000 -0.002856 0.000000
# 4 0.000000 0.000000 0.000000 0.122325 0.000000 -0.000204
# 5 -0.003739 0.011045 -0.002856 0.000000 0.044678 0.000000
# 6 0.000000 0.000000 0.000000 -0.000204 0.000000 0.056394
#
#
# Mechanical properties :
#
#
# Convention : Reuss Voigt Hill
#
# Bulk Modulus (GPa) = 25.39270 36.44821 30.92046
# Shear Modulus (GPa) = 13.13849 18.69701 15.91775
#
# Velocity S-wave (km/s) = 2.74674 3.27666 3.02333
# Velocity P-wave (km/s) = 4.96395 5.93676 5.47202
#
# Compressibility (1/GPa) = 0.03938139
#
# Stress axis : x y z
#
# Youngs Moduli (GPa) = 53.59220 17.12607 68.21539
#
# Poissons Ratio (x) = 0.34939 0.12012
# Poissons Ratio (y) = 1.09334 0.27299
# Poissons Ratio (z) = 0.09437 0.06854
#
# Static dielectric constant tensor:
#      x y z
#    x 3.694960 0.000000 -0.126540 
#    y 0.000000 2.772510 0.000000 
#    z -0.126540 0.000000 3.225410 
# 
# 
# High freq. dielectric constant tensor:
#      x y z
#    x 1.688050 0.000000 -0.006880 
#    y 0.000000 1.615020 0.000000 
#    z -0.006880 0.000000 1.675630 
# 
# From -- ./inp_files/103969.got.cif
#   From: 2010.06.25/outbox.cif.g09.slc.cpg/sg12_52_cif.got.tgz:103969.got - 2010.06.28 00:19:55.
