data_PCOD8079099
_publ_section_title
;
Structure prediction by ZEFSAII (Michael W. Deem and Ramdas Pophale) SiO2 
 PCOD8079099
Probable space group: C 2/M
;
_chemical_formula_sum "Si O2"
_cell_formula_units_Z 64
_cell_length_a 29.273787
_cell_length_b 20.605330
_cell_length_c 12.835709
_cell_angle_alpha 90.000000
_cell_angle_beta 26.746273
_cell_angle_gamma 90.000000
_cell_volume 3484.414419
_symmetry_space_group_name_H-M "C 2/M"
_symmetry_group_IT_number 12
_symmetry_cell_setting 'monoclinic'
loop_
_space_group_symop_operation_xyz
x,y,z
-x,y,-z
-x,-y,-z
x,-y,z
1/2+x,1/2+y,z
1/2-x,1/2+y,-z
1/2-x,1/2-y,-z
1/2+x,1/2-y,z
loop_
_atom_site_type_symbol
_atom_site_label
_atom_site_fract_x
_atom_site_fract_y
_atom_site_fract_z
Si Si1 0.637609 0.259391 0.697262
Si Si2 0.269416 0.184284 0.082504
Si Si3 0.057571 0.627705 0.791882
Si Si4 0.491926 0.188675 0.719381
Si Si5 0.794218 0.667730 0.798502
Si Si6 0.441290 0.380678 0.022995
Si Si7 0.748045 0.573429 0.711427
Si Si8 0.413265 0.319097 0.412833
O O1 0.750000 0.250000 0.500000
O O2 0.591044 0.188577 0.793875
O O3 0.581047 0.306365 0.894833
O O4 0.641619 0.286489 0.572921
O O5 0.242568 0.259803 0.149436
O O6 0.177394 0.149867 0.332738
O O7 0.383205 0.173251 0.891035
O O8 0.263801 0.153093 0.979112
O O9 0.988290 0.653284 0.838282
O O10 0.149130 0.586099 0.560202
O O11 0.000000 0.585743 0.000000
O O12 0.584342 0.159029 0.462515
O O13 0.514833 0.265846 0.676930
O O14 0.736349 0.620326 0.835421
O O15 0.340916 0.417689 0.192434
O O16 0.500000 0.416300 0.000000
O O17 0.515142 0.377636 0.772185
O O18 0.747048 0.500000 0.754899
#
# Coordination Sequence:
#
# PCOD8079099 Si02
#       8
#     8   8   8   8   8   8   8   8
#     4  10  17  28  50  79 117 143 166 209 272 329
#     4  10  18  31  54  77 109 134 167 231 288 324
#     4  10  20  31  51  82 111 142 178 220 270 320
#     4   9  17  29  48  76 111 140 167 206 272 335
#     4   9  20  34  50  78 103 138 180 222 275 331
#     4  10  20  34  52  79 109 141 183 215 265 324
#     4  11  23  39  56  72 105 153 188 224 261 320
#     4   9  19  27  45  81 109 141 170 210 266 327
#
# _framework density 18.367505999999999
#
# number of rings (size 3 to 8) (size 9 to 14) (size 15 to 20)
#    0.000    2.250    1.250    3.750    3.500    0.500 
#    0.000    1.875    0.000    7.500    0.000    0.000 
#    0.000    0.000    0.000    0.000    0.000    0.000 
#
# Total GULP energy -396502.538857 kJ/mol
# GULP energy per Si atom -12390.704339 kJ/mol
# Density = 1.832570 g / cm^3
# Si number density = 18.367506 Si / 1000 Ang^3
#
#
#
# Elastic Constant Matrix: (Units=GPa)
#
#
# Indices 1 2 3 4 5 6 
#
# 1 100.4704 22.5151 54.6556 0.0000 -1.3124 0.0000
# 2 22.5151 50.2891 12.7289 0.0000 4.3162 0.0000
# 3 54.6556 12.7289 107.6775 0.0000 14.5772 0.0000
# 4 0.0000 0.0000 0.0000 -12.1917 0.0000 18.2616
# 5 -1.3124 4.3162 14.5772 0.0000 38.8832 0.0000
# 6 0.0000 0.0000 0.0000 18.2616 0.0000 -0.7915
#
#
#
# Elastic Compliance Matrix: (Units=1/GPa)
#
#
# Indices 1 2 3 4 5 6 
#
# 1 0.015395 -0.005279 -0.007732 0.000000 0.004004 0.000000
# 2 -0.005279 0.022385 0.000415 0.000000 -0.002819 0.000000
# 3 -0.007732 0.000415 0.013910 0.000000 -0.005522 0.000000
# 4 0.000000 0.000000 0.000000 0.002444 0.000000 0.056391
# 5 0.004004 -0.002819 -0.005522 0.000000 0.028236 0.000000
# 6 0.000000 0.000000 0.000000 0.056391 0.000000 0.037648
#
#
# Mechanical properties :
#
#
# Convention : Reuss Voigt Hill
#
# Bulk Modulus (GPa) = 37.73908 48.69292 43.21600
# Shear Modulus (GPa) = 32.45830 16.41585 24.43708
#
# Velocity S-wave (km/s) = 4.20832 2.99280 3.65149
# Velocity P-wave (km/s) = 6.64865 6.20567 6.43098
#
# Compressibility (1/GPa) = 0.02649773
#
# Stress axis : x y z
#
# Youngs Moduli (GPa) = 64.95691 44.67194 71.88928
#
# Poissons Ratio (x) = 0.23582 0.55587
# Poissons Ratio (y) = 0.34291 -0.02983
# Poissons Ratio (z) = 0.50226 -0.01853
#
# Static dielectric constant tensor:
#      x y z
#    x 3.454640 0.000000 0.056260 
#    y 0.000000 2.921780 0.000000 
#    z 0.056260 0.000000 3.497750 
# 
# 
# High freq. dielectric constant tensor:
#      x y z
#    x 1.715690 0.000000 -0.000930 
#    y 0.000000 1.646450 0.000000 
#    z -0.000930 0.000000 1.731970 
# 
# From -- ./inp_files/184952.got.cif
#   From: 2010.06.25/outbox.cif.g09.slc.cpg/sg12_93_cif.got.tgz:184952.got - 2010.06.28 00:19:55.
