data_PCOD8079181
_publ_section_title
;
Structure prediction by ZEFSAII (Michael W. Deem and Ramdas Pophale) SiO2 
 PCOD8079181
Probable space group: C 2/M
;
_chemical_formula_sum "Si O2"
_cell_formula_units_Z 56
_cell_length_a 27.849368
_cell_length_b 13.195763
_cell_length_c 10.099667
_cell_angle_alpha 90.000000
_cell_angle_beta 55.654090
_cell_angle_gamma 90.000000
_cell_volume 3064.439438
_symmetry_space_group_name_H-M "C 2/M"
_symmetry_group_IT_number 12
_symmetry_cell_setting 'monoclinic'
loop_
_space_group_symop_operation_xyz
x,y,z
-x,y,-z
-x,-y,-z
x,-y,z
1/2+x,1/2+y,z
1/2-x,1/2+y,-z
1/2-x,1/2-y,-z
1/2+x,1/2-y,z
loop_
_atom_site_type_symbol
_atom_site_label
_atom_site_fract_x
_atom_site_fract_y
_atom_site_fract_z
Si Si1 0.945572 0.500000 0.179722
Si Si2 0.754050 0.388345 0.366133
Si Si3 0.839379 0.113422 0.258700
Si Si4 0.824363 0.884430 0.755817
Si Si5 0.264052 0.384753 0.127711
Si Si6 0.639029 0.186015 0.378882
Si Si7 0.056880 0.500000 0.501555
Si Si8 0.868344 0.310291 0.298872
O O1 0.959426 0.500000 0.316155
O O2 0.911679 0.398749 0.189185
O O3 0.000000 0.500000 0.000000
O O4 0.781728 0.500000 0.318669
O O5 0.703271 0.385120 0.551201
O O6 0.728022 0.359643 0.264051
O O7 0.806280 0.315084 0.322597
O O8 0.805635 0.150889 0.181075
O O9 0.889567 0.197620 0.217564
O O10 0.866319 0.000000 0.198309
O O11 0.876182 0.801375 0.647142
O O12 0.847839 0.000000 0.699114
O O13 0.799659 0.868457 0.939293
O O14 0.246862 0.500000 0.180651
O O15 0.202487 0.328921 0.216518
O O16 0.643519 0.181048 0.528380
O O17 0.592906 0.100992 0.404746
O O18 0.000000 0.500000 0.500000
#
# Coordination Sequence:
#
# PCOD8079181 Si02
#       8
#     4   8   8   8   8   8   4   8
#     4  10  24  44  60  78 106 136 184 246 287 304
#     4  10  17  29  48  78 110 140 178 209 246 325
#     4  10  19  29  52  80 113 141 174 211 249 335
#     4  10  21  32  47  80 120 144 171 213 259 321
#     4  10  19  32  47  77 117 150 177 206 258 322
#     4  11  19  34  57  73 104 147 181 220 270 315
#     4  10  24  44  62  78  98 140 198 238 269 320
#     4  11  19  33  56  77 103 143 182 219 271 319
#
# _framework density 18.274141
#
# number of rings (size 3 to 8) (size 9 to 14) (size 15 to 20)
#    0.000    1.714    4.286    1.714    0.000    0.000 
#    5.143    0.000    0.000    0.857    0.000    0.000 
#    0.000    0.000    0.000    0.000    0.000    0.000 
#
# Total GULP energy -346925.312577 kJ/mol
# GULP energy per Si atom -12390.189735 kJ/mol
# Density = 1.823255 g / cm^3
# Si number density = 18.274141 Si / 1000 Ang^3
#
#
#
# Elastic Constant Matrix: (Units=GPa)
#
#
# Indices 1 2 3 4 5 6 
#
# 1 66.8978 62.6528 25.2277 0.0000 8.1325 0.0000
# 2 62.6528 149.5031 32.4021 0.0000 -12.3312 0.0000
# 3 25.2277 32.4021 59.4474 0.0000 -0.4435 0.0000
# 4 0.0000 0.0000 0.0000 24.4813 0.0000 4.3317
# 5 8.1325 -12.3312 -0.4435 0.0000 19.9925 0.0000
# 6 0.0000 0.0000 0.0000 4.3317 0.0000 38.4185
#
#
#
# Elastic Compliance Matrix: (Units=1/GPa)
#
#
# Indices 1 2 3 4 5 6 
#
# 1 0.034050 -0.014747 -0.006584 0.000000 -0.023092 0.000000
# 2 -0.014747 0.014417 -0.001489 0.000000 0.014858 0.000000
# 3 -0.006584 -0.001489 0.020444 0.000000 0.002213 0.000000
# 4 0.000000 0.000000 0.000000 0.041679 0.000000 -0.004699
# 5 -0.023092 0.014858 0.002213 0.000000 0.068626 0.000000
# 6 0.000000 0.000000 0.000000 -0.004699 0.000000 0.026559
#
#
# Mechanical properties :
#
#
# Convention : Reuss Voigt Hill
#
# Bulk Modulus (GPa) = 42.97317 57.37927 50.17622
# Shear Modulus (GPa) = 19.29227 26.94950 23.12089
#
# Velocity S-wave (km/s) = 3.25270 3.84439 3.56086
# Velocity P-wave (km/s) = 6.13789 7.15354 6.66509
#
# Compressibility (1/GPa) = 0.02327033
#
# Stress axis : x y z
#
# Youngs Moduli (GPa) = 29.36900 69.36182 48.91463
#
# Poissons Ratio (x) = 1.02288 0.32205
# Poissons Ratio (y) = 0.43310 0.07284
# Poissons Ratio (z) = 0.19336 0.10329
#
# Static dielectric constant tensor:
#      x y z
#    x 3.076080 0.000000 0.349960 
#    y 0.000000 4.304660 0.000000 
#    z 0.349960 0.000000 3.262220 
# 
# 
# High freq. dielectric constant tensor:
#      x y z
#    x 1.655060 0.000000 0.040080 
#    y 0.000000 1.748360 0.000000 
#    z 0.040080 0.000000 1.690340 
# 
# From -- ./inp_files/104473.got.cif
#   From: 2010.06.25/outbox.cif.g09.slc.cpg/sg12_53_cif.got.tgz:104473.got - 2010.06.28 00:19:55.
