data_PCOD8079150
_publ_section_title
;
Structure prediction by ZEFSAII (Michael W. Deem and Ramdas Pophale) SiO2 
 PCOD8079150
Probable space group: C 2/M
;
_chemical_formula_sum "Si O2"
_cell_formula_units_Z 48
_cell_length_a 20.909130
_cell_length_b 19.201245
_cell_length_c 12.399409
_cell_angle_alpha 90.000000
_cell_angle_beta 34.752533
_cell_angle_gamma 90.000000
_cell_volume 2837.699487
_symmetry_space_group_name_H-M "C 2/M"
_symmetry_group_IT_number 12
_symmetry_cell_setting 'monoclinic'
loop_
_space_group_symop_operation_xyz
x,y,z
-x,y,-z
-x,-y,-z
x,-y,z
1/2+x,1/2+y,z
1/2-x,1/2+y,-z
1/2-x,1/2-y,-z
1/2+x,1/2-y,z
loop_
_atom_site_type_symbol
_atom_site_label
_atom_site_fract_x
_atom_site_fract_y
_atom_site_fract_z
Si Si1 0.211490 0.205551 0.452172
Si Si2 0.590602 0.079334 0.550901
Si Si3 0.575861 0.133142 0.801963
Si Si4 0.523027 0.271196 0.164419
Si Si5 0.751971 0.819611 0.223904
Si Si6 0.925693 0.693071 0.697247
O O1 0.250000 0.250000 0.500000
O O2 0.298425 0.141788 0.322634
O O3 0.210952 0.251118 0.344414
O O4 0.083131 0.181161 0.652711
O O5 0.581610 0.082214 0.692534
O O6 0.709578 0.113181 0.349426
O O7 0.486675 0.120202 0.642197
O O8 0.586439 0.000000 0.517819
O O9 0.520814 0.207593 0.847759
O O10 0.500000 0.098177 0.000000
O O11 0.585336 0.241709 0.183776
O O12 0.612678 0.318151 0.974700
O O13 0.697921 0.821137 0.179098
O O14 0.000000 0.729293 0.500000
#
# Coordination Sequence:
#
# PCOD8079150 Si02
#       6
#     8   8   8   8   8   8
#     4  10  17  29  46  75 101 126 158 204 256 300
#     4  10  21  35  49  72 104 136 171 204 238 292
#     4  10  18  31  52  75  99 129 166 208 253 293
#     4  10  18  28  47  75 102 127 159 202 255 307
#     4  11  18  29  51  72 100 132 159 205 252 296
#     4   9  17  31  46  71 102 127 159 203 251 291
#
# _framework density 16.915109999999999
#
# number of rings (size 3 to 8) (size 9 to 14) (size 15 to 20)
#    0.000    2.000    8.333    0.500    0.000    3.333 
#    0.000    0.000    0.000    2.000    0.000    0.000 
#    0.000    2.000    0.000    0.000    0.000    0.000 
#
# Total GULP energy -297415.094335 kJ/mol
# GULP energy per Si atom -12392.295597 kJ/mol
# Density = 1.687661 g / cm^3
# Si number density = 16.915110 Si / 1000 Ang^3
#
#
#
# Elastic Constant Matrix: (Units=GPa)
#
#
# Indices 1 2 3 4 5 6 
#
# 1 76.1276 18.4524 36.2299 0.0000 1.0879 0.0000
# 2 18.4524 36.6560 22.2861 0.0000 -4.6952 0.0000
# 3 36.2299 22.2861 132.3154 0.0000 -13.2309 0.0000
# 4 0.0000 0.0000 0.0000 10.0578 0.0000 -0.2473
# 5 1.0879 -4.6952 -13.2309 0.0000 31.6894 0.0000
# 6 0.0000 0.0000 0.0000 -0.2473 0.0000 9.9988
#
#
#
# Elastic Compliance Matrix: (Units=1/GPa)
#
#
# Indices 1 2 3 4 5 6 
#
# 1 0.016524 -0.006434 -0.003749 0.000000 -0.003086 0.000000
# 2 -0.006434 0.033084 -0.003442 0.000000 0.003686 0.000000
# 3 -0.003749 -0.003442 0.009524 0.000000 0.003595 0.000000
# 4 0.000000 0.000000 0.000000 0.099485 0.000000 0.002460
# 5 -0.003086 0.003686 0.003595 0.000000 0.033709 0.000000
# 6 0.000000 0.000000 0.000000 0.002460 0.000000 0.100073
#
#
# Mechanical properties :
#
#
# Convention : Reuss Voigt Hill
#
# Bulk Modulus (GPa) = 31.36673 44.33732 37.85203
# Shear Modulus (GPa) = 15.13883 21.55791 18.34837
#
# Velocity S-wave (km/s) = 2.99488 3.57385 3.29710
# Velocity P-wave (km/s) = 5.52657 6.58016 6.07624
#
# Compressibility (1/GPa) = 0.03188091
#
# Stress axis : x y z
#
# Youngs Moduli (GPa) = 60.51888 30.22590 105.00224
#
# Poissons Ratio (x) = 0.19446 0.39370
# Poissons Ratio (y) = 0.38936 0.36144
# Poissons Ratio (z) = 0.22691 0.10404
#
# Static dielectric constant tensor:
#      x y z
#    x 3.446260 0.000000 -0.086280 
#    y 0.000000 2.635130 0.000000 
#    z -0.086280 0.000000 3.503020 
# 
# 
# High freq. dielectric constant tensor:
#      x y z
#    x 1.665960 0.000000 0.006430 
#    y 0.000000 1.577880 0.000000 
#    z 0.006430 0.000000 1.663460 
# 
# From -- ./inp_files/146546.got.cif
#   From: 2010.06.25/outbox.cif.g09.slc.cpg/sg12_74_cif.got.tgz:146546.got - 2010.06.28 00:19:55.
