data_PCOD8079940
_publ_section_title
;
Structure prediction by ZEFSAII (Michael W. Deem and Ramdas Pophale) SiO2 
 PCOD8079940
Probable space group: C 2/M
;
_chemical_formula_sum "Si O2"
_cell_formula_units_Z 64
_cell_length_a 25.173749
_cell_length_b 8.985209
_cell_length_c 23.982394
_cell_angle_alpha 90.000000
_cell_angle_beta 133.439339
_cell_angle_gamma 90.000000
_cell_volume 3938.825089
_symmetry_space_group_name_H-M "C 2/M"
_symmetry_group_IT_number 12
_symmetry_cell_setting 'monoclinic'
loop_
_space_group_symop_operation_xyz
x,y,z
-x,y,-z
-x,-y,-z
x,-y,z
1/2+x,1/2+y,z
1/2-x,1/2+y,-z
1/2-x,1/2-y,-z
1/2+x,1/2-y,z
loop_
_atom_site_type_symbol
_atom_site_label
_atom_site_fract_x
_atom_site_fract_y
_atom_site_fract_z
Si Si1 0.476244 0.676509 0.090624
Si Si2 0.835736 0.825745 0.923061
Si Si3 0.725272 0.323217 0.924779
Si Si4 0.805352 0.675219 0.669874
Si Si5 0.862083 0.174498 0.816039
Si Si6 0.914137 0.174891 0.661412
Si Si7 0.062621 0.175556 0.816125
Si Si8 0.302818 0.328099 0.496084
O O1 0.480241 0.500000 0.094894
O O2 0.555406 0.738750 0.129538
O O3 0.455002 0.743168 0.135622
O O4 0.414993 0.727502 0.002234
O O5 0.772703 0.733348 0.907574
O O6 0.830740 0.789257 0.854254
O O7 0.824238 0.000000 0.927353
O O8 0.732171 0.500000 0.935473
O O9 0.641837 0.270940 0.852221
O O10 0.750000 0.250000 0.000000
O O11 0.817533 0.500000 0.683817
O O12 0.809105 0.746853 0.733479
O O13 0.867962 0.740121 0.674977
O O14 0.723477 0.714058 0.585657
O O15 0.861434 0.000000 0.803408
O O16 0.885478 0.210896 0.577127
O O17 0.998967 0.225577 0.726921
O O18 0.906823 0.000000 0.669669
O O19 0.063992 0.000000 0.823375
O O20 0.288282 0.500000 0.494131
O O21 0.250000 0.250000 0.500000
#
# Coordination Sequence:
#
# PCOD8079940 Si02
#       8
#     8   8   8   8   8   8   8   8
#     4   9  15  28  48  69  90 115 152 192 224 257
#     4  10  20  34  50  68  89 117 157 197 227 262
#     4  11  21  34  50  68  91 120 153 190 232 270
#     4  10  18  27  40  65  99 124 143 177 228 274
#     4  10  19  31  49  68  88 122 160 187 217 266
#     4   9  15  28  47  65  87 118 157 188 214 262
#     4   9  16  27  48  70  88 115 154 191 222 260
#     4   8  15  25  40  62  89 120 147 177 219 266
#
# _framework density 16.2485
#
# number of rings (size 3 to 8) (size 9 to 14) (size 15 to 20)
#    0.000    2.500    2.500    1.125    0.000    2.500 
#    0.000    3.125    0.000    1.500    0.000    0.875 
#    0.000    7.000    0.000    0.000    0.000    0.000 
#
# Total GULP energy -396471.200259 kJ/mol
# GULP energy per Si atom -12389.725008 kJ/mol
# Density = 1.621152 g / cm^3
# Si number density = 16.248500 Si / 1000 Ang^3
#
#
#
# Elastic Constant Matrix: (Units=GPa)
#
#
# Indices 1 2 3 4 5 6 
#
# 1 88.1295 31.3018 63.7664 0.0000 0.2487 0.0000
# 2 31.3018 37.9583 42.3499 0.0000 -0.7523 0.0000
# 3 63.7664 42.3499 177.4496 0.0000 3.4618 0.0000
# 4 0.0000 0.0000 0.0000 21.5473 0.0000 -2.1434
# 5 0.2487 -0.7523 3.4618 0.0000 17.8343 0.0000
# 6 0.0000 0.0000 0.0000 -2.1434 0.0000 20.5805
#
#
#
# Elastic Compliance Matrix: (Units=1/GPa)
#
#
# Indices 1 2 3 4 5 6 
#
# 1 0.017880 -0.010321 -0.003964 0.000000 0.000085 0.000000
# 2 -0.010321 0.042044 -0.006387 0.000000 0.003157 0.000000
# 3 -0.003964 -0.006387 0.008621 0.000000 -0.001888 0.000000
# 4 0.000000 0.000000 0.000000 0.046895 0.000000 0.004884
# 5 0.000085 0.003157 -0.001888 0.000000 0.056570 0.000000
# 6 0.000000 0.000000 0.000000 0.004884 0.000000 0.049098
#
#
# Mechanical properties :
#
#
# Convention : Reuss Voigt Hill
#
# Bulk Modulus (GPa) = 36.76167 64.26375 50.51271
# Shear Modulus (GPa) = 18.41484 23.06703 20.74093
#
# Velocity S-wave (km/s) = 3.37014 3.77190 3.57667
# Velocity P-wave (km/s) = 6.14960 7.65546 6.94347
#
# Compressibility (1/GPa) = 0.02720224
#
# Stress axis : x y z
#
# Youngs Moduli (GPa) = 55.92694 23.78457 115.99640
#
# Poissons Ratio (x) = 0.24547 0.45979
# Poissons Ratio (y) = 0.57721 0.74087
# Poissons Ratio (z) = 0.22169 0.15191
#
# Static dielectric constant tensor:
#      x y z
#    x 2.891370 0.000000 0.157500 
#    y 0.000000 2.823200 0.000000 
#    z 0.157500 0.000000 3.724690 
# 
# 
# High freq. dielectric constant tensor:
#      x y z
#    x 1.584340 0.000000 0.005150 
#    y 0.000000 1.605520 0.000000 
#    z 0.005150 0.000000 1.643110 
# 
# From -- ./inp_files/323670.got.cif
#   From: 2010.06.25/outbox.cif.g09.slc.cpg/sg12_162_cif.got.tgz:323670.got - 2010.06.28 00:19:55.
