data_PCOD8079599
_publ_section_title
;
Structure prediction by ZEFSAII (Michael W. Deem and Ramdas Pophale) SiO2 
 PCOD8079599
Probable space group: C 2/M
;
_chemical_formula_sum "Si O2"
_cell_formula_units_Z 44
_cell_length_a 17.264487
_cell_length_b 17.671594
_cell_length_c 12.541719
_cell_angle_alpha 90.000000
_cell_angle_beta 141.544741
_cell_angle_gamma 90.000000
_cell_volume 2379.629524
_symmetry_space_group_name_H-M "C 2/M"
_symmetry_group_IT_number 12
_symmetry_cell_setting 'monoclinic'
loop_
_space_group_symop_operation_xyz
x,y,z
-x,y,-z
-x,-y,-z
x,-y,z
1/2+x,1/2+y,z
1/2-x,1/2+y,-z
1/2-x,1/2-y,-z
1/2+x,1/2-y,z
loop_
_atom_site_type_symbol
_atom_site_label
_atom_site_fract_x
_atom_site_fract_y
_atom_site_fract_z
Si Si1 0.370712 0.081191 0.422116
Si Si2 0.020403 0.714140 0.351279
Si Si3 0.253731 0.343426 0.890557
Si Si4 0.427204 0.792700 0.030367
Si Si5 0.777284 0.089657 0.138609
Si Si6 0.500000 0.337411 0.500000
O O1 0.500000 0.079265 0.500000
O O2 0.379140 0.148114 0.517047
O O3 0.260981 0.094417 0.218113
O O4 0.346232 0.000000 0.452085
O O5 0.878744 0.692460 0.224072
O O6 0.052972 0.786579 0.459262
O O7 0.027539 0.725812 0.232025
O O8 0.333409 0.276822 0.926129
O O9 0.315651 0.381002 0.061660
O O10 0.352236 0.870926 0.967422
O O11 0.500000 0.799964 0.000000
O O12 0.887712 0.109706 0.339220
O O13 0.754994 0.000000 0.113179
#
# Coordination Sequence:
#
# PCOD8079599 Si02
#       6
#     8   8   8   8   8   4
#     4   9  16  27  51  84 108 132 174 236 287 307
#     4  10  17  32  58  80 108 140 186 240 266 321
#     4  10  17  35  56  80 106 143 191 232 265 318
#     4  11  22  37  57  81 115 152 185 221 274 341
#     4  11  22  35  58  85 111 146 185 233 280 323
#     4  12  17  36  57  84 110 136 194 236 273 318
#
# _framework density 18.490273999999999
#
# number of rings (size 3 to 8) (size 9 to 14) (size 15 to 20)
#    0.000    1.636    6.364    1.909    0.000    4.727 
#    0.000    3.636    0.000    2.182    0.000    0.000 
#    0.000    0.000    0.000    0.000    0.000    0.000 
#
# Total GULP energy -272688.861261 kJ/mol
# GULP energy per Si atom -12394.948239 kJ/mol
# Density = 1.844819 g / cm^3
# Si number density = 18.490274 Si / 1000 Ang^3
#
#
#
# Elastic Constant Matrix: (Units=GPa)
#
#
# Indices 1 2 3 4 5 6 
#
# 1 67.1690 32.1545 25.9075 0.0000 -14.3236 0.0000
# 2 32.1545 126.5791 34.7074 0.0000 0.4696 0.0000
# 3 25.9075 34.7074 112.5261 0.0000 -15.7350 0.0000
# 4 0.0000 0.0000 0.0000 26.4293 0.0000 -4.1880
# 5 -14.3236 0.4696 -15.7350 0.0000 14.7276 0.0000
# 6 0.0000 0.0000 0.0000 -4.1880 0.0000 11.6726
#
#
#
# Elastic Compliance Matrix: (Units=1/GPa)
#
#
# Indices 1 2 3 4 5 6 
#
# 1 0.022317 -0.005640 -0.000398 0.000000 0.021460 0.000000
# 2 -0.005640 0.010227 -0.003137 0.000000 -0.009163 0.000000
# 3 -0.000398 -0.003137 0.011646 0.000000 0.012155 0.000000
# 4 0.000000 0.000000 0.000000 0.040118 0.000000 0.014394
# 5 0.021460 -0.009163 0.012155 0.000000 0.102050 0.000000
# 6 0.000000 0.000000 0.000000 0.014394 0.000000 0.090835
#
#
# Mechanical properties :
#
#
# Convention : Reuss Voigt Hill
#
# Bulk Modulus (GPa) = 38.69899 54.64586 46.67242
# Shear Modulus (GPa) = 16.43897 24.79957 20.61927
#
# Velocity S-wave (km/s) = 2.98495 3.66624 3.34300
# Velocity P-wave (km/s) = 5.73190 6.89491 6.34013
#
# Compressibility (1/GPa) = 0.02584047
#
# Stress axis : x y z
#
# Youngs Moduli (GPa) = 44.80828 97.77996 85.86755
#
# Poissons Ratio (x) = 0.55145 0.03417
# Poissons Ratio (y) = 0.25270 0.26939
# Poissons Ratio (z) = 0.01783 0.30676
#
# Static dielectric constant tensor:
#      x y z
#    x 2.914070 0.000000 -0.328460 
#    y 0.000000 3.687800 0.000000 
#    z -0.328460 0.000000 3.844160 
# 
# 
# High freq. dielectric constant tensor:
#      x y z
#    x 1.651510 0.000000 -0.021800 
#    y 0.000000 1.722120 0.000000 
#    z -0.021800 0.000000 1.738810 
# 
# From -- ./inp_files/145799.got.cif
#   From: 2010.06.25/outbox.cif.g09.slc.cpg/sg12_73_cif.got.tgz:145799.got - 2010.06.28 00:19:55.
