data_PCOD8079201
_publ_section_title
;
Structure prediction by ZEFSAII (Michael W. Deem and Ramdas Pophale) SiO2 
 PCOD8079201
Probable space group: C 2/M
;
_chemical_formula_sum "Si O2"
_cell_formula_units_Z 48
_cell_length_a 13.774548
_cell_length_b 26.030815
_cell_length_c 13.925533
_cell_angle_alpha 90.000000
_cell_angle_beta 147.101320
_cell_angle_gamma 90.000000
_cell_volume 2712.069509
_symmetry_space_group_name_H-M "C 2/M"
_symmetry_group_IT_number 12
_symmetry_cell_setting 'monoclinic'
loop_
_space_group_symop_operation_xyz
x,y,z
-x,y,-z
-x,-y,-z
x,-y,z
1/2+x,1/2+y,z
1/2-x,1/2+y,-z
1/2-x,1/2-y,-z
1/2+x,1/2-y,z
loop_
_atom_site_type_symbol
_atom_site_label
_atom_site_fract_x
_atom_site_fract_y
_atom_site_fract_z
Si Si1 0.668101 0.557749 0.707552
Si Si2 0.882784 0.241106 0.262331
Si Si3 0.568114 0.309682 0.949922
Si Si4 0.754920 0.739233 0.640034
Si Si5 0.070646 0.360032 0.157957
Si Si6 0.311072 0.368373 0.112697
O O1 0.500000 0.557472 0.500000
O O2 0.735237 0.500000 0.783350
O O3 0.823901 0.588946 0.784180
O O4 0.612084 0.583972 0.762413
O O5 0.830676 0.249765 0.328431
O O6 0.840872 0.183300 0.198350
O O7 0.099163 0.251687 0.431464
O O8 0.760718 0.281389 0.102306
O O9 0.429629 0.274909 0.773879
O O10 0.591516 0.362959 0.910109
O O11 0.500000 0.321930 0.000000
O O12 0.810488 0.679273 0.681474
O O13 0.000000 0.332763 0.000000
O O14 0.900636 0.377131 0.079871
#
# Coordination Sequence:
#
# PCOD8079201 Si02
#       6
#     8   8   8   8   8   8
#     4  10  21  37  56  82 109 133 168 219 276 332
#     4  10  18  29  48  72 104 138 181 214 256 310
#     4  10  21  36  47  70 108 145 183 220 249 295
#     4  10  17  30  48  70 104 143 175 214 257 305
#     4  10  17  29  49  74 104 135 169 215 263 318
#     4  11  20  32  52  75 103 138 178 216 262 317
#
# _framework density 17.698661000000001
#
# number of rings (size 3 to 8) (size 9 to 14) (size 15 to 20)
#    0.000    1.833    5.000    2.000    0.000    3.667 
#    3.000    0.000    0.000    0.500    0.000    0.000 
#    0.000    2.667    0.000    0.000    0.000    0.000 
#
# Total GULP energy -297446.649132 kJ/mol
# GULP energy per Si atom -12393.610380 kJ/mol
# Density = 1.765838 g / cm^3
# Si number density = 17.698661 Si / 1000 Ang^3
#
#
#
# Elastic Constant Matrix: (Units=GPa)
#
#
# Indices 1 2 3 4 5 6 
#
# 1 67.9708 50.3036 40.3617 0.0000 0.9130 0.0000
# 2 50.3036 100.8298 39.7799 0.0000 2.8729 0.0000
# 3 40.3617 39.7799 108.0640 0.0000 14.7411 0.0002
# 4 0.0000 0.0000 0.0000 22.8004 0.0000 -1.6702
# 5 0.9130 2.8729 14.7411 0.0000 23.2737 0.0001
# 6 0.0000 0.0000 0.0002 -1.6702 0.0001 76.1387
#
#
#
# Elastic Compliance Matrix: (Units=1/GPa)
#
#
# Indices 1 2 3 4 5 6 
#
# 1 0.026507 -0.010770 -0.006540 0.000000 0.004432 0.000000
# 2 -0.010770 0.016020 -0.001820 0.000000 -0.000402 0.000000
# 3 -0.006540 -0.001820 0.013464 0.000000 -0.008047 0.000000
# 4 0.000000 0.000000 0.000000 0.043929 0.000000 0.000964
# 5 0.004432 -0.000402 -0.008047 0.000000 0.047939 0.000000
# 6 0.000000 0.000000 0.000000 0.000964 0.000000 0.013155
#
#
# Mechanical properties :
#
#
# Convention : Reuss Voigt Hill
#
# Bulk Modulus (GPa) = 56.39840 59.75057 58.07448
# Shear Modulus (GPa) = 24.36808 34.20385 29.28597
#
# Velocity S-wave (km/s) = 3.71459 4.40087 4.07221
# Velocity P-wave (km/s) = 7.09455 7.72378 7.41584
#
# Compressibility (1/GPa) = 0.01773100
#
# Stress axis : x y z
#
# Youngs Moduli (GPa) = 37.72554 62.42045 74.27178
#
# Poissons Ratio (x) = 0.67229 0.48576
# Poissons Ratio (y) = 0.40632 0.13515
# Poissons Ratio (z) = 0.24674 0.11359
#
# Static dielectric constant tensor:
#      x y z
#    x 3.638480 0.000000 0.693440 
#    y 0.000000 3.056240 0.000000 
#    z 0.693440 0.000000 4.587330 
# 
# 
# High freq. dielectric constant tensor:
#      x y z
#    x 1.682570 0.000000 0.011750 
#    y 0.000000 1.632850 0.000000 
#    z 0.011750 0.000000 1.703300 
# 
# From -- ./inp_files/64885.got.cif
#   From: 2010.06.25/outbox.cif.g09.slc.cpg/sg12_33_cif.got.tgz:64885.got - 2010.06.28 00:19:55.
