data_PCOD8079850
_publ_section_title
;
Structure prediction by ZEFSAII (Michael W. Deem and Ramdas Pophale) SiO2 
 PCOD8079850
Probable space group: C 2/M
;
_chemical_formula_sum "Si O2"
_cell_formula_units_Z 56
_cell_length_a 24.066053
_cell_length_b 9.087814
_cell_length_c 25.442497
_cell_angle_alpha 90.000000
_cell_angle_beta 37.784757
_cell_angle_gamma 90.000000
_cell_volume 3409.334835
_symmetry_space_group_name_H-M "C 2/M"
_symmetry_group_IT_number 12
_symmetry_cell_setting 'monoclinic'
loop_
_space_group_symop_operation_xyz
x,y,z
-x,y,-z
-x,-y,-z
x,-y,z
1/2+x,1/2+y,z
1/2-x,1/2+y,-z
1/2-x,1/2-y,-z
1/2+x,1/2-y,z
loop_
_atom_site_type_symbol
_atom_site_label
_atom_site_fract_x
_atom_site_fract_y
_atom_site_fract_z
Si Si1 0.433679 0.168187 0.715848
Si Si2 0.650653 0.329771 0.130953
Si Si3 0.755788 0.331381 0.778547
Si Si4 0.340363 0.329696 0.994843
Si Si5 0.467367 0.665277 0.441449
Si Si6 0.854748 0.834519 0.621037
Si Si7 0.905425 0.327960 0.043270
O O1 0.427796 0.262241 0.773841
O O2 0.340863 0.188145 0.753321
O O3 0.519150 0.227069 0.618191
O O4 0.452723 0.000000 0.716112
O O5 0.666806 0.500000 0.132937
O O6 0.620214 0.310614 0.093235
O O7 0.742187 0.242108 0.073686
O O8 0.725442 0.500000 0.796861
O O9 0.780175 0.273910 0.701771
O O10 0.673981 0.235749 0.861525
O O11 0.329992 0.500000 0.018255
O O12 0.408150 0.250365 0.984379
O O13 0.449708 0.500000 0.433976
O O14 0.556705 0.667412 0.409569
O O15 0.382646 0.717723 0.541187
O O16 0.815024 0.000000 0.648797
O O17 0.888760 0.500000 0.047611
O O18 0.000000 0.293724 0.000000
#
# Coordination Sequence:
#
# PCOD8079850 Si02
#       7
#     8   8   8   8   8   8   8
#     4  10  18  26  40  64  92 120 152 186 222 266
#     4  10  19  30  47  67  91 121 151 186 225 274
#     4  10  19  29  43  63  87 117 152 189 229 269
#     4  10  20  33  48  68  89 115 152 190 233 272
#     4   8  14  24  38  57  83 117 151 181 219 263
#     4   8  14  25  40  57  81 115 151 184 219 265
#     4  11  23  36  50  67  88 119 157 194 233 274
#
# _framework density 16.425491999999998
#
# number of rings (size 3 to 8) (size 9 to 14) (size 15 to 20)
#    0.000    2.429    1.429    3.000    0.000    4.571 
#    0.000    2.857    0.000    0.000    0.000    0.000 
#    0.000    1.143    0.000    3.714    0.000    4.571 
#
# Total GULP energy -347127.069834 kJ/mol
# GULP energy per Si atom -12397.395351 kJ/mol
# Density = 1.638811 g / cm^3
# Si number density = 16.425492 Si / 1000 Ang^3
#
#
#
# Elastic Constant Matrix: (Units=GPa)
#
#
# Indices 1 2 3 4 5 6 
#
# 1 55.8984 48.1768 36.0012 0.0001 12.7810 0.0006
# 2 48.1768 120.7150 57.1101 0.0030 19.0436 -0.0030
# 3 36.0012 57.1101 100.3829 -0.0004 31.9118 0.0002
# 4 0.0001 0.0030 -0.0004 29.3886 -0.0004 7.0777
# 5 12.7810 19.0436 31.9118 -0.0004 19.6216 0.0005
# 6 0.0006 -0.0030 0.0002 7.0777 0.0005 18.7440
#
#
#
# Elastic Compliance Matrix: (Units=1/GPa)
#
#
# Indices 1 2 3 4 5 6 
#
# 1 0.029261 -0.009153 -0.004248 0.000001 -0.003268 -0.000003
# 2 -0.009153 0.014208 -0.004788 -0.000002 -0.000041 0.000003
# 3 -0.004248 -0.004788 0.024540 0.000000 -0.032497 0.000000
# 4 0.000001 -0.000002 0.000000 0.037431 0.000002 -0.014134
# 5 -0.003268 -0.000041 -0.032497 0.000002 0.105985 -0.000003
# 6 -0.000003 0.000003 0.000000 -0.014134 -0.000003 0.058687
#
#
# Mechanical properties :
#
#
# Convention : Reuss Voigt Hill
#
# Bulk Modulus (GPa) = 31.61316 62.17471 46.89394
# Shear Modulus (GPa) = 15.77115 22.59806 19.18460
#
# Velocity S-wave (km/s) = 3.10201 3.71319 3.42128
# Velocity P-wave (km/s) = 5.66729 7.50456 6.64968
#
# Compressibility (1/GPa) = 0.03163239
#
# Stress axis : x y z
#
# Youngs Moduli (GPa) = 34.17505 70.38093 40.74929
#
# Poissons Ratio (x) = 0.64417 0.17311
# Poissons Ratio (y) = 0.31279 0.19510
# Poissons Ratio (z) = 0.14518 0.33697
#
# Static dielectric constant tensor:
#      x y z
#    x 2.693720 0.000000 0.358890 
#    y 0.000000 3.263220 0.000000 
#    z 0.358890 0.000000 3.353370 
# 
# 
# High freq. dielectric constant tensor:
#      x y z
#    x 1.566400 0.000000 0.034220 
#    y 0.000000 1.647170 0.000000 
#    z 0.034220 0.000000 1.637260 
# 
# From -- ./inp_files/243235.got.cif
#   From: 2010.06.25/outbox.cif.g09.slc.cpg/sg12_122_cif.got.tgz:243235.got - 2010.06.28 00:19:55.
