data_PCOD8079418
_publ_section_title
;
Structure prediction by ZEFSAII (Michael W. Deem and Ramdas Pophale) SiO2 
 PCOD8079418
Probable space group: C 2/M
;
_chemical_formula_sum "Si O2"
_cell_formula_units_Z 52
_cell_length_a 12.775615
_cell_length_b 22.269034
_cell_length_c 11.697183
_cell_angle_alpha 90.000000
_cell_angle_beta 127.567666
_cell_angle_gamma 90.000000
_cell_volume 2637.771004
_symmetry_space_group_name_H-M "C 2/M"
_symmetry_group_IT_number 12
_symmetry_cell_setting 'monoclinic'
loop_
_space_group_symop_operation_xyz
x,y,z
-x,y,-z
-x,-y,-z
x,-y,z
1/2+x,1/2+y,z
1/2-x,1/2+y,-z
1/2-x,1/2-y,-z
1/2+x,1/2-y,z
loop_
_atom_site_type_symbol
_atom_site_label
_atom_site_fract_x
_atom_site_fract_y
_atom_site_fract_z
Si Si1 0.813371 0.789281 0.192720
Si Si2 0.634521 0.684288 0.027231
Si Si3 0.500000 0.655732 0.500000
Si Si4 0.345150 0.095765 0.894618
Si Si5 0.780520 0.067930 0.424455
Si Si6 0.467968 0.929015 0.603235
Si Si7 0.774894 0.433334 0.093372
O O1 0.754967 0.722267 0.162776
O O2 0.920797 0.800729 0.362575
O O3 0.689227 0.833812 0.124993
O O4 0.883192 0.798715 0.117229
O O5 0.665394 0.613640 0.063604
O O6 0.500000 0.700318 0.000000
O O7 0.404866 0.612585 0.511033
O O8 0.283983 0.064585 0.743418
O O9 0.500000 0.085688 0.000000
O O10 0.279407 0.063847 0.959620
O O11 0.672574 0.094314 0.442150
O O12 0.825188 0.000000 0.486903
O O13 0.500000 0.901083 0.500000
O O14 0.583279 0.910546 0.767094
O O15 0.457743 0.000000 0.587843
O O16 0.739629 0.500000 0.117114
#
# Coordination Sequence:
#
# PCOD8079418 Si02
#       7
#     8   8   4   8   8   8   8
#     4   9  21  39  58  83 113 143 190 236 284 336
#     4  10  21  40  62  81 110 150 187 232 288 340
#     4  10  21  38  56  84 117 144 190 240 288 342
#     4  10  17  30  57  86 112 144 188 236 279 324
#     4  10  19  31  53  83 119 156 185 228 285 337
#     4   9  18  32  48  73 113 156 191 219 263 330
#     4  10  20  33  53  84 115 142 186 235 275 335
#
# _framework density 19.713614
#
# number of rings (size 3 to 8) (size 9 to 14) (size 15 to 20)
#    0.000    2.308    1.538    1.154    0.000    2.154 
#    1.385    1.538    0.000    0.000    0.000    0.000 
#    0.000    0.000    0.000    0.000    0.000    0.000 
#
# Total GULP energy -322380.800096 kJ/mol
# GULP energy per Si atom -12399.261542 kJ/mol
# Density = 1.966874 g / cm^3
# Si number density = 19.713614 Si / 1000 Ang^3
#
#
#
# Elastic Constant Matrix: (Units=GPa)
#
#
# Indices 1 2 3 4 5 6 
#
# 1 125.4904 40.6803 40.5454 0.0000 0.7869 0.0000
# 2 40.6803 98.6586 36.6103 0.0000 5.0158 0.0000
# 3 40.5454 36.6103 90.8658 0.0000 2.1407 0.0000
# 4 0.0000 0.0000 0.0000 12.0614 0.0000 6.0959
# 5 0.7869 5.0158 2.1407 0.0000 25.8954 0.0000
# 6 0.0000 0.0000 0.0000 6.0959 0.0000 14.8414
#
#
#
# Elastic Compliance Matrix: (Units=1/GPa)
#
#
# Indices 1 2 3 4 5 6 
#
# 1 0.009974 -0.002920 -0.003286 0.000000 0.000534 0.000000
# 2 -0.002920 0.012868 -0.003833 0.000000 -0.002087 0.000000
# 3 -0.003286 -0.003833 0.014023 0.000000 -0.000317 0.000000
# 4 0.000000 0.000000 0.000000 0.104628 0.000000 -0.042975
# 5 0.000534 -0.002087 -0.000317 0.000000 0.039031 0.000000
# 6 0.000000 0.000000 0.000000 -0.042975 0.000000 0.085030
#
#
# Mechanical properties :
#
#
# Convention : Reuss Voigt Hill
#
# Bulk Modulus (GPa) = 59.56945 61.18744 60.37844
# Shear Modulus (GPa) = 17.16859 23.70489 20.43674
#
# Velocity S-wave (km/s) = 2.95430 3.47142 3.22325
# Velocity P-wave (km/s) = 6.47458 6.86827 6.67433
#
# Compressibility (1/GPa) = 0.01678713
#
# Stress axis : x y z
#
# Youngs Moduli (GPa) = 100.26193 77.71014 71.30975
#
# Poissons Ratio (x) = 0.22693 0.23436
# Poissons Ratio (y) = 0.29278 0.27330
# Poissons Ratio (z) = 0.32951 0.29783
#
# Static dielectric constant tensor:
#      x y z
#    x 3.627690 0.000000 -0.103860 
#    y 0.000000 3.472430 0.000000 
#    z -0.103860 0.000000 3.499360 
# 
# 
# High freq. dielectric constant tensor:
#      x y z
#    x 1.764810 0.000000 -0.003610 
#    y 0.000000 1.757260 0.000000 
#    z -0.003610 0.000000 1.758130 
# 
# From -- ./inp_files/136024.got.cif
#   From: 2010.06.25/outbox.cif.g09.slc.cpg/sg12_69_cif.got.tgz:136024.got - 2010.06.28 00:19:55.
