data_PCOD8079989
_publ_section_title
;
Structure prediction by ZEFSAII (Michael W. Deem and Ramdas Pophale) SiO2 
 PCOD8079989
Probable space group: C 2/M
;
_chemical_formula_sum "Si O2"
_cell_formula_units_Z 56
_cell_length_a 32.157396
_cell_length_b 9.079877
_cell_length_c 13.661086
_cell_angle_alpha 90.000000
_cell_angle_beta 65.808792
_cell_angle_gamma 90.000000
_cell_volume 3638.547446
_symmetry_space_group_name_H-M "C 2/M"
_symmetry_group_IT_number 12
_symmetry_cell_setting 'monoclinic'
loop_
_space_group_symop_operation_xyz
x,y,z
-x,y,-z
-x,-y,-z
x,-y,z
1/2+x,1/2+y,z
1/2-x,1/2+y,-z
1/2-x,1/2-y,-z
1/2+x,1/2-y,z
loop_
_atom_site_type_symbol
_atom_site_label
_atom_site_fract_x
_atom_site_fract_y
_atom_site_fract_z
Si Si1 0.428720 0.671171 0.025202
Si Si2 0.431615 0.175079 0.609426
Si Si3 0.657188 0.174679 0.974466
Si Si4 0.521995 0.826019 0.628169
Si Si5 0.844779 0.328298 0.800979
Si Si6 0.980575 0.829867 0.170748
Si Si7 0.254783 0.672976 0.098878
O O1 0.416605 0.500000 0.020898
O O2 0.443741 0.700239 0.121944
O O3 0.385370 0.772779 0.047773
O O4 0.469411 0.720328 0.913625
O O5 0.442084 0.230124 0.488960
O O6 0.471546 0.226230 0.644551
O O7 0.383763 0.243514 0.694308
O O8 0.430363 0.000000 0.608295
O O9 0.651515 0.232773 0.091589
O O10 0.662257 0.000000 0.962732
O O11 0.703262 0.249285 0.884952
O O12 0.535239 0.758297 0.719073
O O13 0.523964 0.000000 0.636687
O O14 0.854925 0.500000 0.798779
O O15 0.794620 0.300465 0.801758
O O16 0.981981 0.000000 0.196778
O O17 0.264516 0.500000 0.077037
O O18 0.250000 0.750000 0.000000
#
# Coordination Sequence:
#
# PCOD8079989 Si02
#       7
#     8   8   8   8   8   8   8
#     4   9  18  31  44  59  81 113 143 166 202 251
#     4   8  14  25  40  61  86 111 140 170 199 238
#     4  10  18  27  42  64  86 109 138 175 211 246
#     4   9  16  26  43  63  84 111 140 170 204 238
#     4   8  14  24  39  59  84 112 140 167 198 239
#     4   9  18  31  44  59  84 112 138 170 207 245
#     4   9  16  26  40  59  84 114 143 172 207 247
#
# _framework density 15.390757000000001
#
# number of rings (size 3 to 8) (size 9 to 14) (size 15 to 20)
#    0.000    3.143    0.000    4.286    0.000    2.286 
#    0.000    2.857    0.000    6.000    0.000    1.000 
#    0.000    0.000    0.000    0.000    0.000    0.000 
#
# Total GULP energy -346965.140443 kJ/mol
# GULP energy per Si atom -12391.612159 kJ/mol
# Density = 1.535573 g / cm^3
# Si number density = 15.390757 Si / 1000 Ang^3
#
#
#
# Elastic Constant Matrix: (Units=GPa)
#
#
# Indices 1 2 3 4 5 6 
#
# 1 109.0249 41.4659 49.1703 0.0000 -17.1492 0.0000
# 2 41.4659 51.2006 28.7245 0.0000 -3.7166 0.0000
# 3 49.1703 28.7245 93.6044 0.0000 -7.7597 0.0000
# 4 0.0000 0.0000 0.0000 17.9352 0.0000 1.7215
# 5 -17.1492 -3.7166 -7.7597 0.0000 25.6387 0.0000
# 6 0.0000 0.0000 0.0000 1.7215 0.0000 24.5051
#
#
#
# Elastic Compliance Matrix: (Units=1/GPa)
#
#
# Indices 1 2 3 4 5 6 
#
# 1 0.016454 -0.009985 -0.004910 0.000000 0.008072 0.000000
# 2 -0.009985 0.029692 -0.004168 0.000000 -0.003636 0.000000
# 3 -0.004910 -0.004168 0.014585 0.000000 0.000526 0.000000
# 4 0.000000 0.000000 0.000000 0.056135 0.000000 -0.003944
# 5 0.008072 -0.003636 0.000526 0.000000 0.044035 0.000000
# 6 0.000000 0.000000 0.000000 -0.003944 0.000000 0.041085
#
#
# Mechanical properties :
#
#
# Convention : Reuss Voigt Hill
#
# Bulk Modulus (GPa) = 44.23764 54.72793 49.48279
# Shear Modulus (GPa) = 20.19006 22.58042 21.38524
#
# Velocity S-wave (km/s) = 3.62585 3.83448 3.73162
# Velocity P-wave (km/s) = 6.80694 7.43240 7.12653
#
# Compressibility (1/GPa) = 0.02260518
#
# Stress axis : x y z
#
# Youngs Moduli (GPa) = 60.77543 33.67913 68.56336
#
# Poissons Ratio (x) = 0.33629 0.33664
# Poissons Ratio (y) = 0.60685 0.28576
# Poissons Ratio (z) = 0.29841 0.14037
#
# Static dielectric constant tensor:
#      x y z
#    x 3.234000 0.000000 -0.301960 
#    y 0.000000 2.759480 0.000000 
#    z -0.301960 0.000000 3.063190 
# 
# 
# High freq. dielectric constant tensor:
#      x y z
#    x 1.585970 0.000000 -0.015010 
#    y 0.000000 1.573120 0.000000 
#    z -0.015010 0.000000 1.565460 
# 
# From -- ./inp_files/247723.got.cif
#   From: 2010.06.25/outbox.cif.g09.slc.cpg/sg12_124_cif.got.tgz:247723.got - 2010.06.28 00:19:55.
