data_PCOD8079244
_publ_section_title
;
Structure prediction by ZEFSAII (Michael W. Deem and Ramdas Pophale) SiO2 
 PCOD8079244
Probable space group: C 2/M
;
_chemical_formula_sum "Si O2"
_cell_formula_units_Z 56
_cell_length_a 26.672100
_cell_length_b 16.908375
_cell_length_c 9.552112
_cell_angle_alpha 90.000000
_cell_angle_beta 136.261223
_cell_angle_gamma 90.000000
_cell_volume 2978.310622
_symmetry_space_group_name_H-M "C 2/M"
_symmetry_group_IT_number 12
_symmetry_cell_setting 'monoclinic'
loop_
_space_group_symop_operation_xyz
x,y,z
-x,y,-z
-x,-y,-z
x,-y,z
1/2+x,1/2+y,z
1/2-x,1/2+y,-z
1/2-x,1/2-y,-z
1/2+x,1/2-y,z
loop_
_atom_site_type_symbol
_atom_site_label
_atom_site_fract_x
_atom_site_fract_y
_atom_site_fract_z
Si Si1 0.170373 0.142888 0.871100
Si Si2 0.808754 0.595256 0.989982
Si Si3 0.264855 0.411730 0.426503
Si Si4 0.089459 0.914021 0.452926
Si Si5 0.660144 0.592163 0.161759
Si Si6 0.526035 0.699969 0.902798
Si Si7 0.927397 0.710350 0.262082
O O1 0.115970 0.091207 0.667227
O O2 0.134126 0.229259 0.807364
O O3 0.250708 0.141707 0.968595
O O4 0.180641 0.104646 0.043457
O O5 0.801264 0.500000 0.992031
O O6 0.889622 0.623862 0.192930
O O7 0.793256 0.626061 0.798390
O O8 0.236788 0.500000 0.390389
O O9 0.342943 0.407612 0.512435
O O10 0.275199 0.374765 0.603697
O O11 0.035377 0.843604 0.310516
O O12 0.051534 0.000000 0.359277
O O13 0.648007 0.500000 0.170157
O O14 0.587552 0.636502 0.059214
O O15 0.553213 0.771480 0.860494
O O16 0.500000 0.734115 0.000000
O O17 0.000000 0.710374 0.500000
#
# Coordination Sequence:
#
# PCOD8079244 Si02
#       7
#     8   8   8   8   8   8   8
#     4  10  20  36  56  87 116 148 183 230 287 337
#     4  10  21  40  64  82 107 148 195 240 279 332
#     4   8  16  30  50  77 106 140 180 224 267 317
#     4  10  17  29  51  77 113 153 186 218 266 334
#     4  10  18  28  49  82 118 148 184 226 269 335
#     4  11  21  33  49  77 117 155 189 221 278 339
#     4  11  23  40  58  84 116 150 187 232 289 339
#
# _framework density 18.802605
#
# number of rings (size 3 to 8) (size 9 to 14) (size 15 to 20)
#    0.000    2.000    2.857    3.000    0.000    0.857 
#    0.000    6.429    0.000    0.429    0.000    0.000 
#    0.000    0.000    0.000    0.000    0.000    0.000 
#
# Total GULP energy -346883.965056 kJ/mol
# GULP energy per Si atom -12388.713038 kJ/mol
# Density = 1.875981 g / cm^3
# Si number density = 18.802605 Si / 1000 Ang^3
#
#
#
# Elastic Constant Matrix: (Units=GPa)
#
#
# Indices 1 2 3 4 5 6 
#
# 1 83.0765 34.0170 66.5119 0.0000 -14.8750 0.0000
# 2 34.0170 49.3572 38.6199 0.0000 6.1384 0.0000
# 3 66.5119 38.6199 108.3990 0.0000 -15.2105 0.0000
# 4 0.0000 0.0000 0.0000 20.9296 0.0000 6.5393
# 5 -14.8750 6.1384 -15.2105 0.0000 34.6379 0.0000
# 6 0.0000 0.0000 0.0000 6.5393 0.0000 15.0263
#
#
#
# Elastic Compliance Matrix: (Units=1/GPa)
#
#
# Indices 1 2 3 4 5 6 
#
# 1 0.027380 -0.010687 -0.011804 0.000000 0.008469 0.000000
# 2 -0.010687 0.035930 -0.008292 0.000000 -0.014598 0.000000
# 3 -0.011804 -0.008292 0.020159 0.000000 0.005253 0.000000
# 4 0.000000 0.000000 0.000000 0.055298 0.000000 -0.024065
# 5 0.008469 -0.014598 0.005253 0.000000 0.037401 0.000000
# 6 0.000000 0.000000 0.000000 -0.024065 0.000000 0.077023
#
#
# Mechanical properties :
#
#
# Convention : Reuss Voigt Hill
#
# Bulk Modulus (GPa) = 45.65651 57.68115 51.66883
# Shear Modulus (GPa) = 15.52519 20.89767 18.21143
#
# Velocity S-wave (km/s) = 2.87661 3.33742 3.11554
# Velocity P-wave (km/s) = 5.94709 6.75240 6.36250
#
# Compressibility (1/GPa) = 0.02190268
#
# Stress axis : x y z
#
# Youngs Moduli (GPa) = 36.52325 27.83224 49.60562
#
# Poissons Ratio (x) = 0.29745 0.58554
# Poissons Ratio (y) = 0.39034 0.41131
# Poissons Ratio (z) = 0.43112 0.23077
#
# Static dielectric constant tensor:
#      x y z
#    x 3.324160 0.000000 -0.266710 
#    y 0.000000 3.161700 0.000000 
#    z -0.266710 0.000000 3.756160 
# 
# 
# High freq. dielectric constant tensor:
#      x y z
#    x 1.713980 0.000000 -0.020770 
#    y 0.000000 1.697700 0.000000 
#    z -0.020770 0.000000 1.743990 
# 
# From -- ./inp_files/87367.got.cif
#   From: 2010.06.25/outbox.cif.g09.slc.cpg/sg12_44_cif.got.tgz:87367.got - 2010.06.28 00:19:55.
