data_PCOD8079339
_publ_section_title
;
Structure prediction by ZEFSAII (Michael W. Deem and Ramdas Pophale) SiO2 
 PCOD8079339
Probable space group: C 2/M
;
_chemical_formula_sum "Si O2"
_cell_formula_units_Z 64
_cell_length_a 27.502764
_cell_length_b 11.592540
_cell_length_c 21.296961
_cell_angle_alpha 90.000000
_cell_angle_beta 31.926928
_cell_angle_gamma 90.000000
_cell_volume 3590.828323
_symmetry_space_group_name_H-M "C 2/M"
_symmetry_group_IT_number 12
_symmetry_cell_setting 'monoclinic'
loop_
_space_group_symop_operation_xyz
x,y,z
-x,y,-z
-x,-y,-z
x,-y,z
1/2+x,1/2+y,z
1/2-x,1/2+y,-z
1/2-x,1/2-y,-z
1/2+x,1/2-y,z
loop_
_atom_site_type_symbol
_atom_site_label
_atom_site_fract_x
_atom_site_fract_y
_atom_site_fract_z
Si Si1 0.093172 0.366379 0.869599
Si Si2 0.895777 0.131925 0.696110
Si Si3 0.785672 0.132577 0.699890
Si Si4 0.632716 0.785153 0.691020
Si Si5 0.306117 0.367788 0.925663
Si Si6 0.193134 0.629115 0.495352
Si Si7 0.996589 0.874491 0.238225
Si Si8 0.922682 0.799149 0.446683
O O1 0.091727 0.500000 0.888267
O O2 0.184213 0.310547 0.802550
O O3 0.099641 0.355548 0.787489
O O4 0.000000 0.308233 0.000000
O O5 0.842952 0.188877 0.694570
O O6 0.826330 0.134120 0.829943
O O7 0.986010 0.209701 0.610445
O O8 0.928629 0.000000 0.646705
O O9 0.840197 0.142892 0.575146
O O10 0.772535 0.000000 0.731874
O O11 0.715377 0.700770 0.618777
O O12 0.666323 0.868562 0.598351
O O13 0.543021 0.716563 0.766881
O O14 0.265151 0.500000 0.985447
O O15 0.396729 0.349344 0.867645
O O16 0.250000 0.250000 0.000000
O O17 0.213686 0.500000 0.452249
O O18 0.109578 0.674182 0.543174
O O19 0.942844 0.876272 0.363512
O O20 0.982726 0.000000 0.223232
#
# Coordination Sequence:
#
# PCOD8079339 Si02
#       8
#     8   8   8   8   8   8   8   8
#     4  10  21  35  50  75 108 137 168 211 264 319
#     4   9  18  31  50  78 105 130 171 217 261 310
#     4  10  18  30  51  76 102 134 169 209 259 311
#     4  10  19  34  52  76  99 137 172 210 262 307
#     4   9  18  34  53  77 105 137 173 220 270 319
#     4  10  20  32  51  78 106 133 169 212 261 319
#     4   9  18  31  51  77 104 131 171 217 259 309
#     4  10  17  30  50  77 103 131 161 209 266 312
#
# _framework density 17.823186
#
# number of rings (size 3 to 8) (size 9 to 14) (size 15 to 20)
#    0.000    2.375    1.250    3.000    0.000    2.000 
#    0.000    7.500    0.000    3.750    0.000    0.000 
#    0.000    0.000    0.000    0.000    0.000    0.000 
#
# Total GULP energy -396495.822604 kJ/mol
# GULP energy per Si atom -12390.494456 kJ/mol
# Density = 1.778262 g / cm^3
# Si number density = 17.823186 Si / 1000 Ang^3
#
#
#
# Elastic Constant Matrix: (Units=GPa)
#
#
# Indices 1 2 3 4 5 6 
#
# 1 110.6396 22.3268 38.4833 -0.0001 -17.6947 0.0000
# 2 22.3268 72.3355 24.2995 -0.0008 -13.2960 0.0003
# 3 38.4833 24.2995 91.2168 -0.0004 -11.2278 0.0001
# 4 -0.0001 -0.0008 -0.0004 18.0929 0.0001 1.4975
# 5 -17.6947 -13.2960 -11.2278 0.0001 23.5201 0.0000
# 6 0.0000 0.0003 0.0001 1.4975 0.0000 16.9736
#
#
#
# Elastic Compliance Matrix: (Units=1/GPa)
#
#
# Indices 1 2 3 4 5 6 
#
# 1 0.011598 -0.001148 -0.003817 0.000000 0.006254 0.000000
# 2 -0.001148 0.016489 -0.003046 0.000001 0.007004 0.000000
# 3 -0.003817 -0.003046 0.013620 0.000000 0.001908 0.000000
# 4 0.000000 0.000001 0.000000 0.055677 0.000000 -0.004912
# 5 0.006254 0.007004 0.001908 0.000000 0.052092 0.000000
# 6 0.000000 0.000000 0.000000 -0.004912 0.000000 0.059348
#
#
# Mechanical properties :
#
#
# Convention : Reuss Voigt Hill
#
# Bulk Modulus (GPa) = 38.93469 49.37901 44.15685
# Shear Modulus (GPa) = 21.42164 24.32281 22.87223
#
# Velocity S-wave (km/s) = 3.47060 3.69816 3.58618
# Velocity P-wave (km/s) = 6.16056 6.78235 6.47892
#
# Compressibility (1/GPa) = 0.02568403
#
# Stress axis : x y z
#
# Youngs Moduli (GPa) = 86.22142 60.64471 73.42261
#
# Poissons Ratio (x) = 0.06961 0.28029
# Poissons Ratio (y) = 0.09897 0.22367
# Poissons Ratio (z) = 0.32915 0.18474
#
# Static dielectric constant tensor:
#      x y z
#    x 3.563210 0.000000 -0.234020 
#    y 0.000000 3.071110 0.000000 
#    z -0.234020 0.000000 3.292070 
# 
# 
# High freq. dielectric constant tensor:
#      x y z
#    x 1.699290 0.000000 -0.012030 
#    y 0.000000 1.652560 0.000000 
#    z -0.012030 0.000000 1.678910 
# 
# From -- ./inp_files/239654.got.cif
#   From: 2010.06.25/outbox.cif.g09.slc.cpg/sg12_120_cif.got.tgz:239654.got - 2010.06.28 00:19:55.
