data_PCOD8079855
_publ_section_title
;
Structure prediction by ZEFSAII (Michael W. Deem and Ramdas Pophale) SiO2 
 PCOD8079855
Probable space group: C 2/M
;
_chemical_formula_sum "Si O2"
_cell_formula_units_Z 56
_cell_length_a 28.811338
_cell_length_b 9.298602
_cell_length_c 14.199220
_cell_angle_alpha 90.000000
_cell_angle_beta 120.109057
_cell_angle_gamma 90.000000
_cell_volume 3290.772788
_symmetry_space_group_name_H-M "C 2/M"
_symmetry_group_IT_number 12
_symmetry_cell_setting 'monoclinic'
loop_
_space_group_symop_operation_xyz
x,y,z
-x,y,-z
-x,-y,-z
x,-y,z
1/2+x,1/2+y,z
1/2-x,1/2+y,-z
1/2-x,1/2-y,-z
1/2+x,1/2-y,z
loop_
_atom_site_type_symbol
_atom_site_label
_atom_site_fract_x
_atom_site_fract_y
_atom_site_fract_z
Si Si1 0.124985 0.333355 0.611255
Si Si2 0.790542 0.333817 0.160019
Si Si3 0.027362 0.656020 0.627180
Si Si4 0.955637 0.830586 0.833356
Si Si5 0.174238 0.831175 0.983030
Si Si6 0.565989 0.330988 0.392836
Si Si7 0.926940 0.828919 0.005643
O O1 0.116985 0.500000 0.575349
O O2 0.184948 0.301054 0.710756
O O3 0.087523 0.292141 0.663298
O O4 0.111138 0.241759 0.504168
O O5 0.799927 0.500000 0.143406
O O6 0.727501 0.296282 0.098557
O O7 0.821633 0.241635 0.114048
O O8 0.027311 0.500000 0.679903
O O9 0.000000 0.633147 0.500000
O O10 0.994644 0.775998 0.650720
O O11 0.922691 0.791005 0.705050
O O12 0.924245 0.773696 0.893887
O O13 0.961455 0.000000 0.848230
O O14 0.017075 0.771799 0.892875
O O15 0.123216 0.765224 0.986920
O O16 0.167668 0.000000 0.959392
O O17 0.567324 0.500000 0.413328
O O18 0.922900 0.000000 0.004365
#
# Coordination Sequence:
#
# PCOD8079855 Si02
#       7
#     8   8   8   8   8   8   8
#     4   9  18  31  43  56  85 125 150 167 208 267
#     4   9  18  31  45  66  92 117 146 179 218 263
#     4   8  15  27  39  53  79 118 150 165 199 259
#     4   8  15  26  41  65  93 116 139 175 224 266
#     4   9  17  29  49  71  87 110 148 187 219 256
#     4  10  18  26  41  66  89 109 142 186 221 248
#     4   8  14  27  45  64  89 117 142 174 221 269
#
# _framework density 17.01728
#
# number of rings (size 3 to 8) (size 9 to 14) (size 15 to 20)
#    0.000    3.286    0.000    2.143    2.000    3.143 
#    0.000    0.000    0.000    2.571    0.000    5.000 
#    0.000    0.000    0.000    0.000    0.000    0.143 
#
# Total GULP energy -346873.352710 kJ/mol
# GULP energy per Si atom -12388.334025 kJ/mol
# Density = 1.697855 g / cm^3
# Si number density = 17.017280 Si / 1000 Ang^3
#
#
#
# Elastic Constant Matrix: (Units=GPa)
#
#
# Indices 1 2 3 4 5 6 
#
# 1 88.9139 20.1312 39.9370 0.0000 -3.0359 0.0000
# 2 20.1312 42.8690 36.5958 0.0000 -3.7636 0.0000
# 3 39.9370 36.5958 111.8180 0.0000 -1.1606 0.0000
# 4 0.0000 0.0000 0.0000 12.9550 0.0000 4.5929
# 5 -3.0359 -3.7636 -1.1606 0.0000 19.1702 0.0000
# 6 0.0000 0.0000 0.0000 4.5929 0.0000 13.3132
#
#
#
# Elastic Compliance Matrix: (Units=1/GPa)
#
#
# Indices 1 2 3 4 5 6 
#
# 1 0.013726 -0.002989 -0.003910 0.000000 0.001350 0.000000
# 2 -0.002989 0.033661 -0.009891 0.000000 0.005536 0.000000
# 3 -0.003910 -0.009891 0.013559 0.000000 -0.001740 0.000000
# 4 0.000000 0.000000 0.000000 0.087947 0.000000 -0.030340
# 5 0.001350 0.005536 -0.001740 0.000000 0.053360 0.000000
# 6 0.000000 0.000000 0.000000 -0.030340 0.000000 0.085580
#
#
# Mechanical properties :
#
#
# Convention : Reuss Voigt Hill
#
# Bulk Modulus (GPa) = 36.54432 48.54766 42.54599
# Shear Modulus (GPa) = 15.12700 18.88347 17.00523
#
# Velocity S-wave (km/s) = 2.98471 3.33478 3.16459
# Velocity P-wave (km/s) = 5.77923 6.58924 6.19748
#
# Compressibility (1/GPa) = 0.02736403
#
# Stress axis : x y z
#
# Youngs Moduli (GPa) = 72.85439 29.70837 73.75293
#
# Poissons Ratio (x) = 0.08881 0.28838
# Poissons Ratio (y) = 0.21778 0.72951
# Poissons Ratio (z) = 0.28486 0.29385
#
# Static dielectric constant tensor:
#      x y z
#    x 3.799520 0.000000 0.119000 
#    y 0.000000 2.947470 0.000000 
#    z 0.119000 0.000000 3.289170 
# 
# 
# High freq. dielectric constant tensor:
#      x y z
#    x 1.629300 0.000000 0.006310 
#    y 0.000000 1.628760 0.000000 
#    z 0.006310 0.000000 1.657590 
# 
# From -- ./inp_files/248563.got.cif
#   From: 2010.06.25/outbox.cif.g09.slc.cpg/sg12_125_cif.got.tgz:248563.got - 2010.06.28 00:19:55.
