data_PCOD8079998
_publ_section_title
;
Structure prediction by ZEFSAII (Michael W. Deem and Ramdas Pophale) SiO2 
 PCOD8079998
Probable space group: C 2/M
;
_chemical_formula_sum "Si O2"
_cell_formula_units_Z 64
_cell_length_a 27.398097
_cell_length_b 9.011147
_cell_length_c 16.933210
_cell_angle_alpha 90.000000
_cell_angle_beta 76.770100
_cell_angle_gamma 90.000000
_cell_volume 4069.656014
_symmetry_space_group_name_H-M "C 2/M"
_symmetry_group_IT_number 12
_symmetry_cell_setting 'monoclinic'
loop_
_space_group_symop_operation_xyz
x,y,z
-x,y,-z
-x,-y,-z
x,-y,z
1/2+x,1/2+y,z
1/2-x,1/2+y,-z
1/2-x,1/2-y,-z
1/2+x,1/2-y,z
loop_
_atom_site_type_symbol
_atom_site_label
_atom_site_fract_x
_atom_site_fract_y
_atom_site_fract_z
Si Si1 0.452495 0.167075 0.899975
Si Si2 0.441008 0.336654 0.508873
Si Si3 0.061912 0.329796 0.810459
Si Si4 0.968860 0.825075 0.331423
Si Si5 0.878607 0.670021 0.063683
Si Si6 0.803357 0.174486 0.981944
Si Si7 0.120429 0.827121 0.180446
Si Si8 0.926734 0.325015 0.666903
O O1 0.511755 0.192369 0.880733
O O2 0.429853 0.286365 0.848201
O O3 0.439723 0.000000 0.874576
O O4 0.429478 0.192563 0.994853
O O5 0.500000 0.343735 0.500000
O O6 0.417626 0.500000 0.532316
O O7 0.433614 0.286874 0.420410
O O8 0.416590 0.222493 0.579867
O O9 0.067002 0.500000 0.780807
O O10 0.062156 0.225826 0.733624
O O11 0.108093 0.285609 0.850929
O O12 0.021547 0.739856 0.317629
O O13 0.980384 0.000000 0.323988
O O14 0.860435 0.500000 0.065989
O O15 0.834034 0.771519 0.047225
O O16 0.831873 0.219155 0.890452
O O17 0.796755 0.000000 0.991352
O O18 0.750000 0.250000 0.000000
O O19 0.119493 0.736539 0.263157
O O20 0.120614 0.000000 0.199947
O O21 0.929053 0.500000 0.670815
#
# Coordination Sequence:
#
# PCOD8079998 Si02
#       8
#     8   8   8   8   8   8   8   8
#     4   9  16  27  42  61  87 119 152 184 218 256
#     4   8  16  29  41  55  80 117 154 187 225 262
#     4  10  18  27  42  64  90 121 155 187 219 258
#     4  10  19  29  41  58  86 123 156 188 225 261
#     4   9  18  31  46  65  90 118 149 185 224 267
#     4  10  21  36  53  70  89 115 147 186 231 275
#     4  10  19  30  45  66  90 117 149 184 225 270
#     4  11  19  27  42  63  86 115 152 191 225 261
#
# _framework density 15.726145000000001
#
# number of rings (size 3 to 8) (size 9 to 14) (size 15 to 20)
#    0.000    2.375    1.250    3.375    0.000    6.250 
#    0.000    0.000    0.000    3.750    0.000    0.000 
#    0.000    1.000    0.000    3.250    0.000    4.000 
#
# Total GULP energy -396662.697225 kJ/mol
# GULP energy per Si atom -12395.709288 kJ/mol
# Density = 1.569035 g / cm^3
# Si number density = 15.726145 Si / 1000 Ang^3
#
#
#
# Elastic Constant Matrix: (Units=GPa)
#
#
# Indices 1 2 3 4 5 6 
#
# 1 65.3735 37.9371 44.5747 0.0000 3.8169 0.0000
# 2 37.9371 93.4582 59.1741 0.0000 1.7664 0.0000
# 3 44.5747 59.1741 112.1845 0.0000 12.9570 0.0000
# 4 0.0000 0.0000 0.0000 26.2244 0.0000 2.4279
# 5 3.8169 1.7664 12.9570 0.0000 15.1475 0.0000
# 6 0.0000 0.0000 0.0000 2.4279 0.0000 18.3595
#
#
#
# Elastic Compliance Matrix: (Units=1/GPa)
#
#
# Indices 1 2 3 4 5 6 
#
# 1 0.022564 -0.005207 -0.006250 0.000000 0.000267 0.000000
# 2 -0.005207 0.017768 -0.008006 0.000000 0.006089 0.000000
# 3 -0.006250 -0.008006 0.017011 0.000000 -0.012043 0.000000
# 4 0.000000 0.000000 0.000000 0.038605 0.000000 -0.005105
# 5 0.000267 0.006089 -0.012043 0.000000 0.075541 0.000000
# 6 0.000000 0.000000 0.000000 -0.005105 0.000000 0.055143
#
#
# Mechanical properties :
#
#
# Convention : Reuss Voigt Hill
#
# Bulk Modulus (GPa) = 54.29860 61.59866 57.94863
# Shear Modulus (GPa) = 18.40276 20.56830 19.48553
#
# Velocity S-wave (km/s) = 3.42453 3.62042 3.52384
# Velocity P-wave (km/s) = 7.08796 7.53201 7.31336
#
# Compressibility (1/GPa) = 0.01841668
#
# Stress axis : x y z
#
# Youngs Moduli (GPa) = 44.31759 56.28105 58.78526
#
# Poissons Ratio (x) = 0.29308 0.36739
# Poissons Ratio (y) = 0.23078 0.47065
# Poissons Ratio (z) = 0.27697 0.45060
#
# Static dielectric constant tensor:
#      x y z
#    x 2.559180 0.000000 0.100690 
#    y 0.000000 3.038500 0.000000 
#    z 0.100690 0.000000 3.359400 
# 
# 
# High freq. dielectric constant tensor:
#      x y z
#    x 1.542390 0.000000 0.011430 
#    y 0.000000 1.610710 0.000000 
#    z 0.011430 0.000000 1.609400 
# 
# From -- ./inp_files/294545.got.cif
#   From: 2010.06.25/outbox.cif.g09.slc.cpg/sg12_148_cif.got.tgz:294545.got - 2010.06.28 00:19:55.
