data_PCOD8079267
_publ_section_title
;
Structure prediction by ZEFSAII (Michael W. Deem and Ramdas Pophale) SiO2 
 PCOD8079267
Probable space group: C 2/M
;
_chemical_formula_sum "Si O2"
_cell_formula_units_Z 64
_cell_length_a 27.077964
_cell_length_b 14.160180
_cell_length_c 9.279108
_cell_angle_alpha 90.000000
_cell_angle_beta 60.485363
_cell_angle_gamma 90.000000
_cell_volume 3096.171414
_symmetry_space_group_name_H-M "C 2/M"
_symmetry_group_IT_number 12
_symmetry_cell_setting 'monoclinic'
loop_
_space_group_symop_operation_xyz
x,y,z
-x,y,-z
-x,-y,-z
x,-y,z
1/2+x,1/2+y,z
1/2-x,1/2+y,-z
1/2-x,1/2-y,-z
1/2+x,1/2-y,z
loop_
_atom_site_type_symbol
_atom_site_label
_atom_site_fract_x
_atom_site_fract_y
_atom_site_fract_z
Si Si1 0.145181 0.396102 0.148401
Si Si2 0.620515 0.697331 0.808445
Si Si3 0.514008 0.896231 0.317152
Si Si4 0.782089 0.164393 0.526000
Si Si5 0.829221 0.603331 0.204388
Si Si6 0.467226 0.286357 0.296085
Si Si7 0.363646 0.285263 0.659410
Si Si8 0.915713 0.888365 0.844564
O O1 0.160808 0.500000 0.190050
O O2 0.080269 0.394913 0.192472
O O3 0.154967 0.317378 0.254883
O O4 0.180529 0.375856 0.951878
O O5 0.669055 0.634337 0.658368
O O6 0.635524 0.809510 0.777916
O O7 0.560809 0.680083 0.813020
O O8 0.614352 0.660741 0.977406
O O9 0.500000 0.864265 0.500000
O O10 0.488054 0.821098 0.243948
O O11 0.487859 0.000000 0.325265
O O12 0.750000 0.250000 0.500000
O O13 0.732541 0.090072 0.631656
O O14 0.811100 0.185498 0.637468
O O15 0.859555 0.500000 0.181126
O O16 0.421424 0.283586 0.487767
O O17 0.519475 0.353469 0.265628
O O18 0.375623 0.359543 0.769484
O O19 0.916176 0.000000 0.861599
#
# Coordination Sequence:
#
# PCOD8079267 Si02
#       8
#     8   8   8   8   8   8   8   8
#     4  10  19  33  58  92 123 157 198 242 299 360
#     4  10  22  41  61  89 125 163 207 253 309 368
#     4  10  17  29  53  86 126 160 192 238 294 362
#     4   9  22  42  64  90 120 161 199 249 314 362
#     4  10  20  39  64  88 121 158 200 253 308 367
#     4  11  21  36  60  90 126 165 202 249 307 364
#     4  11  21  39  64  88 125 159 203 259 300 362
#     4  12  25  41  61  88 122 165 213 257 302 361
#
# _framework density 20.670691000000001
#
# number of rings (size 3 to 8) (size 9 to 14) (size 15 to 20)
#    0.000    1.625    3.750    0.750    0.000    4.000 
#    0.000    7.500    0.000    3.750    0.000    0.000 
#    0.000    0.000    0.000    0.000    0.000    0.000 
#
# Total GULP energy -396554.542266 kJ/mol
# GULP energy per Si atom -12392.329446 kJ/mol
# Density = 2.062364 g / cm^3
# Si number density = 20.670691 Si / 1000 Ang^3
#
#
#
# Elastic Constant Matrix: (Units=GPa)
#
#
# Indices 1 2 3 4 5 6 
#
# 1 79.0769 18.7464 13.2768 0.0000 10.4854 0.0000
# 2 18.7464 99.8429 12.9698 0.0000 -0.2933 0.0000
# 3 13.2768 12.9698 71.6070 0.0000 -1.8740 0.0000
# 4 0.0000 0.0000 0.0000 18.3744 0.0000 -7.9495
# 5 10.4854 -0.2933 -1.8740 0.0000 30.1040 0.0000
# 6 0.0000 0.0000 0.0000 -7.9495 0.0000 11.8614
#
#
#
# Elastic Compliance Matrix: (Units=1/GPa)
#
#
# Indices 1 2 3 4 5 6 
#
# 1 0.014290 -0.002393 -0.002351 0.000000 -0.005147 0.000000
# 2 -0.002393 0.010658 -0.001465 0.000000 0.000846 0.000000
# 3 -0.002351 -0.001465 0.014711 0.000000 0.001720 0.000000
# 4 0.000000 0.000000 0.000000 0.076649 0.000000 0.051370
# 5 -0.005147 0.000846 0.001720 0.000000 0.035126 0.000000
# 6 0.000000 0.000000 0.000000 0.051370 0.000000 0.118736
#
#
# Mechanical properties :
#
#
# Convention : Reuss Voigt Hill
#
# Bulk Modulus (GPa) = 36.70705 37.83476 37.27091
# Shear Modulus (GPa) = 17.14280 25.77019 21.45649
#
# Velocity S-wave (km/s) = 2.88293 3.53470 3.22532
# Velocity P-wave (km/s) = 5.37385 5.91626 5.65157
#
# Compressibility (1/GPa) = 0.02724272
#
# Stress axis : x y z
#
# Youngs Moduli (GPa) = 69.97710 93.82833 67.97497
#
# Poissons Ratio (x) = 0.22452 0.15980
# Poissons Ratio (y) = 0.16745 0.09955
# Poissons Ratio (z) = 0.16451 0.13742
#
# Static dielectric constant tensor:
#      x y z
#    x 3.718700 0.000000 -0.227770 
#    y 0.000000 3.906360 0.000000 
#    z -0.227770 0.000000 4.079230 
# 
# 
# High freq. dielectric constant tensor:
#      x y z
#    x 1.788650 0.000000 -0.012460 
#    y 0.000000 1.800520 0.000000 
#    z -0.012460 0.000000 1.823050 
# 
# From -- ./inp_files/104508.got.cif
#   From: 2010.06.25/outbox.cif.g09.slc.cpg/sg12_53_cif.got.tgz:104508.got - 2010.06.28 00:19:55.
