data_PCOD8079908
_publ_section_title
;
Structure prediction by ZEFSAII (Michael W. Deem and Ramdas Pophale) SiO2 
 PCOD8079908
Probable space group: C 2/M
;
_chemical_formula_sum "Si O2"
_cell_formula_units_Z 64
_cell_length_a 27.606342
_cell_length_b 18.464365
_cell_length_c 9.287404
_cell_angle_alpha 90.000000
_cell_angle_beta 109.659111
_cell_angle_gamma 90.000000
_cell_volume 4458.154988
_symmetry_space_group_name_H-M "C 2/M"
_symmetry_group_IT_number 12
_symmetry_cell_setting 'monoclinic'
loop_
_space_group_symop_operation_xyz
x,y,z
-x,y,-z
-x,-y,-z
x,-y,z
1/2+x,1/2+y,z
1/2-x,1/2+y,-z
1/2-x,1/2-y,-z
1/2+x,1/2-y,z
loop_
_atom_site_type_symbol
_atom_site_label
_atom_site_fract_x
_atom_site_fract_y
_atom_site_fract_z
Si Si1 0.305644 0.285979 0.714546
Si Si2 0.255635 0.917641 0.337288
Si Si3 0.049972 0.417310 0.632423
Si Si4 0.950028 0.582690 0.032478
Si Si5 0.345818 0.160597 0.265513
Si Si6 0.654182 0.839403 0.073876
Si Si7 0.255635 0.917641 0.673981
Si Si8 0.305644 0.285979 0.396742
O O1 0.295069 0.369370 0.751571
O O2 0.341382 0.242916 0.862537
O O3 0.331181 0.282596 0.581181
O O4 0.250000 0.250000 0.654371
O O5 0.304677 0.892889 0.295235
O O6 0.269479 0.908005 0.519479
O O7 0.242092 0.000000 0.284451
O O8 0.062213 0.500000 0.599817
O O9 0.038053 0.411463 0.788053
O O10 0.098047 0.368015 0.636506
O O11 0.000000 0.387779 0.500000
O O12 0.937787 0.500000 0.975390
O O13 0.901953 0.631985 0.940412
O O14 0.000000 0.612221 0.000000
O O15 0.341381 0.242916 0.320227
O O16 0.336345 0.160935 0.086345
O O17 0.695323 0.892888 0.185880
O O18 0.204931 0.869370 0.661432
O O19 0.242092 0.000000 0.699733
#
# Coordination Sequence:
#
# PCOD8079908 Si02
#       8
#     8   8   8   8   8   8   8   8
#     4   8  15  27  40  55  76 102 132 161 188 225
#     4   9  17  28  41  57  78 105 135 163 190 224
#     4   9  18  30  41  55  76 101 130 163 194 224
#     4   9  18  30  41  55  76 101 130 163 194 224
#     4  10  18  27  40  58  80 104 130 161 196 231
#     4  10  18  27  40  58  80 104 130 161 196 231
#     4   9  17  28  41  57  78 105 135 163 190 224
#     4   8  15  27  40  55  76 102 132 161 188 225
#
# _framework density 14.355715
#
# number of rings (size 3 to 8) (size 9 to 14) (size 15 to 20)
#    0.000    3.000    0.000    3.000    0.000    8.000 
#    0.000    2.500    0.000    0.000    0.000    0.000 
#    0.000    1.000    0.000    2.250    0.000    3.500 
#
# Total GULP energy -396639.936769 kJ/mol
# GULP energy per Si atom -12394.998024 kJ/mol
# Density = 1.432304 g / cm^3
# Si number density = 14.355715 Si / 1000 Ang^3
#
#
#
# Elastic Constant Matrix: (Units=GPa)
#
#
# Indices 1 2 3 4 5 6 
#
# 1 81.4636 56.0637 43.0930 0.0000 -3.0962 0.0000
# 2 56.0637 121.3240 48.6525 0.0000 2.8223 0.0000
# 3 43.0930 48.6525 69.3860 0.0000 7.6955 0.0000
# 4 0.0000 0.0000 0.0000 21.0090 0.0000 0.2283
# 5 -3.0962 2.8223 7.6955 0.0000 19.1406 0.0000
# 6 0.0000 0.0000 0.0000 0.2283 0.0000 21.6088
#
#
#
# Elastic Compliance Matrix: (Units=1/GPa)
#
#
# Indices 1 2 3 4 5 6 
#
# 1 0.022593 -0.006436 -0.010498 0.000000 0.008824 0.000000
# 2 -0.006436 0.013348 -0.005263 0.000000 -0.000893 0.000000
# 3 -0.010498 -0.005263 0.025878 0.000000 -0.011326 0.000000
# 4 0.000000 0.000000 0.000000 0.047604 0.000000 -0.000503
# 5 0.008824 -0.000893 -0.011326 0.000000 0.058358 0.000000
# 6 0.000000 0.000000 0.000000 -0.000503 0.000000 0.046283
#
#
# Mechanical properties :
#
#
# Convention : Reuss Voigt Hill
#
# Bulk Modulus (GPa) = 57.38543 63.08799 60.23671
# Shear Modulus (GPa) = 18.92035 20.64265 19.78150
#
# Velocity S-wave (km/s) = 3.63432 3.79613 3.71611
# Velocity P-wave (km/s) = 7.59419 7.95335 7.77585
#
# Compressibility (1/GPa) = 0.01742603
#
# Stress axis : x y z
#
# Youngs Moduli (GPa) = 44.26147 74.91908 38.64220
#
# Poissons Ratio (x) = 0.48216 0.40565
# Poissons Ratio (y) = 0.28486 0.20338
# Poissons Ratio (z) = 0.46464 0.39431
#
# Static dielectric constant tensor:
#      x y z
#    x 2.612930 0.000000 -0.075630 
#    y 0.000000 3.244550 0.000000 
#    z -0.075630 0.000000 2.811530 
# 
# 
# High freq. dielectric constant tensor:
#      x y z
#    x 1.513780 0.000000 -0.013630 
#    y 0.000000 1.544790 0.000000 
#    z -0.013630 0.000000 1.549570 
# 
# From -- ./inp_files/112328.got.cif
#   From: 2010.06.25/outbox.cif.g09.slc.cpg/sg12_57_cif.got.tgz:112328.got - 2010.06.28 00:19:55.
