data_PCOD8079777
_publ_section_title
;
Structure prediction by ZEFSAII (Michael W. Deem and Ramdas Pophale) SiO2 
 PCOD8079777
Probable space group: C 2/M
;
_chemical_formula_sum "Si O2"
_cell_formula_units_Z 64
_cell_length_a 8.727340
_cell_length_b 17.923146
_cell_length_c 22.081664
_cell_angle_alpha 90.000000
_cell_angle_beta 85.701744
_cell_angle_gamma 90.000000
_cell_volume 3444.329762
_symmetry_space_group_name_H-M "C 2/M"
_symmetry_group_IT_number 12
_symmetry_cell_setting 'monoclinic'
loop_
_space_group_symop_operation_xyz
x,y,z
-x,y,-z
-x,-y,-z
x,-y,z
1/2+x,1/2+y,z
1/2-x,1/2+y,-z
1/2-x,1/2-y,-z
1/2+x,1/2-y,z
loop_
_atom_site_type_symbol
_atom_site_label
_atom_site_fract_x
_atom_site_fract_y
_atom_site_fract_z
Si Si1 0.446941 0.318924 0.146432
Si Si2 0.219288 0.086792 0.380918
Si Si3 0.823792 0.329226 0.493651
Si Si4 0.413530 0.581729 0.438495
Si Si5 0.658608 0.850425 0.743092
Si Si6 0.653111 0.216448 0.222414
Si Si7 0.637745 0.787685 0.956639
Si Si8 0.225324 0.912668 0.134393
O O1 0.561343 0.260440 0.174094
O O2 0.413182 0.281767 0.083304
O O3 0.540834 0.396862 0.140619
O O4 0.287777 0.333082 0.187399
O O5 0.308510 0.133712 0.428494
O O6 0.293010 0.097232 0.313365
O O7 0.038383 0.112011 0.385837
O O8 0.228099 0.000000 0.399415
O O9 0.750000 0.250000 0.500000
O O10 0.743561 0.372851 0.551638
O O11 0.000000 0.321301 0.500000
O O12 0.500000 0.583528 0.500000
O O13 0.360535 0.500000 0.420786
O O14 0.474978 0.834586 0.740671
O O15 0.692631 0.893703 0.804409
O O16 0.759570 0.774438 0.735663
O O17 0.704797 0.858085 0.918301
O O18 0.500000 0.821547 0.000000
O O19 0.750000 0.750000 0.000000
O O20 0.251738 0.000000 0.118219
#
# Coordination Sequence:
#
# PCOD8079777 Si02
#       8
#     8   8   8   8   8   8   8   8
#     4  10  17  37  58  84 110 152 199 234 292 359
#     4  10  21  38  58  83 117 156 193 234 293 358
#     4  11  22  36  57  82 115 149 190 243 293 333
#     4   8  16  33  55  77 106 145 183 221 276 341
#     4  10  20  36  61  88 120 152 198 241 296 348
#     4   9  17  33  61  83 110 151 197 234 279 354
#     4  12  21  35  64  86 111 156 203 244 291 366
#     4  11  23  39  59  87 123 155 195 252 309 354
#
# _framework density 18.581264000000001
#
# number of rings (size 3 to 8) (size 9 to 14) (size 15 to 20)
#    0.000    1.875    5.000    2.625    0.000    3.250 
#    0.000    5.000    0.000    0.000    0.000    0.000 
#    0.000    0.000    0.000    0.000    0.000    0.000 
#
# Total GULP energy -396518.999406 kJ/mol
# GULP energy per Si atom -12391.218731 kJ/mol
# Density = 1.853897 g / cm^3
# Si number density = 18.581264 Si / 1000 Ang^3
#
#
#
# Elastic Constant Matrix: (Units=GPa)
#
#
# Indices 1 2 3 4 5 6 
#
# 1 148.6725 53.4362 45.0181 0.0000 -27.3096 0.0000
# 2 53.4362 98.3756 44.3213 0.0000 -11.7202 0.0000
# 3 45.0181 44.3213 92.0715 0.0000 -19.4221 0.0000
# 4 0.0000 0.0000 0.0000 28.9365 0.0000 -8.2515
# 5 -27.3096 -11.7202 -19.4221 0.0000 29.5036 0.0000
# 6 0.0000 0.0000 0.0000 -8.2515 0.0000 25.1897
#
#
#
# Elastic Compliance Matrix: (Units=1/GPa)
#
#
# Indices 1 2 3 4 5 6 
#
# 1 0.009768 -0.003828 -0.001564 0.000000 0.006491 0.000000
# 2 -0.003828 0.014518 -0.005397 0.000000 -0.001329 0.000000
# 3 -0.001564 -0.005397 0.015638 0.000000 0.006703 0.000000
# 4 0.000000 0.000000 0.000000 0.038119 0.000000 0.012487
# 5 0.006491 -0.001329 0.006703 0.000000 0.043787 0.000000
# 6 0.000000 0.000000 0.000000 0.012487 0.000000 0.043789
#
#
# Mechanical properties :
#
#
# Convention : Reuss Voigt Hill
#
# Bulk Modulus (GPa) = 54.51010 69.40787 61.95899
# Shear Modulus (GPa) = 25.86491 29.81557 27.84024
#
# Velocity S-wave (km/s) = 3.73498 4.01010 3.87498
# Velocity P-wave (km/s) = 6.92819 7.67307 7.31012
#
# Compressibility (1/GPa) = 0.01834522
#
# Stress axis : x y z
#
# Youngs Moduli (GPa) = 102.37511 68.88183 63.94736
#
# Poissons Ratio (x) = 0.26367 0.10002
# Poissons Ratio (y) = 0.39187 0.34514
# Poissons Ratio (z) = 0.16012 0.37177
#
# Static dielectric constant tensor:
#      x y z
#    x 3.922680 0.000000 -0.381310 
#    y 0.000000 3.467120 0.000000 
#    z -0.381310 0.000000 3.315100 
# 
# 
# High freq. dielectric constant tensor:
#      x y z
#    x 1.732550 0.000000 -0.019500 
#    y 0.000000 1.701960 0.000000 
#    z -0.019500 0.000000 1.711380 
# 
# From -- ./inp_files/333182.got.cif
#   From: 2010.06.25/outbox.cif.g09.slc.cpg/sg12_167_cif.got.tgz:333182.got - 2010.06.28 00:19:55.
