data_PCOD8079925
_publ_section_title
;
Structure prediction by ZEFSAII (Michael W. Deem and Ramdas Pophale) SiO2 
 PCOD8079925
Probable space group: C 2/M
;
_chemical_formula_sum "Si O2"
_cell_formula_units_Z 64
_cell_length_a 27.611135
_cell_length_b 9.224544
_cell_length_c 16.704603
_cell_angle_alpha 90.000000
_cell_angle_beta 78.529365
_cell_angle_gamma 90.000000
_cell_volume 4169.685094
_symmetry_space_group_name_H-M "C 2/M"
_symmetry_group_IT_number 12
_symmetry_cell_setting 'monoclinic'
loop_
_space_group_symop_operation_xyz
x,y,z
-x,y,-z
-x,-y,-z
x,-y,z
1/2+x,1/2+y,z
1/2-x,1/2+y,-z
1/2-x,1/2-y,-z
1/2+x,1/2-y,z
loop_
_atom_site_type_symbol
_atom_site_label
_atom_site_fract_x
_atom_site_fract_y
_atom_site_fract_z
Si Si1 0.672577 0.671204 0.664289
Si Si2 0.698892 0.831749 0.509611
Si Si3 0.056607 0.329319 0.980315
Si Si4 0.294110 0.836602 0.080184
Si Si5 0.134434 0.831651 0.053166
Si Si6 0.375051 0.837642 0.184755
Si Si7 0.784167 0.664853 0.670874
Si Si8 0.307379 0.667302 0.815658
O O1 0.667522 0.500000 0.654004
O O2 0.661494 0.751331 0.582944
O O3 0.630998 0.726818 0.739751
O O4 0.727423 0.716448 0.676413
O O5 0.750000 0.750000 0.500000
O O6 0.683479 0.818124 0.421274
O O7 0.704704 0.000000 0.532027
O O8 0.063164 0.500000 0.992361
O O9 0.079982 0.284977 0.887065
O O10 0.084614 0.250436 0.043921
O O11 0.000000 0.279952 0.000000
O O12 0.324880 0.836270 0.151520
O O13 0.240074 0.775811 0.119237
O O14 0.292372 0.000000 0.045131
O O15 0.317885 0.728703 0.008656
O O16 0.144098 0.808473 0.145010
O O17 0.128799 0.000000 0.033692
O O18 0.385617 0.000000 0.213830
O O19 0.782793 0.500000 0.699934
O O20 0.812852 0.752687 0.729586
O O21 0.299153 0.500000 0.798163
#
# Coordination Sequence:
#
# PCOD8079925 Si02
#       8
#     8   8   8   8   8   8   8   8
#     4  10  18  27  40  61  86 114 148 182 216 255
#     4   9  17  28  40  57  81 112 150 186 218 252
#     4   9  19  36  53  66  84 112 145 180 223 272
#     4   9  17  29  42  58  83 118 152 178 212 253
#     4  10  20  30  43  65  87 110 143 182 221 258
#     4   9  16  27  45  65  84 111 145 181 218 254
#     4   9  18  28  39  58  83 115 152 184 214 246
#     4  10  19  29  41  59  86 118 150 180 212 254
#
# _framework density 15.348881
#
# number of rings (size 3 to 8) (size 9 to 14) (size 15 to 20)
#    0.000    2.625    1.250    3.000    0.000    6.250 
#    0.000    0.000    0.000    0.000    0.000    0.000 
#    0.000    1.000    0.000   11.250    0.000    5.625 
#
# Total GULP energy -396645.563551 kJ/mol
# GULP energy per Si atom -12395.173861 kJ/mol
# Density = 1.531395 g / cm^3
# Si number density = 15.348881 Si / 1000 Ang^3
#
#
#
# Elastic Constant Matrix: (Units=GPa)
#
#
# Indices 1 2 3 4 5 6 
#
# 1 63.3966 30.8424 45.1467 0.0000 -2.4578 0.0000
# 2 30.8424 78.3464 54.9946 0.0000 4.6813 0.0000
# 3 45.1467 54.9946 99.7931 0.0000 3.9447 0.0000
# 4 0.0000 0.0000 0.0000 30.1915 0.0000 2.4796
# 5 -2.4578 4.6813 3.9447 0.0000 14.2645 0.0000
# 6 0.0000 0.0000 0.0000 2.4796 0.0000 16.2343
#
#
#
# Elastic Compliance Matrix: (Units=1/GPa)
#
#
# Indices 1 2 3 4 5 6 
#
# 1 0.024541 -0.003463 -0.009510 0.000000 0.007995 0.000000
# 2 -0.003463 0.021500 -0.010089 0.000000 -0.004862 0.000000
# 3 -0.009510 -0.010089 0.020036 0.000000 -0.003868 0.000000
# 4 0.000000 0.000000 0.000000 0.033543 0.000000 -0.005123
# 5 0.007995 -0.004862 -0.003868 0.000000 0.074147 0.000000
# 6 0.000000 0.000000 0.000000 -0.005123 0.000000 0.062381
#
#
# Mechanical properties :
#
#
# Convention : Reuss Voigt Hill
#
# Bulk Modulus (GPa) = 50.12054 55.94484 53.03269
# Shear Modulus (GPa) = 17.30572 19.50822 18.40697
#
# Velocity S-wave (km/s) = 3.36146 3.56896 3.46676
# Velocity P-wave (km/s) = 6.91310 7.31514 7.11696
#
# Compressibility (1/GPa) = 0.01995190
#
# Stress axis : x y z
#
# Youngs Moduli (GPa) = 40.74855 46.51206 49.91035
#
# Poissons Ratio (x) = 0.16108 0.47464
# Poissons Ratio (y) = 0.14112 0.50356
# Poissons Ratio (z) = 0.38751 0.46927
#
# Static dielectric constant tensor:
#      x y z
#    x 2.586950 0.000000 0.015660 
#    y 0.000000 2.988000 0.000000 
#    z 0.015660 0.000000 3.217350 
# 
# 
# High freq. dielectric constant tensor:
#      x y z
#    x 1.530050 0.000000 0.005400 
#    y 0.000000 1.597770 0.000000 
#    z 0.005400 0.000000 1.587380 
# 
# From -- ./inp_files/287548.got.cif
#   From: 2010.06.25/outbox.cif.g09.slc.cpg/sg12_144_cif.got.tgz:287548.got - 2010.06.28 00:19:55.
