data_PCOD8079524
_publ_section_title
;
Structure prediction by ZEFSAII (Michael W. Deem and Ramdas Pophale) SiO2 
 PCOD8079524
Probable space group: C 2/M
;
_chemical_formula_sum "Si O2"
_cell_formula_units_Z 52
_cell_length_a 16.265342
_cell_length_b 13.650038
_cell_length_c 13.846239
_cell_angle_alpha 90.000000
_cell_angle_beta 114.271707
_cell_angle_gamma 90.000000
_cell_volume 2802.439440
_symmetry_space_group_name_H-M "C 2/M"
_symmetry_group_IT_number 12
_symmetry_cell_setting 'monoclinic'
loop_
_space_group_symop_operation_xyz
x,y,z
-x,y,-z
-x,-y,-z
x,-y,z
1/2+x,1/2+y,z
1/2-x,1/2+y,-z
1/2-x,1/2-y,-z
1/2+x,1/2-y,z
loop_
_atom_site_type_symbol
_atom_site_label
_atom_site_fract_x
_atom_site_fract_y
_atom_site_fract_z
Si Si1 0.305467 0.801055 0.700397
Si Si2 0.706440 0.892264 0.668092
Si Si3 0.597424 0.817342 0.445295
Si Si4 0.133815 0.106606 0.715480
Si Si5 0.581077 0.186579 0.757983
Si Si6 0.500000 0.650432 0.500000
Si Si7 0.477990 0.885924 0.878995
O O1 0.286017 0.685338 0.692512
O O2 0.324047 0.822355 0.596872
O O3 0.223400 0.865725 0.699737
O O4 0.391581 0.822401 0.808319
O O5 0.629645 0.887676 0.547506
O O6 0.664287 0.871712 0.753171
O O7 0.749698 0.000000 0.688922
O O8 0.503936 0.845870 0.348843
O O9 0.580082 0.713336 0.488121
O O10 0.103199 0.196163 0.770246
O O11 0.051618 0.085532 0.602698
O O12 0.149159 0.000000 0.775547
O O13 0.564056 0.151009 0.858751
O O14 0.458768 0.000000 0.849794
O O15 0.500000 0.865119 0.000000
#
# Coordination Sequence:
#
# PCOD8079524 Si02
#       7
#     8   8   8   8   8   4   8
#     4  10  21  35  52  77 113 137 177 230 263 305
#     4  11  20  31  50  77 111 147 176 206 257 320
#     4  10  17  33  48  72 111 147 180 216 254 300
#     4  10  19  32  51  75 108 150 183 210 255 308
#     4   9  19  35  54  77 110 137 176 227 261 308
#     4  10  17  32  47  70 106 150 191 218 239 300
#     4  10  21  39  63  83  97 128 176 225 278 320
#
# _framework density 18.555263
#
# number of rings (size 3 to 8) (size 9 to 14) (size 15 to 20)
#    0.000    2.000    4.615    1.615    0.000    4.308 
#    0.000   10.000    0.000    3.692    0.000    0.000 
#    0.000    0.000    0.000    0.000    0.000    0.000 
#
# Total GULP energy -322138.097540 kJ/mol
# GULP energy per Si atom -12389.926828 kJ/mol
# Density = 1.851303 g / cm^3
# Si number density = 18.555263 Si / 1000 Ang^3
#
#
#
# Elastic Constant Matrix: (Units=GPa)
#
#
# Indices 1 2 3 4 5 6 
#
# 1 85.2600 26.8378 32.0281 0.0000 -16.4010 0.0000
# 2 26.8378 124.5065 32.9282 0.0000 -5.4357 0.0000
# 3 32.0281 32.9282 62.7607 0.0000 -18.7100 0.0000
# 4 0.0000 0.0000 0.0000 15.9311 0.0000 -4.6389
# 5 -16.4010 -5.4357 -18.7100 0.0000 25.4082 0.0000
# 6 0.0000 0.0000 0.0000 -4.6389 0.0000 3.6444
#
#
#
# Elastic Compliance Matrix: (Units=1/GPa)
#
#
# Indices 1 2 3 4 5 6 
#
# 1 0.015316 -0.001664 -0.005255 0.000000 0.005660 0.000000
# 2 -0.001664 0.009592 -0.004986 0.000000 -0.002694 0.000000
# 3 -0.005255 -0.004986 0.025500 0.000000 0.014319 0.000000
# 4 0.000000 0.000000 0.000000 0.099739 0.000000 0.126957
# 5 0.005660 -0.002694 0.014319 0.000000 0.052979 0.000000
# 6 0.000000 0.000000 0.000000 0.126957 0.000000 0.435996
#
#
# Mechanical properties :
#
#
# Convention : Reuss Voigt Hill
#
# Bulk Modulus (GPa) = 37.59977 50.67949 44.13963
# Shear Modulus (GPa) = 7.44271 21.04560 14.24416
#
# Velocity S-wave (km/s) = 2.00495 3.37146 2.77368
# Velocity P-wave (km/s) = 5.06630 6.52132 5.83931
#
# Compressibility (1/GPa) = 0.02659590
#
# Stress axis : x y z
#
# Youngs Moduli (GPa) = 65.29231 104.25867 39.21554
#
# Poissons Ratio (x) = 0.17353 0.20609
# Poissons Ratio (y) = 0.10867 0.19553
# Poissons Ratio (z) = 0.34313 0.51984
#
# Static dielectric constant tensor:
#      x y z
#    x 3.653720 0.000000 -0.082820 
#    y 0.000000 3.392360 0.000000 
#    z -0.082820 0.000000 3.137280 
# 
# 
# High freq. dielectric constant tensor:
#      x y z
#    x 1.726380 0.000000 -0.004260 
#    y 0.000000 1.716990 0.000000 
#    z -0.004260 0.000000 1.680890 
# 
# From -- ./inp_files/214937.got.cif
#   From: 2010.06.25/outbox.cif.g09.slc.cpg/sg12_108_cif.got.tgz:214937.got - 2010.06.28 00:19:55.
