data_PCOD8079752
_publ_section_title
;
Structure prediction by ZEFSAII (Michael W. Deem and Ramdas Pophale) SiO2 
 PCOD8079752
Probable space group: C 2/M
;
_chemical_formula_sum "Si O2"
_cell_formula_units_Z 40
_cell_length_a 13.592243
_cell_length_b 20.688120
_cell_length_c 9.203099
_cell_angle_alpha 90.000000
_cell_angle_beta 48.534800
_cell_angle_gamma 90.000000
_cell_volume 1939.258138
_symmetry_space_group_name_H-M "C 2/M"
_symmetry_group_IT_number 12
_symmetry_cell_setting 'monoclinic'
loop_
_space_group_symop_operation_xyz
x,y,z
-x,y,-z
-x,-y,-z
x,-y,z
1/2+x,1/2+y,z
1/2-x,1/2+y,-z
1/2-x,1/2-y,-z
1/2+x,1/2-y,z
loop_
_atom_site_type_symbol
_atom_site_label
_atom_site_fract_x
_atom_site_fract_y
_atom_site_fract_z
Si Si1 0.143474 0.297701 0.532704
Si Si2 0.631726 0.612836 0.301654
Si Si3 0.858428 0.745068 0.770093
Si Si4 0.495016 0.574302 0.846423
Si Si5 0.771269 0.572775 0.424788
O O1 0.250000 0.250000 0.500000
O O2 0.171014 0.305694 0.331707
O O3 0.136123 0.370163 0.607375
O O4 0.999068 0.268535 0.705870
O O5 0.500000 0.582465 0.500000
O O6 0.639521 0.688731 0.323213
O O7 0.625972 0.601519 0.132980
O O8 0.753484 0.578794 0.266278
O O9 0.750000 0.750000 0.000000
O O10 0.463037 0.500000 0.900089
O O11 0.632091 0.587277 0.634866
O O12 0.500000 0.608558 0.000000
O O13 0.823503 0.500000 0.410234
#
# Coordination Sequence:
#
# PCOD8079752 Si02
#       5
#     8   8   8   8   8
#     4  11  21  43  63  92 126 158 212 263 303 378
#     4  10  17  36  55  82 118 156 207 249 308 359
#     4  11  24  39  61  91 119 162 209 261 314 363
#     4   9  18  30  50  85 120 154 201 253 304 364
#     4  10  20  35  60  86 121 168 203 249 320 375
#
# _framework density 20.626445
#
# number of rings (size 3 to 8) (size 9 to 14) (size 15 to 20)
#    0.000    1.800    4.000    1.800    2.800    3.200 
#    0.000    2.000    0.000    3.600    0.000    0.000 
#    0.000    0.000    0.000    0.000    0.000    0.000 
#
# Total GULP energy -247797.668991 kJ/mol
# GULP energy per Si atom -12389.883450 kJ/mol
# Density = 2.057950 g / cm^3
# Si number density = 20.626445 Si / 1000 Ang^3
#
#
#
# Elastic Constant Matrix: (Units=GPa)
#
#
# Indices 1 2 3 4 5 6 
#
# 1 123.1963 41.3138 55.3428 0.0000 17.5824 0.0000
# 2 41.3138 101.4412 11.0101 0.0000 -2.5981 0.0000
# 3 55.3428 11.0101 102.3162 0.0000 13.4733 0.0000
# 4 0.0000 0.0000 0.0000 15.0835 0.0000 8.1167
# 5 17.5824 -2.5981 13.4733 0.0000 36.9683 0.0000
# 6 0.0000 0.0000 0.0000 8.1167 0.0000 36.5795
#
#
#
# Elastic Compliance Matrix: (Units=1/GPa)
#
#
# Indices 1 2 3 4 5 6 
#
# 1 0.013009 -0.004764 -0.005951 0.000000 -0.004353 0.000000
# 2 -0.004764 0.011765 0.000949 0.000000 0.002747 0.000000
# 3 -0.005951 0.000949 0.013139 0.000000 -0.001892 0.000000
# 4 0.000000 0.000000 0.000000 0.075287 0.000000 -0.016706
# 5 -0.004353 0.002747 -0.001892 0.000000 0.030003 0.000000
# 6 0.000000 0.000000 0.000000 -0.016706 0.000000 0.031045
#
#
# Mechanical properties :
#
#
# Convention : Reuss Voigt Hill
#
# Bulk Modulus (GPa) = 54.39875 60.25412 57.32643
# Shear Modulus (GPa) = 25.01153 32.34540 28.67846
#
# Velocity S-wave (km/s) = 3.48601 3.96429 3.73282
# Velocity P-wave (km/s) = 6.52944 7.08728 6.81407
#
# Compressibility (1/GPa) = 0.01838278
#
# Stress axis : x y z
#
# Youngs Moduli (GPa) = 76.86843 84.99462 76.10691
#
# Poissons Ratio (x) = 0.40490 0.45290
# Poissons Ratio (y) = 0.36619 -0.07223
# Poissons Ratio (z) = 0.45743 -0.08066
#
# Static dielectric constant tensor:
#      x y z
#    x 3.902200 0.000000 0.441070 
#    y 0.000000 3.710710 0.000000 
#    z 0.441070 0.000000 3.551530 
# 
# 
# High freq. dielectric constant tensor:
#      x y z
#    x 1.804070 0.000000 0.035460 
#    y 0.000000 1.803640 0.000000 
#    z 0.035460 0.000000 1.774380 
# 
# From -- ./inp_files/50397.got.cif
#   From: 2010.06.25/outbox.cif.g09.slc.cpg/sg12_26_cif.got.tgz:50397.got - 2010.06.28 00:19:55.
