data_PCOD8079791
_publ_section_title
;
Structure prediction by ZEFSAII (Michael W. Deem and Ramdas Pophale) SiO2 
 PCOD8079791
Probable space group: C 2/M
;
_chemical_formula_sum "Si O2"
_cell_formula_units_Z 40
_cell_length_a 14.045765
_cell_length_b 22.553992
_cell_length_c 7.124534
_cell_angle_alpha 90.000000
_cell_angle_beta 60.481711
_cell_angle_gamma 90.000000
_cell_volume 1964.009562
_symmetry_space_group_name_H-M "C 2/M"
_symmetry_group_IT_number 12
_symmetry_cell_setting 'monoclinic'
loop_
_space_group_symop_operation_xyz
x,y,z
-x,y,-z
-x,-y,-z
x,-y,z
1/2+x,1/2+y,z
1/2-x,1/2+y,-z
1/2-x,1/2-y,-z
1/2+x,1/2-y,z
loop_
_atom_site_type_symbol
_atom_site_label
_atom_site_fract_x
_atom_site_fract_y
_atom_site_fract_z
Si Si1 0.340212 0.234486 0.262185
Si Si2 0.622156 0.635129 0.879065
Si Si3 0.279903 0.130730 0.059648
Si Si4 0.777452 0.431480 0.448892
Si Si5 0.986195 0.630843 0.224244
O O1 0.250000 0.250000 0.500000
O O2 0.386661 0.294362 0.131180
O O3 0.284192 0.195276 0.152984
O O4 0.439564 0.198347 0.265006
O O5 0.685443 0.606006 0.644302
O O6 0.500000 0.608453 0.000000
O O7 0.677556 0.620703 0.024594
O O8 0.270847 0.081659 0.232692
O O9 0.389699 0.126277 0.817825
O O10 0.758184 0.500000 0.509266
O O11 0.897602 0.411701 0.411027
O O12 0.000000 0.607343 0.000000
#
# Coordination Sequence:
#
# PCOD8079791 Si02
#       5
#     8   8   8   8   8
#     4  10  17  38  62  89 123 151 187 240 297 352
#     4  12  24  39  60  86 122 160 199 235 289 353
#     4  10  22  39  62  90 118 155 191 243 302 348
#     4  10  22  42  62  85 118 151 198 251 289 345
#     4   8  17  36  62  87 118 147 187 240 302 345
#
# _framework density 20.366499000000001
#
# number of rings (size 3 to 8) (size 9 to 14) (size 15 to 20)
#    0.000    2.400    4.000    2.400    0.000    6.400 
#    0.000    4.000    0.000    0.000    0.000    0.000 
#    0.000    0.000    0.000    0.000    0.000    0.000 
#
# Total GULP energy -247788.460652 kJ/mol
# GULP energy per Si atom -12389.423033 kJ/mol
# Density = 2.032014 g / cm^3
# Si number density = 20.366499 Si / 1000 Ang^3
#
#
#
# Elastic Constant Matrix: (Units=GPa)
#
#
# Indices 1 2 3 4 5 6 
#
# 1 129.1809 22.0475 60.3236 0.0000 -21.3423 0.0000
# 2 22.0475 105.6400 20.2590 0.0000 -3.1051 0.0000
# 3 60.3236 20.2590 99.2132 0.0000 -27.1651 0.0000
# 4 0.0000 0.0000 0.0000 16.7348 0.0000 1.5008
# 5 -21.3423 -3.1051 -27.1651 0.0000 31.7838 0.0000
# 6 0.0000 0.0000 0.0000 1.5008 0.0000 3.9238
#
#
#
# Elastic Compliance Matrix: (Units=1/GPa)
#
#
# Indices 1 2 3 4 5 6 
#
# 1 0.011048 -0.001114 -0.005860 0.000000 0.002301 0.000000
# 2 -0.001114 0.009988 -0.001697 0.000000 -0.001223 0.000000
# 3 -0.005860 -0.001697 0.016796 0.000000 0.010255 0.000000
# 4 0.000000 0.000000 0.000000 0.061878 0.000000 -0.023669
# 5 0.002301 -0.001223 0.010255 0.000000 0.041654 0.000000
# 6 0.000000 0.000000 0.000000 -0.023669 0.000000 0.263912
#
#
# Mechanical properties :
#
#
# Convention : Reuss Voigt Hill
#
# Bulk Modulus (GPa) = 48.80196 59.92159 54.36178
# Shear Modulus (GPa) = 11.64287 25.91541 18.77914
#
# Velocity S-wave (km/s) = 2.39355 3.57102 3.03984
# Velocity P-wave (km/s) = 5.62607 6.81824 6.25064
#
# Compressibility (1/GPa) = 0.02049098
#
# Stress axis : x y z
#
# Youngs Moduli (GPa) = 90.51628 100.11871 59.53628
#
# Poissons Ratio (x) = 0.11157 0.34886
# Poissons Ratio (y) = 0.10087 0.10102
# Poissons Ratio (z) = 0.53039 0.16988
#
# Static dielectric constant tensor:
#      x y z
#    x 3.712380 0.000000 -0.451410 
#    y 0.000000 3.591990 0.000000 
#    z -0.451410 0.000000 3.925870 
# 
# 
# High freq. dielectric constant tensor:
#      x y z
#    x 1.773890 0.000000 -0.018590 
#    y 0.000000 1.777680 0.000000 
#    z -0.018590 0.000000 1.809770 
# 
# From -- ./inp_files/64626.got.cif
#   From: 2010.06.25/outbox.cif.g09.slc.cpg/sg12_33_cif.got.tgz:64626.got - 2010.06.28 00:19:55.
