data_PCOD8079562
_publ_section_title
;
Structure prediction by ZEFSAII (Michael W. Deem and Ramdas Pophale) SiO2 
 PCOD8079562
Probable space group: C 2/M
;
_chemical_formula_sum "Si O2"
_cell_formula_units_Z 44
_cell_length_a 9.265284
_cell_length_b 26.921367
_cell_length_c 15.106424
_cell_angle_alpha 90.000000
_cell_angle_beta 146.707588
_cell_angle_gamma 90.000000
_cell_volume 2068.332407
_symmetry_space_group_name_H-M "C 2/M"
_symmetry_group_IT_number 12
_symmetry_cell_setting 'monoclinic'
loop_
_space_group_symop_operation_xyz
x,y,z
-x,y,-z
-x,-y,-z
x,-y,z
1/2+x,1/2+y,z
1/2-x,1/2+y,-z
1/2-x,1/2-y,-z
1/2+x,1/2-y,z
loop_
_atom_site_type_symbol
_atom_site_label
_atom_site_fract_x
_atom_site_fract_y
_atom_site_fract_z
Si Si1 0.783290 0.942291 0.955159
Si Si2 0.008653 0.282871 0.649599
Si Si3 0.741775 0.799049 0.309322
Si Si4 0.717544 0.592043 0.687072
Si Si5 0.028770 0.943574 0.266797
Si Si6 0.500000 0.866940 0.500000
O O1 0.851808 0.930284 0.091656
O O2 0.774442 0.000000 0.930706
O O3 0.494622 0.922066 0.785283
O O4 0.000000 0.917923 0.000000
O O5 0.750000 0.250000 0.500000
O O6 0.010235 0.298594 0.753874
O O7 0.022955 0.332489 0.598067
O O8 0.262554 0.247596 0.760801
O O9 0.761729 0.851095 0.268318
O O10 0.000000 0.791635 0.500000
O O11 0.500000 0.585070 0.500000
O O12 0.651350 0.558528 0.737900
O O13 0.254641 0.902866 0.388928
O O14 0.140688 0.000000 0.315792
#
# Coordination Sequence:
#
# PCOD8079562 Si02
#       6
#     8   8   8   8   8   4
#     4  10  24  45  64  88 129 174 211 262 332 386
#     4  10  17  32  53  87 125 162 203 258 315 374
#     4   9  18  31  54  90 121 157 202 256 310 374
#     4  11  23  40  67 100 126 165 219 267 317 380
#     4  11  25  41  62  92 131 173 216 264 321 380
#     4  12  21  34  64  94 128 166 219 264 312 376
#
# _framework density 21.273175999999999
#
# number of rings (size 3 to 8) (size 9 to 14) (size 15 to 20)
#    0.000    1.636    2.727    4.636    5.091    2.909 
#    0.000    0.000    0.000    1.091    4.727    0.000 
#    0.000    0.000    0.000    0.000    0.000    0.000 
#
# Total GULP energy -272681.656565 kJ/mol
# GULP energy per Si atom -12394.620753 kJ/mol
# Density = 2.122476 g / cm^3
# Si number density = 21.273176 Si / 1000 Ang^3
#
#
#
# Elastic Constant Matrix: (Units=GPa)
#
#
# Indices 1 2 3 4 5 6 
#
# 1 151.1617 50.7947 48.9572 0.0000 5.7742 0.0000
# 2 50.7947 100.1511 36.8357 0.0000 -0.1012 0.0000
# 3 48.9572 36.8357 75.5437 0.0000 10.4445 0.0000
# 4 0.0000 0.0000 0.0000 -4.4300 0.0000 -7.4880
# 5 5.7742 -0.1012 10.4445 0.0000 32.0562 0.0000
# 6 0.0000 0.0000 0.0000 -7.4880 0.0000 38.9529
#
#
#
# Elastic Compliance Matrix: (Units=1/GPa)
#
#
# Indices 1 2 3 4 5 6 
#
# 1 0.009042 -0.002975 -0.004380 0.000000 -0.000211 0.000000
# 2 -0.002975 0.013278 -0.004844 0.000000 0.002156 0.000000
# 3 -0.004380 -0.004844 0.019196 0.000000 -0.005481 0.000000
# 4 0.000000 0.000000 0.000000 -0.170374 0.000000 -0.032751
# 5 -0.000211 0.002156 -0.005481 0.000000 0.033026 0.000000
# 6 0.000000 0.000000 0.000000 -0.032751 0.000000 0.019376
#
#
# Mechanical properties :
#
#
# Convention : Reuss Voigt Hill
#
# Bulk Modulus (GPa) = 58.42279 66.67021 62.54650
# Shear Modulus (GPa) = -107.86683 26.00041 -40.93321
#
# Velocity S-wave (km/s) = -7.12851 3.49981 -4.39130
# Velocity P-wave (km/s) = 6.34283 6.90939 1.93755
#
# Compressibility (1/GPa) = 0.01711661
#
# Stress axis : x y z
#
# Youngs Moduli (GPa) = 110.59869 75.31373 52.09518
#
# Poissons Ratio (x) = 0.22407 0.22816
# Poissons Ratio (y) = 0.32904 0.25237
# Poissons Ratio (z) = 0.48439 0.36485
#
# Static dielectric constant tensor:
#      x y z
#    x 5.217920 0.000000 -0.049980 
#    y 0.000000 4.379570 0.000000 
#    z -0.049980 0.000000 3.374580 
# 
# 
# High freq. dielectric constant tensor:
#      x y z
#    x 1.859040 0.000000 0.001240 
#    y 0.000000 1.847710 0.000000 
#    z 0.001240 0.000000 1.776060 
# 
# From -- ./inp_files/200712.got.cif
#   From: 2010.06.25/outbox.cif.g09.slc.cpg/sg12_101_cif.got.tgz:200712.got - 2010.06.28 00:19:55.
