data_PCOD8079534
_publ_section_title
;
Structure prediction by ZEFSAII (Michael W. Deem and Ramdas Pophale) SiO2 
 PCOD8079534
Probable space group: C 2/M
;
_chemical_formula_sum "Si O2"
_cell_formula_units_Z 56
_cell_length_a 14.698648
_cell_length_b 24.579755
_cell_length_c 8.638032
_cell_angle_alpha 90.000000
_cell_angle_beta 112.481281
_cell_angle_gamma 90.000000
_cell_volume 2883.658574
_symmetry_space_group_name_H-M "C 2/M"
_symmetry_group_IT_number 12
_symmetry_cell_setting 'monoclinic'
loop_
_space_group_symop_operation_xyz
x,y,z
-x,y,-z
-x,-y,-z
x,-y,z
1/2+x,1/2+y,z
1/2-x,1/2+y,-z
1/2-x,1/2-y,-z
1/2+x,1/2-y,z
loop_
_atom_site_type_symbol
_atom_site_label
_atom_site_fract_x
_atom_site_fract_y
_atom_site_fract_z
Si Si1 0.386740 0.937255 0.887039
Si Si2 0.730740 0.848740 0.006129
Si Si3 0.056131 0.805812 0.389464
Si Si4 0.288414 0.341345 0.726053
Si Si5 0.228654 0.778816 0.703984
Si Si6 0.968952 0.707526 0.160169
Si Si7 0.133419 0.359851 0.382237
O O1 0.367366 0.919598 0.696791
O O2 0.359670 0.000000 0.890551
O O3 0.500000 0.924784 0.000000
O O4 0.315716 0.902802 0.951477
O O5 0.794423 0.869408 0.898706
O O6 0.645846 0.806151 0.896609
O O7 0.803143 0.813067 0.163407
O O8 0.113766 0.850026 0.317889
O O9 0.140362 0.768590 0.525591
O O10 0.000000 0.834190 0.500000
O O11 0.985441 0.767966 0.240643
O O12 0.282686 0.277758 0.765971
O O13 0.188793 0.364217 0.581868
O O14 0.311601 0.817336 0.689902
O O15 0.022764 0.663961 0.308901
O O16 0.000000 0.703133 0.000000
#
# Coordination Sequence:
#
# PCOD8079534 Si02
#       7
#     8   8   8   8   8   8   8
#     4  10  19  35  54  73 103 140 179 220 257 305
#     4  11  21  32  53  78 104 143 181 214 254 311
#     4  11  22  33  47  69 103 144 178 215 256 307
#     4  11  20  32  50  72 103 135 174 224 254 304
#     4  10  18  34  48  71 107 138 175 213 253 309
#     4  12  18  31  48  74 101 139 188 209 239 304
#     4  10  17  32  50  71 105 134 182 210 248 305
#
# _framework density 19.419775000000001
#
# number of rings (size 3 to 8) (size 9 to 14) (size 15 to 20)
#    0.000    1.286    7.143    2.143    0.000    1.143 
#    0.000    0.714    0.000    1.714    0.000    0.000 
#    0.000   67.429    0.000    0.000    0.000    5.714 
#
# Total GULP energy -346901.093497 kJ/mol
# GULP energy per Si atom -12389.324768 kJ/mol
# Density = 1.937558 g / cm^3
# Si number density = 19.419775 Si / 1000 Ang^3
#
#
#
# Elastic Constant Matrix: (Units=GPa)
#
#
# Indices 1 2 3 4 5 6 
#
# 1 66.7227 15.2310 13.7513 0.0000 -21.0400 0.0000
# 2 15.2310 65.0473 34.0836 0.0000 1.9763 0.0000
# 3 13.7513 34.0836 81.9551 0.0000 -16.9224 0.0000
# 4 0.0000 0.0000 0.0000 12.2714 0.0000 6.1253
# 5 -21.0400 1.9763 -16.9224 0.0000 34.2343 0.0000
# 6 0.0000 0.0000 0.0000 6.1253 0.0000 11.4544
#
#
#
# Elastic Compliance Matrix: (Units=1/GPa)
#
#
# Indices 1 2 3 4 5 6 
#
# 1 0.020380 -0.006275 0.002061 0.000000 0.013907 0.000000
# 2 -0.006275 0.022666 -0.010513 0.000000 -0.010362 0.000000
# 3 0.002061 -0.010513 0.018504 0.000000 0.011020 0.000000
# 4 0.000000 0.000000 0.000000 0.111162 0.000000 -0.059445
# 5 0.013907 -0.010362 0.011020 0.000000 0.043803 0.000000
# 6 0.000000 0.000000 0.000000 -0.059445 0.000000 0.119092
#
#
# Mechanical properties :
#
#
# Convention : Reuss Voigt Hill
#
# Bulk Modulus (GPa) = 31.15541 37.76186 34.45864
# Shear Modulus (GPa) = 13.30641 21.63596 17.47118
#
# Velocity S-wave (km/s) = 2.62047 3.34146 3.00269
# Velocity P-wave (km/s) = 5.02332 5.86297 5.45931
#
# Compressibility (1/GPa) = 0.03209715
#
# Stress axis : x y z
#
# Youngs Moduli (GPa) = 49.06739 44.11865 54.04343
#
# Poissons Ratio (x) = 0.27683 -0.11141
# Poissons Ratio (y) = 0.30788 0.56816
# Poissons Ratio (z) = -0.10115 0.46382
#
# Static dielectric constant tensor:
#      x y z
#    x 3.808730 0.000000 -0.046270 
#    y 0.000000 3.009780 0.000000 
#    z -0.046270 0.000000 4.043430 
# 
# 
# High freq. dielectric constant tensor:
#      x y z
#    x 1.753730 0.000000 -0.006750 
#    y 0.000000 1.679610 0.000000 
#    z -0.006750 0.000000 1.773230 
# 
# From -- ./inp_files/66484.got.cif
#   From: 2010.06.25/outbox.cif.g09.slc.cpg/sg12_34_cif.got.tgz:66484.got - 2010.06.28 00:19:55.
