data_PCOD8079858
_publ_section_title
;
Structure prediction by ZEFSAII (Michael W. Deem and Ramdas Pophale) SiO2 
 PCOD8079858
Probable space group: C 2/M
;
_chemical_formula_sum "Si O2"
_cell_formula_units_Z 40
_cell_length_a 20.891322
_cell_length_b 9.319179
_cell_length_c 14.473416
_cell_angle_alpha 90.000000
_cell_angle_beta 57.888260
_cell_angle_gamma 90.000000
_cell_volume 2386.737778
_symmetry_space_group_name_H-M "C 2/M"
_symmetry_group_IT_number 12
_symmetry_cell_setting 'monoclinic'
loop_
_space_group_symop_operation_xyz
x,y,z
-x,y,-z
-x,-y,-z
x,-y,z
1/2+x,1/2+y,z
1/2-x,1/2+y,-z
1/2-x,1/2-y,-z
1/2+x,1/2-y,z
loop_
_atom_site_type_symbol
_atom_site_label
_atom_site_fract_x
_atom_site_fract_y
_atom_site_fract_z
Si Si1 0.217175 0.665632 0.439227
Si Si2 0.049075 0.330958 0.545068
Si Si3 0.356478 0.334752 0.210127
Si Si4 0.420893 0.158845 0.007662
Si Si5 0.019970 0.331814 0.771893
O O1 0.211026 0.500000 0.474231
O O2 0.250000 0.750000 0.500000
O O3 0.134757 0.728649 0.476811
O O4 0.270240 0.683378 0.308899
O O5 0.052159 0.500000 0.527866
O O6 0.009313 0.291585 0.672853
O O7 0.000000 0.260234 0.500000
O O8 0.381064 0.500000 0.186396
O O9 0.363654 0.267969 0.101557
O O10 0.409445 0.255673 0.242933
O O11 0.384411 0.000000 0.037117
O O12 0.500000 0.158599 0.000000
O O13 0.441880 0.205987 0.886349
O O14 0.039092 0.500000 0.770403
#
# Coordination Sequence:
#
# PCOD8079858 Si02
#       5
#     8   8   8   8   8
#     4  10  19  30  47  70  94 120 152 189 232 275
#     4   9  17  30  49  70  91 119 156 195 229 265
#     4  10  18  26  41  68  95 118 146 183 230 276
#     4   8  15  26  41  63  89 118 151 186 223 264
#     4   9  16  28  46  66  89 118 153 189 224 265
#
# _framework density 16.759277000000001
#
# number of rings (size 3 to 8) (size 9 to 14) (size 15 to 20)
#    0.000    2.800    2.000    1.800    0.000    4.400 
#    0.000    0.000    0.000    3.600    0.000    0.000 
#    0.000    0.000    0.000    0.000    0.000    2.000 
#
# Total GULP energy -247877.178341 kJ/mol
# GULP energy per Si atom -12393.858917 kJ/mol
# Density = 1.672113 g / cm^3
# Si number density = 16.759277 Si / 1000 Ang^3
#
#
#
# Elastic Constant Matrix: (Units=GPa)
#
#
# Indices 1 2 3 4 5 6 
#
# 1 92.1102 28.8969 62.4268 0.0000 5.4847 0.0000
# 2 28.8969 58.1413 48.5712 0.0000 -0.6626 0.0000
# 3 62.4268 48.5712 156.8639 0.0000 6.3129 0.0000
# 4 0.0000 0.0000 0.0000 24.5515 0.0000 -1.9225
# 5 5.4847 -0.6626 6.3129 0.0000 18.4887 0.0000
# 6 0.0000 0.0000 0.0000 -1.9225 0.0000 11.4481
#
#
#
# Elastic Compliance Matrix: (Units=1/GPa)
#
#
# Indices 1 2 3 4 5 6 
#
# 1 0.015517 -0.003630 -0.004929 0.000000 -0.003050 0.000000
# 2 -0.003630 0.024254 -0.006229 0.000000 0.004073 0.000000
# 3 -0.004929 -0.006229 0.010358 0.000000 -0.002298 0.000000
# 4 0.000000 0.000000 0.000000 0.041273 0.000000 0.006931
# 5 -0.003050 0.004073 -0.002298 0.000000 0.055923 0.000000
# 6 0.000000 0.000000 0.000000 0.006931 0.000000 0.088515
#
#
# Mechanical properties :
#
#
# Convention : Reuss Voigt Hill
#
# Bulk Modulus (GPa) = 48.65358 65.21168 56.93263
# Shear Modulus (GPa) = 18.36437 22.04569 20.20503
#
# Velocity S-wave (km/s) = 3.31384 3.63082 3.47595
# Velocity P-wave (km/s) = 6.61331 7.52147 7.08196
#
# Compressibility (1/GPa) = 0.02055347
#
# Stress axis : x y z
#
# Youngs Moduli (GPa) = 64.44431 41.23058 96.54579
#
# Poissons Ratio (x) = 0.14965 0.47585
# Poissons Ratio (y) = 0.23390 0.60142
# Poissons Ratio (z) = 0.31763 0.25684
#
# Static dielectric constant tensor:
#      x y z
#    x 2.922090 0.000000 0.002960 
#    y 0.000000 3.029760 0.000000 
#    z 0.002960 0.000000 3.746180 
# 
# 
# High freq. dielectric constant tensor:
#      x y z
#    x 1.591430 0.000000 -0.003800 
#    y 0.000000 1.626690 0.000000 
#    z -0.003800 0.000000 1.670010 
# 
# From -- ./inp_files/162405.got.cif
#   From: 2010.06.25/outbox.cif.g09.slc.cpg/sg12_82_cif.got.tgz:162405.got - 2010.06.28 00:19:55.
