data_PCOD8079707
_publ_section_title
;
Structure prediction by ZEFSAII (Michael W. Deem and Ramdas Pophale) SiO2 
 PCOD8079707
Probable space group: C 2/M
;
_chemical_formula_sum "Si O2"
_cell_formula_units_Z 56
_cell_length_a 20.771142
_cell_length_b 18.294586
_cell_length_c 9.290016
_cell_angle_alpha 90.000000
_cell_angle_beta 119.659182
_cell_angle_gamma 90.000000
_cell_volume 3067.689037
_symmetry_space_group_name_H-M "C 2/M"
_symmetry_group_IT_number 12
_symmetry_cell_setting 'monoclinic'
loop_
_space_group_symop_operation_xyz
x,y,z
-x,y,-z
-x,-y,-z
x,-y,z
1/2+x,1/2+y,z
1/2-x,1/2+y,-z
1/2-x,1/2-y,-z
1/2+x,1/2-y,z
loop_
_atom_site_type_symbol
_atom_site_label
_atom_site_fract_x
_atom_site_fract_y
_atom_site_fract_z
Si Si1 0.301638 0.082824 0.604804
Si Si2 0.938034 0.311777 0.244297
Si Si3 0.024766 0.915711 0.186130
Si Si4 0.604413 0.821310 0.485948
Si Si5 0.077674 0.417725 0.016964
Si Si6 0.065602 0.845333 0.681903
Si Si7 0.149677 0.157600 0.505673
O O1 0.344055 0.113949 0.513881
O O2 0.231229 0.132436 0.559157
O O3 0.276526 0.000000 0.544233
O O4 0.356289 0.086311 0.798434
O O5 0.910127 0.341721 0.365420
O O6 0.899060 0.360987 0.081047
O O7 0.912785 0.226873 0.203190
O O8 0.026156 0.318685 0.317405
O O9 0.094679 0.869703 0.318796
O O10 0.958220 0.906821 0.229521
O O11 0.047647 0.000000 0.203892
O O12 0.000000 0.888118 0.000000
O O13 0.647002 0.744957 0.510791
O O14 0.069941 0.500000 0.945645
O O15 0.000000 0.393493 0.000000
O O16 0.128942 0.874642 0.642761
O O17 0.000000 0.819350 0.500000
#
# Coordination Sequence:
#
# PCOD8079707 Si02
#       7
#     8   8   8   8   8   8   8
#     4  11  23  37  54  80 112 150 186 221 273 328
#     4  10  17  34  58  80 107 135 178 238 274 312
#     4  10  20  33  53  84 112 139 183 228 269 323
#     4  10  19  35  57  82 108 139 182 229 275 329
#     4  10  21  35  52  78 110 145 188 227 266 321
#     4   9  17  34  56  81 106 140 182 222 267 328
#     4  10  20  38  57  78 111 147 182 225 270 327
#
# _framework density 18.254783
#
# number of rings (size 3 to 8) (size 9 to 14) (size 15 to 20)
#    0.000    2.000    5.714    0.857    0.000    5.429 
#    0.000    5.714    0.000    1.714    0.000    0.000 
#    0.000    0.000    0.000    0.000    0.000    0.000 
#
# Total GULP energy -347117.104400 kJ/mol
# GULP energy per Si atom -12397.039443 kJ/mol
# Density = 1.821323 g / cm^3
# Si number density = 18.254783 Si / 1000 Ang^3
#
#
#
# Elastic Constant Matrix: (Units=GPa)
#
#
# Indices 1 2 3 4 5 6 
#
# 1 107.0007 36.0817 32.9284 0.0000 -3.4636 0.0000
# 2 36.0817 81.8627 40.2272 0.0000 -9.5991 0.0000
# 3 32.9284 40.2272 72.4239 0.0000 -10.5898 0.0000
# 4 0.0000 0.0000 0.0000 28.8393 0.0000 -8.8488
# 5 -3.4636 -9.5991 -10.5898 0.0000 20.3166 0.0000
# 6 0.0000 0.0000 0.0000 -8.8488 0.0000 26.1216
#
#
#
# Elastic Compliance Matrix: (Units=1/GPa)
#
#
# Indices 1 2 3 4 5 6 
#
# 1 0.011576 -0.003557 -0.003513 0.000000 -0.001538 0.000000
# 2 -0.003557 0.018104 -0.007877 0.000000 0.003842 0.000000
# 3 -0.003513 -0.007877 0.020728 0.000000 0.006484 0.000000
# 4 0.000000 0.000000 0.000000 0.038697 0.000000 0.013109
# 5 -0.001538 0.003842 0.006484 0.000000 0.054153 0.000000
# 6 0.000000 0.000000 0.000000 0.013109 0.000000 0.042723
#
#
# Mechanical properties :
#
#
# Convention : Reuss Voigt Hill
#
# Bulk Modulus (GPa) = 48.74270 53.30687 51.02479
# Shear Modulus (GPa) = 22.45036 25.19218 23.82127
#
# Velocity S-wave (km/s) = 3.51070 3.71891 3.61630
# Velocity P-wave (km/s) = 6.57211 6.90691 6.74159
#
# Compressibility (1/GPa) = 0.02051589
#
# Stress axis : x y z
#
# Youngs Moduli (GPa) = 86.38378 55.23507 48.24385
#
# Poissons Ratio (x) = 0.19644 0.16947
# Poissons Ratio (y) = 0.30723 0.38003
# Poissons Ratio (z) = 0.30344 0.43510
#
# Static dielectric constant tensor:
#      x y z
#    x 3.448530 0.000000 -0.161660 
#    y 0.000000 3.362880 0.000000 
#    z -0.161660 0.000000 3.212010 
# 
# 
# High freq. dielectric constant tensor:
#      x y z
#    x 1.703490 0.000000 -0.016690 
#    y 0.000000 1.709160 0.000000 
#    z -0.016690 0.000000 1.687040 
# 
# From -- ./inp_files/88092.got.cif
#   From: 2010.06.25/outbox.cif.g09.slc.cpg/sg12_45_cif.got.tgz:88092.got - 2010.06.28 00:19:55.
