data_PCOD8079942
_publ_section_title
;
Structure prediction by ZEFSAII (Michael W. Deem and Ramdas Pophale) SiO2 
 PCOD8079942
Probable space group: C 2/M
;
_chemical_formula_sum "Si O2"
_cell_formula_units_Z 64
_cell_length_a 24.292409
_cell_length_b 9.476636
_cell_length_c 18.780458
_cell_angle_alpha 90.000000
_cell_angle_beta 78.905095
_cell_angle_gamma 90.000000
_cell_volume 4242.648873
_symmetry_space_group_name_H-M "C 2/M"
_symmetry_group_IT_number 12
_symmetry_cell_setting 'monoclinic'
loop_
_space_group_symop_operation_xyz
x,y,z
-x,y,-z
-x,-y,-z
x,-y,z
1/2+x,1/2+y,z
1/2-x,1/2+y,-z
1/2-x,1/2-y,-z
1/2+x,1/2-y,z
loop_
_atom_site_type_symbol
_atom_site_label
_atom_site_fract_x
_atom_site_fract_y
_atom_site_fract_z
Si Si1 0.647594 0.837711 0.731712
Si Si2 0.063313 0.844127 0.013881
Si Si3 0.951463 0.836567 0.313516
Si Si4 0.758130 0.660921 0.394443
Si Si5 0.169890 0.662682 0.485741
Si Si6 0.500927 0.339141 0.842542
Si Si7 0.544837 0.835598 0.549170
Si Si8 0.597200 0.838111 0.886826
O O1 0.604900 0.732296 0.703745
O O2 0.710371 0.806370 0.687818
O O3 0.648350 0.817987 0.817733
O O4 0.630697 0.000000 0.716511
O O5 0.058199 0.811417 0.100661
O O6 0.087596 0.000000 0.995635
O O7 0.105555 0.740455 0.960767
O O8 0.000000 0.829353 0.000000
O O9 0.972184 0.755620 0.378125
O O10 0.001953 0.823807 0.242386
O O11 0.938972 0.000000 0.334516
O O12 0.738524 0.500000 0.404295
O O13 0.802476 0.697781 0.445331
O O14 0.702177 0.753998 0.415212
O O15 0.174457 0.500000 0.464492
O O16 0.105526 0.711861 0.505039
O O17 0.520995 0.500000 0.856590
O O18 0.544082 0.223954 0.859541
O O19 0.500000 0.801947 0.500000
O O20 0.545269 0.000000 0.570583
O O21 0.586388 0.000000 0.907787
#
# Coordination Sequence:
#
# PCOD8079942 Si02
#       8
#     8   8   8   8   8   8   8   8
#     4   9  16  27  39  54  79 108 133 160 197 240
#     4   8  13  22  32  42  65  98 128 154 186 228
#     4  10  18  27  41  59  77  97 132 173 202 230
#     4   9  16  27  43  59  79 104 130 163 200 235
#     4   9  17  29  43  60  78  98 130 165 197 237
#     4   8  15  25  34  46  67  98 127 156 194 230
#     4  10  20  34  48  59  78 108 134 160 202 250
#     4   9  15  20  31  50  71  95 127 162 189 218
#
# _framework density 15.084916
#
# number of rings (size 3 to 8) (size 9 to 14) (size 15 to 20)
#    0.000    3.000    1.250    1.500    0.000    4.500 
#    0.000    0.000    0.000    0.000    0.000    0.000 
#    0.000    0.000    0.000    1.125    0.000   13.625 
#
# Total GULP energy -396446.941431 kJ/mol
# GULP energy per Si atom -12388.966920 kJ/mol
# Density = 1.505058 g / cm^3
# Si number density = 15.084916 Si / 1000 Ang^3
#
#
#
# Elastic Constant Matrix: (Units=GPa)
#
#
# Indices 1 2 3 4 5 6 
#
# 1 49.9801 29.6929 46.1808 0.0000 -13.0221 0.0000
# 2 29.6929 81.7613 62.9416 0.0000 -17.5169 0.0000
# 3 46.1808 62.9416 120.0005 0.0000 -34.1942 0.0000
# 4 0.0000 0.0000 0.0000 25.5883 0.0000 -6.9485
# 5 -13.0221 -17.5169 -34.1942 0.0000 21.6027 0.0000
# 6 0.0000 0.0000 0.0000 -6.9485 0.0000 14.1761
#
#
#
# Elastic Compliance Matrix: (Units=1/GPa)
#
#
# Indices 1 2 3 4 5 6 
#
# 1 0.031652 -0.003550 -0.010388 0.000000 -0.000241 0.000000
# 2 -0.003550 0.020918 -0.009804 0.000000 -0.000697 0.000000
# 3 -0.010388 -0.009804 0.024453 0.000000 0.024494 0.000000
# 4 0.000000 0.000000 0.000000 0.045081 0.000000 0.022096
# 5 -0.000241 -0.000697 0.024494 0.000000 0.084351 0.000000
# 6 0.000000 0.000000 0.000000 0.022096 0.000000 0.081372
#
#
# Mechanical properties :
#
#
# Convention : Reuss Voigt Hill
#
# Bulk Modulus (GPa) = 33.85283 58.81916 46.33599
# Shear Modulus (GPa) = 14.48619 19.80187 17.14403
#
# Velocity S-wave (km/s) = 3.10225 3.62704 3.37486
# Velocity P-wave (km/s) = 5.94324 7.52444 6.78010
#
# Compressibility (1/GPa) = 0.02953963
#
# Stress axis : x y z
#
# Youngs Moduli (GPa) = 31.59332 47.80546 40.89517
#
# Poissons Ratio (x) = 0.16971 0.42480
# Poissons Ratio (y) = 0.11216 0.40094
# Poissons Ratio (z) = 0.32818 0.46869
#
# Static dielectric constant tensor:
#      x y z
#    x 2.490400 0.000000 -0.479370 
#    y 0.000000 3.005000 0.000000 
#    z -0.479370 0.000000 3.350590 
# 
# 
# High freq. dielectric constant tensor:
#      x y z
#    x 1.507320 0.000000 -0.045070 
#    y 0.000000 1.587640 0.000000 
#    z -0.045070 0.000000 1.581420 
# 
# From -- ./inp_files/291581.got.cif
#   From: 2010.06.25/outbox.cif.g09.slc.cpg/sg12_146_cif.got.tgz:291581.got - 2010.06.28 00:19:55.
