data_PCOD8079154
_publ_section_title
;
Structure prediction by ZEFSAII (Michael W. Deem and Ramdas Pophale) SiO2 
 PCOD8079154
Probable space group: C 2/M
;
_chemical_formula_sum "Si O2"
_cell_formula_units_Z 56
_cell_length_a 19.377777
_cell_length_b 9.438124
_cell_length_c 22.362589
_cell_angle_alpha 90.000000
_cell_angle_beta 54.082280
_cell_angle_gamma 90.000000
_cell_volume 3312.240014
_symmetry_space_group_name_H-M "C 2/M"
_symmetry_group_IT_number 12
_symmetry_cell_setting 'monoclinic'
loop_
_space_group_symop_operation_xyz
x,y,z
-x,y,-z
-x,-y,-z
x,-y,z
1/2+x,1/2+y,z
1/2-x,1/2+y,-z
1/2-x,1/2-y,-z
1/2+x,1/2-y,z
loop_
_atom_site_type_symbol
_atom_site_label
_atom_site_fract_x
_atom_site_fract_y
_atom_site_fract_z
Si Si1 0.988152 0.332801 0.097866
Si Si2 0.531036 0.168332 0.299189
Si Si3 0.363588 0.832753 0.057663
Si Si4 0.246949 0.663639 0.304483
Si Si5 0.406756 0.831412 0.260379
Si Si6 0.055348 0.668218 0.417837
Si Si7 0.281489 0.163947 0.818777
O O1 0.983627 0.500000 0.098186
O O2 0.918487 0.277370 0.086202
O O3 0.965449 0.277092 0.175426
O O4 0.083812 0.288063 0.028932
O O5 0.453438 0.219959 0.297165
O O6 0.519496 0.227427 0.372620
O O7 0.621338 0.219397 0.226108
O O8 0.534996 0.000000 0.299750
O O9 0.273493 0.752594 0.105509
O O10 0.346556 0.000000 0.068653
O O11 0.264875 0.500000 0.310408
O O12 0.314761 0.759439 0.304864
O O13 0.154083 0.710415 0.375637
O O14 0.252836 0.690155 0.230735
O O15 0.394593 0.000000 0.264829
O O16 0.047110 0.500000 0.421890
O O17 0.000000 0.734832 0.500000
O O18 0.274809 0.000000 0.839822
#
# Coordination Sequence:
#
# PCOD8079154 Si02
#       7
#     8   8   8   8   8   8   8
#     4   8  15  25  40  61  85 113 145 183 216 252
#     4   8  16  28  44  65  88 115 147 179 211 256
#     4   9  15  26  42  61  83 110 152 188 212 251
#     4   9  17  28  45  68  90 112 143 182 216 252
#     4  10  17  29  47  65  87 117 149 178 215 260
#     4   8  14  28  49  69  89 116 147 174 206 255
#     4   9  16  28  43  62  87 113 144 184 223 255
#
# _framework density 16.906987999999998
#
# number of rings (size 3 to 8) (size 9 to 14) (size 15 to 20)
#    0.000    3.286    1.429    2.571    0.000    0.000 
#    0.000    4.286    0.000    1.286    0.000    0.000 
#    0.000    0.000    0.000    0.000    0.000    0.000 
#
# Total GULP energy -346986.134450 kJ/mol
# GULP energy per Si atom -12392.361945 kJ/mol
# Density = 1.686851 g / cm^3
# Si number density = 16.906988 Si / 1000 Ang^3
#
#
#
# Elastic Constant Matrix: (Units=GPa)
#
#
# Indices 1 2 3 4 5 6 
#
# 1 116.1304 30.2786 59.3451 0.0000 -2.2337 0.0000
# 2 30.2786 29.7556 27.0626 -0.0001 -5.4264 -0.0002
# 3 59.3451 27.0626 129.0992 0.0000 -11.2427 0.0000
# 4 0.0000 -0.0001 0.0000 14.0270 0.0000 -4.8479
# 5 -2.2337 -5.4264 -11.2427 0.0000 21.1367 0.0000
# 6 0.0000 -0.0002 0.0000 -4.8479 0.0000 20.8843
#
#
#
# Elastic Compliance Matrix: (Units=1/GPa)
#
#
# Indices 1 2 3 4 5 6 
#
# 1 0.013465 -0.010426 -0.004313 0.000000 -0.003548 0.000000
# 2 -0.010426 0.050419 -0.004975 0.000001 0.009196 0.000001
# 3 -0.004313 -0.004975 0.011137 0.000000 0.004190 0.000000
# 4 0.000000 0.000001 0.000000 0.077510 0.000000 0.017992
# 5 -0.003548 0.009196 0.004190 0.000000 0.051526 0.000000
# 6 0.000000 0.000001 0.000000 0.017992 0.000000 0.052060
#
#
# Mechanical properties :
#
#
# Convention : Reuss Voigt Hill
#
# Bulk Modulus (GPa) = 28.09703 56.48418 42.29061
# Shear Modulus (GPa) = 16.26497 21.76286 19.01391
#
# Velocity S-wave (km/s) = 3.10502 3.59166 3.35717
# Velocity P-wave (km/s) = 5.43227 7.11909 6.33210
#
# Compressibility (1/GPa) = 0.03559095
#
# Stress axis : x y z
#
# Youngs Moduli (GPa) = 74.26483 19.83386 89.79392
#
# Poissons Ratio (x) = 0.20679 0.38730
# Poissons Ratio (y) = 0.77430 0.44677
# Poissons Ratio (z) = 0.32032 0.09868
#
# Static dielectric constant tensor:
#      x y z
#    x 3.136470 0.000000 0.040680 
#    y 0.000000 2.697450 0.000000 
#    z 0.040680 0.000000 3.497440 
# 
# 
# High freq. dielectric constant tensor:
#      x y z
#    x 1.638940 0.000000 -0.010510 
#    y 0.000000 1.603460 0.000000 
#    z -0.010510 0.000000 1.651110 
# 
# From -- ./inp_files/276067.got.cif
#   From: 2010.06.25/outbox.cif.g09.slc.cpg/sg12_139_cif.got.tgz:276067.got - 2010.06.28 00:19:55.
