data_PCOD8079434
_publ_section_title
;
Structure prediction by ZEFSAII (Michael W. Deem and Ramdas Pophale) SiO2 
 PCOD8079434
Probable space group: C 2/M
;
_chemical_formula_sum "Si O2"
_cell_formula_units_Z 56
_cell_length_a 23.183573
_cell_length_b 23.677211
_cell_length_c 6.272805
_cell_angle_alpha 90.000000
_cell_angle_beta 102.491026
_cell_angle_gamma 90.000000
_cell_volume 3361.779993
_symmetry_space_group_name_H-M "C 2/M"
_symmetry_group_IT_number 12
_symmetry_cell_setting 'monoclinic'
loop_
_space_group_symop_operation_xyz
x,y,z
-x,y,-z
-x,-y,-z
x,-y,z
1/2+x,1/2+y,z
1/2-x,1/2+y,-z
1/2-x,1/2-y,-z
1/2+x,1/2-y,z
loop_
_atom_site_type_symbol
_atom_site_label
_atom_site_fract_x
_atom_site_fract_y
_atom_site_fract_z
Si Si1 0.439691 0.277112 0.053733
Si Si2 0.661016 0.232119 0.788282
Si Si3 0.726089 0.328828 0.093869
Si Si4 0.651885 0.563486 0.005301
Si Si5 0.352127 0.701459 0.609033
Si Si6 0.453898 0.564792 0.789389
Si Si7 0.577874 0.627251 0.629133
O O1 0.401660 0.226679 0.136302
O O2 0.452150 0.325701 0.240584
O O3 0.500000 0.252874 0.000000
O O4 0.402883 0.302211 0.828353
O O5 0.702754 0.178059 0.869478
O O6 0.650853 0.239191 0.524678
O O7 0.693327 0.289125 0.897611
O O8 0.707146 0.393761 0.042880
O O9 0.709725 0.309761 0.321965
O O10 0.676711 0.500000 0.001563
O O11 0.614587 0.570698 0.193968
O O12 0.604285 0.574776 0.781216
O O13 0.366125 0.654646 0.444150
O O14 0.469761 0.500000 0.754360
O O15 0.466200 0.601984 0.587522
O O16 0.500000 0.589274 0.000000
#
# Coordination Sequence:
#
# PCOD8079434 Si02
#       7
#     8   8   8   8   8   8   8
#     4  10  21  33  47  74  97 122 162 200 242 295
#     4   9  19  31  53  68  94 125 155 202 242 288
#     4  10  17  34  48  73  93 119 166 196 242 291
#     4  11  21  33  48  70  97 125 163 205 242 287
#     4  10  17  31  48  72  90 123 156 197 237 288
#     4  10  22  36  47  62  87 126 175 216 246 280
#     4  11  19  34  47  66  89 129 161 204 250 281
#
# _framework density 16.657843
#
# number of rings (size 3 to 8) (size 9 to 14) (size 15 to 20)
#    0.000    1.857    5.714    0.857    0.000    6.286 
#    0.000    2.143    0.000    1.286    0.000    0.000 
#    0.000    0.571    0.000    1.571    0.000    0.143 
#
# Total GULP energy -346947.446812 kJ/mol
# GULP energy per Si atom -12390.980243 kJ/mol
# Density = 1.661993 g / cm^3
# Si number density = 16.657843 Si / 1000 Ang^3
#
#
#
# Elastic Constant Matrix: (Units=GPa)
#
#
# Indices 1 2 3 4 5 6 
#
# 1 104.3120 44.6188 34.1035 0.0000 -10.5864 0.0000
# 2 44.6188 59.6616 21.6865 0.0000 2.1034 0.0000
# 3 34.1035 21.6865 88.8940 0.0000 -1.8418 0.0000
# 4 0.0000 0.0000 0.0000 17.6099 0.0000 4.4583
# 5 -10.5864 2.1034 -1.8418 0.0000 19.1298 0.0000
# 6 0.0000 0.0000 0.0000 4.4583 0.0000 26.8921
#
#
#
# Elastic Compliance Matrix: (Units=1/GPa)
#
#
# Indices 1 2 3 4 5 6 
#
# 1 0.016688 -0.011620 -0.003356 0.000000 0.010190 0.000000
# 2 -0.011620 0.026599 -0.002229 0.000000 -0.009570 0.000000
# 3 -0.003356 -0.002229 0.013074 0.000000 -0.000354 0.000000
# 4 0.000000 0.000000 0.000000 0.059274 0.000000 -0.009827
# 5 0.010190 -0.009570 -0.000354 0.000000 0.058932 0.000000
# 6 0.000000 0.000000 0.000000 -0.009827 0.000000 0.038815
#
#
# Mechanical properties :
#
#
# Convention : Reuss Voigt Hill
#
# Bulk Modulus (GPa) = 45.55929 50.40948 47.98439
# Shear Modulus (GPa) = 19.59940 22.89028 21.24484
#
# Velocity S-wave (km/s) = 3.43386 3.71097 3.57510
# Velocity P-wave (km/s) = 6.56744 6.97776 6.77571
#
# Compressibility (1/GPa) = 0.02194942
#
# Stress axis : x y z
#
# Youngs Moduli (GPa) = 59.92161 37.59524 76.48985
#
# Poissons Ratio (x) = 0.43685 0.25674
# Poissons Ratio (y) = 0.69628 0.17053
# Poissons Ratio (z) = 0.20113 0.08382
#
# Static dielectric constant tensor:
#      x y z
#    x 3.245750 0.000000 -0.163840 
#    y 0.000000 2.849360 0.000000 
#    z -0.163840 0.000000 3.548090 
# 
# 
# High freq. dielectric constant tensor:
#      x y z
#    x 1.623640 0.000000 -0.017450 
#    y 0.000000 1.585270 0.000000 
#    z -0.017450 0.000000 1.666520 
# 
# From -- ./inp_files/29453.got.cif
#   From: 2010.06.25/outbox.cif.g09.slc.cpg/sg12_15_cif.got.tgz:29453.got - 2010.06.28 00:19:55.
