data_PCOD8079313
_publ_section_title
;
Structure prediction by ZEFSAII (Michael W. Deem and Ramdas Pophale) SiO2 
 PCOD8079313
Probable space group: C 2/M
;
_chemical_formula_sum "Si O2"
_cell_formula_units_Z 36
_cell_length_a 5.437202
_cell_length_b 35.141577
_cell_length_c 8.462883
_cell_angle_alpha 90.000000
_cell_angle_beta 67.895194
_cell_angle_gamma 90.000000
_cell_volume 1498.163119
_symmetry_space_group_name_H-M "C 2/M"
_symmetry_group_IT_number 12
_symmetry_cell_setting 'monoclinic'
loop_
_space_group_symop_operation_xyz
x,y,z
-x,y,-z
-x,-y,-z
x,-y,z
1/2+x,1/2+y,z
1/2-x,1/2+y,-z
1/2-x,1/2-y,-z
1/2+x,1/2-y,z
loop_
_atom_site_type_symbol
_atom_site_label
_atom_site_fract_x
_atom_site_fract_y
_atom_site_fract_z
Si Si1 0.236479 0.162709 0.830922
Si Si2 0.885691 0.581106 0.698666
Si Si3 0.117232 0.956462 0.297079
Si Si4 0.500000 0.219060 0.000000
Si Si5 0.746622 0.764630 0.320880
O O1 0.384286 0.126082 0.727963
O O2 0.152182 0.191148 0.705973
O O3 0.430428 0.189927 0.878272
O O4 0.000000 0.148606 0.000000
O O5 0.585256 0.564084 0.777432
O O6 0.000000 0.571827 0.500000
O O7 0.087339 0.562342 0.778169
O O8 0.000000 0.952696 0.500000
O O9 0.145160 0.000000 0.237498
O O10 0.269675 0.246024 0.134490
O O11 0.419771 0.760247 0.408188
#
# Coordination Sequence:
#
# PCOD8079313 Si02
#       5
#     8   8   8   4   8
#     4  11  20  32  54  79 111 141 179 226 270 312
#     4  10  22  35  55  86 113 135 170 224 277 317
#     4   9  18  37  61  81 103 140 184 217 252 318
#     4  10  18  32  50  78 103 140 195 230 244 298
#     4  10  17  30  48  74  98 133 185 233 248 284
#
# _framework density 24.029425
#
# number of rings (size 3 to 8) (size 9 to 14) (size 15 to 20)
#    0.000    2.000    3.333    2.000    3.111    2.667 
#    0.000    0.000    0.000    9.333    0.000    0.000 
#    0.000    0.000    0.000    0.000    0.000    0.000 
#
# Total GULP energy -223121.025654 kJ/mol
# GULP energy per Si atom -12395.612536 kJ/mol
# Density = 2.397473 g / cm^3
# Si number density = 24.029425 Si / 1000 Ang^3
#
#
#
# Elastic Constant Matrix: (Units=GPa)
#
#
# Indices 1 2 3 4 5 6 
#
# 1 175.9334 84.3855 32.0684 0.0000 -15.5985 0.0000
# 2 84.3855 192.8993 8.6373 0.0000 -0.8632 0.0000
# 3 32.0684 8.6373 51.8811 0.0000 -1.6397 0.0000
# 4 0.0000 0.0000 0.0000 28.4694 0.0000 -15.8916
# 5 -15.5985 -0.8632 -1.6397 0.0000 26.7530 0.0000
# 6 0.0000 0.0000 0.0000 -15.8916 0.0000 18.8370
#
#
#
# Elastic Compliance Matrix: (Units=1/GPa)
#
#
# Indices 1 2 3 4 5 6 
#
# 1 0.008638 -0.003552 -0.004601 0.000000 0.004640 0.000000
# 2 -0.003552 0.006684 0.001026 0.000000 -0.001792 0.000000
# 3 -0.004601 0.001026 0.021907 0.000000 -0.001307 0.000000
# 4 0.000000 0.000000 0.000000 0.066389 0.000000 0.056008
# 5 0.004640 -0.001792 -0.001307 0.000000 0.039946 0.000000
# 6 0.000000 0.000000 0.000000 0.056008 0.000000 0.100338
#
#
# Mechanical properties :
#
#
# Convention : Reuss Voigt Hill
#
# Bulk Modulus (GPa) = 43.52658 74.54402 59.03530
# Shear Modulus (GPa) = 18.81020 34.52007 26.66514
#
# Velocity S-wave (km/s) = 2.80089 3.79433 3.33481
# Velocity P-wave (km/s) = 5.34913 7.09121 6.28086
#
# Compressibility (1/GPa) = 0.02297447
#
# Stress axis : x y z
#
# Youngs Moduli (GPa) = 115.77304 149.61419 45.64813
#
# Poissons Ratio (x) = 0.53140 0.21003
# Poissons Ratio (y) = 0.41120 -0.04684
# Poissons Ratio (z) = 0.53268 -0.15351
#
# Static dielectric constant tensor:
#      x y z
#    x 4.741590 0.000000 0.047850 
#    y 0.000000 4.131990 0.000000 
#    z 0.047850 0.000000 4.563510 
# 
# 
# High freq. dielectric constant tensor:
#      x y z
#    x 1.979790 0.000000 -0.002980 
#    y 0.000000 1.944430 0.000000 
#    z -0.002980 0.000000 1.961910 
# 
# From -- ./inp_files/115744.got.cif
#   From: 2010.06.25/outbox.cif.g09.slc.cpg/sg12_58_cif.got.tgz:115744.got - 2010.06.28 00:19:55.
