data_PCOD8079873
_publ_section_title
;
Structure prediction by ZEFSAII (Michael W. Deem and Ramdas Pophale) SiO2 
 PCOD8079873
Probable space group: C 2/M
;
_chemical_formula_sum "Si O2"
_cell_formula_units_Z 48
_cell_length_a 19.294084
_cell_length_b 13.955778
_cell_length_c 11.684012
_cell_angle_alpha 90.000000
_cell_angle_beta 81.891687
_cell_angle_gamma 90.000000
_cell_volume 3114.632506
_symmetry_space_group_name_H-M "C 2/M"
_symmetry_group_IT_number 12
_symmetry_cell_setting 'monoclinic'
loop_
_space_group_symop_operation_xyz
x,y,z
-x,y,-z
-x,-y,-z
x,-y,z
1/2+x,1/2+y,z
1/2-x,1/2+y,-z
1/2-x,1/2-y,-z
1/2+x,1/2-y,z
loop_
_atom_site_type_symbol
_atom_site_label
_atom_site_fract_x
_atom_site_fract_y
_atom_site_fract_z
Si Si1 0.625981 0.677522 0.726727
Si Si2 0.747388 0.703900 0.334236
Si Si3 0.503337 0.610434 0.366339
Si Si4 0.920820 0.113596 0.021188
Si Si5 0.254125 0.395630 0.434047
Si Si6 0.642686 0.611242 0.201451
O O1 0.669241 0.778171 0.707658
O O2 0.548812 0.681266 0.689640
O O3 0.621649 0.651717 0.860787
O O4 0.669450 0.598383 0.643974
O O5 0.736956 0.622622 0.432443
O O6 0.712578 0.805532 0.386694
O O7 0.710144 0.671118 0.226490
O O8 0.500000 0.634549 0.500000
O O9 0.483261 0.500000 0.343929
O O10 0.581307 0.631240 0.306147
O O11 0.924263 0.000000 0.024603
O O12 0.880076 0.148869 0.917826
O O13 0.000000 0.154552 0.000000
O O14 0.217528 0.500000 0.425445
O O15 0.662816 0.500000 0.191824
#
# Coordination Sequence:
#
# PCOD8079873 Si02
#       6
#     8   8   8   8   8   8
#     4  10  18  30  46  69 100 126 160 188 233 291
#     4   9  20  30  46  73  98 128 159 196 238 288
#     4  10  18  26  45  70  94 125 153 191 244 289
#     4  10  18  29  46  69 100 132 156 189 242 295
#     4   9  17  31  49  67  98 127 154 194 239 288
#     4  10  19  31  46  69 102 129 157 198 237 283
#
# _framework density 15.411128
#
# number of rings (size 3 to 8) (size 9 to 14) (size 15 to 20)
#    1.000    1.333    1.667    3.000    0.000    2.000 
#    0.000    0.000    0.000    0.000    0.000    3.500 
#    0.000    3.333    0.000    0.000    0.000    0.000 
#
# Total GULP energy -297359.229617 kJ/mol
# GULP energy per Si atom -12389.967901 kJ/mol
# Density = 1.537605 g / cm^3
# Si number density = 15.411128 Si / 1000 Ang^3
#
#
#
# Elastic Constant Matrix: (Units=GPa)
#
#
# Indices 1 2 3 4 5 6 
#
# 1 62.6027 22.0104 22.5090 0.0000 15.7267 0.0000
# 2 22.0104 53.3128 13.7277 0.0000 12.2641 0.0000
# 3 22.5090 13.7277 90.7244 0.0000 10.5829 0.0000
# 4 0.0000 0.0000 0.0000 8.0290 0.0000 7.2362
# 5 15.7267 12.2641 10.5829 0.0000 24.9857 0.0000
# 6 0.0000 0.0000 0.0000 7.2362 0.0000 22.4188
#
#
#
# Elastic Compliance Matrix: (Units=1/GPa)
#
#
# Indices 1 2 3 4 5 6 
#
# 1 0.021595 -0.005915 -0.003383 0.000000 -0.009256 0.000000
# 2 -0.005915 0.023149 -0.001204 0.000000 -0.007130 0.000000
# 3 -0.003383 -0.001204 0.012336 0.000000 -0.002505 0.000000
# 4 0.000000 0.000000 0.000000 0.175642 0.000000 -0.056692
# 5 -0.009256 -0.007130 -0.002505 0.000000 0.050410 0.000000
# 6 0.000000 0.000000 0.000000 -0.056692 0.000000 0.062904
#
#
# Mechanical properties :
#
#
# Convention : Reuss Voigt Hill
#
# Bulk Modulus (GPa) = 27.71846 35.90375 31.81111
# Shear Modulus (GPa) = 13.19032 20.97957 17.08494
#
# Velocity S-wave (km/s) = 2.92874 3.69362 3.33319
# Velocity P-wave (km/s) = 5.42787 6.44502 5.95819
#
# Compressibility (1/GPa) = 0.03607704
#
# Stress axis : x y z
#
# Youngs Moduli (GPa) = 46.30664 43.19769 81.06329
#
# Poissons Ratio (x) = 0.25552 0.27424
# Poissons Ratio (y) = 0.27391 0.09756
# Poissons Ratio (z) = 0.15666 0.05199
#
# Static dielectric constant tensor:
#      x y z
#    x 2.747070 0.000000 -0.034170 
#    y 0.000000 2.621150 0.000000 
#    z -0.034170 0.000000 3.060600 
# 
# 
# High freq. dielectric constant tensor:
#      x y z
#    x 1.568480 0.000000 -0.000660 
#    y 0.000000 1.550590 0.000000 
#    z -0.000660 0.000000 1.606200 
# 
# From -- ./inp_files/154787.got.cif
#   From: 2010.06.25/outbox.cif.g09.slc.cpg/sg12_78_cif.got.tgz:154787.got - 2010.06.28 00:19:55.
