data_PCOD8079971
_publ_section_title
;
Structure prediction by ZEFSAII (Michael W. Deem and Ramdas Pophale) SiO2 
 PCOD8079971
Probable space group: C 2/M
;
_chemical_formula_sum "Si O2"
_cell_formula_units_Z 48
_cell_length_a 28.126757
_cell_length_b 9.082769
_cell_length_c 12.359065
_cell_angle_alpha 90.000000
_cell_angle_beta 69.609911
_cell_angle_gamma 90.000000
_cell_volume 2959.523204
_symmetry_space_group_name_H-M "C 2/M"
_symmetry_group_IT_number 12
_symmetry_cell_setting 'monoclinic'
loop_
_space_group_symop_operation_xyz
x,y,z
-x,y,-z
-x,-y,-z
x,-y,z
1/2+x,1/2+y,z
1/2-x,1/2+y,-z
1/2-x,1/2-y,-z
1/2+x,1/2-y,z
loop_
_atom_site_type_symbol
_atom_site_label
_atom_site_fract_x
_atom_site_fract_y
_atom_site_fract_z
Si Si1 0.495781 0.173886 0.336593
Si Si2 0.368958 0.332506 0.955793
Si Si3 0.239483 0.170296 0.897110
Si Si4 0.917851 0.325738 0.570073
Si Si5 0.170119 0.172845 0.252007
Si Si6 0.470464 0.825105 0.919247
O O1 0.543560 0.230987 0.367930
O O2 0.442519 0.219802 0.434597
O O3 0.500148 0.234686 0.210897
O O4 0.499158 0.000000 0.335219
O O5 0.388432 0.500000 0.939993
O O6 0.353424 0.286651 0.846270
O O7 0.412829 0.229065 0.966202
O O8 0.320971 0.314901 0.075688
O O9 0.274370 0.250683 0.779489
O O10 0.255355 0.000000 0.893125
O O11 0.250000 0.250000 0.000000
O O12 0.907827 0.500000 0.585434
O O13 0.865412 0.238687 0.625824
O O14 0.176772 0.000000 0.263071
O O15 0.469210 0.000000 0.921912
O O16 0.500000 0.762498 0.000000
#
# Coordination Sequence:
#
# PCOD8079971 Si02
#       6
#     8   8   8   8   8   8
#     4   8  15  27  42  63  86 113 150 181 214 262
#     4   9  18  30  42  60  88 118 146 178 215 259
#     4   9  17  28  42  62  88 117 148 178 217 266
#     4   9  15  26  45  62  84 119 148 176 216 261
#     4  10  18  27  41  66  93 116 145 178 220 268
#     4  10  19  30  46  66  87 115 151 186 216 251
#
# _framework density 16.218828999999999
#
# number of rings (size 3 to 8) (size 9 to 14) (size 15 to 20)
#    0.000    2.833    1.667    3.000    0.000    3.667 
#    0.000    2.500    0.000    0.000    0.000    1.167 
#    0.000    0.000    0.000    0.000    0.000    0.000 
#
# Total GULP energy -297425.110736 kJ/mol
# GULP energy per Si atom -12392.712947 kJ/mol
# Density = 1.618191 g / cm^3
# Si number density = 16.218829 Si / 1000 Ang^3
#
#
#
# Elastic Constant Matrix: (Units=GPa)
#
#
# Indices 1 2 3 4 5 6 
#
# 1 70.1271 33.8105 56.6153 0.0000 -21.2770 0.0000
# 2 33.8105 61.7040 34.7501 0.0000 -15.4901 0.0000
# 3 56.6153 34.7501 107.1899 0.0000 -23.9817 0.0000
# 4 0.0000 0.0000 0.0000 17.5099 0.0000 -9.6066
# 5 -21.2770 -15.4901 -23.9817 0.0000 34.1100 0.0000
# 6 0.0000 0.0000 0.0000 -9.6066 0.0000 24.3153
#
#
#
# Elastic Compliance Matrix: (Units=1/GPa)
#
#
# Indices 1 2 3 4 5 6 
#
# 1 0.029349 -0.007976 -0.011428 0.000000 0.006651 0.000000
# 2 -0.007976 0.022843 -0.002355 0.000000 0.003742 0.000000
# 3 -0.011428 -0.002355 0.016963 0.000000 0.003728 0.000000
# 4 0.000000 0.000000 0.000000 0.072915 0.000000 0.028808
# 5 0.006651 0.003742 0.003728 0.000000 0.037786 0.000000
# 6 0.000000 0.000000 0.000000 0.028808 0.000000 0.052508
#
#
# Mechanical properties :
#
#
# Convention : Reuss Voigt Hill
#
# Bulk Modulus (GPa) = 39.00783 54.37473 46.69128
# Shear Modulus (GPa) = 17.57912 22.77674 20.17793
#
# Velocity S-wave (km/s) = 3.29579 3.75152 3.53101
# Velocity P-wave (km/s) = 6.21178 7.23627 6.74351
#
# Compressibility (1/GPa) = 0.02563588
#
# Stress axis : x y z
#
# Youngs Moduli (GPa) = 34.07242 43.77723 58.95259
#
# Poissons Ratio (x) = 0.34919 0.67370
# Poissons Ratio (y) = 0.27178 0.13885
# Poissons Ratio (z) = 0.38937 0.10311
#
# Static dielectric constant tensor:
#      x y z
#    x 2.848450 0.000000 -0.256520 
#    y 0.000000 2.933130 0.000000 
#    z -0.256520 0.000000 3.250660 
# 
# 
# High freq. dielectric constant tensor:
#      x y z
#    x 1.595320 0.000000 -0.043060 
#    y 0.000000 1.614420 0.000000 
#    z -0.043060 0.000000 1.605650 
# 
# From -- ./inp_files/185731.got.cif
#   From: 2010.06.25/outbox.cif.g09.slc.cpg/sg12_93_cif.got.tgz:185731.got - 2010.06.28 00:19:55.
