data_PCOD8079988
_publ_section_title
;
Structure prediction by ZEFSAII (Michael W. Deem and Ramdas Pophale) SiO2 
 PCOD8079988
Probable space group: C 2/M
;
_chemical_formula_sum "Si O2"
_cell_formula_units_Z 64
_cell_length_a 28.476145
_cell_length_b 9.554211
_cell_length_c 15.720809
_cell_angle_alpha 90.000000
_cell_angle_beta 89.698131
_cell_angle_gamma 90.000000
_cell_volume 4277.055517
_symmetry_space_group_name_H-M "C 2/M"
_symmetry_group_IT_number 12
_symmetry_cell_setting 'monoclinic'
loop_
_space_group_symop_operation_xyz
x,y,z
-x,y,-z
-x,-y,-z
x,-y,z
1/2+x,1/2+y,z
1/2-x,1/2+y,-z
1/2-x,1/2-y,-z
1/2+x,1/2-y,z
loop_
_atom_site_type_symbol
_atom_site_label
_atom_site_fract_x
_atom_site_fract_y
_atom_site_fract_z
Si Si1 0.950585 0.834335 0.186150
Si Si2 0.945090 0.338326 0.501231
Si Si3 0.100179 0.163107 0.647872
Si Si4 0.802764 0.159797 0.420927
Si Si5 0.393788 0.838231 0.675265
Si Si6 0.552227 0.334159 0.996006
Si Si7 0.059285 0.834929 0.180177
Si Si8 0.698636 0.838839 0.414454
O O1 0.920911 0.771606 0.264923
O O2 0.927348 0.781772 0.095867
O O3 0.005037 0.789176 0.193162
O O4 0.947128 0.000000 0.189653
O O5 0.934096 0.500000 0.480639
O O6 0.921195 0.242947 0.431348
O O7 0.924709 0.296743 0.593248
O O8 0.000000 0.306879 0.500000
O O9 0.156683 0.184873 0.649520
O O10 0.087077 0.000000 0.638307
O O11 0.751544 0.196987 0.381893
O O12 0.814337 0.252555 0.502149
O O13 0.803196 0.000000 0.452532
O O14 0.408245 0.745237 0.754492
O O15 0.338848 0.804491 0.658679
O O16 0.401601 0.000000 0.698662
O O17 0.549563 0.500000 0.994170
O O18 0.500000 0.272658 0.000000
O O19 0.577483 0.290583 0.084369
O O20 0.065059 0.000000 0.195069
O O21 0.693731 0.000000 0.441301
#
# Coordination Sequence:
#
# PCOD8079988 Si02
#       8
#     8   8   8   8   8   8   8   8
#     4   8  14  25  41  62  86 107 128 161 206 245
#     4  10  20  31  40  53  80 117 147 163 185 234
#     4  10  18  27  42  64  84 103 131 170 209 239
#     4   9  17  28  43  62  79  98 133 177 208 235
#     4  10  19  29  40  56  80 111 138 163 200 240
#     4   7  11  22  40  60  80 103 131 162 198 239
#     4   9  16  26  43  63  81 105 137 168 195 233
#     4   9  17  30  44  56  76 107 138 167 204 244
#
# _framework density 14.963566
#
# number of rings (size 3 to 8) (size 9 to 14) (size 15 to 20)
#    0.000    3.000    1.250    2.250    0.000    1.250 
#    0.000    0.000    0.000    4.125    0.000    0.875 
#    0.000    0.000    0.000    0.000    0.000    0.000 
#
# Total GULP energy -396430.245165 kJ/mol
# GULP energy per Si atom -12388.445161 kJ/mol
# Density = 1.492951 g / cm^3
# Si number density = 14.963566 Si / 1000 Ang^3
#
#
#
# Elastic Constant Matrix: (Units=GPa)
#
#
# Indices 1 2 3 4 5 6 
#
# 1 82.8749 29.4474 58.5179 0.0000 6.4590 0.0000
# 2 29.4474 34.9529 41.5748 0.0000 6.8120 0.0000
# 3 58.5179 41.5748 125.7775 0.0000 16.2470 0.0000
# 4 0.0000 0.0000 0.0000 11.4985 0.0000 2.0152
# 5 6.4590 6.8120 16.2470 0.0000 10.8446 0.0000
# 6 0.0000 0.0000 0.0000 2.0152 0.0000 12.4847
#
#
#
# Elastic Compliance Matrix: (Units=1/GPa)
#
#
# Indices 1 2 3 4 5 6 
#
# 1 0.019815 -0.009718 -0.006536 0.000000 0.004094 0.000000
# 2 -0.009718 0.052447 -0.011540 0.000000 -0.009868 0.000000
# 3 -0.006536 -0.011540 0.016574 0.000000 -0.013689 0.000000
# 4 0.000000 0.000000 0.000000 0.089500 0.000000 -0.014446
# 5 0.004094 -0.009868 -0.013689 0.000000 0.116481 0.000000
# 6 0.000000 0.000000 0.000000 -0.014446 0.000000 0.082430
#
#
# Mechanical properties :
#
#
# Convention : Reuss Voigt Hill
#
# Bulk Modulus (GPa) = 30.07652 55.85393 42.96523
# Shear Modulus (GPa) = 11.26340 14.56991 12.91665
#
# Velocity S-wave (km/s) = 2.74655 3.12379 2.94123
# Velocity P-wave (km/s) = 5.49559 7.10059 6.34901
#
# Compressibility (1/GPa) = 0.03324852
#
# Stress axis : x y z
#
# Youngs Moduli (GPa) = 50.46637 19.06702 60.33596
#
# Poissons Ratio (x) = 0.18530 0.39433
# Poissons Ratio (y) = 0.49044 0.69626
# Poissons Ratio (z) = 0.32983 0.22003
#
# Static dielectric constant tensor:
#      x y z
#    x 3.037930 0.000000 -0.160330 
#    y 0.000000 2.698140 0.000000 
#    z -0.160330 0.000000 3.155150 
# 
# 
# High freq. dielectric constant tensor:
#      x y z
#    x 1.558980 0.000000 -0.001190 
#    y 0.000000 1.552240 0.000000 
#    z -0.001190 0.000000 1.565380 
# 
# From -- ./inp_files/248369.got.cif
#   From: 2010.06.25/outbox.cif.g09.slc.cpg/sg12_125_cif.got.tgz:248369.got - 2010.06.28 00:19:55.
