data_PCOD8079472
_publ_section_title
;
Structure prediction by ZEFSAII (Michael W. Deem and Ramdas Pophale) SiO2 
 PCOD8079472
Probable space group: C 2/M
;
_chemical_formula_sum "Si O2"
_cell_formula_units_Z 56
_cell_length_a 17.779463
_cell_length_b 20.191158
_cell_length_c 11.438896
_cell_angle_alpha 90.000000
_cell_angle_beta 49.408636
_cell_angle_gamma 90.000000
_cell_volume 3118.294035
_symmetry_space_group_name_H-M "C 2/M"
_symmetry_group_IT_number 12
_symmetry_cell_setting 'monoclinic'
loop_
_space_group_symop_operation_xyz
x,y,z
-x,y,-z
-x,-y,-z
x,-y,z
1/2+x,1/2+y,z
1/2-x,1/2+y,-z
1/2-x,1/2-y,-z
1/2+x,1/2-y,z
loop_
_atom_site_type_symbol
_atom_site_label
_atom_site_fract_x
_atom_site_fract_y
_atom_site_fract_z
Si Si1 0.786594 0.576611 0.093275
Si Si2 0.468569 0.726027 0.259413
Si Si3 0.827311 0.197918 0.870711
Si Si4 0.228482 0.184043 0.593261
Si Si5 0.295524 0.074217 0.353836
Si Si6 0.501089 0.868786 0.132109
Si Si7 0.395750 0.767151 0.569175
O O1 0.764125 0.500000 0.086840
O O2 0.715591 0.623882 0.090126
O O3 0.768113 0.592223 0.248308
O O4 0.897855 0.593599 0.940722
O O5 0.576391 0.692389 0.142496
O O6 0.388559 0.691878 0.250964
O O7 0.482941 0.804428 0.228325
O O8 0.422007 0.717596 0.436124
O O9 0.856516 0.222067 0.712995
O O10 0.750000 0.250000 0.000000
O O11 0.250000 0.250000 0.500000
O O12 0.238460 0.120132 0.502303
O O13 0.306844 0.181633 0.622277
O O14 0.413819 0.079807 0.247535
O O15 0.263058 0.000000 0.416608
O O16 0.500000 0.844166 0.000000
O O17 0.500000 0.803928 0.500000
#
# Coordination Sequence:
#
# PCOD8079472 Si02
#       7
#     8   8   8   8   8   8   8
#     4  10  20  33  50  76 112 143 171 218 277 325
#     4  10  19  32  51  78 105 138 176 226 267 311
#     4  11  21  34  52  78 104 140 185 228 262 318
#     4  10  17  31  54  72 100 140 176 212 261 316
#     4  10  19  32  52  80 110 140 172 214 272 334
#     4  10  18  29  50  80 109 135 175 218 272 322
#     4   9  19  32  51  75 105 135 171 222 274 302
#
# _framework density 17.958537
#
# number of rings (size 3 to 8) (size 9 to 14) (size 15 to 20)
#    0.000    2.000    4.286    2.143    2.000    1.714 
#    0.000    0.714    0.000    6.857    0.000    0.000 
#    0.000    3.429    0.000    0.000    0.000    0.000 
#
# Total GULP energy -346946.386518 kJ/mol
# GULP energy per Si atom -12390.942376 kJ/mol
# Density = 1.791766 g / cm^3
# Si number density = 17.958537 Si / 1000 Ang^3
#
#
#
# Elastic Constant Matrix: (Units=GPa)
#
#
# Indices 1 2 3 4 5 6 
#
# 1 136.8600 46.1317 25.6264 0.0000 -39.6461 0.0000
# 2 46.1317 104.8541 26.1914 0.0000 -13.1427 0.0000
# 3 25.6264 26.1914 46.5086 0.0000 -16.0718 0.0000
# 4 0.0000 0.0000 0.0000 25.8152 0.0000 -1.3706
# 5 -39.6461 -13.1427 -16.0718 0.0000 29.4455 0.0000
# 6 0.0000 0.0000 0.0000 -1.3706 0.0000 25.4508
#
#
#
# Elastic Compliance Matrix: (Units=1/GPa)
#
#
# Indices 1 2 3 4 5 6 
#
# 1 0.013290 -0.003928 0.000576 0.000000 0.016454 0.000000
# 2 -0.003928 0.012346 -0.005807 0.000000 -0.002948 0.000000
# 3 0.000576 -0.005807 0.029365 0.000000 0.014211 0.000000
# 4 0.000000 0.000000 0.000000 0.038848 0.000000 0.002092
# 5 0.016454 -0.002948 0.014211 0.000000 0.062556 0.000000
# 6 0.000000 0.000000 0.000000 0.002092 0.000000 0.039404
#
#
# Mechanical properties :
#
#
# Convention : Reuss Voigt Hill
#
# Bulk Modulus (GPa) = 27.26148 53.79131 40.52640
# Shear Modulus (GPa) = 22.08905 28.82718 25.45811
#
# Velocity S-wave (km/s) = 3.51094 4.01085 3.76919
# Velocity P-wave (km/s) = 5.62573 7.17407 6.44656
#
# Compressibility (1/GPa) = 0.03668179
#
# Stress axis : x y z
#
# Youngs Moduli (GPa) = 75.24698 80.99537 34.05365
#
# Poissons Ratio (x) = 0.31817 -0.01960
# Poissons Ratio (y) = 0.29559 0.19775
# Poissons Ratio (z) = -0.04331 0.47035
#
# Static dielectric constant tensor:
#      x y z
#    x 4.169420 0.000000 -0.405510 
#    y 0.000000 3.033160 0.000000 
#    z -0.405510 0.000000 3.331680 
# 
# 
# High freq. dielectric constant tensor:
#      x y z
#    x 1.701950 0.000000 -0.021280 
#    y 0.000000 1.659150 0.000000 
#    z -0.021280 0.000000 1.682640 
# 
# From -- ./inp_files/158198.got.cif
#   From: 2010.06.25/outbox.cif.g09.slc.cpg/sg12_80_cif.got.tgz:158198.got - 2010.06.28 00:19:55.
