data_PCOD8079756
_publ_section_title
;
Structure prediction by ZEFSAII (Michael W. Deem and Ramdas Pophale) SiO2 
 PCOD8079756
Probable space group: C 2/M
;
_chemical_formula_sum "Si O2"
_cell_formula_units_Z 40
_cell_length_a 16.270404
_cell_length_b 17.976377
_cell_length_c 8.646192
_cell_angle_alpha 90.000000
_cell_angle_beta 55.814578
_cell_angle_gamma 90.000000
_cell_volume 2091.935428
_symmetry_space_group_name_H-M "C 2/M"
_symmetry_group_IT_number 12
_symmetry_cell_setting 'monoclinic'
loop_
_space_group_symop_operation_xyz
x,y,z
-x,y,-z
-x,-y,-z
x,-y,z
1/2+x,1/2+y,z
1/2-x,1/2+y,-z
1/2-x,1/2-y,-z
1/2+x,1/2-y,z
loop_
_atom_site_type_symbol
_atom_site_label
_atom_site_fract_x
_atom_site_fract_y
_atom_site_fract_z
Si Si1 0.500000 0.670536 0.500000
Si Si2 0.292164 0.826225 0.520758
Si Si3 0.993042 0.676971 0.840150
Si Si4 0.664734 0.217055 0.197569
Si Si5 0.500000 0.321549 0.000000
Si Si6 0.887826 0.912777 0.349329
O O1 0.408996 0.720494 0.655778
O O2 0.542336 0.617452 0.588875
O O3 0.250000 0.750000 0.500000
O O4 0.406200 0.837282 0.356442
O O5 0.283406 0.826016 0.715762
O O6 0.228734 0.892464 0.508571
O O7 0.899327 0.655020 0.832101
O O8 0.000000 0.635473 0.000000
O O9 0.969087 0.765649 0.892811
O O10 0.750000 0.250000 0.000000
O O11 0.414242 0.374655 0.156558
O O12 0.902707 0.000000 0.323473
#
# Coordination Sequence:
#
# PCOD8079756 Si02
#       6
#     4   8   8   8   4   8
#     4  12  21  40  58  88 121 154 200 246 301 358
#     4  12  19  36  59  83 120 150 201 246 288 352
#     4  10  19  34  59  92 111 145 193 250 300 333
#     4  12  20  33  60  91 119 147 197 256 304 342
#     4  10  17  36  56  82 117 148 188 242 293 346
#     4  12  25  38  56  86 125 162 191 237 303 365
#
# _framework density 19.121048999999999
#
# number of rings (size 3 to 8) (size 9 to 14) (size 15 to 20)
#    0.600    0.000    8.000    3.000    0.000    0.000 
#    0.000    0.000    0.000    3.000    0.000    0.000 
#    0.000    0.000    0.000    0.000    0.000    0.000 
#
# Total GULP energy -247780.158329 kJ/mol
# GULP energy per Si atom -12389.007916 kJ/mol
# Density = 1.907753 g / cm^3
# Si number density = 19.121049 Si / 1000 Ang^3
#
#
#
# Elastic Constant Matrix: (Units=GPa)
#
#
# Indices 1 2 3 4 5 6 
#
# 1 121.3548 12.4759 29.4703 0.0000 4.9983 0.0000
# 2 12.4759 54.0318 6.9170 0.0000 4.1354 0.0000
# 3 29.4703 6.9170 104.8632 0.0000 -7.8726 0.0000
# 4 0.0000 0.0000 0.0000 14.5157 0.0000 -2.5659
# 5 4.9983 4.1354 -7.8726 0.0000 38.6186 0.0000
# 6 0.0000 0.0000 0.0000 -2.5659 0.0000 19.8511
#
#
#
# Elastic Compliance Matrix: (Units=1/GPa)
#
#
# Indices 1 2 3 4 5 6 
#
# 1 0.009095 -0.001656 -0.002561 0.000000 -0.001522 0.000000
# 2 -0.001656 0.019167 -0.000952 0.000000 -0.002032 0.000000
# 3 -0.002561 -0.000952 0.010512 0.000000 0.002576 0.000000
# 4 0.000000 0.000000 0.000000 0.070502 0.000000 0.009113
# 5 -0.001522 -0.002032 0.002576 0.000000 0.026834 0.000000
# 6 0.000000 0.000000 0.000000 0.009113 0.000000 0.051553
#
#
# Mechanical properties :
#
#
# Convention : Reuss Voigt Hill
#
# Bulk Modulus (GPa) = 35.16444 41.99738 38.58091
# Shear Modulus (GPa) = 24.09880 30.02286 27.06083
#
# Velocity S-wave (km/s) = 3.55396 3.96681 3.76605
# Velocity P-wave (km/s) = 5.93896 6.55686 6.25554
#
# Compressibility (1/GPa) = 0.02843782
#
# Stress axis : x y z
#
# Youngs Moduli (GPa) = 109.94867 52.17222 95.12769
#
# Poissons Ratio (x) = 0.08638 0.24363
# Poissons Ratio (y) = 0.18204 0.09052
# Poissons Ratio (z) = 0.28159 0.04965
#
# Static dielectric constant tensor:
#      x y z
#    x 4.099910 0.000000 0.030590 
#    y 0.000000 3.000740 0.000000 
#    z 0.030590 0.000000 4.689030 
# 
# 
# High freq. dielectric constant tensor:
#      x y z
#    x 1.768280 0.000000 0.007070 
#    y 0.000000 1.671580 0.000000 
#    z 0.007070 0.000000 1.761950 
# 
# From -- ./inp_files/62605.got.cif
#   From: 2010.06.25/outbox.cif.g09.slc.cpg/sg12_32_cif.got.tgz:62605.got - 2010.06.28 00:19:55.
