data_PCOD8079235
_publ_section_title
;
Structure prediction by ZEFSAII (Michael W. Deem and Ramdas Pophale) SiO2 
 PCOD8079235
Probable space group: C 2/M
;
_chemical_formula_sum "Si O2"
_cell_formula_units_Z 56
_cell_length_a 20.911162
_cell_length_b 13.917633
_cell_length_c 12.212425
_cell_angle_alpha 90.000000
_cell_angle_beta 65.647143
_cell_angle_gamma 90.000000
_cell_volume 3237.985648
_symmetry_space_group_name_H-M "C 2/M"
_symmetry_group_IT_number 12
_symmetry_cell_setting 'monoclinic'
loop_
_space_group_symop_operation_xyz
x,y,z
-x,y,-z
-x,-y,-z
x,-y,z
1/2+x,1/2+y,z
1/2-x,1/2+y,-z
1/2-x,1/2-y,-z
1/2+x,1/2-y,z
loop_
_atom_site_type_symbol
_atom_site_label
_atom_site_fract_x
_atom_site_fract_y
_atom_site_fract_z
Si Si1 0.430694 0.390157 0.816603
Si Si2 0.644982 0.699658 0.547014
Si Si3 0.429321 0.257471 0.610950
Si Si4 0.169158 0.114297 0.930055
Si Si5 0.077085 0.890684 0.797128
Si Si6 0.687903 0.892145 0.263295
Si Si7 0.787132 0.607166 0.505777
O O1 0.422556 0.500000 0.781902
O O2 0.447034 0.326034 0.699567
O O3 0.492538 0.383915 0.864827
O O4 0.360655 0.354019 0.930023
O O5 0.614600 0.682634 0.447245
O O6 0.592105 0.664769 0.675043
O O7 0.716087 0.638898 0.497251
O O8 0.653977 0.814056 0.564170
O O9 0.500000 0.219560 0.500000
O O10 0.383284 0.169169 0.690029
O O11 0.118001 0.156629 0.870784
O O12 0.250102 0.149353 0.859557
O O13 0.166244 0.000000 0.923461
O O14 0.102251 0.000000 0.765054
O O15 0.724802 0.892386 0.355709
O O16 0.666395 0.000000 0.243689
O O17 0.809467 0.500000 0.450069
#
# Coordination Sequence:
#
# PCOD8079235 Si02
#       7
#     8   8   8   8   8   8   8
#     4  10  21  33  47  71 104 136 158 188 239 297
#     4  10  18  29  49  72  97 128 159 195 240 295
#     4  11  22  34  46  70 105 134 161 190 235 302
#     4   9  17  32  53  75  94 119 165 209 242 279
#     4  10  17  29  51  74  97 124 156 201 246 280
#     4   9  18  33  54  73  92 123 165 213 247 269
#     4   9  17  30  48  73  98 123 158 204 246 278
#
# _framework density 17.294703999999999
#
# number of rings (size 3 to 8) (size 9 to 14) (size 15 to 20)
#    0.000    2.286    2.857    0.857    0.000    4.000 
#    0.000    0.000    0.000    0.000    0.000    0.000 
#    0.000    2.286    0.000    0.000    0.000    0.000 
#
# Total GULP energy -346993.450114 kJ/mol
# GULP energy per Si atom -12392.623218 kJ/mol
# Density = 1.725534 g / cm^3
# Si number density = 17.294704 Si / 1000 Ang^3
#
#
#
# Elastic Constant Matrix: (Units=GPa)
#
#
# Indices 1 2 3 4 5 6 
#
# 1 80.9881 28.8507 34.6910 0.0000 -10.6254 0.0000
# 2 28.8507 70.0759 30.9786 0.0000 -7.3754 0.0000
# 3 34.6910 30.9786 81.6577 0.0000 -21.7915 0.0000
# 4 0.0000 0.0000 0.0000 18.7932 0.0000 -5.3464
# 5 -10.6254 -7.3754 -21.7915 0.0000 29.8691 0.0000
# 6 0.0000 0.0000 0.0000 -5.3464 0.0000 19.4222
#
#
#
# Elastic Compliance Matrix: (Units=1/GPa)
#
#
# Indices 1 2 3 4 5 6 
#
# 1 0.016149 -0.004361 -0.004918 0.000000 0.001080 0.000000
# 2 -0.004361 0.018333 -0.005350 0.000000 -0.000928 0.000000
# 3 -0.004918 -0.005350 0.019304 0.000000 0.011013 0.000000
# 4 0.000000 0.000000 0.000000 0.057732 0.000000 0.015892
# 5 0.001080 -0.000928 0.011013 0.000000 0.041669 0.000000
# 6 0.000000 0.000000 0.000000 0.015892 0.000000 0.055862
#
#
# Mechanical properties :
#
#
# Convention : Reuss Voigt Hill
#
# Bulk Modulus (GPa) = 40.76869 46.86248 43.81559
# Shear Modulus (GPa) = 20.28524 22.83032 21.55778
#
# Velocity S-wave (km/s) = 3.42850 3.63723 3.53441
# Velocity P-wave (km/s) = 6.26873 6.69287 6.48427
#
# Compressibility (1/GPa) = 0.02452863
#
# Stress axis : x y z
#
# Youngs Moduli (GPa) = 61.92182 54.54614 51.80194
#
# Poissons Ratio (x) = 0.23787 0.25477
# Poissons Ratio (y) = 0.27004 0.27714
# Poissons Ratio (z) = 0.30455 0.29182
#
# Static dielectric constant tensor:
#      x y z
#    x 3.226180 0.000000 -0.141870 
#    y 0.000000 3.099480 0.000000 
#    z -0.141870 0.000000 3.195190 
# 
# 
# High freq. dielectric constant tensor:
#      x y z
#    x 1.668430 0.000000 -0.008900 
#    y 0.000000 1.639090 0.000000 
#    z -0.008900 0.000000 1.657810 
# 
# From -- ./inp_files/156003.got.cif
#   From: 2010.06.25/outbox.cif.g09.slc.cpg/sg12_79_cif.got.tgz:156003.got - 2010.06.28 00:19:55.
