data_PCOD8079039
_publ_section_title
;
Structure prediction by ZEFSAII (Michael W. Deem and Ramdas Pophale) SiO2 
 PCOD8079039
Probable space group: C 2/M
;
_chemical_formula_sum "Si O2"
_cell_formula_units_Z 56
_cell_length_a 25.060315
_cell_length_b 23.989211
_cell_length_c 9.586368
_cell_angle_alpha 90.000000
_cell_angle_beta 33.809502
_cell_angle_gamma 90.000000
_cell_volume 3206.784622
_symmetry_space_group_name_H-M "C 2/M"
_symmetry_group_IT_number 12
_symmetry_cell_setting 'monoclinic'
loop_
_space_group_symop_operation_xyz
x,y,z
-x,y,-z
-x,-y,-z
x,-y,z
1/2+x,1/2+y,z
1/2-x,1/2+y,-z
1/2-x,1/2-y,-z
1/2+x,1/2-y,z
loop_
_atom_site_type_symbol
_atom_site_label
_atom_site_fract_x
_atom_site_fract_y
_atom_site_fract_z
Si Si1 0.120161 0.195380 0.373081
Si Si2 0.781039 0.715655 0.675985
Si Si3 0.610808 0.859127 0.758360
Si Si4 0.423794 0.734919 0.825974
Si Si5 0.217093 0.370679 0.085489
Si Si6 0.895697 0.435670 0.476776
Si Si7 0.076595 0.360273 0.134168
O O1 0.183687 0.222490 0.358140
O O2 0.112591 0.236008 0.255147
O O3 0.009415 0.189347 0.665160
O O4 0.173175 0.137584 0.210028
O O5 0.831414 0.693612 0.426926
O O6 0.806945 0.677879 0.752579
O O7 0.668106 0.717372 0.882891
O O8 0.629839 0.914023 0.623054
O O9 0.500000 0.841859 0.000000
O O10 0.638262 0.872050 0.859005
O O11 0.461532 0.796401 0.784467
O O12 0.196078 0.427224 0.219535
O O13 0.145483 0.370489 0.112609
O O14 0.923348 0.500000 0.408089
O O15 0.985458 0.400972 0.343063
#
# Coordination Sequence:
#
# PCOD8079039 Si02
#       7
#     8   8   8   8   8   8   8
#     4  10  17  28  47  72  96 135 167 201 242 283
#     4  10  17  32  47  68  99 141 168 193 238 290
#     4   9  20  32  47  69  99 132 164 199 237 290
#     4  10  18  27  49  73  99 137 169 195 235 289
#     4  10  18  31  48  69  97 121 167 206 240 284
#     4  10  22  36  51  69  96 132 166 204 254 305
#     4  11  19  30  47  72  99 131 162 206 235 283
#
# _framework density 17.462975
#
# number of rings (size 3 to 8) (size 9 to 14) (size 15 to 20)
#    0.000    2.000    2.857    3.857    2.000    4.286 
#    0.000    0.000    0.000    0.000    0.000   18.000 
#    0.000    0.000    0.000   39.286    0.000    0.000 
#
# Total GULP energy -346896.886109 kJ/mol
# GULP energy per Si atom -12389.174504 kJ/mol
# Density = 1.742323 g / cm^3
# Si number density = 17.462975 Si / 1000 Ang^3
#
#
#
# Elastic Constant Matrix: (Units=GPa)
#
#
# Indices 1 2 3 4 5 6 
#
# 1 51.2557 22.3937 36.9667 0.0000 8.3799 0.0000
# 2 22.3937 72.9158 46.5997 0.0000 -3.6283 0.0000
# 3 36.9667 46.5997 128.5626 0.0000 -10.2480 0.0000
# 4 0.0000 0.0000 0.0000 18.8007 0.0000 -1.3935
# 5 8.3799 -3.6283 -10.2480 0.0000 22.6863 0.0000
# 6 0.0000 0.0000 0.0000 -1.3935 0.0000 12.6091
#
#
#
# Elastic Compliance Matrix: (Units=1/GPa)
#
#
# Indices 1 2 3 4 5 6 
#
# 1 0.030003 -0.004793 -0.008127 0.000000 -0.015520 0.000000
# 2 -0.004793 0.018615 -0.005177 0.000000 0.002409 0.000000
# 3 -0.008127 -0.005177 0.012619 0.000000 0.007874 0.000000
# 4 0.000000 0.000000 0.000000 0.053629 0.000000 0.005927
# 5 -0.015520 0.002409 0.007874 0.000000 0.053755 0.000000
# 6 0.000000 0.000000 0.000000 0.005927 0.000000 0.079962
#
#
# Mechanical properties :
#
#
# Convention : Reuss Voigt Hill
#
# Bulk Modulus (GPa) = 39.93087 51.62827 45.77957
# Shear Modulus (GPa) = 17.05762 20.60415 18.83088
#
# Velocity S-wave (km/s) = 3.12875 3.43866 3.28736
# Velocity P-wave (km/s) = 5.99731 6.73754 6.37817
#
# Compressibility (1/GPa) = 0.02504328
#
# Stress axis : x y z
#
# Youngs Moduli (GPa) = 33.33037 53.72024 79.24353
#
# Poissons Ratio (x) = 0.25747 0.64400
# Poissons Ratio (y) = 0.15975 0.41026
# Poissons Ratio (z) = 0.27087 0.27812
#
# Static dielectric constant tensor:
#      x y z
#    x 3.272900 0.000000 0.089630 
#    y 0.000000 2.899190 0.000000 
#    z 0.089630 0.000000 3.715990 
# 
# 
# High freq. dielectric constant tensor:
#      x y z
#    x 1.666070 0.000000 0.006850 
#    y 0.000000 1.616990 0.000000 
#    z 0.006850 0.000000 1.681900 
# 
# From -- ./inp_files/99613.got.cif
#   From: 2010.06.25/outbox.cif.g09.slc.cpg/sg12_50_cif.got.tgz:99613.got - 2010.06.28 00:19:55.
