data_PCOD8079373
_publ_section_title
;
Structure prediction by ZEFSAII (Michael W. Deem and Ramdas Pophale) SiO2 
 PCOD8079373
Probable space group: C 2/M
;
_chemical_formula_sum "Si O2"
_cell_formula_units_Z 56
_cell_length_a 29.940196
_cell_length_b 14.086953
_cell_length_c 10.671674
_cell_angle_alpha 90.000000
_cell_angle_beta 136.595823
_cell_angle_gamma 90.000000
_cell_volume 3092.785405
_symmetry_space_group_name_H-M "C 2/M"
_symmetry_group_IT_number 12
_symmetry_cell_setting 'monoclinic'
loop_
_space_group_symop_operation_xyz
x,y,z
-x,y,-z
-x,-y,-z
x,-y,z
1/2+x,1/2+y,z
1/2-x,1/2+y,-z
1/2-x,1/2-y,-z
1/2+x,1/2-y,z
loop_
_atom_site_type_symbol
_atom_site_label
_atom_site_fract_x
_atom_site_fract_y
_atom_site_fract_z
Si Si1 0.250776 0.326855 0.396422
Si Si2 0.623593 0.892684 0.017530
Si Si3 0.038902 0.763045 0.949092
Si Si4 0.698091 0.111820 0.914744
Si Si5 0.316395 0.709702 0.276098
Si Si6 0.439616 0.392909 0.629552
Si Si7 0.372298 0.598914 0.752327
O O1 0.250000 0.250000 0.500000
O O2 0.181529 0.374988 0.234109
O O3 0.279840 0.277337 0.332558
O O4 0.299857 0.405015 0.549829
O O5 0.600413 0.000000 0.980562
O O6 0.559309 0.833905 0.922554
O O7 0.649853 0.870345 0.932457
O O8 0.002474 0.824790 0.767926
O O9 0.108166 0.814448 0.118423
O O10 0.000000 0.743330 0.000000
O O11 0.673291 0.183434 0.755965
O O12 0.697138 0.000000 0.872275
O O13 0.772135 0.141939 0.098109
O O14 0.385606 0.657454 0.432517
O O15 0.454450 0.500000 0.608049
O O16 0.420275 0.400300 0.733577
O O17 0.382766 0.500000 0.848316
#
# Coordination Sequence:
#
# PCOD8079373 Si02
#       7
#     8   8   8   8   8   8   8
#     4  10  17  30  52  77 108 130 156 204 259 310
#     4  10  20  34  52  72 100 141 178 209 252 306
#     4  10  19  31  49  72 104 136 173 213 250 296
#     4   9  18  35  57  77  99 132 175 213 253 305
#     4   9  18  32  56  79 101 131 166 208 257 304
#     4   9  17  30  51  76  99 129 168 204 250 307
#     4   9  16  28  48  73 101 132 163 198 248 307
#
# _framework density 18.106655
#
# number of rings (size 3 to 8) (size 9 to 14) (size 15 to 20)
#    0.000    2.571    1.429    1.286    0.000    5.429 
#    0.000    2.857    0.000    5.143    0.000    0.000 
#    0.000    0.000    0.000    0.000    0.000    0.000 
#
# Total GULP energy -346891.962561 kJ/mol
# GULP energy per Si atom -12388.998663 kJ/mol
# Density = 1.806544 g / cm^3
# Si number density = 18.106655 Si / 1000 Ang^3
#
#
#
# Elastic Constant Matrix: (Units=GPa)
#
#
# Indices 1 2 3 4 5 6 
#
# 1 40.7707 49.7288 27.5877 0.0000 5.4459 0.0000
# 2 49.7288 157.3545 57.1523 0.0000 3.1651 0.0000
# 3 27.5877 57.1523 92.7995 0.0000 6.8224 0.0000
# 4 0.0000 0.0000 0.0000 24.9934 0.0000 -9.2952
# 5 5.4459 3.1651 6.8224 0.0000 19.7009 0.0000
# 6 0.0000 0.0000 0.0000 -9.2952 0.0000 13.3879
#
#
#
# Elastic Compliance Matrix: (Units=1/GPa)
#
#
# Indices 1 2 3 4 5 6 
#
# 1 0.043321 -0.011681 -0.005071 0.000000 -0.008342 0.000000
# 2 -0.011681 0.011340 -0.003709 0.000000 0.002692 0.000000
# 3 -0.005071 -0.003709 0.014798 0.000000 -0.003127 0.000000
# 4 0.000000 0.000000 0.000000 0.053938 0.000000 0.037449
# 5 -0.008342 0.002692 -0.003127 0.000000 0.053716 0.000000
# 6 0.000000 0.000000 0.000000 0.037449 0.000000 0.100695
#
#
# Mechanical properties :
#
#
# Convention : Reuss Voigt Hill
#
# Bulk Modulus (GPa) = 35.04414 62.20694 48.62554
# Shear Modulus (GPa) = 15.23270 22.04682 18.63976
#
# Velocity S-wave (km/s) = 2.90362 3.49321 3.21197
# Velocity P-wave (km/s) = 5.53513 7.12043 6.37723
#
# Compressibility (1/GPa) = 0.02853544
#
# Stress axis : x y z
#
# Youngs Moduli (GPa) = 23.08367 88.18646 67.57816
#
# Poissons Ratio (x) = 1.03010 0.34271
# Poissons Ratio (y) = 0.26964 0.25065
# Poissons Ratio (z) = 0.11706 0.32709
#
# Static dielectric constant tensor:
#      x y z
#    x 2.998660 0.000000 -0.027230 
#    y 0.000000 3.554330 0.000000 
#    z -0.027230 0.000000 3.227380 
# 
# 
# High freq. dielectric constant tensor:
#      x y z
#    x 1.664610 0.000000 0.008070 
#    y 0.000000 1.709230 0.000000 
#    z 0.008070 0.000000 1.699290 
# 
# From -- ./inp_files/164846.got.cif
#   From: 2010.06.25/outbox.cif.g09.slc.cpg/sg12_83_cif.got.tgz:164846.got - 2010.06.28 00:19:55.
