data_PCOD8079532
_publ_section_title
;
Structure prediction by ZEFSAII (Michael W. Deem and Ramdas Pophale) SiO2 
 PCOD8079532
Probable space group: C 2/M
;
_chemical_formula_sum "Si O2"
_cell_formula_units_Z 56
_cell_length_a 20.389904
_cell_length_b 17.855971
_cell_length_c 10.294587
_cell_angle_alpha 90.000000
_cell_angle_beta 130.948382
_cell_angle_gamma 90.000000
_cell_volume 2830.917740
_symmetry_space_group_name_H-M "C 2/M"
_symmetry_group_IT_number 12
_symmetry_cell_setting 'monoclinic'
loop_
_space_group_symop_operation_xyz
x,y,z
-x,y,-z
-x,-y,-z
x,-y,z
1/2+x,1/2+y,z
1/2-x,1/2+y,-z
1/2-x,1/2-y,-z
1/2+x,1/2-y,z
loop_
_atom_site_type_symbol
_atom_site_label
_atom_site_fract_x
_atom_site_fract_y
_atom_site_fract_z
Si Si1 0.408896 0.917319 0.962775
Si Si2 0.884381 0.330916 0.691854
Si Si3 0.814795 0.234187 0.201958
Si Si4 0.555545 0.783611 0.819865
Si Si5 0.704454 0.417622 0.684447
Si Si6 0.282631 0.586204 0.588682
Si Si7 0.670613 0.710587 0.180256
O O1 0.443815 0.883555 0.867007
O O2 0.307071 0.920806 0.802865
O O3 0.447201 0.000000 0.038234
O O4 0.416691 0.866760 0.100998
O O5 0.814709 0.379764 0.523904
O O6 0.833543 0.272238 0.713654
O O7 0.950317 0.284470 0.683376
O O8 0.909110 0.265311 0.279057
O O9 0.826262 0.146428 0.254912
O O10 0.770447 0.280030 0.260812
O O11 0.750000 0.250000 0.000000
O O12 0.596182 0.723411 0.974946
O O13 0.670422 0.500000 0.687743
O O14 0.673068 0.402235 0.495449
O O15 0.278322 0.500000 0.622820
O O16 0.341422 0.628626 0.772720
#
# Coordination Sequence:
#
# PCOD8079532 Si02
#       7
#     8   8   8   8   8   8   8
#     4   9  15  26  46  73 103 135 172 215 261 309
#     4  10  18  31  52  79 106 138 178 227 276 316
#     4  10  17  32  49  75 107 144 182 224 263 324
#     4  10  20  31  49  80 111 144 178 224 275 325
#     4   9  16  29  51  76 100 131 179 230 265 305
#     4  10  20  34  56  84 108 142 185 225 270 322
#     4  10  18  33  56  75 105 141 187 229 262 313
#
# _framework density 19.781569000000001
#
# number of rings (size 3 to 8) (size 9 to 14) (size 15 to 20)
#    0.000    2.286    5.714    3.429    0.000    1.714 
#    0.000    4.286    0.000    3.429    0.000    2.000 
#    0.000    0.000    0.000    0.000    0.000    0.000 
#
# Total GULP energy -346913.908130 kJ/mol
# GULP energy per Si atom -12389.782433 kJ/mol
# Density = 1.973655 g / cm^3
# Si number density = 19.781569 Si / 1000 Ang^3
#
#
#
# Elastic Constant Matrix: (Units=GPa)
#
#
# Indices 1 2 3 4 5 6 
#
# 1 115.4076 56.1170 9.3468 0.0000 -14.4534 0.0000
# 2 56.1170 145.6329 37.7019 0.0000 -21.0970 0.0000
# 3 9.3468 37.7019 26.8575 0.0000 -1.6009 0.0000
# 4 0.0000 0.0000 0.0000 26.3801 0.0000 -2.8963
# 5 -14.4534 -21.0970 -1.6009 0.0000 15.0931 0.0000
# 6 0.0000 0.0000 0.0000 -2.8963 0.0000 27.7763
#
#
#
# Elastic Compliance Matrix: (Units=1/GPa)
#
#
# Indices 1 2 3 4 5 6 
#
# 1 0.011132 -0.004118 0.002213 0.000000 0.005139 0.000000
# 2 -0.004118 0.016012 -0.020073 0.000000 0.016310 0.000000
# 3 0.002213 -0.020073 0.063496 0.000000 -0.019203 0.000000
# 4 0.000000 0.000000 0.000000 0.038346 0.000000 0.003998
# 5 0.005139 0.016310 -0.019203 0.000000 0.091937 0.000000
# 6 0.000000 0.000000 0.000000 0.003998 0.000000 0.036419
#
#
# Mechanical properties :
#
#
# Convention : Reuss Voigt Hill
#
# Bulk Modulus (GPa) = 21.42015 54.91436 38.16726
# Shear Modulus (GPa) = 15.77988 26.16540 20.97264
#
# Velocity S-wave (km/s) = 2.82743 3.64086 3.25962
# Velocity P-wave (km/s) = 4.63800 6.74501 5.78818
#
# Compressibility (1/GPa) = 0.04668501
#
# Stress axis : x y z
#
# Youngs Moduli (GPa) = 89.83465 62.45137 15.74895
#
# Poissons Ratio (x) = 0.25716 -0.03485
# Poissons Ratio (y) = 0.36992 0.31612
# Poissons Ratio (z) = -0.19879 1.25357
#
# Static dielectric constant tensor:
#      x y z
#    x 3.933630 0.000000 -0.123930 
#    y 0.000000 3.994950 0.000000 
#    z -0.123930 0.000000 3.381500 
# 
# 
# High freq. dielectric constant tensor:
#      x y z
#    x 1.760090 0.000000 0.002710 
#    y 0.000000 1.766080 0.000000 
#    z 0.002710 0.000000 1.741430 
# 
# From -- ./inp_files/176895.got.cif
#   From: 2010.06.25/outbox.cif.g09.slc.cpg/sg12_89_cif.got.tgz:176895.got - 2010.06.28 00:19:55.
