data_PCOD8079506
_publ_section_title
;
Structure prediction by ZEFSAII (Michael W. Deem and Ramdas Pophale) SiO2 
 PCOD8079506
Probable space group: C 2/M
;
_chemical_formula_sum "Si O2"
_cell_formula_units_Z 64
_cell_length_a 17.079431
_cell_length_b 15.224905
_cell_length_c 25.274387
_cell_angle_alpha 90.000000
_cell_angle_beta 29.968319
_cell_angle_gamma 90.000000
_cell_volume 3282.936090
_symmetry_space_group_name_H-M "C 2/M"
_symmetry_group_IT_number 12
_symmetry_cell_setting 'monoclinic'
loop_
_space_group_symop_operation_xyz
x,y,z
-x,y,-z
-x,-y,-z
x,-y,z
1/2+x,1/2+y,z
1/2-x,1/2+y,-z
1/2-x,1/2-y,-z
1/2+x,1/2-y,z
loop_
_atom_site_type_symbol
_atom_site_label
_atom_site_fract_x
_atom_site_fract_y
_atom_site_fract_z
Si Si1 0.362324 0.598784 0.252659
Si Si2 0.108415 0.597913 0.312064
Si Si3 0.085204 0.255150 0.124569
Si Si4 0.442459 0.400100 0.664051
Si Si5 0.832248 0.399607 0.256873
Si Si6 0.207333 0.832721 0.438464
Si Si7 0.461659 0.237660 0.727148
Si Si8 0.118759 0.645098 0.473227
O O1 0.425193 0.500000 0.211476
O O2 0.230859 0.620101 0.286366
O O3 0.504690 0.662985 0.158570
O O4 0.293279 0.616398 0.352456
O O5 0.130273 0.500000 0.276412
O O6 0.136985 0.666675 0.248592
O O7 0.932084 0.607215 0.439841
O O8 0.981242 0.335553 0.163000
O O9 0.110776 0.264277 0.172184
O O10 0.250000 0.250000 0.000000
O O11 0.427001 0.500000 0.693996
O O12 0.296503 0.375912 0.711765
O O13 0.605635 0.393173 0.536649
O O14 0.442985 0.334416 0.713384
O O15 0.889865 0.500000 0.217095
O O16 0.755245 0.389062 0.359583
O O17 0.358119 0.792871 0.379973
O O18 0.101769 0.750146 0.483255
O O19 0.000000 0.604100 0.500000
#
# Coordination Sequence:
#
# PCOD8079506 Si02
#       8
#     8   8   8   8   8   8   8   8
#     4  10  20  38  61  86 114 153 196 229 272 338
#     4  10  21  35  58  88 122 157 184 222 278 339
#     4  11  25  44  64  83 105 143 193 251 303 338
#     4  11  22  36  57  87 124 160 189 224 274 340
#     4  10  21  39  62  85 114 156 199 232 272 337
#     4  11  20  33  54  88 123 163 193 219 269 327
#     4  11  23  38  54  84 120 150 189 238 292 337
#     4  10  17  31  57  85 119 155 190 223 260 330
#
# _framework density 19.494744000000001
#
# number of rings (size 3 to 8) (size 9 to 14) (size 15 to 20)
#    0.000    1.500    3.750    3.000    0.000    6.000 
#    0.000    2.500    0.000    3.000    0.000    0.000 
#    0.000    0.000    0.000    0.000    0.000    0.000 
#
# Total GULP energy -396786.874878 kJ/mol
# GULP energy per Si atom -12399.589840 kJ/mol
# Density = 1.945037 g / cm^3
# Si number density = 19.494744 Si / 1000 Ang^3
#
#
#
# Elastic Constant Matrix: (Units=GPa)
#
#
# Indices 1 2 3 4 5 6 
#
# 1 88.1700 57.5795 42.7768 -0.0004 7.5844 -0.0001
# 2 57.5795 139.1693 52.1576 0.0001 -1.1212 0.0009
# 3 42.7768 52.1576 122.8583 -0.0010 -4.3390 0.0070
# 4 -0.0004 0.0001 -0.0010 16.7109 0.0026 -4.2614
# 5 7.5844 -1.1212 -4.3390 0.0026 17.0095 -0.0008
# 6 -0.0001 0.0009 0.0070 -4.2614 -0.0008 23.5951
#
#
#
# Elastic Compliance Matrix: (Units=1/GPa)
#
#
# Indices 1 2 3 4 5 6 
#
# 1 0.018068 -0.006027 -0.004067 0.000002 -0.009491 0.000002
# 2 -0.006027 0.010558 -0.002285 -0.000001 0.002801 0.000000
# 3 -0.004067 -0.002285 0.010680 -0.000001 0.004387 -0.000003
# 4 0.000002 -0.000001 -0.000001 0.062730 -0.000010 0.011329
# 5 -0.009491 0.002801 0.004387 -0.000010 0.064326 -0.000001
# 6 0.000002 0.000000 -0.000003 0.011329 -0.000001 0.044428
#
#
# Mechanical properties :
#
#
# Convention : Reuss Voigt Hill
#
# Bulk Modulus (GPa) = 68.74001 72.80283 70.77142
# Shear Modulus (GPa) = 20.79883 24.64202 22.72043
#
# Velocity S-wave (km/s) = 3.26988 3.55918 3.41759
# Velocity P-wave (km/s) = 7.04226 7.36996 7.20797
#
# Compressibility (1/GPa) = 0.01454757
#
# Stress axis : x y z
#
# Youngs Moduli (GPa) = 55.34787 94.71409 93.62913
#
# Poissons Ratio (x) = 0.57088 0.38080
# Poissons Ratio (y) = 0.33360 0.21392
# Poissons Ratio (z) = 0.22511 0.21640
#
# Static dielectric constant tensor:
#      x y z
#    x 3.610620 0.000000 0.000920 
#    y 0.000000 3.644400 0.000000 
#    z 0.000920 0.000000 3.157690 
# 
# 
# High freq. dielectric constant tensor:
#      x y z
#    x 1.761710 0.000000 0.002610 
#    y 0.000000 1.774670 0.000000 
#    z 0.002610 0.000000 1.712460 
# 
# From -- ./inp_files/278152.got.cif
#   From: 2010.06.25/outbox.cif.g09.slc.cpg/sg12_140_cif.got.tgz:278152.got - 2010.06.28 00:19:55.
