data_PCOD8079548
_publ_section_title
;
Structure prediction by ZEFSAII (Michael W. Deem and Ramdas Pophale) SiO2 
 PCOD8079548
Probable space group: C 2/M
;
_chemical_formula_sum "Si O2"
_cell_formula_units_Z 48
_cell_length_a 21.335803
_cell_length_b 10.224846
_cell_length_c 21.223634
_cell_angle_alpha 90.000000
_cell_angle_beta 142.578744
_cell_angle_gamma 90.000000
_cell_volume 2813.543802
_symmetry_space_group_name_H-M "C 2/M"
_symmetry_group_IT_number 12
_symmetry_cell_setting 'monoclinic'
loop_
_space_group_symop_operation_xyz
x,y,z
-x,y,-z
-x,-y,-z
x,-y,z
1/2+x,1/2+y,z
1/2-x,1/2+y,-z
1/2-x,1/2-y,-z
1/2+x,1/2-y,z
loop_
_atom_site_type_symbol
_atom_site_label
_atom_site_fract_x
_atom_site_fract_y
_atom_site_fract_z
Si Si1 0.610959 0.500000 0.011454
Si Si2 0.430688 0.145178 0.506650
Si Si3 0.750972 0.753492 0.706487
Si Si4 0.616254 0.000000 0.016214
Si Si5 0.370810 0.156302 0.271978
Si Si6 0.275557 0.742000 0.947786
Si Si7 0.369830 0.500000 0.830642
Si Si8 0.622187 0.000000 0.170635
O O1 0.490833 0.500000 0.923868
O O2 0.642600 0.627814 0.998474
O O3 0.665283 0.500000 0.123704
O O4 0.500000 0.138967 0.500000
O O5 0.333591 0.241633 0.417752
O O6 0.507052 0.192488 0.623907
O O7 0.386918 0.000000 0.485695
O O8 0.694051 0.764200 0.727949
O O9 0.817734 0.623657 0.753688
O O10 0.828884 0.873753 0.761805
O O11 0.673946 0.124928 0.035164
O O12 0.625025 0.000000 0.097982
O O13 0.496001 0.000000 0.899709
O O14 0.331300 0.206660 0.173066
O O15 0.357758 0.000000 0.270709
O O16 0.250000 0.750000 0.000000
#
# Coordination Sequence:
#
# PCOD8079548 Si02
#       8
#     4   8   8   4   8   8   4   4
#     4  11  21  34  49  81  95 136 178 215 253 295
#     4   8  15  26  49  74 103 129 167 215 258 300
#     4  11  16  31  48  80 102 137 163 204 268 308
#     4  11  23  38  47  75 109 144 176 201 261 313
#     4  10  17  32  51  77 102 133 177 218 250 297
#     4  12  22  36  54  73 104 140 177 214 250 299
#     4  11  18  30  58  72 105 126 173 224 251 298
#     4  11  22  32  52  72 115 148 157 202 263 330
#
# _framework density 17.060334999999998
#
# number of rings (size 3 to 8) (size 9 to 14) (size 15 to 20)
#    0.000    1.500    5.833    2.500    0.000    2.667 
#    0.000    4.583    0.000    0.000    0.000    7.000 
#    0.000    0.000    0.000    0.000    0.000    0.000 
#
# Total GULP energy -297495.988146 kJ/mol
# GULP energy per Si atom -12395.666173 kJ/mol
# Density = 1.702151 g / cm^3
# Si number density = 17.060335 Si / 1000 Ang^3
#
#
#
# Elastic Constant Matrix: (Units=GPa)
#
#
# Indices 1 2 3 4 5 6 
#
# 1 49.8187 24.1143 33.2011 0.0000 -0.9849 0.0000
# 2 24.1143 119.4302 44.9197 0.0000 12.9367 0.0000
# 3 33.2011 44.9197 143.7676 0.0000 15.1810 0.0000
# 4 0.0000 0.0000 0.0000 22.4191 0.0000 15.6191
# 5 -0.9849 12.9367 15.1810 0.0000 20.8172 0.0000
# 6 0.0000 0.0000 0.0000 15.6191 0.0000 -21.4782
#
#
#
# Elastic Compliance Matrix: (Units=1/GPa)
#
#
# Indices 1 2 3 4 5 6 
#
# 1 0.025842 -0.003970 -0.005544 0.000000 0.007733 0.000000
# 2 -0.003970 0.010423 -0.001773 0.000000 -0.005373 0.000000
# 3 -0.005544 -0.001773 0.009427 0.000000 -0.006035 0.000000
# 4 0.000000 0.000000 0.000000 0.029606 0.000000 0.021529
# 5 0.007733 -0.005373 -0.006035 0.000000 0.056143 0.000000
# 6 0.000000 0.000000 0.000000 0.021529 0.000000 -0.030903
#
#
# Mechanical properties :
#
#
# Convention : Reuss Voigt Hill
#
# Bulk Modulus (GPa) = 43.25418 57.49851 50.37635
# Shear Modulus (GPa) = 38.22083 18.40372 28.31228
#
# Velocity S-wave (km/s) = 4.73835 3.28799 4.07816
# Velocity P-wave (km/s) = 7.43940 6.94195 7.19497
#
# Compressibility (1/GPa) = 0.02311915
#
# Stress axis : x y z
#
# Youngs Moduli (GPa) = 38.69651 95.93799 106.07726
#
# Poissons Ratio (x) = 0.38090 0.58808
# Poissons Ratio (y) = 0.15364 0.18803
# Poissons Ratio (z) = 0.21453 0.17005
#
# Static dielectric constant tensor:
#      x y z
#    x 2.780140 0.000000 0.148720 
#    y 0.000000 2.742470 0.000000 
#    z 0.148720 0.000000 3.688490 
# 
# 
# High freq. dielectric constant tensor:
#      x y z
#    x 1.604660 0.000000 0.021410 
#    y 0.000000 1.656370 0.000000 
#    z 0.021410 0.000000 1.677240 
# 
# From -- ./inp_files/320364.got.cif
#   From: 2010.06.25/outbox.cif.g09.slc.cpg/sg12_161_cif.got.tgz:320364.got - 2010.06.28 00:19:55.
