data_PCOD8079432
_publ_section_title
;
Structure prediction by ZEFSAII (Michael W. Deem and Ramdas Pophale) SiO2 
 PCOD8079432
Probable space group: C 2/M
;
_chemical_formula_sum "Si O2"
_cell_formula_units_Z 64
_cell_length_a 17.457188
_cell_length_b 19.794849
_cell_length_c 11.293813
_cell_angle_alpha 90.000000
_cell_angle_beta 71.806111
_cell_angle_gamma 90.000000
_cell_volume 3707.602188
_symmetry_space_group_name_H-M "C 2/M"
_symmetry_group_IT_number 12
_symmetry_cell_setting 'monoclinic'
loop_
_space_group_symop_operation_xyz
x,y,z
-x,y,-z
-x,-y,-z
x,-y,z
1/2+x,1/2+y,z
1/2-x,1/2+y,-z
1/2-x,1/2-y,-z
1/2+x,1/2-y,z
loop_
_atom_site_type_symbol
_atom_site_label
_atom_site_fract_x
_atom_site_fract_y
_atom_site_fract_z
Si Si1 0.183933 0.685989 0.264495
Si Si2 0.068327 0.364377 0.147913
Si Si3 0.079286 0.308378 0.531496
Si Si4 0.905885 0.424052 0.293579
Si Si5 0.343756 0.684453 0.867506
Si Si6 0.179289 0.360524 0.873232
Si Si7 0.990537 0.222765 0.235968
Si Si8 0.352330 0.705301 0.137579
O O1 0.124932 0.628844 0.238494
O O2 0.149322 0.712831 0.405952
O O3 0.188726 0.742664 0.158490
O O4 0.277195 0.664886 0.234914
O O5 0.995249 0.416749 0.194619
O O6 0.029960 0.289353 0.156638
O O7 0.121600 0.381965 0.008776
O O8 0.108863 0.372620 0.591729
O O9 0.059505 0.243616 0.622990
O O10 0.000000 0.330971 0.500000
O O11 0.894773 0.500000 0.346220
O O12 0.838504 0.410543 0.226244
O O13 0.274361 0.631231 0.862807
O O14 0.433529 0.673383 0.766993
O O15 0.358408 0.682317 0.000135
O O16 0.158474 0.285374 0.840365
O O17 0.932862 0.185003 0.170319
#
# Coordination Sequence:
#
# PCOD8079432 Si02
#       8
#     8   8   8   8   8   8   8   8
#     4  10  18  29  46  67  95 136 169 184 243 296
#     4  10  17  31  47  64  99 127 162 199 242 287
#     4  11  19  35  47  63 100 141 166 208 237 282
#     4  11  24  35  50  69  90 132 181 216 244 272
#     4  10  18  28  49  72  98 133 158 188 251 306
#     4  11  18  31  47  70  99 125 163 204 243 297
#     4  10  19  27  46  73 100 131 163 190 232 296
#     4  11  17  29  48  76  97 134 160 195 241 305
#
# _framework density 17.261831000000001
#
# number of rings (size 3 to 8) (size 9 to 14) (size 15 to 20)
#    0.000    1.500   10.000    1.500    0.000    1.750 
#    0.000    0.000    0.000    0.000    0.000    0.000 
#    0.000    5.000    0.000    0.000    0.000    0.000 
#
# Total GULP energy -396547.641244 kJ/mol
# GULP energy per Si atom -12392.113789 kJ/mol
# Density = 1.722254 g / cm^3
# Si number density = 17.261831 Si / 1000 Ang^3
#
#
#
# Elastic Constant Matrix: (Units=GPa)
#
#
# Indices 1 2 3 4 5 6 
#
# 1 117.0024 15.8373 26.5263 0.0000 9.6057 0.0000
# 2 15.8373 20.8323 9.1535 0.0000 2.1569 0.0000
# 3 26.5263 9.1535 90.3840 0.0000 1.4604 0.0000
# 4 0.0000 0.0000 0.0000 6.0848 0.0000 1.0371
# 5 9.6057 2.1569 1.4604 0.0000 25.0309 0.0000
# 6 0.0000 0.0000 0.0000 1.0371 0.0000 11.6249
#
#
#
# Elastic Compliance Matrix: (Units=1/GPa)
#
#
# Indices 1 2 3 4 5 6 
#
# 1 0.010199 -0.006413 -0.002292 0.000000 -0.003228 0.000000
# 2 -0.006413 0.054680 -0.003623 0.000000 -0.002039 0.000000
# 3 -0.002292 -0.003623 0.012096 0.000000 0.000486 0.000000
# 4 0.000000 0.000000 0.000000 0.166880 0.000000 -0.014888
# 5 -0.003228 -0.002039 0.000486 0.000000 0.041337 0.000000
# 6 0.000000 0.000000 0.000000 -0.014888 0.000000 0.087351
#
#
# Mechanical properties :
#
#
# Convention : Reuss Voigt Hill
#
# Bulk Modulus (GPa) = 19.11277 36.80587 27.95932
# Shear Modulus (GPa) = 12.05872 20.32823 16.19347
#
# Velocity S-wave (km/s) = 2.64593 3.43540 3.06618
# Velocity P-wave (km/s) = 4.52005 6.09134 5.36355
#
# Compressibility (1/GPa) = 0.05232103
#
# Stress axis : x y z
#
# Youngs Moduli (GPa) = 98.04476 18.28807 82.67507
#
# Poissons Ratio (x) = 0.11728 0.18947
# Poissons Ratio (y) = 0.62873 0.29951
# Poissons Ratio (z) = 0.22470 0.06625
#
# Static dielectric constant tensor:
#      x y z
#    x 3.815200 0.000000 -0.040480 
#    y 0.000000 2.550150 0.000000 
#    z -0.040480 0.000000 3.305310 
# 
# 
# High freq. dielectric constant tensor:
#      x y z
#    x 1.688160 0.000000 0.003480 
#    y 0.000000 1.569940 0.000000 
#    z 0.003480 0.000000 1.669990 
# 
# From -- ./inp_files/158898.got.cif
#   From: 2010.06.25/outbox.cif.g09.slc.cpg/sg12_80_cif.got.tgz:158898.got - 2010.06.28 00:19:55.
