data_PCOD8079493
_publ_section_title
;
Structure prediction by ZEFSAII (Michael W. Deem and Ramdas Pophale) SiO2 
 PCOD8079493
Probable space group: C 2/M
;
_chemical_formula_sum "Si O2"
_cell_formula_units_Z 52
_cell_length_a 22.398612
_cell_length_b 27.440172
_cell_length_c 8.718391
_cell_angle_alpha 90.000000
_cell_angle_beta 31.805597
_cell_angle_gamma 90.000000
_cell_volume 2824.144278
_symmetry_space_group_name_H-M "C 2/M"
_symmetry_group_IT_number 12
_symmetry_cell_setting 'monoclinic'
loop_
_space_group_symop_operation_xyz
x,y,z
-x,y,-z
-x,-y,-z
x,-y,z
1/2+x,1/2+y,z
1/2-x,1/2+y,-z
1/2-x,1/2-y,-z
1/2+x,1/2-y,z
loop_
_atom_site_type_symbol
_atom_site_label
_atom_site_fract_x
_atom_site_fract_y
_atom_site_fract_z
Si Si1 0.222437 0.175368 0.141670
Si Si2 0.103502 0.752191 0.174054
Si Si3 0.539073 0.000000 0.588378
Si Si4 0.296527 0.000000 0.116615
Si Si5 0.944045 0.000000 0.285130
Si Si6 0.784695 0.426628 0.874959
Si Si7 0.558402 0.584708 0.216933
Si Si8 0.999982 0.824808 0.181157
O O1 0.170372 0.205589 0.115989
O O2 0.124458 0.162436 0.478019
O O3 0.314387 0.206599 0.036884
O O4 0.285674 0.130235 0.919442
O O5 0.000000 0.732013 0.500000
O O6 0.052912 0.774264 0.127325
O O7 0.500000 0.000000 0.500000
O O8 0.610516 0.949470 0.454478
O O9 0.418034 0.000000 0.944366
O O10 0.189930 0.000000 0.463734
O O11 0.281849 0.952744 0.043895
O O12 0.976890 0.953422 0.312952
O O13 0.000000 0.000000 0.000000
O O14 0.677309 0.439453 0.002808
O O15 0.500000 0.604801 0.500000
O O16 0.579626 0.630252 0.057830
O O17 0.000000 0.820630 0.000000
#
# Coordination Sequence:
#
# PCOD8079493 Si02
#       8
#     8   8   4   4   4   8   8   8
#     4  10  18  33  55  77 102 136 185 225 267 319
#     4   9  19  34  52  78 103 135 183 233 265 319
#     4   8  19  31  48  83 106 134 173 216 274 315
#     4  10  19  34  50  79 117 138 170 220 271 323
#     4  12  23  32  52  87 115 145 177 220 275 328
#     4  10  17  31  56  77 103 136 181 231 268 312
#     4  12  19  34  55  78 109 138 183 231 273 316
#     4  11  21  34  51  78 114 143 168 220 291 333
#
# _framework density 18.412656999999999
#
# number of rings (size 3 to 8) (size 9 to 14) (size 15 to 20)
#    0.000    1.846    4.615    2.077    0.000    2.462 
#    0.000    0.000    0.000    1.846    0.000    0.000 
#    0.000    0.000    0.000    0.000    0.000    0.000 
#
# Total GULP energy -322144.687809 kJ/mol
# GULP energy per Si atom -12390.180300 kJ/mol
# Density = 1.837075 g / cm^3
# Si number density = 18.412657 Si / 1000 Ang^3
#
#
#
# Elastic Constant Matrix: (Units=GPa)
#
#
# Indices 1 2 3 4 5 6 
#
# 1 84.1421 26.7462 50.3957 -0.0001 -1.0668 0.0001
# 2 26.7462 87.4307 43.8190 0.0000 -8.5110 0.0000
# 3 50.3957 43.8190 120.6912 -0.0003 -22.4829 0.0001
# 4 -0.0001 0.0000 -0.0003 19.4370 0.0001 -4.4826
# 5 -1.0668 -8.5110 -22.4829 0.0001 33.3543 -0.0001
# 6 0.0001 0.0000 0.0001 -4.4826 -0.0001 11.2802
#
#
#
# Elastic Compliance Matrix: (Units=1/GPa)
#
#
# Indices 1 2 3 4 5 6 
#
# 1 0.016750 -0.002002 -0.007162 0.000000 -0.004803 0.000000
# 2 -0.002002 0.014222 -0.004189 0.000000 0.000741 0.000000
# 3 -0.007162 -0.004189 0.014358 0.000000 0.008380 0.000000
# 4 0.000000 0.000000 0.000000 0.056639 0.000000 0.022508
# 5 -0.004803 0.000741 0.008380 0.000000 0.035665 0.000000
# 6 0.000000 0.000000 0.000000 0.022508 0.000000 0.097595
#
#
# Mechanical properties :
#
#
# Convention : Reuss Voigt Hill
#
# Bulk Modulus (GPa) = 53.69654 59.35400 56.52527
# Shear Modulus (GPa) = 18.64672 24.23451 21.44062
#
# Velocity S-wave (km/s) = 3.18577 3.63187 3.41611
# Velocity P-wave (km/s) = 6.53898 7.06348 6.80628
#
# Compressibility (1/GPa) = 0.01862318
#
# Stress axis : x y z
#
# Youngs Moduli (GPa) = 59.70314 70.31391 69.64665
#
# Poissons Ratio (x) = 0.14077 0.49879
# Poissons Ratio (y) = 0.11953 0.29178
# Poissons Ratio (z) = 0.42757 0.29458
#
# Static dielectric constant tensor:
#      x y z
#    x 3.421140 0.000000 -0.629770 
#    y 0.000000 3.445730 0.000000 
#    z -0.629770 0.000000 4.034090 
# 
# 
# High freq. dielectric constant tensor:
#      x y z
#    x 1.690230 0.000000 -0.029150 
#    y 0.000000 1.717720 0.000000 
#    z -0.029150 0.000000 1.701770 
# 
# From -- ./inp_files/91489.got.cif
#   From: 2010.06.25/outbox.cif.g09.slc.cpg/sg12_46_cif.got.tgz:91489.got - 2010.06.28 00:19:55.
