data_PCOD8079153
_publ_section_title
;
Structure prediction by ZEFSAII (Michael W. Deem and Ramdas Pophale) SiO2 
 PCOD8079153
Probable space group: C 2/M
;
_chemical_formula_sum "Si O2"
_cell_formula_units_Z 64
_cell_length_a 28.788472
_cell_length_b 9.334797
_cell_length_c 16.761007
_cell_angle_alpha 90.000000
_cell_angle_beta 65.164365
_cell_angle_gamma 90.000000
_cell_volume 4087.691333
_symmetry_space_group_name_H-M "C 2/M"
_symmetry_group_IT_number 12
_symmetry_cell_setting 'monoclinic'
loop_
_space_group_symop_operation_xyz
x,y,z
-x,y,-z
-x,-y,-z
x,-y,z
1/2+x,1/2+y,z
1/2-x,1/2+y,-z
1/2-x,1/2-y,-z
1/2+x,1/2-y,z
loop_
_atom_site_type_symbol
_atom_site_label
_atom_site_fract_x
_atom_site_fract_y
_atom_site_fract_z
Si Si1 0.051125 0.668467 0.921761
Si Si2 0.920270 0.669382 0.594818
Si Si3 0.252577 0.334691 0.915837
Si Si4 0.639550 0.834957 0.971604
Si Si5 0.912115 0.162812 0.861353
Si Si6 0.015226 0.331283 0.780815
Si Si7 0.524825 0.169068 0.598347
Si Si8 0.349657 0.661872 0.750735
O O1 0.048215 0.500000 0.934219
O O2 0.103088 0.723715 0.926527
O O3 0.053673 0.707979 0.825561
O O4 0.000000 0.735260 0.000000
O O5 0.912113 0.500000 0.606535
O O6 0.931860 0.721460 0.495408
O O7 0.868191 0.744195 0.662200
O O8 0.968346 0.722021 0.613759
O O9 0.265015 0.500000 0.927941
O O10 0.199274 0.320315 0.905601
O O11 0.297179 0.274467 0.825826
O O12 0.250000 0.250000 0.000000
O O13 0.626361 0.000000 0.001983
O O14 0.631781 0.736371 0.054359
O O15 0.894661 0.168340 0.782976
O O16 0.962980 0.252358 0.837832
O O17 0.920966 0.000000 0.883107
O O18 0.003362 0.500000 0.786743
O O19 0.037973 0.279010 0.679016
O O20 0.523781 0.000000 0.593558
O O21 0.340545 0.500000 0.727548
#
# Coordination Sequence:
#
# PCOD8079153 Si02
#       8
#     8   8   8   8   8   8   8   8
#     4   9  16  26  44  69  88 107 147 189 211 248
#     4   9  16  28  45  65  86 111 145 178 212 262
#     4  10  20  32  46  63  87 116 149 183 216 257
#     4  10  19  32  47  62  84 118 153 183 216 251
#     4  11  20  28  41  63  93 118 145 182 213 252
#     4  10  17  29  47  64  88 120 148 176 215 258
#     4   8  15  26  43  66  88 110 141 179 215 252
#     4  10  20  31  41  62  91 117 144 179 216 254
#
# _framework density 15.65676
#
# number of rings (size 3 to 8) (size 9 to 14) (size 15 to 20)
#    0.000    2.375    3.750    1.125    0.000    1.000 
#    0.000    3.125    0.000    0.000    0.000    0.875 
#    0.000    0.000    0.000    0.000    0.000    0.000 
#
# Total GULP energy -396579.581757 kJ/mol
# GULP energy per Si atom -12393.111930 kJ/mol
# Density = 1.562112 g / cm^3
# Si number density = 15.656760 Si / 1000 Ang^3
#
#
#
# Elastic Constant Matrix: (Units=GPa)
#
#
# Indices 1 2 3 4 5 6 
#
# 1 74.4456 16.7530 43.6800 0.0000 -5.4611 0.0000
# 2 16.7530 39.0473 33.7031 0.0000 -6.1738 0.0000
# 3 43.6800 33.7031 126.3968 0.0000 -10.5981 0.0000
# 4 0.0000 0.0000 0.0000 19.9298 0.0000 -5.1788
# 5 -5.4611 -6.1738 -10.5981 0.0000 26.2563 0.0000
# 6 0.0000 0.0000 0.0000 -5.1788 0.0000 12.8895
#
#
#
# Elastic Compliance Matrix: (Units=1/GPa)
#
#
# Indices 1 2 3 4 5 6 
#
# 1 0.017117 -0.002814 -0.005094 0.000000 0.000842 0.000000
# 2 -0.002814 0.034225 -0.007792 0.000000 0.004317 0.000000
# 3 -0.005094 -0.007792 0.011910 0.000000 0.001916 0.000000
# 4 0.000000 0.000000 0.000000 0.056025 0.000000 0.022510
# 5 0.000842 0.004317 0.001916 0.000000 0.040050 0.000000
# 6 0.000000 0.000000 0.000000 0.022510 0.000000 0.086626
#
#
# Mechanical properties :
#
#
# Convention : Reuss Voigt Hill
#
# Bulk Modulus (GPa) = 31.39425 47.57352 39.48388
# Shear Modulus (GPa) = 17.36294 21.53205 19.44750
#
# Velocity S-wave (km/s) = 3.33374 3.71247 3.52819
# Velocity P-wave (km/s) = 5.90877 6.98769 6.47075
#
# Compressibility (1/GPa) = 0.03185297
#
# Stress axis : x y z
#
# Youngs Moduli (GPa) = 58.42301 29.21846 83.96103
#
# Poissons Ratio (x) = 0.08221 0.42772
# Poissons Ratio (y) = 0.16437 0.65419
# Poissons Ratio (z) = 0.29762 0.22766
#
# Static dielectric constant tensor:
#      x y z
#    x 2.973550 0.000000 0.032190 
#    y 0.000000 2.805140 0.000000 
#    z 0.032190 0.000000 3.222280 
# 
# 
# High freq. dielectric constant tensor:
#      x y z
#    x 1.575660 0.000000 -0.002400 
#    y 0.000000 1.578920 0.000000 
#    z -0.002400 0.000000 1.595180 
# 
# From -- ./inp_files/294568.got.cif
#   From: 2010.06.25/outbox.cif.g09.slc.cpg/sg12_148_cif.got.tgz:294568.got - 2010.06.28 00:19:55.
