data_PCOD8079948
_publ_section_title
;
Structure prediction by ZEFSAII (Michael W. Deem and Ramdas Pophale) SiO2 
 PCOD8079948
Probable space group: C 2/M
;
_chemical_formula_sum "Si O2"
_cell_formula_units_Z 64
_cell_length_a 24.254493
_cell_length_b 9.069242
_cell_length_c 18.403583
_cell_angle_alpha 90.000000
_cell_angle_beta 79.722635
_cell_angle_gamma 90.000000
_cell_volume 3983.282208
_symmetry_space_group_name_H-M "C 2/M"
_symmetry_group_IT_number 12
_symmetry_cell_setting 'monoclinic'
loop_
_space_group_symop_operation_xyz
x,y,z
-x,y,-z
-x,-y,-z
x,-y,z
1/2+x,1/2+y,z
1/2-x,1/2+y,-z
1/2-x,1/2-y,-z
1/2+x,1/2-y,z
loop_
_atom_site_type_symbol
_atom_site_label
_atom_site_fract_x
_atom_site_fract_y
_atom_site_fract_z
Si Si1 0.993309 0.165763 0.335938
Si Si2 0.552736 0.170843 0.202064
Si Si3 0.165595 0.170782 0.002437
Si Si4 0.446822 0.169505 0.966157
Si Si5 0.270185 0.170371 0.885322
Si Si6 0.890811 0.163752 0.605117
Si Si7 0.160671 0.825324 0.238063
Si Si8 0.058420 0.665320 0.528493
O O1 0.001860 0.258725 0.260316
O O2 0.050760 0.164056 0.366502
O O3 0.945329 0.240127 0.396855
O O4 0.974360 0.000000 0.320878
O O5 0.537853 0.192248 0.121571
O O6 0.610506 0.253812 0.204084
O O7 0.559011 0.000000 0.222416
O O8 0.104430 0.228577 0.995972
O O9 0.188855 0.266220 0.063067
O O10 0.163616 0.000000 0.026541
O O11 0.205559 0.191846 0.922864
O O12 0.431098 0.000000 0.985979
O O13 0.500000 0.220774 0.000000
O O14 0.281606 0.257982 0.807333
O O15 0.285757 0.000000 0.870997
O O16 0.843984 0.214471 0.674940
O O17 0.892839 0.270937 0.535296
O O18 0.877826 0.000000 0.579022
O O19 0.158086 0.000000 0.227632
O O20 0.075208 0.500000 0.545690
O O21 0.000000 0.669945 0.500000
#
# Coordination Sequence:
#
# PCOD8079948 Si02
#       8
#     8   8   8   8   8   8   8   8
#     4   9  16  25  37  51  72 102 135 173 211 247
#     4  10  18  28  42  59  80 106 140 179 216 257
#     4  10  20  32  47  66  86 110 144 181 220 264
#     4  10  21  35  49  65  87 115 145 181 226 269
#     4  10  19  30  45  65  88 113 141 180 222 260
#     4   8  15  24  33  49  75 105 135 167 204 245
#     4  10  18  27  41  61  84 111 142 176 213 255
#     4   9  15  22  33  50  71  99 136 171 203 243
#
# _framework density 16.067152
#
# number of rings (size 3 to 8) (size 9 to 14) (size 15 to 20)
#    0.000    2.500    1.250    3.000    0.000    7.250 
#    0.000    0.000    0.000    0.000    0.000    0.000 
#    0.000    0.000    0.000    1.125    0.000   14.375 
#
# Total GULP energy -396723.480394 kJ/mol
# GULP energy per Si atom -12397.608762 kJ/mol
# Density = 1.603058 g / cm^3
# Si number density = 16.067152 Si / 1000 Ang^3
#
#
#
# Elastic Constant Matrix: (Units=GPa)
#
#
# Indices 1 2 3 4 5 6 
#
# 1 48.3267 33.3238 36.9617 0.0000 -11.6280 0.0000
# 2 33.3238 120.4262 64.3495 0.0000 -21.7759 0.0000
# 3 36.9617 64.3495 107.0787 0.0000 -34.6762 0.0000
# 4 0.0000 0.0000 0.0000 29.9100 0.0000 -9.9687
# 5 -11.6280 -21.7759 -34.6762 0.0000 22.1689 0.0000
# 6 0.0000 0.0000 0.0000 -9.9687 0.0000 16.3913
#
#
#
# Elastic Compliance Matrix: (Units=1/GPa)
#
#
# Indices 1 2 3 4 5 6 
#
# 1 0.029379 -0.004007 -0.008141 0.000000 -0.001261 0.000000
# 2 -0.004007 0.012790 -0.005908 0.000000 0.001221 0.000000
# 3 -0.008141 -0.005908 0.025204 0.000000 0.029351 0.000000
# 4 0.000000 0.000000 0.000000 0.041933 0.000000 0.025503
# 5 -0.001261 0.001221 0.029351 0.000000 0.091556 0.000000
# 6 0.000000 0.000000 0.000000 0.025503 0.000000 0.076518
#
#
# Mechanical properties :
#
#
# Convention : Reuss Voigt Hill
#
# Bulk Modulus (GPa) = 31.98862 60.56686 46.27774
# Shear Modulus (GPa) = 15.43616 23.10716 19.27166
#
# Velocity S-wave (km/s) = 3.10292 3.79642 3.46706
# Velocity P-wave (km/s) = 5.72626 7.54950 6.70019
#
# Compressibility (1/GPa) = 0.03126112
#
# Stress axis : x y z
#
# Youngs Moduli (GPa) = 34.03784 78.18415 39.67547
#
# Poissons Ratio (x) = 0.31332 0.32300
# Poissons Ratio (y) = 0.13640 0.23440
# Poissons Ratio (z) = 0.27711 0.46190
#
# Static dielectric constant tensor:
#      x y z
#    x 2.568570 0.000000 -0.421340 
#    y 0.000000 3.241450 0.000000 
#    z -0.421340 0.000000 3.277350 
# 
# 
# High freq. dielectric constant tensor:
#      x y z
#    x 1.543170 0.000000 -0.041730 
#    y 0.000000 1.636100 0.000000 
#    z -0.041730 0.000000 1.620910 
# 
# From -- ./inp_files/287573.got.cif
#   From: 2010.06.25/outbox.cif.g09.slc.cpg/sg12_144_cif.got.tgz:287573.got - 2010.06.28 00:19:55.
