data_PCOD8079674
_publ_section_title
;
Structure prediction by ZEFSAII (Michael W. Deem and Ramdas Pophale) SiO2 
 PCOD8079674
Probable space group: C 2/M
;
_chemical_formula_sum "Si O2"
_cell_formula_units_Z 64
_cell_length_a 23.856189
_cell_length_b 9.019303
_cell_length_c 28.303601
_cell_angle_alpha 90.000000
_cell_angle_beta 33.155007
_cell_angle_gamma 90.000000
_cell_volume 3330.645391
_symmetry_space_group_name_H-M "C 2/M"
_symmetry_group_IT_number 12
_symmetry_cell_setting 'monoclinic'
loop_
_space_group_symop_operation_xyz
x,y,z
-x,y,-z
-x,-y,-z
x,-y,z
1/2+x,1/2+y,z
1/2-x,1/2+y,-z
1/2-x,1/2-y,-z
1/2+x,1/2-y,z
loop_
_atom_site_type_symbol
_atom_site_label
_atom_site_fract_x
_atom_site_fract_y
_atom_site_fract_z
Si Si1 0.482086 0.323719 0.398420
Si Si2 0.052705 0.173805 0.246344
Si Si3 0.567673 0.176406 0.752168
Si Si4 0.716366 0.830777 0.897671
Si Si5 0.845779 0.175128 0.153002
Si Si6 0.297009 0.327159 0.587958
Si Si7 0.332146 0.326967 0.668843
Si Si8 0.511968 0.170484 0.090821
O O1 0.482111 0.500000 0.401565
O O2 0.502320 0.270017 0.330951
O O3 0.372874 0.260141 0.494254
O O4 0.572188 0.264556 0.368917
O O5 0.172735 0.213825 0.160789
O O6 0.000831 0.262435 0.241258
O O7 0.033959 0.000000 0.252445
O O8 0.683066 0.242491 0.665689
O O9 0.519297 0.231929 0.835686
O O10 0.566811 0.000000 0.750794
O O11 0.687367 0.725550 0.875248
O O12 0.719057 0.000000 0.876950
O O13 0.634267 0.811726 0.997749
O O14 0.768426 0.236885 0.246613
O O15 0.957691 0.236806 0.087546
O O16 0.848275 0.000000 0.152754
O O17 0.283899 0.500000 0.588162
O O18 0.351232 0.298751 0.600033
O O19 0.312370 0.500000 0.693310
O O20 0.477685 0.000000 0.109670
#
# Coordination Sequence:
#
# PCOD8079674 Si02
#       8
#     8   8   8   8   8   8   8   8
#     4   9  17  31  56  86 110 138 182 230 272 321
#     4  10  21  37  56  80 110 145 187 230 272 321
#     4  10  21  37  56  80 110 145 187 230 272 321
#     4  10  21  39  61  82 107 145 188 226 269 327
#     4  12  23  34  55  87 120 146 174 220 280 332
#     4   9  17  31  56  86 110 138 182 230 272 321
#     4  10  17  33  59  83 110 145 184 223 271 329
#     4  10  21  39  61  82 107 145 188 226 269 327
#
# _framework density 19.215495000000001
#
# number of rings (size 3 to 8) (size 9 to 14) (size 15 to 20)
#    0.000    2.000    2.500    1.875    0.000    5.500 
#    0.000    0.000    0.000    3.000    0.000    0.000 
#    0.000    0.000    0.000    0.000    0.000    0.000 
#
# Total GULP energy -396805.913556 kJ/mol
# GULP energy per Si atom -12400.184799 kJ/mol
# Density = 1.917176 g / cm^3
# Si number density = 19.215495 Si / 1000 Ang^3
#
#
#
# Elastic Constant Matrix: (Units=GPa)
#
#
# Indices 1 2 3 4 5 6 
#
# 1 112.8221 29.0807 45.3614 -0.0026 -9.5747 0.0010
# 2 29.0807 48.0479 25.3387 -0.0118 -1.3545 -0.0104
# 3 45.3614 25.3387 133.7349 0.0000 -5.4234 0.0003
# 4 -0.0026 -0.0118 0.0000 9.6876 -0.0026 -2.1705
# 5 -9.5747 -1.3545 -5.4234 -0.0026 20.2290 0.0017
# 6 0.0010 -0.0104 0.0003 -2.1705 0.0017 31.4148
#
#
#
# Elastic Compliance Matrix: (Units=1/GPa)
#
#
# Indices 1 2 3 4 5 6 
#
# 1 0.011784 -0.005548 -0.002765 -0.000003 0.004465 -0.000003
# 2 -0.005548 0.025738 -0.003065 0.000032 -0.001724 0.000011
# 3 -0.002765 -0.003065 0.009033 -0.000005 0.000908 -0.000001
# 4 -0.000003 0.000032 -0.000005 0.104847 0.000012 0.007244
# 5 0.004465 -0.001724 0.000908 0.000012 0.051675 -0.000003
# 6 -0.000003 0.000011 -0.000001 0.007244 -0.000003 0.032333
#
#
# Mechanical properties :
#
#
# Convention : Reuss Voigt Hill
#
# Bulk Modulus (GPa) = 42.01742 54.90740 48.46241
# Shear Modulus (GPa) = 18.79001 25.25455 22.02228
#
# Velocity S-wave (km/s) = 3.13046 3.62923 3.38904
# Velocity P-wave (km/s) = 5.91441 6.79694 6.37098
#
# Compressibility (1/GPa) = 0.02379965
#
# Stress axis : x y z
#
# Youngs Moduli (GPa) = 84.85968 38.85272 110.70869
#
# Poissons Ratio (x) = 0.21557 0.30608
# Poissons Ratio (y) = 0.47083 0.33928
# Poissons Ratio (z) = 0.23462 0.11907
#
# Static dielectric constant tensor:
#      x y z
#    x 3.409460 0.000000 -0.030720 
#    y 0.000000 3.102040 0.000010 
#    z -0.030720 0.000010 3.963660 
# 
# 
# High freq. dielectric constant tensor:
#      x y z
#    x 1.743290 0.000000 -0.000710 
#    y 0.000000 1.703320 0.000000 
#    z -0.000710 0.000000 1.767390 
# 
# From -- ./inp_files/382345.got.cif
#   From: 2010.06.25/outbox.cif.g09.slc.cpg/sg12_192_cif.got.tgz:382345.got - 2010.06.28 00:19:55.
