data_PCOD8079272
_publ_section_title
;
Structure prediction by ZEFSAII (Michael W. Deem and Ramdas Pophale) SiO2 
 PCOD8079272
Probable space group: C 2/M
;
_chemical_formula_sum "Si O2"
_cell_formula_units_Z 44
_cell_length_a 9.268301
_cell_length_b 20.644909
_cell_length_c 14.581092
_cell_angle_alpha 90.000000
_cell_angle_beta 58.458743
_cell_angle_gamma 90.000000
_cell_volume 2377.809992
_symmetry_space_group_name_H-M "C 2/M"
_symmetry_group_IT_number 12
_symmetry_cell_setting 'monoclinic'
loop_
_space_group_symop_operation_xyz
x,y,z
-x,y,-z
-x,-y,-z
x,-y,z
1/2+x,1/2+y,z
1/2-x,1/2+y,-z
1/2-x,1/2-y,-z
1/2+x,1/2-y,z
loop_
_atom_site_type_symbol
_atom_site_label
_atom_site_fract_x
_atom_site_fract_y
_atom_site_fract_z
Si Si1 0.500000 0.246095 0.000000
Si Si2 0.420782 0.926813 0.925088
Si Si3 0.684049 0.074650 0.690101
Si Si4 0.490481 0.575132 0.712780
Si Si5 0.325138 0.334892 0.918511
Si Si6 0.832822 0.422926 0.506741
O O1 0.540080 0.288208 0.077129
O O2 0.331951 0.203417 0.076992
O O3 0.551796 0.896256 0.807967
O O4 0.369908 0.000000 0.916646
O O5 0.500000 0.924596 0.000000
O O6 0.253867 0.882493 0.977889
O O7 0.671636 0.107794 0.594118
O O8 0.874143 0.083152 0.662213
O O9 0.636082 0.000000 0.696441
O O10 0.487303 0.500000 0.747889
O O11 0.426901 0.622038 0.812973
O O12 0.675065 0.599138 0.620872
O O13 0.830162 0.500000 0.500304
O O14 0.000000 0.396357 0.500000
#
# Coordination Sequence:
#
# PCOD8079272 Si02
#       6
#     4   8   8   8   8   8
#     4  10  24  36  54  72 108 142 186 218 266 306
#     4  10  17  29  54  84 114 138 167 214 265 317
#     4   9  16  27  47  75 107 144 173 201 249 316
#     4  10  18  31  55  80 106 134 171 218 262 316
#     4  11  20  38  53  80 103 141 178 225 261 318
#     4   9  18  30  44  72 113 145 169 202 258 323
#
# _framework density 18.504422000000002
#
# number of rings (size 3 to 8) (size 9 to 14) (size 15 to 20)
#    0.000    2.182    2.727    1.091    0.000    3.636 
#    0.000    3.636    0.000    0.000    0.000   31.818 
#    0.000    0.000    0.000    0.000    0.000    0.000 
#
# Total GULP energy -272678.911211 kJ/mol
# GULP energy per Si atom -12394.495964 kJ/mol
# Density = 1.846230 g / cm^3
# Si number density = 18.504422 Si / 1000 Ang^3
#
#
#
# Elastic Constant Matrix: (Units=GPa)
#
#
# Indices 1 2 3 4 5 6 
#
# 1 114.7166 42.4330 79.7801 0.0000 -11.2551 0.0000
# 2 42.4330 69.8125 50.5876 0.0000 -2.3646 0.0000
# 3 79.7801 50.5876 159.6585 0.0000 -16.9624 0.0000
# 4 0.0000 0.0000 0.0000 11.3492 0.0000 -0.8798
# 5 -11.2551 -2.3646 -16.9624 0.0000 25.9315 0.0000
# 6 0.0000 0.0000 0.0000 -0.8798 0.0000 14.6199
#
#
#
# Elastic Compliance Matrix: (Units=1/GPa)
#
#
# Indices 1 2 3 4 5 6 
#
# 1 0.014536 -0.004763 -0.005513 0.000000 0.002268 0.000000
# 2 -0.004763 0.020285 -0.004374 0.000000 -0.003079 0.000000
# 3 -0.005513 -0.004374 0.010862 0.000000 0.004314 0.000000
# 4 0.000000 0.000000 0.000000 0.088525 0.000000 0.005327
# 5 0.002268 -0.003079 0.004314 0.000000 0.042089 0.000000
# 6 0.000000 0.000000 0.000000 0.005327 0.000000 0.068721
#
#
# Mechanical properties :
#
#
# Convention : Reuss Voigt Hill
#
# Bulk Modulus (GPa) = 61.04357 76.64321 68.84339
# Shear Modulus (GPa) = 17.87129 21.80591 19.83860
#
# Velocity S-wave (km/s) = 3.11108 3.43653 3.27785
# Velocity P-wave (km/s) = 6.77977 7.56671 7.18403
#
# Compressibility (1/GPa) = 0.01638174
#
# Stress axis : x y z
#
# Youngs Moduli (GPa) = 68.79596 49.29868 92.06010
#
# Poissons Ratio (x) = 0.23482 0.50754
# Poissons Ratio (y) = 0.32769 0.40268
# Poissons Ratio (z) = 0.37928 0.21564
#
# Static dielectric constant tensor:
#      x y z
#    x 3.427790 0.000000 -0.072810 
#    y 0.000000 3.269960 0.000000 
#    z -0.072810 0.000000 3.557720 
# 
# 
# High freq. dielectric constant tensor:
#      x y z
#    x 1.712050 0.000000 -0.008000 
#    y 0.000000 1.678100 0.000000 
#    z -0.008000 0.000000 1.720830 
# 
# From -- ./inp_files/121378.got.cif
#   From: 2010.06.25/outbox.cif.g09.slc.cpg/sg12_61_cif.got.tgz:121378.got - 2010.06.28 00:19:55.
