data_PCOD8079250
_publ_section_title
;
Structure prediction by ZEFSAII (Michael W. Deem and Ramdas Pophale) SiO2 
 PCOD8079250
Probable space group: C 2/M
;
_chemical_formula_sum "Si O2"
_cell_formula_units_Z 56
_cell_length_a 22.742570
_cell_length_b 13.674392
_cell_length_c 12.068024
_cell_angle_alpha 90.000000
_cell_angle_beta 123.576384
_cell_angle_gamma 90.000000
_cell_volume 3126.846390
_symmetry_space_group_name_H-M "C 2/M"
_symmetry_group_IT_number 12
_symmetry_cell_setting 'monoclinic'
loop_
_space_group_symop_operation_xyz
x,y,z
-x,y,-z
-x,-y,-z
x,-y,z
1/2+x,1/2+y,z
1/2-x,1/2+y,-z
1/2-x,1/2-y,-z
1/2+x,1/2-y,z
loop_
_atom_site_type_symbol
_atom_site_label
_atom_site_fract_x
_atom_site_fract_y
_atom_site_fract_z
Si Si1 0.673191 0.887691 0.620420
Si Si2 0.745809 0.228443 0.867501
Si Si3 0.146237 0.110816 0.710727
Si Si4 0.625964 0.609846 0.070691
Si Si5 0.899575 0.790371 0.548097
Si Si6 0.032257 0.888892 0.776496
Si Si7 0.818910 0.109057 0.645421
O O1 0.690040 0.854581 0.765227
O O2 0.610687 0.822132 0.501485
O O3 0.744021 0.868405 0.623744
O O4 0.648540 0.000000 0.592829
O O5 0.719145 0.328386 0.782611
O O6 0.823334 0.197474 0.912995
O O7 0.750000 0.250000 0.000000
O O8 0.098529 0.138855 0.555980
O O9 0.101947 0.131773 0.776070
O O10 0.170211 0.000000 0.728539
O O11 0.656798 0.500000 0.075346
O O12 0.618605 0.617618 0.196318
O O13 0.552870 0.623375 0.927860
O O14 0.834973 0.816777 0.562900
O O15 0.973502 0.808064 0.687191
O O16 0.004631 0.000000 0.725593
O O17 0.818945 0.000000 0.595306
#
# Coordination Sequence:
#
# PCOD8079250 Si02
#       7
#     8   8   8   8   8   8   8
#     4   9  20  35  51  71  99 131 164 204 250 291
#     4  10  17  29  52  73  90 124 164 200 235 291
#     4  10  20  31  46  72 102 129 159 201 251 294
#     4   9  18  32  50  74 103 131 161 199 252 298
#     4  11  20  31  50  73  99 130 169 196 239 294
#     4  10  19  31  48  71 102 134 161 200 250 300
#     4   9  17  31  51  75 100 124 158 206 248 291
#
# _framework density 17.909417000000001
#
# number of rings (size 3 to 8) (size 9 to 14) (size 15 to 20)
#    0.000    2.286    1.429    3.429    0.000    2.286 
#    0.000    2.143    0.000    8.571    0.000    1.000 
#    0.000    0.000    0.000    0.000    0.000    0.000 
#
# Total GULP energy -346941.761738 kJ/mol
# GULP energy per Si atom -12390.777205 kJ/mol
# Density = 1.786865 g / cm^3
# Si number density = 17.909417 Si / 1000 Ang^3
#
#
#
# Elastic Constant Matrix: (Units=GPa)
#
#
# Indices 1 2 3 4 5 6 
#
# 1 21.2394 28.6479 5.6770 0.0000 6.1344 0.0000
# 2 28.6479 118.5362 44.9940 0.0000 10.3375 0.0000
# 3 5.6770 44.9940 83.1911 0.0000 9.0953 0.0000
# 4 0.0000 0.0000 0.0000 26.2290 0.0000 3.7741
# 5 6.1344 10.3375 9.0953 0.0000 27.3345 0.0000
# 6 0.0000 0.0000 0.0000 3.7741 0.0000 21.9558
#
#
#
# Elastic Compliance Matrix: (Units=1/GPa)
#
#
# Indices 1 2 3 4 5 6 
#
# 1 0.075305 -0.019774 0.006835 0.000000 -0.011696 0.000000
# 2 -0.019774 0.015935 -0.007363 0.000000 0.000861 0.000000
# 3 0.006835 -0.007363 0.015981 0.000000 -0.004067 0.000000
# 4 0.000000 0.000000 0.000000 0.039093 0.000000 -0.006720
# 5 -0.011696 0.000861 -0.004067 0.000000 0.040236 0.000000
# 6 0.000000 0.000000 0.000000 -0.006720 0.000000 0.046701
#
#
# Mechanical properties :
#
#
# Convention : Reuss Voigt Hill
#
# Bulk Modulus (GPa) = 15.01139 42.40049 28.70594
# Shear Modulus (GPa) = 16.88835 24.68038 20.78436
#
# Velocity S-wave (km/s) = 3.07414 3.71626 3.41035
# Velocity P-wave (km/s) = 4.58263 6.49157 5.61876
#
# Compressibility (1/GPa) = 0.06661609
#
# Stress axis : x y z
#
# Youngs Moduli (GPa) = 13.27930 62.75456 62.57364
#
# Poissons Ratio (x) = 1.24092 -0.42767
# Poissons Ratio (y) = 0.26259 0.46075
# Poissons Ratio (z) = -0.09076 0.46208
#
# Static dielectric constant tensor:
#      x y z
#    x 3.052840 0.000000 -0.098030 
#    y 0.000000 3.297650 0.000000 
#    z -0.098030 0.000000 3.640280 
# 
# 
# High freq. dielectric constant tensor:
#      x y z
#    x 1.659620 0.000000 -0.009720 
#    y 0.000000 1.678630 0.000000 
#    z -0.009720 0.000000 1.709850 
# 
# From -- ./inp_files/174466.got.cif
#   From: 2010.06.25/outbox.cif.g09.slc.cpg/sg12_88_cif.got.tgz:174466.got - 2010.06.28 00:19:55.
