data_PCOD8079616
_publ_section_title
;
Structure prediction by ZEFSAII (Michael W. Deem and Ramdas Pophale) SiO2 
 PCOD8079616
Probable space group: C 2/M
;
_chemical_formula_sum "Si O2"
_cell_formula_units_Z 56
_cell_length_a 31.339879
_cell_length_b 20.483722
_cell_length_c 6.450120
_cell_angle_alpha 90.000000
_cell_angle_beta 122.092549
_cell_angle_gamma 90.000000
_cell_volume 3507.965604
_symmetry_space_group_name_H-M "C 2/M"
_symmetry_group_IT_number 12
_symmetry_cell_setting 'monoclinic'
loop_
_space_group_symop_operation_xyz
x,y,z
-x,y,-z
-x,-y,-z
x,-y,z
1/2+x,1/2+y,z
1/2-x,1/2+y,-z
1/2-x,1/2-y,-z
1/2+x,1/2-y,z
loop_
_atom_site_type_symbol
_atom_site_label
_atom_site_fract_x
_atom_site_fract_y
_atom_site_fract_z
Si Si1 0.202566 0.843516 0.882707
Si Si2 0.781777 0.073513 0.726810
Si Si3 0.111849 0.840847 0.365393
Si Si4 0.597901 0.426467 0.978046
Si Si5 0.735287 0.185562 0.336063
Si Si6 0.057820 0.809381 0.613907
Si Si7 0.144765 0.757243 0.067105
O O1 0.155557 0.869685 0.625484
O O2 0.242609 0.807952 0.838656
O O3 0.230768 0.903889 0.070131
O O4 0.182645 0.798226 0.017805
O O5 0.841988 0.078370 0.865636
O O6 0.753937 0.118584 0.486535
O O7 0.762653 0.000000 0.641138
O O8 0.082965 0.898367 0.166233
O O9 0.069790 0.805961 0.399949
O O10 0.138030 0.790104 0.274979
O O11 0.578007 0.500000 0.896745
O O12 0.573012 0.381312 0.737713
O O13 0.750000 0.250000 0.500000
O O14 0.673472 0.187651 0.166720
O O15 0.000000 0.793315 0.500000
O O16 0.090197 0.753414 0.816435
#
# Coordination Sequence:
#
# PCOD8079616 Si02
#       7
#     8   8   8   8   8   8   8
#     4  11  17  31  48  71  98 125 160 200 242 289
#     4  11  22  32  45  73 104 132 167 200 242 296
#     4  10  17  33  48  66  90 122 158 205 246 284
#     4  10  19  32  45  64  88 122 171 202 236 291
#     4  12  19  31  53  74  98 128 166 205 240 289
#     4  10  21  35  48  65  90 120 158 209 258 287
#     4  10  20  31  48  76  88 120 165 199 244 290
#
# _framework density 15.963668999999999
#
# number of rings (size 3 to 8) (size 9 to 14) (size 15 to 20)
#    0.000    1.429    8.571    0.429    0.000    4.286 
#    0.000    0.714    0.000    0.000    0.000    0.000 
#    0.000    0.571    0.000    3.429    0.000    1.000 
#
# Total GULP energy -346889.869690 kJ/mol
# GULP energy per Si atom -12388.923918 kJ/mol
# Density = 1.592733 g / cm^3
# Si number density = 15.963669 Si / 1000 Ang^3
#
#
#
# Elastic Constant Matrix: (Units=GPa)
#
#
# Indices 1 2 3 4 5 6 
#
# 1 101.0417 37.5117 52.2367 0.0000 -2.7750 0.0000
# 2 37.5117 56.1609 29.3632 0.0000 1.9855 0.0000
# 3 52.2367 29.3632 83.6576 0.0000 -14.6986 0.0000
# 4 0.0000 0.0000 0.0000 19.9680 0.0000 0.7735
# 5 -2.7750 1.9855 -14.6986 0.0000 32.6683 0.0000
# 6 0.0000 0.0000 0.0000 0.7735 0.0000 12.9718
#
#
#
# Elastic Compliance Matrix: (Units=1/GPa)
#
#
# Indices 1 2 3 4 5 6 
#
# 1 0.016666 -0.006664 -0.008413 0.000000 -0.001964 0.000000
# 2 -0.006664 0.025311 -0.005530 0.000000 -0.004592 0.000000
# 3 -0.008413 -0.005530 0.020719 0.000000 0.008943 0.000000
# 4 0.000000 0.000000 0.000000 0.050196 0.000000 -0.002993
# 5 -0.001964 -0.004592 0.008943 0.000000 0.034747 0.000000
# 6 0.000000 0.000000 0.000000 -0.002993 0.000000 0.077269
#
#
# Mechanical properties :
#
#
# Convention : Reuss Voigt Hill
#
# Bulk Modulus (GPa) = 46.54880 53.23150 49.89015
# Shear Modulus (GPa) = 18.29623 21.23821 19.76722
#
# Velocity S-wave (km/s) = 3.38911 3.65143 3.52271
# Velocity P-wave (km/s) = 6.67362 7.15507 6.91854
#
# Compressibility (1/GPa) = 0.02148283
#
# Stress axis : x y z
#
# Youngs Moduli (GPa) = 60.00196 39.50924 48.26565
#
# Poissons Ratio (x) = 0.26329 0.40604
# Poissons Ratio (y) = 0.39985 0.26689
# Poissons Ratio (z) = 0.50478 0.21847
#
# Static dielectric constant tensor:
#      x y z
#    x 3.100930 0.000000 -0.150090 
#    y 0.000000 2.953000 0.000000 
#    z -0.150090 0.000000 3.425360 
# 
# 
# High freq. dielectric constant tensor:
#      x y z
#    x 1.595100 0.000000 -0.020550 
#    y 0.000000 1.563760 0.000000 
#    z -0.020550 0.000000 1.631710 
# 
# From -- ./inp_files/32274.got.cif
#   From: 2010.06.25/outbox.cif.g09.slc.cpg/sg12_17_cif.got.tgz:32274.got - 2010.06.28 00:19:55.
