data_PCOD8079654
_publ_section_title
;
Structure prediction by ZEFSAII (Michael W. Deem and Ramdas Pophale) SiO2 
 PCOD8079654
Probable space group: C 2/M
;
_chemical_formula_sum "Si O2"
_cell_formula_units_Z 56
_cell_length_a 21.760324
_cell_length_b 17.571197
_cell_length_c 9.872820
_cell_angle_alpha 90.000000
_cell_angle_beta 122.692549
_cell_angle_gamma 90.000000
_cell_volume 3176.902322
_symmetry_space_group_name_H-M "C 2/M"
_symmetry_group_IT_number 12
_symmetry_cell_setting 'monoclinic'
loop_
_space_group_symop_operation_xyz
x,y,z
-x,y,-z
-x,-y,-z
x,-y,z
1/2+x,1/2+y,z
1/2-x,1/2+y,-z
1/2-x,1/2-y,-z
1/2+x,1/2-y,z
loop_
_atom_site_type_symbol
_atom_site_label
_atom_site_fract_x
_atom_site_fract_y
_atom_site_fract_z
Si Si1 0.727108 0.585111 0.850632
Si Si2 0.723015 0.789770 0.286667
Si Si3 0.728616 0.183041 0.872754
Si Si4 0.937255 0.121225 0.327111
Si Si5 0.024951 0.086895 0.179423
Si Si6 0.366278 0.280850 0.610769
Si Si7 0.577200 0.212919 0.593134
O O1 0.754345 0.500000 0.856805
O O2 0.778465 0.640327 0.821247
O O3 0.641154 0.591122 0.715231
O O4 0.738479 0.606204 0.023570
O O5 0.737895 0.708349 0.230944
O O6 0.646921 0.776465 0.276734
O O7 0.787316 0.810090 0.468056
O O8 0.641967 0.168571 0.746130
O O9 0.750000 0.250000 0.000000
O O10 0.936000 0.211973 0.332654
O O11 0.000000 0.087136 0.500000
O O12 0.955066 0.095427 0.195536
O O13 0.088298 0.144308 0.299127
O O14 0.054182 0.000000 0.218194
O O15 0.000000 0.109464 0.000000
O O16 0.405196 0.233253 0.540445
O O17 0.500000 0.166550 0.500000
#
# Coordination Sequence:
#
# PCOD8079654 Si02
#       7
#     8   8   8   8   8   8   8
#     4  11  21  33  53  80 108 143 176 216 272 319
#     4   9  19  33  53  73 100 138 180 224 257 308
#     4   9  17  32  50  74 105 134 171 226 259 306
#     4  11  19  35  53  80 110 147 182 210 249 324
#     4  11  24  34  45  76 121 152 173 208 256 318
#     4  10  18  34  51  71 102 142 181 217 259 301
#     4  10  17  33  56  79 100 132 186 225 259 313
#
# _framework density 17.627233
#
# number of rings (size 3 to 8) (size 9 to 14) (size 15 to 20)
#    0.000    1.857    7.143    0.429    2.000    2.857 
#    0.000    0.000    0.000    5.571    0.000    1.000 
#    0.000    0.000    0.000    0.000    0.000    0.000 
#
# Total GULP energy -346941.375550 kJ/mol
# GULP energy per Si atom -12390.763413 kJ/mol
# Density = 1.758711 g / cm^3
# Si number density = 17.627233 Si / 1000 Ang^3
#
#
#
# Elastic Constant Matrix: (Units=GPa)
#
#
# Indices 1 2 3 4 5 6 
#
# 1 89.9329 25.9716 34.1886 0.0000 -3.7170 0.0000
# 2 25.9716 66.6990 24.1165 0.0000 -2.1660 0.0000
# 3 34.1886 24.1165 86.3821 0.0000 -1.3211 0.0000
# 4 0.0000 0.0000 0.0000 13.7446 0.0000 -3.4475
# 5 -3.7170 -2.1660 -1.3211 0.0000 32.0293 0.0000
# 6 0.0000 0.0000 0.0000 -3.4475 0.0000 12.8105
#
#
#
# Elastic Compliance Matrix: (Units=1/GPa)
#
#
# Indices 1 2 3 4 5 6 
#
# 1 0.013952 -0.003787 -0.004447 0.000000 0.001180 0.000000
# 2 -0.003787 0.017732 -0.003442 0.000000 0.000618 0.000000
# 3 -0.004447 -0.003442 0.014295 0.000000 -0.000159 0.000000
# 4 0.000000 0.000000 0.000000 0.078023 0.000000 0.020997
# 5 0.001180 0.000618 -0.000159 0.000000 0.031394 0.000000
# 6 0.000000 0.000000 0.000000 0.020997 0.000000 0.083712
#
#
# Mechanical properties :
#
#
# Convention : Reuss Voigt Hill
#
# Bulk Modulus (GPa) = 44.19388 45.72971 44.96180
# Shear Modulus (GPa) = 18.51844 22.29935 20.40890
#
# Velocity S-wave (km/s) = 3.24475 3.56061 3.40634
# Velocity P-wave (km/s) = 6.25809 6.55003 6.40572
#
# Compressibility (1/GPa) = 0.02262757
#
# Stress axis : x y z
#
# Youngs Moduli (GPa) = 71.67331 56.39558 69.95420
#
# Poissons Ratio (x) = 0.21355 0.31108
# Poissons Ratio (y) = 0.27140 0.24081
# Poissons Ratio (z) = 0.31872 0.19413
#
# Static dielectric constant tensor:
#      x y z
#    x 3.469570 0.000000 -0.065230 
#    y 0.000000 3.053030 0.000000 
#    z -0.065230 0.000000 3.814310 
# 
# 
# High freq. dielectric constant tensor:
#      x y z
#    x 1.676430 0.000000 -0.008990 
#    y 0.000000 1.635030 0.000000 
#    z -0.008990 0.000000 1.690380 
# 
# From -- ./inp_files/88084.got.cif
#   From: 2010.06.25/outbox.cif.g09.slc.cpg/sg12_45_cif.got.tgz:88084.got - 2010.06.28 00:19:55.
