data_PCOD8079539
_publ_section_title
;
Structure prediction by ZEFSAII (Michael W. Deem and Ramdas Pophale) SiO2 
 PCOD8079539
Probable space group: C 2/M
;
_chemical_formula_sum "Si O2"
_cell_formula_units_Z 44
_cell_length_a 14.290974
_cell_length_b 17.729755
_cell_length_c 27.338921
_cell_angle_alpha 90.000000
_cell_angle_beta 158.817780
_cell_angle_gamma 90.000000
_cell_volume 2502.973467
_symmetry_space_group_name_H-M "C 2/M"
_symmetry_group_IT_number 12
_symmetry_cell_setting 'monoclinic'
loop_
_space_group_symop_operation_xyz
x,y,z
-x,y,-z
-x,-y,-z
x,-y,z
1/2+x,1/2+y,z
1/2-x,1/2+y,-z
1/2-x,1/2-y,-z
1/2+x,1/2-y,z
loop_
_atom_site_type_symbol
_atom_site_label
_atom_site_fract_x
_atom_site_fract_y
_atom_site_fract_z
Si Si1 0.953411 0.917093 0.232111
Si Si2 0.316584 0.220183 0.952284
Si Si3 0.935615 0.686956 0.571917
Si Si4 0.500000 0.138934 0.500000
Si Si5 0.113923 0.713442 0.196279
Si Si6 0.993930 0.085651 0.366236
O O1 0.256937 0.912661 0.366326
O O2 0.789533 0.856739 0.122529
O O3 0.919155 0.905210 0.273155
O O4 0.854460 0.000000 0.168413
O O5 0.085856 0.276909 0.855700
O O6 0.500000 0.258654 0.000000
O O7 0.470173 0.197214 0.075705
O O8 0.750000 0.750000 0.500000
O O9 0.800641 0.607980 0.523208
O O10 0.930545 0.693109 0.510899
O O11 0.224597 0.707371 0.731690
O O12 0.301530 0.642875 0.301189
O O13 0.956422 0.000000 0.366702
#
# Coordination Sequence:
#
# PCOD8079539 Si02
#       6
#     8   8   8   4   8   8
#     4  10  19  31  51  79 109 137 164 206 269 327
#     4  11  21  34  50  73 108 145 182 210 248 303
#     4   9  18  31  51  78 104 133 172 208 258 313
#     4  10  17  32  50  76 109 136 162 210 267 310
#     4  10  20  34  51  75 107 143 178 210 251 308
#     4   9  18  33  55  80 109 134 162 214 270 321
#
# _framework density 17.579090999999998
#
# number of rings (size 3 to 8) (size 9 to 14) (size 15 to 20)
#    0.000    2.182    3.636    0.273    0.000    1.818 
#    0.000    0.000    0.000    0.545    0.000   21.636 
#    0.000    0.000    0.000    0.000    0.000    0.000 
#
# Total GULP energy -272539.621545 kJ/mol
# GULP energy per Si atom -12388.164616 kJ/mol
# Density = 1.753908 g / cm^3
# Si number density = 17.579091 Si / 1000 Ang^3
#
#
#
# Elastic Constant Matrix: (Units=GPa)
#
#
# Indices 1 2 3 4 5 6 
#
# 1 82.4699 42.0805 27.3376 -0.0069 27.5123 0.0147
# 2 42.0805 104.7347 44.9627 -0.0002 10.0080 0.0094
# 3 27.3376 44.9627 92.3862 0.0102 16.9717 0.0251
# 4 -0.0069 -0.0002 0.0102 22.0950 0.0007 -2.1983
# 5 27.5123 10.0080 16.9717 0.0007 32.0188 -0.0109
# 6 0.0147 0.0094 0.0251 -2.1983 -0.0109 20.8495
#
#
#
# Elastic Compliance Matrix: (Units=1/GPa)
#
#
# Indices 1 2 3 4 5 6 
#
# 1 0.020922 -0.006932 0.000097 0.000005 -0.015862 -0.000019
# 2 -0.006932 0.014382 -0.005779 0.000001 0.004524 0.000008
# 3 0.000097 -0.005779 0.014726 -0.000009 -0.006082 -0.000019
# 4 0.000005 0.000001 -0.000009 0.045739 0.000001 0.004823
# 5 -0.015862 0.004524 -0.006082 0.000001 0.046671 0.000041
# 6 -0.000019 0.000008 -0.000019 0.004823 0.000041 0.048471
#
#
# Mechanical properties :
#
#
# Convention : Reuss Voigt Hill
#
# Bulk Modulus (GPa) = 40.32225 56.48361 48.40293
# Shear Modulus (GPa) = 22.28095 26.00664 24.14380
#
# Velocity S-wave (km/s) = 3.56402 3.85048 3.71001
# Velocity P-wave (km/s) = 6.31852 7.20896 6.77838
#
# Compressibility (1/GPa) = 0.02480020
#
# Stress axis : x y z
#
# Youngs Moduli (GPa) = 47.79581 69.53239 67.90938
#
# Poissons Ratio (x) = 0.48199 -0.00656
# Poissons Ratio (y) = 0.33132 0.39247
# Poissons Ratio (z) = -0.00461 0.40185
#
# Static dielectric constant tensor:
#      x y z
#    x 3.436250 0.001140 -0.002210 
#    y 0.001140 3.596390 -0.003880 
#    z -0.002210 -0.003880 4.671940 
# 
# 
# High freq. dielectric constant tensor:
#      x y z
#    x 1.665000 0.000000 0.024540 
#    y 0.000000 1.655650 -0.000010 
#    z 0.024540 -0.000010 1.688700 
# 
# From -- ./inp_files/144710.got.cif
#   From: 2010.06.25/outbox.cif.g09.slc.cpg/sg12_73_cif.got.tgz:144710.got - 2010.06.28 00:19:55.
