data_PCOD8079189
_publ_section_title
;
Structure prediction by ZEFSAII (Michael W. Deem and Ramdas Pophale) SiO2 
 PCOD8079189
Probable space group: C 2/M
;
_chemical_formula_sum "Si O2"
_cell_formula_units_Z 56
_cell_length_a 20.762808
_cell_length_b 9.133300
_cell_length_c 30.491818
_cell_angle_alpha 90.000000
_cell_angle_beta 146.410721
_cell_angle_gamma 90.000000
_cell_volume 3198.948998
_symmetry_space_group_name_H-M "C 2/M"
_symmetry_group_IT_number 12
_symmetry_cell_setting 'monoclinic'
loop_
_space_group_symop_operation_xyz
x,y,z
-x,y,-z
-x,-y,-z
x,-y,z
1/2+x,1/2+y,z
1/2-x,1/2+y,-z
1/2-x,1/2-y,-z
1/2+x,1/2-y,z
loop_
_atom_site_type_symbol
_atom_site_label
_atom_site_fract_x
_atom_site_fract_y
_atom_site_fract_z
Si Si1 0.546315 0.174000 0.092793
Si Si2 0.708189 0.174467 0.259853
Si Si3 0.564529 0.672759 0.659316
Si Si4 0.674472 0.173564 0.079542
Si Si5 0.649414 0.173050 0.322884
Si Si6 0.930464 0.173908 0.238028
Si Si7 0.690334 0.671567 0.506476
O O1 0.598976 0.231594 0.168585
O O2 0.626832 0.234107 0.098934
O O3 0.550292 0.000000 0.094738
O O4 0.412319 0.227108 0.008878
O O5 0.827886 0.239156 0.307336
O O6 0.692249 0.232273 0.300112
O O7 0.713530 0.000000 0.262929
O O8 0.579970 0.500000 0.670153
O O9 0.563230 0.731900 0.708382
O O10 0.444905 0.718146 0.567367
O O11 0.806841 0.225627 0.147236
O O12 0.672986 0.000000 0.081328
O O13 0.528432 0.249581 0.265006
O O14 0.748108 0.219267 0.413623
O O15 0.629071 0.000000 0.311109
O O16 0.947888 0.000000 0.245699
O O17 0.702346 0.500000 0.504722
O O18 0.750000 0.750000 0.500000
#
# Coordination Sequence:
#
# PCOD8079189 Si02
#       7
#     8   8   8   8   8   8   8
#     4   8  12  21  39  66  96 116 141 190 236 263
#     4   9  16  28  44  66  96 123 148 186 235 275
#     4   9  16  27  47  69  88 116 153 191 227 263
#     4   8  13  21  40  70  93 112 148 194 229 257
#     4  10  21  32  45  68  97 125 150 183 231 280
#     4  10  17  29  49  71  92 119 155 191 225 266
#     4  10  19  31  47  69  93 118 152 190 227 268
#
# _framework density 17.505749000000002
#
# number of rings (size 3 to 8) (size 9 to 14) (size 15 to 20)
#    0.000    2.857    2.857    0.857    0.000    0.571 
#    0.000    3.571    0.000    1.714    0.000    4.000 
#    0.000    0.000    0.000    0.000    0.000    0.000 
#
# Total GULP energy -346995.497671 kJ/mol
# GULP energy per Si atom -12392.696345 kJ/mol
# Density = 1.746590 g / cm^3
# Si number density = 17.505749 Si / 1000 Ang^3
#
#
#
# Elastic Constant Matrix: (Units=GPa)
#
#
# Indices 1 2 3 4 5 6 
#
# 1 134.6518 15.9202 82.8875 0.0001 -0.9224 -0.0001
# 2 15.9202 9.5454 17.9543 0.0001 1.0353 -0.0002
# 3 82.8875 17.9543 177.4855 0.0000 2.8281 -0.0001
# 4 0.0001 0.0001 0.0000 13.9576 0.0000 4.5661
# 5 -0.9224 1.0353 2.8281 0.0000 31.8928 0.0000
# 6 -0.0001 -0.0002 -0.0001 4.5661 0.0000 18.8043
#
#
#
# Elastic Compliance Matrix: (Units=1/GPa)
#
#
# Indices 1 2 3 4 5 6 
#
# 1 0.011323 -0.011142 -0.004178 0.000000 0.001060 0.000000
# 2 -0.011142 0.140639 -0.008959 -0.000001 -0.004093 0.000002
# 3 -0.004178 -0.008959 0.008501 0.000000 -0.000584 0.000000
# 4 0.000000 -0.000001 0.000000 0.077828 0.000000 -0.018898
# 5 0.001060 -0.004093 -0.000584 0.000000 0.031570 0.000000
# 6 0.000000 0.000002 0.000000 -0.018898 0.000000 0.057768
#
#
# Mechanical properties :
#
#
# Convention : Reuss Voigt Hill
#
# Bulk Modulus (GPa) = 8.93599 61.68965 35.31282
# Shear Modulus (GPa) = 12.09229 26.59231 19.34230
#
# Velocity S-wave (km/s) = 2.63108 3.90174 3.32763
# Velocity P-wave (km/s) = 3.78759 7.45750 5.91439
#
# Compressibility (1/GPa) = 0.11190708
#
# Stress axis : x y z
#
# Youngs Moduli (GPa) = 88.31785 7.11041 117.63578
#
# Poissons Ratio (x) = 0.07922 0.49144
# Poissons Ratio (y) = 0.98399 1.05385
# Poissons Ratio (z) = 0.36896 0.06370
#
# Static dielectric constant tensor:
#      x y z
#    x 3.342200 0.000000 0.056900 
#    y 0.000000 2.657030 0.000000 
#    z 0.056900 0.000000 3.835610 
# 
# 
# High freq. dielectric constant tensor:
#      x y z
#    x 1.662430 0.000000 0.004970 
#    y 0.000000 1.608250 0.000000 
#    z 0.004970 0.000000 1.700820 
# 
# From -- ./inp_files/276056.got.cif
#   From: 2010.06.25/outbox.cif.g09.slc.cpg/sg12_139_cif.got.tgz:276056.got - 2010.06.28 00:19:55.
