data_PCOD8079769
_publ_section_title
;
Structure prediction by ZEFSAII (Michael W. Deem and Ramdas Pophale) SiO2 
 PCOD8079769
Probable space group: C 2/M
;
_chemical_formula_sum "Si O2"
_cell_formula_units_Z 44
_cell_length_a 12.119153
_cell_length_b 23.291758
_cell_length_c 7.194805
_cell_angle_alpha 90.000000
_cell_angle_beta 114.157930
_cell_angle_gamma 90.000000
_cell_volume 1853.056969
_symmetry_space_group_name_H-M "C 2/M"
_symmetry_group_IT_number 12
_symmetry_cell_setting 'monoclinic'
loop_
_space_group_symop_operation_xyz
x,y,z
-x,y,-z
-x,-y,-z
x,-y,z
1/2+x,1/2+y,z
1/2-x,1/2+y,-z
1/2-x,1/2-y,-z
1/2+x,1/2-y,z
loop_
_atom_site_type_symbol
_atom_site_label
_atom_site_fract_x
_atom_site_fract_y
_atom_site_fract_z
Si Si1 0.633812 0.275790 0.636988
Si Si2 0.260637 0.833561 0.374681
Si Si3 0.398645 0.935297 0.062570
Si Si4 0.855250 0.895205 0.226751
Si Si5 0.392295 0.565686 0.674937
Si Si6 0.500000 0.106956 0.500000
O O1 0.500000 0.252812 0.500000
O O2 0.714544 0.219779 0.753364
O O3 0.695911 0.306370 0.505563
O O4 0.621211 0.326693 0.778157
O O5 0.180124 0.887907 0.244898
O O6 0.394015 0.855816 0.522536
O O7 0.441188 0.933128 0.303550
O O8 0.377229 0.000000 0.982204
O O9 0.500000 0.906418 0.000000
O O10 0.272441 0.903094 0.958232
O O11 0.855685 0.919419 0.437609
O O12 0.963735 0.927533 0.192826
O O13 0.354412 0.500000 0.696619
#
# Coordination Sequence:
#
# PCOD8079769 Si02
#       6
#     8   8   8   8   8   4
#     4  10  17  36  66  95 129 174 224 284 340 401
#     4  10  21  35  61  95 133 178 220 277 347 395
#     4  11  24  42  65  96 138 185 230 279 341 415
#     4  10  18  35  61  95 122 171 230 280 334 400
#     4  10  18  32  59  94 132 174 221 276 341 406
#     4  12  25  42  64  96 138 178 233 282 338 410
#
# _framework density 23.744548000000002
#
# number of rings (size 3 to 8) (size 9 to 14) (size 15 to 20)
#    0.000    1.636    4.545    4.636    0.000    2.909 
#    0.000    1.818    0.000    4.364    0.000    0.000 
#    0.000    0.000    0.000    0.000    0.000    0.000 
#
# Total GULP energy -272544.621577 kJ/mol
# GULP energy per Si atom -12388.391890 kJ/mol
# Density = 2.369050 g / cm^3
# Si number density = 23.744548 Si / 1000 Ang^3
#
#
#
# Elastic Constant Matrix: (Units=GPa)
#
#
# Indices 1 2 3 4 5 6 
#
# 1 127.4574 50.5549 32.2516 0.0000 36.6731 0.0000
# 2 50.5549 200.0450 21.6526 0.0000 23.3883 0.0000
# 3 32.2516 21.6526 87.4002 0.0000 30.7818 0.0000
# 4 0.0000 0.0000 0.0000 42.2591 0.0000 6.3511
# 5 36.6731 23.3883 30.7818 0.0000 33.8274 0.0000
# 6 0.0000 0.0000 0.0000 6.3511 0.0000 44.4293
#
#
#
# Elastic Compliance Matrix: (Units=1/GPa)
#
#
# Indices 1 2 3 4 5 6 
#
# 1 0.011873 -0.001628 0.000234 0.000000 -0.011960 0.000000
# 2 -0.001628 0.005662 -0.000066 0.000000 -0.002090 0.000000
# 3 0.000234 -0.000066 0.016843 0.000000 -0.015534 0.000000
# 4 0.000000 0.000000 0.000000 0.024183 0.000000 -0.003457
# 5 -0.011960 -0.002090 -0.015534 0.000000 0.058108 0.000000
# 6 0.000000 0.000000 0.000000 -0.003457 0.000000 0.023002
#
#
# Mechanical properties :
#
#
# Convention : Reuss Voigt Hill
#
# Bulk Modulus (GPa) = 31.78794 69.31342 50.55068
# Shear Modulus (GPa) = 32.66344 44.79940 38.73142
#
# Velocity S-wave (km/s) = 3.71296 4.34836 4.04316
# Velocity P-wave (km/s) = 5.63897 7.38008 6.56748
#
# Compressibility (1/GPa) = 0.03145847
#
# Stress axis : x y z
#
# Youngs Moduli (GPa) = 84.22268 176.62570 59.37287
#
# Poissons Ratio (x) = 0.28748 -0.01389
# Poissons Ratio (y) = 0.13708 0.00392
# Poissons Ratio (z) = -0.01971 0.01165
#
# Static dielectric constant tensor:
#      x y z
#    x 4.602140 0.000000 0.327590 
#    y 0.000000 4.944860 0.000000 
#    z 0.327590 0.000000 3.781400 
# 
# 
# High freq. dielectric constant tensor:
#      x y z
#    x 1.956730 0.000000 0.027180 
#    y 0.000000 1.957020 0.000000 
#    z 0.027180 0.000000 1.890290 
# 
# From -- ./inp_files/53404.got.cif
#   From: 2010.06.25/outbox.cif.g09.slc.cpg/sg12_27_cif.got.tgz:53404.got - 2010.06.28 00:19:55.
