data_PCOD8079193
_publ_section_title
;
Structure prediction by ZEFSAII (Michael W. Deem and Ramdas Pophale) SiO2 
 PCOD8079193
Probable space group: C 2/M
;
_chemical_formula_sum "Si O2"
_cell_formula_units_Z 56
_cell_length_a 20.321085
_cell_length_b 16.879340
_cell_length_c 18.091188
_cell_angle_alpha 90.000000
_cell_angle_beta 30.034864
_cell_angle_gamma 90.000000
_cell_volume 3105.967042
_symmetry_space_group_name_H-M "C 2/M"
_symmetry_group_IT_number 12
_symmetry_cell_setting 'monoclinic'
loop_
_space_group_symop_operation_xyz
x,y,z
-x,y,-z
-x,-y,-z
x,-y,z
1/2+x,1/2+y,z
1/2-x,1/2+y,-z
1/2-x,1/2-y,-z
1/2+x,1/2-y,z
loop_
_atom_site_type_symbol
_atom_site_label
_atom_site_fract_x
_atom_site_fract_y
_atom_site_fract_z
Si Si1 0.710221 0.000000 0.321918
Si Si2 0.056776 0.500000 0.325810
Si Si3 0.135029 0.768826 0.326230
Si Si4 0.236700 0.166719 0.678180
Si Si5 0.694060 0.911903 0.862511
Si Si6 0.083443 0.412300 0.807777
Si Si7 0.871784 0.730013 0.331137
Si Si8 0.510289 0.832144 0.326992
O O1 0.678858 0.000000 0.264793
O O2 0.574708 0.000000 0.497913
O O3 0.794805 0.921622 0.261238
O O4 0.061388 0.422675 0.268387
O O5 0.243148 0.727185 0.273348
O O6 0.188102 0.850517 0.240415
O O7 0.113915 0.711615 0.277662
O O8 0.000000 0.786210 0.500000
O O9 0.117318 0.200229 0.741988
O O10 0.368784 0.165358 0.502458
O O11 0.657908 0.912617 0.812209
O O12 0.741077 0.000000 0.840363
O O13 0.568195 0.886143 0.033437
O O14 0.089804 0.500000 0.766382
O O15 0.157762 0.352754 0.681054
O O16 0.750000 0.750000 0.500000
O O17 0.999758 0.715002 0.258728
#
# Coordination Sequence:
#
# PCOD8079193 Si02
#       8
#     4   4   8   8   8   8   8   8
#     4   9  14  24  44  64  92 126 163 202 248 289
#     4   9  14  24  40  68  95 122 158 201 254 295
#     4  10  17  29  49  72 103 130 164 213 258 302
#     4   9  16  28  44  67  98 132 161 206 248 303
#     4   9  18  33  53  74  96 130 176 215 253 298
#     4   9  18  33  53  76  99 126 170 220 253 293
#     4  10  19  31  47  73 105 130 160 205 263 317
#     4   9  18  26  42  69 103 128 157 204 257 308
#
# _framework density 18.029810000000001
#
# number of rings (size 3 to 8) (size 9 to 14) (size 15 to 20)
#    0.000    2.714    2.857    0.857    1.000    0.286 
#    1.286    0.714    1.571    0.000    0.000    3.000 
#    0.000    0.000    0.000    0.000    0.000    0.000 
#
# Total GULP energy -346935.865460 kJ/mol
# GULP energy per Si atom -12390.566624 kJ/mol
# Density = 1.798877 g / cm^3
# Si number density = 18.029810 Si / 1000 Ang^3
#
#
#
# Elastic Constant Matrix: (Units=GPa)
#
#
# Indices 1 2 3 4 5 6 
#
# 1 110.5894 57.8294 10.0424 -0.0002 -6.2558 0.0001
# 2 57.8294 147.9427 37.0038 -0.0008 -6.4659 0.0003
# 3 10.0424 37.0038 28.6256 -0.0012 1.8784 0.0004
# 4 -0.0002 -0.0008 -0.0012 19.2801 0.0007 -2.1888
# 5 -6.2558 -6.4659 1.8784 0.0007 12.9537 -0.0003
# 6 0.0001 0.0003 0.0004 -2.1888 -0.0003 33.6036
#
#
#
# Elastic Compliance Matrix: (Units=1/GPa)
#
#
# Indices 1 2 3 4 5 6 
#
# 1 0.011593 -0.004943 0.002137 0.000000 0.002821 0.000000
# 2 -0.004943 0.012752 -0.015156 -0.000001 0.006176 0.000000
# 3 0.002137 -0.015156 0.054725 0.000003 -0.014468 0.000000
# 4 0.000000 -0.000001 0.000003 0.052253 -0.000004 0.003404
# 5 0.002821 0.006176 -0.014468 -0.000004 0.083741 0.000001
# 6 0.000000 0.000000 0.000000 0.003404 0.000001 0.029980
#
#
# Mechanical properties :
#
#
# Convention : Reuss Voigt Hill
#
# Bulk Modulus (GPa) = 23.17636 55.21212 39.19424
# Shear Modulus (GPa) = 16.92912 25.31964 21.12438
#
# Velocity S-wave (km/s) = 3.06756 3.75149 3.42663
# Velocity P-wave (km/s) = 5.04271 7.03236 6.11895
#
# Compressibility (1/GPa) = 0.04314741
#
# Stress axis : x y z
#
# Youngs Moduli (GPa) = 86.26175 78.41806 18.27322
#
# Poissons Ratio (x) = 0.38760 -0.03906
# Poissons Ratio (y) = 0.42637 0.27694
# Poissons Ratio (z) = -0.18437 1.18848
#
# Static dielectric constant tensor:
#      x y z
#    x 3.580130 0.000000 0.016580 
#    y 0.000000 3.905500 0.000000 
#    z 0.016580 0.000000 2.782000 
# 
# 
# High freq. dielectric constant tensor:
#      x y z
#    x 1.695990 0.000000 0.006800 
#    y 0.000000 1.711750 0.000000 
#    z 0.006800 0.000000 1.630750 
# 
# From -- ./inp_files/322326.got.cif
#   From: 2010.06.25/outbox.cif.g09.slc.cpg/sg12_162_cif.got.tgz:322326.got - 2010.06.28 00:19:55.
