data_PCOD8079602
_publ_section_title
;
Structure prediction by ZEFSAII (Michael W. Deem and Ramdas Pophale) SiO2 
 PCOD8079602
Probable space group: C 2/M
;
_chemical_formula_sum "Si O2"
_cell_formula_units_Z 48
_cell_length_a 16.644312
_cell_length_b 17.403759
_cell_length_c 23.753792
_cell_angle_alpha 90.000000
_cell_angle_beta 159.275903
_cell_angle_gamma 90.000000
_cell_volume 2434.912935
_symmetry_space_group_name_H-M "C 2/M"
_symmetry_group_IT_number 12
_symmetry_cell_setting 'monoclinic'
loop_
_space_group_symop_operation_xyz
x,y,z
-x,y,-z
-x,-y,-z
x,-y,z
1/2+x,1/2+y,z
1/2-x,1/2+y,-z
1/2-x,1/2-y,-z
1/2+x,1/2-y,z
loop_
_atom_site_type_symbol
_atom_site_label
_atom_site_fract_x
_atom_site_fract_y
_atom_site_fract_z
Si Si1 0.306822 0.348608 0.828430
Si Si2 0.253236 0.587111 0.677313
Si Si3 0.071557 0.318446 0.111252
Si Si4 0.107933 0.309889 0.371621
Si Si5 0.922230 0.831265 0.194639
Si Si6 0.511084 0.409000 0.641141
O O1 0.308529 0.410913 0.779936
O O2 0.334021 0.266510 0.814940
O O3 0.068302 0.353646 0.704027
O O4 0.500000 0.368032 0.000000
O O5 0.274325 0.500000 0.669638
O O6 0.431634 0.638517 0.760921
O O7 0.000000 0.618983 0.500000
O O8 0.270180 0.380769 0.251472
O O9 0.000000 0.319614 0.000000
O O10 0.844280 0.338149 0.997670
O O11 0.250000 0.250000 0.500000
O O12 0.976376 0.259992 0.238091
O O13 0.283559 0.373809 0.462879
O O14 0.974127 0.880258 0.284742
O O15 0.500000 0.500000 0.631736
#
# Coordination Sequence:
#
# PCOD8079602 Si02
#       6
#     8   8   8   8   8   8
#     4  11  20  39  61  85 119 155 204 243 288 361
#     4  11  25  39  57  90 123 154 194 248 307 354
#     4   9  17  33  55  84 111 148 200 249 287 345
#     4  10  17  32  58  82 115 156 199 240 286 355
#     4  10  19  35  57  81 116 153 198 246 294 348
#     4  10  19  30  54  89 118 151 195 249 302 349
#
# _framework density 19.713231
#
# number of rings (size 3 to 8) (size 9 to 14) (size 15 to 20)
#    0.000    1.833    6.667    2.500    0.000    6.667 
#    0.000    0.000    0.000    0.000    0.000    1.167 
#    0.000    0.000    0.000    0.000    0.000    0.000 
#
# Total GULP energy -297514.248243 kJ/mol
# GULP energy per Si atom -12396.427010 kJ/mol
# Density = 1.966836 g / cm^3
# Si number density = 19.713231 Si / 1000 Ang^3
#
#
#
# Elastic Constant Matrix: (Units=GPa)
#
#
# Indices 1 2 3 4 5 6 
#
# 1 79.0383 21.6164 53.0272 0.0107 20.5645 0.0138
# 2 21.6164 95.9815 47.8467 -0.0018 15.5324 0.0005
# 3 53.0272 47.8467 130.3047 0.0830 39.0800 0.0643
# 4 0.0107 -0.0018 0.0830 17.5561 -0.0241 -0.7423
# 5 20.5645 15.5324 39.0800 -0.0241 37.7296 -0.0004
# 6 0.0138 0.0005 0.0643 -0.7423 -0.0004 18.0453
#
#
#
# Elastic Compliance Matrix: (Units=1/GPa)
#
#
# Indices 1 2 3 4 5 6 
#
# 1 0.017675 -0.000436 -0.006089 0.000014 -0.003148 0.000009
# 2 -0.000436 0.012773 -0.004362 0.000022 -0.000503 0.000016
# 3 -0.006089 -0.004362 0.014825 -0.000083 -0.010242 -0.000052
# 4 0.000014 0.000022 -0.000083 0.057060 0.000106 0.002348
# 5 -0.003148 -0.000503 -0.010242 0.000106 0.039035 0.000044
# 6 0.000009 0.000016 -0.000052 0.002348 0.000044 0.055513
#
#
# Mechanical properties :
#
#
# Convention : Reuss Voigt Hill
#
# Bulk Modulus (GPa) = 42.55321 61.14501 51.84911
# Shear Modulus (GPa) = 22.07620 26.85515 24.46568
#
# Velocity S-wave (km/s) = 3.35007 3.69493 3.52672
# Velocity P-wave (km/s) = 6.04954 7.02053 6.55305
#
# Compressibility (1/GPa) = 0.02349999
#
# Stress axis : x y z
#
# Youngs Moduli (GPa) = 56.57596 78.29274 67.45146
#
# Poissons Ratio (x) = 0.03414 0.41070
# Poissons Ratio (y) = 0.02467 0.29421
# Poissons Ratio (z) = 0.34448 0.34150
#
# Static dielectric constant tensor:
#      x y z
#    x 3.237720 0.000110 0.376160 
#    y 0.000110 3.660630 -0.000270 
#    z 0.376160 -0.000270 4.117290 
# 
# 
# High freq. dielectric constant tensor:
#      x y z
#    x 1.729120 0.000000 0.031500 
#    y 0.000000 1.754780 -0.000030 
#    z 0.031500 -0.000030 1.781090 
# 
# From -- ./inp_files/364396.got.cif
#   From: 2010.06.25/outbox.cif.g09.slc.cpg/sg12_183_cif.got.tgz:364396.got - 2010.06.28 00:19:55.
