data_PCOD8079374
_publ_section_title
;
Structure prediction by ZEFSAII (Michael W. Deem and Ramdas Pophale) SiO2 
 PCOD8079374
Probable space group: C 2/M
;
_chemical_formula_sum "Si O2"
_cell_formula_units_Z 52
_cell_length_a 22.348968
_cell_length_b 11.397805
_cell_length_c 20.965009
_cell_angle_alpha 90.000000
_cell_angle_beta 146.457813
_cell_angle_gamma 90.000000
_cell_volume 2950.842182
_symmetry_space_group_name_H-M "C 2/M"
_symmetry_group_IT_number 12
_symmetry_cell_setting 'monoclinic'
loop_
_space_group_symop_operation_xyz
x,y,z
-x,y,-z
-x,-y,-z
x,-y,z
1/2+x,1/2+y,z
1/2-x,1/2+y,-z
1/2-x,1/2-y,-z
1/2+x,1/2-y,z
loop_
_atom_site_type_symbol
_atom_site_label
_atom_site_fract_x
_atom_site_fract_y
_atom_site_fract_z
Si Si1 0.485082 0.715695 0.141254
Si Si2 0.173672 0.364715 0.358297
Si Si3 0.513349 0.000000 0.436129
Si Si4 0.211782 0.500000 0.836067
Si Si5 0.749052 0.256189 0.073295
Si Si6 0.374052 0.200942 0.541383
Si Si7 0.951908 0.868319 0.254691
Si Si8 0.535295 0.500000 0.960136
O O1 0.572186 0.819405 0.225901
O O2 0.463006 0.656699 0.189739
O O3 0.518355 0.612187 0.122703
O O4 0.373280 0.767456 0.011832
O O5 0.199111 0.500000 0.361757
O O6 0.269253 0.274203 0.425346
O O7 0.149935 0.363797 0.412901
O O8 0.500000 0.000000 0.500000
O O9 0.584634 0.110630 0.475483
O O10 0.388769 0.000000 0.302046
O O11 0.200151 0.383428 0.867172
O O12 0.334162 0.500000 0.918084
O O13 0.830319 0.157327 0.172171
O O14 0.750000 0.250000 0.000000
O O15 0.468235 0.293451 0.632429
O O16 0.983620 0.000000 0.297086
O O17 0.500000 0.500000 0.000000
#
# Coordination Sequence:
#
# PCOD8079374 Si02
#       8
#     8   8   4   4   8   8   8   4
#     4   9  19  32  48  82 111 140 187 226 290 352
#     4  10  20  35  57  80 119 149 188 254 302 348
#     4  12  24  40  60  86 120 162 205 242 284 357
#     4  10  20  38  52  80 124 140 190 241 285 337
#     4   9  18  28  50  77 108 146 169 226 294 350
#     4  10  21  35  53  86 112 150 196 243 302 341
#     4  10  17  30  52  77 113 140 175 240 291 344
#     4  10  20  36  58  82 116 154 184 233 289 346
#
# _framework density 17.622087000000001
#
# number of rings (size 3 to 8) (size 9 to 14) (size 15 to 20)
#    0.000    2.154    3.077    0.462    3.231    2.462 
#    0.000    0.000    0.000    2.308    0.000    0.000 
#    0.000    0.000    0.000    0.000    0.000    0.000 
#
# Total GULP energy -322113.237101 kJ/mol
# GULP energy per Si atom -12388.970658 kJ/mol
# Density = 1.758198 g / cm^3
# Si number density = 17.622087 Si / 1000 Ang^3
#
#
#
# Elastic Constant Matrix: (Units=GPa)
#
#
# Indices 1 2 3 4 5 6 
#
# 1 76.9391 47.1613 31.6896 0.0000 -4.6981 0.0000
# 2 47.1613 126.5472 55.8881 0.0000 3.9385 0.0000
# 3 31.6896 55.8881 111.7716 0.0000 8.5647 0.0000
# 4 0.0000 0.0000 0.0000 18.1116 0.0000 -1.1424
# 5 -4.6981 3.9385 8.5647 0.0000 18.4536 0.0000
# 6 0.0000 0.0000 0.0000 -1.1424 0.0000 16.2142
#
#
#
# Elastic Compliance Matrix: (Units=1/GPa)
#
#
# Indices 1 2 3 4 5 6 
#
# 1 0.018102 -0.005724 -0.002817 0.000000 0.007138 0.000000
# 2 -0.005724 0.011953 -0.004196 0.000000 -0.002061 0.000000
# 3 -0.002817 -0.004196 0.012266 0.000000 -0.005515 0.000000
# 4 0.000000 0.000000 0.000000 0.055460 0.000000 0.003908
# 5 0.007138 -0.002061 -0.005515 0.000000 0.059007 0.000000
# 6 0.000000 0.000000 0.000000 0.003908 0.000000 0.061950
#
#
# Mechanical properties :
#
#
# Convention : Reuss Voigt Hill
#
# Bulk Modulus (GPa) = 59.35839 64.97065 62.16452
# Shear Modulus (GPa) = 20.01388 22.59046 21.30217
#
# Velocity S-wave (km/s) = 3.37371 3.58430 3.48060
# Velocity P-wave (km/s) = 6.99522 7.35381 7.17676
#
# Compressibility (1/GPa) = 0.01684682
#
# Stress axis : x y z
#
# Youngs Moduli (GPa) = 55.24170 83.66354 81.52625
#
# Poissons Ratio (x) = 0.47892 0.22966
# Poissons Ratio (y) = 0.31622 0.34206
# Poissons Ratio (z) = 0.15562 0.35102
#
# Static dielectric constant tensor:
#      x y z
#    x 2.976780 0.000000 0.433590 
#    y 0.000000 9.090240 0.000000 
#    z 0.433590 0.000000 3.884070 
# 
# 
# High freq. dielectric constant tensor:
#      x y z
#    x 1.630870 0.000000 0.022580 
#    y 0.000000 1.686090 0.000000 
#    z 0.022580 0.000000 1.696770 
# 
# From -- ./inp_files/165147.got.cif
#   From: 2010.06.25/outbox.cif.g09.slc.cpg/sg12_83_cif.got.tgz:165147.got - 2010.06.28 00:19:55.
