data_PCOD8079028
_publ_section_title
;
Structure prediction by ZEFSAII (Michael W. Deem and Ramdas Pophale) SiO2 
 PCOD8079028
Probable space group: C 2/M
;
_chemical_formula_sum "Si O2"
_cell_formula_units_Z 56
_cell_length_a 20.804189
_cell_length_b 8.982049
_cell_length_c 17.704933
_cell_angle_alpha 90.000000
_cell_angle_beta 80.231635
_cell_angle_gamma 90.000000
_cell_volume 3260.452577
_symmetry_space_group_name_H-M "C 2/M"
_symmetry_group_IT_number 12
_symmetry_cell_setting 'monoclinic'
loop_
_space_group_symop_operation_xyz
x,y,z
-x,y,-z
-x,-y,-z
x,-y,z
1/2+x,1/2+y,z
1/2-x,1/2+y,-z
1/2-x,1/2-y,-z
1/2+x,1/2-y,z
loop_
_atom_site_type_symbol
_atom_site_label
_atom_site_fract_x
_atom_site_fract_y
_atom_site_fract_z
Si Si1 0.066733 0.827348 0.455352
Si Si2 0.905420 0.335240 0.148404
Si Si3 0.182500 0.177999 0.536149
Si Si4 0.529580 0.326547 0.298390
Si Si5 0.558655 0.833371 0.147001
Si Si6 0.608716 0.822796 0.682332
Si Si7 0.076964 0.166528 0.998336
O O1 0.129625 0.762192 0.485641
O O2 0.073345 0.802029 0.364287
O O3 0.000000 0.752202 0.500000
O O4 0.063872 0.000000 0.476988
O O5 0.881797 0.500000 0.130719
O O6 0.873165 0.284905 0.233965
O O7 0.885893 0.228005 0.083280
O O8 0.982505 0.335376 0.145264
O O9 0.250000 0.250000 0.500000
O O10 0.162959 0.240968 0.621894
O O11 0.188292 0.000000 0.537568
O O12 0.514093 0.500000 0.287522
O O13 0.571091 0.262554 0.220042
O O14 0.462077 0.240695 0.324377
O O15 0.585445 0.000000 0.153981
O O16 0.596203 0.761421 0.068371
O O17 0.608302 0.000000 0.669028
O O18 0.101480 0.000000 0.007256
O O19 0.000000 0.172427 0.000000
#
# Coordination Sequence:
#
# PCOD8079028 Si02
#       7
#     8   8   8   8   8   8   8
#     4   9  17  32  52  73  95 126 163 201 246 294
#     4   8  15  25  37  54  82 118 152 188 232 282
#     4  11  22  37  54  72  98 129 164 204 249 295
#     4  10  17  28  47  68  91 122 162 201 239 285
#     4   9  16  25  36  55  87 121 152 190 239 285
#     4  10  19  31  46  68  95 124 159 198 244 291
#     4   9  15  22  34  54  80 114 156 192 228 278
#
# _framework density 17.175529999999998
#
# number of rings (size 3 to 8) (size 9 to 14) (size 15 to 20)
#    0.000    2.571    1.429    3.000    0.000    5.714 
#    0.000    3.571    0.000    0.000    0.000    0.000 
#    0.000    1.143    0.000    3.429    0.000    5.857 
#
# Total GULP energy -347079.240713 kJ/mol
# GULP energy per Si atom -12395.687168 kJ/mol
# Density = 1.713644 g / cm^3
# Si number density = 17.175530 Si / 1000 Ang^3
#
#
#
# Elastic Constant Matrix: (Units=GPa)
#
#
# Indices 1 2 3 4 5 6 
#
# 1 58.4272 27.3092 43.8943 0.0000 -2.6183 0.0000
# 2 27.3092 108.9077 69.6748 0.0000 -3.0534 0.0000
# 3 43.8943 69.6748 157.5922 0.0000 -3.7529 0.0000
# 4 0.0000 0.0000 0.0000 33.6904 0.0000 -4.7370
# 5 -2.6183 -3.0534 -3.7529 0.0000 11.5049 0.0000
# 6 0.0000 0.0000 0.0000 -4.7370 0.0000 11.6012
#
#
#
# Elastic Compliance Matrix: (Units=1/GPa)
#
#
# Indices 1 2 3 4 5 6 
#
# 1 0.022113 -0.002188 -0.005126 0.000000 0.002780 0.000000
# 2 -0.002188 0.013048 -0.005129 0.000000 0.001292 0.000000
# 3 -0.005126 -0.005129 0.010059 0.000000 0.000753 0.000000
# 4 0.000000 0.000000 0.000000 0.031490 0.000000 0.012858
# 5 0.002780 0.001292 0.000753 0.000000 0.088141 0.000000
# 6 0.000000 0.000000 0.000000 0.012858 0.000000 0.091448
#
#
# Mechanical properties :
#
#
# Convention : Reuss Voigt Hill
#
# Bulk Modulus (GPa) = 49.17526 67.40931 58.29228
# Shear Modulus (GPa) = 17.36339 23.62920 20.49630
#
# Velocity S-wave (km/s) = 3.18297 3.71313 3.45823
# Velocity P-wave (km/s) = 6.49627 7.59708 7.06814
#
# Compressibility (1/GPa) = 0.02033543
#
# Stress axis : x y z
#
# Youngs Moduli (GPa) = 45.22167 76.63990 99.41736
#
# Poissons Ratio (x) = 0.16768 0.50959
# Poissons Ratio (y) = 0.09894 0.50988
# Poissons Ratio (z) = 0.23179 0.39306
#
# Static dielectric constant tensor:
#      x y z
#    x 2.624380 0.000000 0.051310 
#    y 0.000000 3.298880 0.000000 
#    z 0.051310 0.000000 3.579400 
# 
# 
# High freq. dielectric constant tensor:
#      x y z
#    x 1.582310 0.000000 0.004230 
#    y 0.000000 1.667170 0.000000 
#    z 0.004230 0.000000 1.685120 
# 
# From -- ./inp_files/280225.got.cif
#   From: 2010.06.25/outbox.cif.g09.slc.cpg/sg12_141_cif.got.tgz:280225.got - 2010.06.28 00:19:55.
