data_PCOD8079827
_publ_section_title
;
Structure prediction by ZEFSAII (Michael W. Deem and Ramdas Pophale) SiO2 
 PCOD8079827
Probable space group: C 2/M
;
_chemical_formula_sum "Si O2"
_cell_formula_units_Z 40
_cell_length_a 21.010020
_cell_length_b 24.115872
_cell_length_c 9.229372
_cell_angle_alpha 90.000000
_cell_angle_beta 36.003090
_cell_angle_gamma 90.000000
_cell_volume 2748.859279
_symmetry_space_group_name_H-M "C 2/M"
_symmetry_group_IT_number 12
_symmetry_cell_setting 'monoclinic'
loop_
_space_group_symop_operation_xyz
x,y,z
-x,y,-z
-x,-y,-z
x,-y,z
1/2+x,1/2+y,z
1/2-x,1/2+y,-z
1/2-x,1/2-y,-z
1/2+x,1/2-y,z
loop_
_atom_site_type_symbol
_atom_site_label
_atom_site_fract_x
_atom_site_fract_y
_atom_site_fract_z
Si Si1 0.826640 0.060400 0.372208
Si Si2 0.396895 0.257461 0.100566
Si Si3 0.951126 0.060823 0.864991
Si Si4 0.715086 0.673036 0.449211
Si Si5 0.003915 0.173968 0.655865
O O1 0.751459 0.109563 0.573547
O O2 0.941896 0.065227 0.236554
O O3 0.773211 0.000000 0.502128
O O4 0.847542 0.067126 0.161743
O O5 0.333276 0.301975 0.314081
O O6 0.321659 0.205133 0.200980
O O7 0.500000 0.235303 0.000000
O O8 0.430840 0.286065 0.888651
O O9 0.953238 0.111633 0.748172
O O10 0.945692 0.000000 0.797320
O O11 0.627564 0.675159 0.482151
O O12 0.000000 0.196778 0.500000
#
# Coordination Sequence:
#
# PCOD8079827 Si02
#       5
#     8   8   8   8   8
#     4   8  12  21  40  60  76  99 130 162 196 230
#     4   9  17  29  43  58  76 104 139 167 197 231
#     4   8  13  22  36  56  83 107 126 153 190 235
#     4   9  16  28  44  58  78 106 133 165 198 232
#     4  10  18  26  38  60  87 109 131 158 190 235
#
# _framework density 14.551491
#
# number of rings (size 3 to 8) (size 9 to 14) (size 15 to 20)
#    0.000    3.200    2.000    1.200    0.000    1.200 
#    0.000    0.000    0.000    0.600    0.000    0.000 
#    0.000    0.800    0.000    0.400    0.000    0.400 
#
# Total GULP energy -247822.288820 kJ/mol
# GULP energy per Si atom -12391.114441 kJ/mol
# Density = 1.451837 g / cm^3
# Si number density = 14.551491 Si / 1000 Ang^3
#
#
#
# Elastic Constant Matrix: (Units=GPa)
#
#
# Indices 1 2 3 4 5 6 
#
# 1 49.4602 39.9829 36.2822 0.0000 10.1478 0.0000
# 2 39.9829 123.4992 50.1235 0.0000 -6.0016 0.0000
# 3 36.2822 50.1235 62.3292 0.0000 5.9644 0.0000
# 4 0.0000 0.0000 0.0000 20.8318 0.0000 -2.4187
# 5 10.1478 -6.0016 5.9644 0.0000 20.0004 0.0000
# 6 0.0000 0.0000 0.0000 -2.4187 0.0000 13.8682
#
#
#
# Elastic Compliance Matrix: (Units=1/GPa)
#
#
# Indices 1 2 3 4 5 6 
#
# 1 0.042888 -0.008065 -0.016640 0.000000 -0.019218 0.000000
# 2 -0.008065 0.014472 -0.007978 0.000000 0.010814 0.000000
# 3 -0.016640 -0.007978 0.032494 0.000000 -0.003641 0.000000
# 4 0.000000 0.000000 0.000000 0.048996 0.000000 0.008545
# 5 -0.019218 0.010814 -0.003641 0.000000 0.064081 0.000000
# 6 0.000000 0.000000 0.000000 0.008545 0.000000 0.073598
#
#
# Mechanical properties :
#
#
# Convention : Reuss Voigt Hill
#
# Bulk Modulus (GPa) = 40.83787 54.22953 47.53370
# Shear Modulus (GPa) = 14.28338 18.20009 16.24174
#
# Velocity S-wave (km/s) = 3.13641 3.54041 3.34452
# Velocity P-wave (km/s) = 6.42195 7.35261 6.90298
#
# Compressibility (1/GPa) = 0.02448708
#
# Stress axis : x y z
#
# Youngs Moduli (GPa) = 23.31661 69.10042 30.77461
#
# Poissons Ratio (x) = 0.55731 0.51210
# Poissons Ratio (y) = 0.18805 0.24551
# Poissons Ratio (z) = 0.38800 0.55127
#
# Static dielectric constant tensor:
#      x y z
#    x 2.476690 0.000000 0.040780 
#    y 0.000000 3.173240 0.000000 
#    z 0.040780 0.000000 2.600470 
# 
# 
# High freq. dielectric constant tensor:
#      x y z
#    x 1.515270 0.000000 0.015540 
#    y 0.000000 1.567340 0.000000 
#    z 0.015540 0.000000 1.524070 
# 
# From -- ./inp_files/48719.got.cif
#   From: 2010.06.25/outbox.cif.g09.slc.cpg/sg12_25_cif.got.tgz:48719.got - 2010.06.28 00:19:55.
