data_PCOD8079124
_publ_section_title
;
Structure prediction by ZEFSAII (Michael W. Deem and Ramdas Pophale) SiO2 
 PCOD8079124
Probable space group: C 2/M
;
_chemical_formula_sum "Si O2"
_cell_formula_units_Z 40
_cell_length_a 25.191685
_cell_length_b 9.704022
_cell_length_c 13.441096
_cell_angle_alpha 90.000000
_cell_angle_beta 47.171833
_cell_angle_gamma 90.000000
_cell_volume 2409.805916
_symmetry_space_group_name_H-M "C 2/M"
_symmetry_group_IT_number 12
_symmetry_cell_setting 'monoclinic'
loop_
_space_group_symop_operation_xyz
x,y,z
-x,y,-z
-x,-y,-z
x,-y,z
1/2+x,1/2+y,z
1/2-x,1/2+y,-z
1/2-x,1/2-y,-z
1/2+x,1/2-y,z
loop_
_atom_site_type_symbol
_atom_site_label
_atom_site_fract_x
_atom_site_fract_y
_atom_site_fract_z
Si Si1 0.202809 0.500000 0.437860
Si Si2 0.923834 0.801425 0.220829
Si Si3 0.227855 0.500000 0.643895
Si Si4 0.461321 0.500000 0.856325
Si Si5 0.641209 0.500000 0.847747
Si Si6 0.069963 0.500000 0.844425
Si Si7 0.962459 0.000000 0.442607
Si Si8 0.151644 0.797452 0.486948
O O1 0.218631 0.500000 0.535507
O O2 0.273508 0.500000 0.278104
O O3 0.155848 0.633623 0.466392
O O4 0.933466 0.637743 0.215802
O O5 0.866061 0.843365 0.377909
O O6 0.893695 0.861871 0.156027
O O7 0.001557 0.864354 0.145800
O O8 0.148930 0.500000 0.797428
O O9 0.269511 0.364833 0.630910
O O10 0.472183 0.500000 0.722893
O O11 0.379490 0.500000 0.006888
O O12 0.000000 0.500000 0.000000
O O13 0.911565 0.136192 0.500507
O O14 0.000000 0.000000 0.500000
#
# Coordination Sequence:
#
# PCOD8079124 Si02
#       8
#     4   8   4   4   4   4   4   8
#     4  12  18  28  48  72 109 130 157 192 228 286
#     4  10  17  29  42  65 101 132 162 187 221 279
#     4  11  18  30  44  66 108 137 163 185 218 287
#     4   9  19  31  47  68  90 120 165 199 238 288
#     4  11  18  27  45  67 100 134 154 183 231 283
#     4  12  21  25  38  64 104 145 159 177 223 270
#     4   9  20  39  58  68  87 119 167 218 252 285
#     4  10  19  31  50  76  93 133 168 195 234 279
#
# _framework density 16.598846999999999
#
# number of rings (size 3 to 8) (size 9 to 14) (size 15 to 20)
#    0.000    1.600    4.000    5.400    0.000    0.000 
#    0.000    0.500    0.000    1.200    0.000    0.000 
#    0.000    0.000    0.000    0.000    0.000    0.000 
#
# Total GULP energy -247777.314819 kJ/mol
# GULP energy per Si atom -12388.865741 kJ/mol
# Density = 1.656107 g / cm^3
# Si number density = 16.598847 Si / 1000 Ang^3
#
#
#
# Elastic Constant Matrix: (Units=GPa)
#
#
# Indices 1 2 3 4 5 6 
#
# 1 75.6149 38.4981 51.3011 0.0000 1.2356 0.0000
# 2 38.4981 139.2076 14.0066 0.0000 2.0119 0.0000
# 3 51.3011 14.0066 103.7362 0.0000 -18.4772 0.0000
# 4 0.0000 0.0000 0.0000 14.0212 0.0000 -3.4160
# 5 1.2356 2.0119 -18.4772 0.0000 23.9059 0.0000
# 6 0.0000 0.0000 0.0000 -3.4160 0.0000 8.2439
#
#
#
# Elastic Compliance Matrix: (Units=1/GPa)
#
#
# Indices 1 2 3 4 5 6 
#
# 1 0.025822 -0.005550 -0.014119 0.000000 -0.011780 0.000000
# 2 -0.005550 0.008528 0.001759 0.000000 0.000929 0.000000
# 3 -0.014119 0.001759 0.019121 0.000000 0.015360 0.000000
# 4 0.000000 0.000000 0.000000 0.079329 0.000000 0.032872
# 5 -0.011780 0.000929 0.015360 0.000000 0.054234 0.000000
# 6 0.000000 0.000000 0.000000 0.032872 0.000000 0.134924
#
#
# Mechanical properties :
#
#
# Convention : Reuss Voigt Hill
#
# Bulk Modulus (GPa) = 56.65714 58.46339 57.56027
# Shear Modulus (GPa) = 13.74905 23.55105 18.65005
#
# Velocity S-wave (km/s) = 2.88117 3.77083 3.35561
# Velocity P-wave (km/s) = 6.72870 7.36592 7.05451
#
# Compressibility (1/GPa) = 0.01765003
#
# Stress axis : x y z
#
# Youngs Moduli (GPa) = 38.72635 117.25952 52.29979
#
# Poissons Ratio (x) = 0.65083 0.73841
# Poissons Ratio (y) = 0.21494 -0.09198
# Poissons Ratio (z) = 0.54677 -0.20623
#
# Static dielectric constant tensor:
#      x y z
#    x 2.653400 0.000000 -0.337070 
#    y 0.000000 3.191520 0.000000 
#    z -0.337070 0.000000 3.267600 
# 
# 
# High freq. dielectric constant tensor:
#      x y z
#    x 1.574590 0.000000 -0.039440 
#    y 0.000000 1.656940 0.000000 
#    z -0.039440 0.000000 1.634680 
# 
# From -- ./inp_files/179706.got.cif
#   From: 2010.06.25/outbox.cif.g09.slc.cpg/sg12_90_cif.got.tgz:179706.got - 2010.06.28 00:19:55.
