data_PCOD8079241
_publ_section_title
;
Structure prediction by ZEFSAII (Michael W. Deem and Ramdas Pophale) SiO2 
 PCOD8079241
Probable space group: C 2/M
;
_chemical_formula_sum "Si O2"
_cell_formula_units_Z 64
_cell_length_a 24.509063
_cell_length_b 8.891426
_cell_length_c 16.761619
_cell_angle_alpha 90.000000
_cell_angle_beta 93.204520
_cell_angle_gamma 90.000000
_cell_volume 3646.989210
_symmetry_space_group_name_H-M "C 2/M"
_symmetry_group_IT_number 12
_symmetry_cell_setting 'monoclinic'
loop_
_space_group_symop_operation_xyz
x,y,z
-x,y,-z
-x,-y,-z
x,-y,z
1/2+x,1/2+y,z
1/2-x,1/2+y,-z
1/2-x,1/2-y,-z
1/2+x,1/2-y,z
loop_
_atom_site_type_symbol
_atom_site_label
_atom_site_fract_x
_atom_site_fract_y
_atom_site_fract_z
Si Si1 0.436894 0.325209 0.180713
Si Si2 0.150152 0.174914 0.950200
Si Si3 0.658368 0.679255 0.128351
Si Si4 0.144578 0.676290 0.709096
Si Si5 0.957884 0.322181 0.609877
Si Si6 0.058655 0.176051 0.227165
Si Si7 0.230460 0.178431 0.820014
Si Si8 0.073825 0.323146 0.562085
O O1 0.427731 0.500000 0.203882
O O2 0.409964 0.294447 0.091657
O O3 0.407518 0.219243 0.241859
O O4 0.500432 0.281362 0.183123
O O5 0.196826 0.238766 0.894527
O O6 0.160794 0.000000 0.960681
O O7 0.154725 0.247729 0.038292
O O8 0.662300 0.500000 0.128318
O O9 0.605033 0.735672 0.171104
O O10 0.710555 0.746940 0.176834
O O11 0.156628 0.500000 0.719241
O O12 0.198192 0.769328 0.738091
O O13 0.128093 0.720170 0.616588
O O14 0.956690 0.500000 0.621602
O O15 0.932259 0.249437 0.686161
O O16 0.921675 0.270809 0.529763
O O17 0.019223 0.258443 0.600393
O O18 0.063916 0.000000 0.239768
O O19 0.235559 0.000000 0.819639
O O20 0.064835 0.500000 0.561681
#
# Coordination Sequence:
#
# PCOD8079241 Si02
#       8
#     8   8   8   8   8   8   8   8
#     4   9  17  30  46  70 102 130 157 195 241 284
#     4   8  16  31  51  71  93 123 161 204 245 283
#     4  10  20  34  50  69  94 131 171 201 235 285
#     4  10  17  29  51  76  98 124 158 197 241 288
#     4   9  16  30  49  70  99 131 161 192 230 285
#     4  10  20  31  46  71 104 133 161 197 237 284
#     4  10  20  34  51  73  97 122 159 208 252 286
#     4   8  15  27  48  75  98 124 160 196 231 281
#
# _framework density 17.548722000000001
#
# number of rings (size 3 to 8) (size 9 to 14) (size 15 to 20)
#    0.000    2.750    1.250    2.625    0.000    1.000 
#    0.000    7.500    0.000    0.750    0.000    5.250 
#    0.000    0.000    0.000    0.000    0.000    0.000 
#
# Total GULP energy -396632.432602 kJ/mol
# GULP energy per Si atom -12394.763519 kJ/mol
# Density = 1.750878 g / cm^3
# Si number density = 17.548722 Si / 1000 Ang^3
#
#
#
# Elastic Constant Matrix: (Units=GPa)
#
#
# Indices 1 2 3 4 5 6 
#
# 1 106.5001 21.5023 46.2180 0.0000 16.5944 0.0000
# 2 21.5023 22.4517 20.2554 0.0000 1.8435 0.0000
# 3 46.2180 20.2554 91.7426 0.0000 22.1089 0.0000
# 4 0.0000 0.0000 0.0000 21.8549 0.0000 1.4397
# 5 16.5944 1.8435 22.1089 0.0000 22.8057 0.0000
# 6 0.0000 0.0000 0.0000 1.4397 0.0000 22.1642
#
#
#
# Elastic Compliance Matrix: (Units=1/GPa)
#
#
# Indices 1 2 3 4 5 6 
#
# 1 0.013714 -0.009623 -0.003349 0.000000 -0.005954 0.000000
# 2 -0.009623 0.064054 -0.012701 0.000000 0.014138 0.000000
# 3 -0.003349 -0.012701 0.018994 0.000000 -0.014950 0.000000
# 4 0.000000 0.000000 0.000000 0.045953 0.000000 -0.002985
# 5 -0.005954 0.014138 -0.014950 0.000000 0.061532 0.000000
# 6 0.000000 0.000000 0.000000 -0.002985 0.000000 0.045312
#
#
# Mechanical properties :
#
#
# Convention : Reuss Voigt Hill
#
# Bulk Modulus (GPa) = 22.01920 44.07175 33.04548
# Shear Modulus (GPa) = 15.82052 22.21288 19.01670
#
# Velocity S-wave (km/s) = 3.00579 3.56164 3.29546
# Velocity P-wave (km/s) = 4.96196 6.48708 5.77509
#
# Compressibility (1/GPa) = 0.04541491
#
# Stress axis : x y z
#
# Youngs Moduli (GPa) = 72.91929 15.61172 52.64709
#
# Poissons Ratio (x) = 0.15024 0.17632
# Poissons Ratio (y) = 0.70174 0.66868
# Poissons Ratio (z) = 0.24422 0.19829
#
# Static dielectric constant tensor:
#      x y z
#    x 3.186560 0.000000 0.188790 
#    y 0.000000 2.983790 0.000000 
#    z 0.188790 0.000000 3.580340 
# 
# 
# High freq. dielectric constant tensor:
#      x y z
#    x 1.657360 0.000000 0.022410 
#    y 0.000000 1.654610 0.000000 
#    z 0.022410 0.000000 1.682220 
# 
# From -- ./inp_files/287772.got.cif
#   From: 2010.06.25/outbox.cif.g09.slc.cpg/sg12_144_cif.got.tgz:287772.got - 2010.06.28 00:19:55.
