data_PCOD8079844
_publ_section_title
;
Structure prediction by ZEFSAII (Michael W. Deem and Ramdas Pophale) SiO2 
 PCOD8079844
Probable space group: C 2/M
;
_chemical_formula_sum "Si O2"
_cell_formula_units_Z 64
_cell_length_a 32.053489
_cell_length_b 8.982863
_cell_length_c 30.427709
_cell_angle_alpha 90.000000
_cell_angle_beta 29.837745
_cell_angle_gamma 90.000000
_cell_volume 4359.053057
_symmetry_space_group_name_H-M "C 2/M"
_symmetry_group_IT_number 12
_symmetry_cell_setting 'monoclinic'
loop_
_space_group_symop_operation_xyz
x,y,z
-x,y,-z
-x,-y,-z
x,-y,z
1/2+x,1/2+y,z
1/2-x,1/2+y,-z
1/2-x,1/2-y,-z
1/2+x,1/2-y,z
loop_
_atom_site_type_symbol
_atom_site_label
_atom_site_fract_x
_atom_site_fract_y
_atom_site_fract_z
Si Si1 0.800926 0.329755 0.490247
Si Si2 0.890955 0.323585 0.011370
Si Si3 0.598365 0.836202 0.902086
Si Si4 0.649326 0.672635 0.680830
Si Si5 0.131052 0.826350 0.134198
Si Si6 0.713684 0.673607 0.967016
Si Si7 0.544764 0.175070 0.700540
Si Si8 0.931512 0.826621 0.154742
O O1 0.794565 0.500000 0.483477
O O2 0.750000 0.250000 0.500000
O O3 0.750523 0.297597 0.581868
O O4 0.899322 0.286783 0.394691
O O5 0.896614 0.500000 0.000121
O O6 0.981586 0.257679 0.917082
O O7 0.862312 0.282013 0.087457
O O8 0.821488 0.256339 0.043212
O O9 0.617286 0.724033 0.844870
O O10 0.632744 0.000000 0.857938
O O11 0.500000 0.845777 0.000000
O O12 0.627392 0.500000 0.690910
O O13 0.593625 0.774045 0.699680
O O14 0.629196 0.712525 0.749360
O O15 0.194844 0.738160 0.106870
O O16 0.039233 0.767601 0.228542
O O17 0.137551 0.000000 0.139394
O O18 0.151656 0.795635 0.064397
O O19 0.721775 0.500000 0.949403
O O20 0.524154 0.000000 0.723408
O O21 0.951810 0.000000 0.132683
#
# Coordination Sequence:
#
# PCOD8079844 Si02
#       8
#     8   8   8   8   8   8   8   8
#     4   8  15  27  40  55  78 106 135 167 200 235
#     4  10  19  30  43  58  80 110 138 165 203 244
#     4   8  16  29  41  55  78 107 135 164 200 240
#     4   9  17  28  40  57  83 111 137 167 204 241
#     4  10  20  32  44  59  82 109 134 166 206 239
#     4  10  20  32  45  61  80 104 137 172 201 233
#     4  10  18  27  42  61  79 106 142 172 199 235
#     4  10  18  26  40  61  82 107 139 171 201 235
#
# _framework density 14.682088
#
# number of rings (size 3 to 8) (size 9 to 14) (size 15 to 20)
#    0.000    2.625    0.000    3.375    0.000    8.750 
#    0.000    0.000    0.000    0.000    0.000    0.000 
#    0.000    1.000    0.000   11.500    0.000    2.875 
#
# Total GULP energy -396514.833431 kJ/mol
# GULP energy per Si atom -12391.088545 kJ/mol
# Density = 1.464867 g / cm^3
# Si number density = 14.682088 Si / 1000 Ang^3
#
#
#
# Elastic Constant Matrix: (Units=GPa)
#
#
# Indices 1 2 3 4 5 6 
#
# 1 92.9445 40.2385 43.6148 0.0057 7.1240 0.0053
# 2 40.2385 63.8958 37.1278 0.0164 4.1729 -0.0086
# 3 43.6148 37.1278 100.2674 0.0101 4.3481 0.0021
# 4 0.0057 0.0164 0.0101 18.2059 -0.0024 -1.2618
# 5 7.1240 4.1729 4.3481 -0.0024 17.0251 0.0001
# 6 0.0053 -0.0086 0.0021 -1.2618 0.0001 25.3112
#
#
#
# Elastic Compliance Matrix: (Units=1/GPa)
#
#
# Indices 1 2 3 4 5 6 
#
# 1 0.016275 -0.007619 -0.004089 0.000003 -0.003898 -0.000006
# 2 -0.007619 0.023664 -0.005395 -0.000015 -0.001234 0.000009
# 3 -0.004089 -0.005395 0.013771 -0.000002 -0.000484 -0.000002
# 4 0.000003 -0.000015 -0.000002 0.055118 0.000011 0.002748
# 5 -0.003898 -0.001234 -0.000484 0.000011 0.060794 0.000001
# 6 -0.000006 0.000009 -0.000002 0.002748 0.000001 0.039645
#
#
# Mechanical properties :
#
#
# Convention : Reuss Voigt Hill
#
# Bulk Modulus (GPa) = 51.27134 55.45218 53.36176
# Shear Modulus (GPa) = 20.00212 21.18354 20.59283
#
# Velocity S-wave (km/s) = 3.69500 3.80256 3.74917
# Velocity P-wave (km/s) = 7.29389 7.55843 7.42734
#
# Compressibility (1/GPa) = 0.01950407
#
# Stress axis : x y z
#
# Youngs Moduli (GPa) = 61.44335 42.25890 72.61764
#
# Poissons Ratio (x) = 0.32195 0.29696
# Poissons Ratio (y) = 0.46811 0.39176
# Poissons Ratio (z) = 0.25126 0.22798
#
# Static dielectric constant tensor:
#      x y z
#    x 2.853750 0.000010 0.210580 
#    y 0.000010 2.951320 0.000200 
#    z 0.210580 0.000200 3.118420 
# 
# 
# High freq. dielectric constant tensor:
#      x y z
#    x 1.533710 0.000000 0.010740 
#    y 0.000000 1.578040 0.000010 
#    z 0.010740 0.000010 1.546920 
# 
# From -- ./inp_files/384525.got.cif
#   From: 2010.06.25/outbox.cif.g09.slc.cpg/sg12_193_cif.got.tgz:384525.got - 2010.06.28 00:19:55.
