data_PCOD8079307
_publ_section_title
;
Structure prediction by ZEFSAII (Michael W. Deem and Ramdas Pophale) SiO2 
 PCOD8079307
Probable space group: C 2/M
;
_chemical_formula_sum "Si O2"
_cell_formula_units_Z 64
_cell_length_a 5.371086
_cell_length_b 26.958401
_cell_length_c 25.025515
_cell_angle_alpha 90.000000
_cell_angle_beta 120.541992
_cell_angle_gamma 90.000000
_cell_volume 3120.843572
_symmetry_space_group_name_H-M "C 2/M"
_symmetry_group_IT_number 12
_symmetry_cell_setting 'monoclinic'
loop_
_space_group_symop_operation_xyz
x,y,z
-x,y,-z
-x,-y,-z
x,-y,z
1/2+x,1/2+y,z
1/2-x,1/2+y,-z
1/2-x,1/2-y,-z
1/2+x,1/2-y,z
loop_
_atom_site_type_symbol
_atom_site_label
_atom_site_fract_x
_atom_site_fract_y
_atom_site_fract_z
Si Si1 0.338998 0.942468 0.537021
Si Si2 0.002073 0.363083 0.635579
Si Si3 0.513161 0.289856 0.697525
Si Si4 0.516661 0.136058 0.759895
Si Si5 0.834886 0.558681 0.930691
Si Si6 0.196427 0.267914 0.420462
Si Si7 0.272586 0.231169 0.185086
Si Si8 0.835059 0.558700 0.140014
O O1 0.500000 0.927697 0.500000
O O2 0.500577 0.913132 0.601485
O O3 0.000000 0.928856 0.500000
O O4 0.383859 0.000000 0.554657
O O5 0.268983 0.328032 0.652326
O O6 0.006918 0.380123 0.697370
O O7 0.742104 0.326026 0.587833
O O8 0.551501 0.255311 0.648318
O O9 0.477141 0.253987 0.745972
O O10 0.753474 0.328158 0.743751
O O11 0.782321 0.172695 0.806979
O O12 0.512232 0.085813 0.793628
O O13 0.854962 0.500000 0.934836
O O14 0.500620 0.575047 0.897296
O O15 0.999722 0.576998 0.895323
O O16 0.000000 0.581427 0.000000
O O17 0.514189 0.241685 0.455640
O O18 0.456647 0.241707 0.150344
O O19 0.868784 0.500000 0.152217
#
# Coordination Sequence:
#
# PCOD8079307 Si02
#       8
#     8   8   8   8   8   8   8   8
#     4  10  25  47  64  79 101 135 192 244 264 307
#     4  11  20  34  62  80 105 149 180 215 282 334
#     4  10  18  32  50  83 111 149 175 214 254 342
#     4  11  20  31  52  83 120 148 170 213 284 337
#     4   9  18  37  59  74  99 151 199 227 267 315
#     4  10  17  30  50  81 106 140 170 213 254 322
#     4  10  17  30  47  74 106 148 177 209 246 321
#     4  10  22  34  50  82 120 143 175 233 272 311
#
# _framework density 20.507275
#
# number of rings (size 3 to 8) (size 9 to 14) (size 15 to 20)
#    0.000    1.875    3.750    1.875    3.500    2.000 
#    0.000    0.625    0.000    9.000    0.000    0.000 
#    0.000   40.000    0.000    0.000    0.000    0.000 
#
# Total GULP energy -396420.764809 kJ/mol
# GULP energy per Si atom -12388.148900 kJ/mol
# Density = 2.046060 g / cm^3
# Si number density = 20.507275 Si / 1000 Ang^3
#
#
#
# Elastic Constant Matrix: (Units=GPa)
#
#
# Indices 1 2 3 4 5 6 
#
# 1 132.5302 33.3891 45.5506 0.0000 -18.6517 0.0000
# 2 33.3891 93.0754 56.3272 0.0000 -8.1457 0.0000
# 3 45.5506 56.3272 80.5216 0.0000 -18.4773 0.0000
# 4 0.0000 0.0000 0.0000 -6.4193 0.0000 23.4769
# 5 -18.6517 -8.1457 -18.4773 0.0000 27.1134 0.0000
# 6 0.0000 0.0000 0.0000 23.4769 0.0000 16.9679
#
#
#
# Elastic Compliance Matrix: (Units=1/GPa)
#
#
# Indices 1 2 3 4 5 6 
#
# 1 0.009650 -0.000593 -0.004222 0.000000 0.003583 0.000000
# 2 -0.000593 0.019021 -0.013931 0.000000 -0.004187 0.000000
# 3 -0.004222 -0.013931 0.027175 0.000000 0.011430 0.000000
# 4 0.000000 0.000000 0.000000 -0.025706 0.000000 0.035566
# 5 0.003583 -0.004187 0.011430 0.000000 0.045878 0.000000
# 6 0.000000 0.000000 0.000000 0.035566 0.000000 0.009725
#
#
# Mechanical properties :
#
#
# Convention : Reuss Voigt Hill
#
# Bulk Modulus (GPa) = 54.48325 64.07345 59.27835
# Shear Modulus (GPa) = 38.65331 18.92307 28.78819
#
# Velocity S-wave (km/s) = 4.34621 3.04097 3.75080
# Velocity P-wave (km/s) = 7.19802 6.60622 6.90846
#
# Compressibility (1/GPa) = 0.01835426
#
# Stress axis : x y z
#
# Youngs Moduli (GPa) = 103.62427 52.57308 36.79806
#
# Poissons Ratio (x) = 0.03119 0.15535
# Poissons Ratio (y) = 0.06148 0.51264
# Poissons Ratio (z) = 0.43748 0.73240
#
# Static dielectric constant tensor:
#      x y z
#    x 3.994660 0.000000 -0.083410 
#    y 0.000000 3.541710 0.000000 
#    z -0.083410 0.000000 3.387730 
# 
# 
# High freq. dielectric constant tensor:
#      x y z
#    x 1.824700 0.000000 -0.009680 
#    y 0.000000 1.784820 0.000000 
#    z -0.009680 0.000000 1.765010 
# 
# From -- ./inp_files/331395.got.cif
#   From: 2010.06.25/outbox.cif.g09.slc.cpg/sg12_166_cif.got.tgz:331395.got - 2010.06.28 00:19:55.
