data_PCOD8079510
_publ_section_title
;
Structure prediction by ZEFSAII (Michael W. Deem and Ramdas Pophale) SiO2 
 PCOD8079510
Probable space group: C 2/M
;
_chemical_formula_sum "Si O2"
_cell_formula_units_Z 64
_cell_length_a 18.283821
_cell_length_b 15.791592
_cell_length_c 16.418140
_cell_angle_alpha 90.000000
_cell_angle_beta 43.817169
_cell_angle_gamma 90.000000
_cell_volume 3282.074517
_symmetry_space_group_name_H-M "C 2/M"
_symmetry_group_IT_number 12
_symmetry_cell_setting 'monoclinic'
loop_
_space_group_symop_operation_xyz
x,y,z
-x,y,-z
-x,-y,-z
x,-y,z
1/2+x,1/2+y,z
1/2-x,1/2+y,-z
1/2-x,1/2-y,-z
1/2+x,1/2-y,z
loop_
_atom_site_type_symbol
_atom_site_label
_atom_site_fract_x
_atom_site_fract_y
_atom_site_fract_z
Si Si1 0.104650 0.250122 0.953254
Si Si2 0.719993 0.402769 0.815680
Si Si3 0.306867 0.652880 0.839965
Si Si4 0.449313 0.235718 0.827979
Si Si5 0.607477 0.096283 0.461264
Si Si6 0.508211 0.403724 0.587727
Si Si7 0.188909 0.593073 0.084648
Si Si8 0.369355 0.249094 0.431888
O O1 0.126628 0.166124 0.880482
O O2 0.203401 0.315811 0.873022
O O3 0.073734 0.217788 0.068665
O O4 0.000000 0.295231 0.000000
O O5 0.678388 0.500000 0.852151
O O6 0.798546 0.389652 0.677685
O O7 0.770579 0.373342 0.860744
O O8 0.368986 0.733957 0.822790
O O9 0.388742 0.601774 0.718175
O O10 0.277131 0.597064 0.942846
O O11 0.416301 0.138240 0.863754
O O12 0.569170 0.242592 0.703088
O O13 0.500000 0.110531 0.500000
O O14 0.611476 0.166146 0.528752
O O15 0.612426 0.000000 0.493205
O O16 0.500000 0.382729 0.500000
O O17 0.549327 0.500000 0.570394
O O18 0.592122 0.336712 0.557243
O O19 0.149549 0.500000 0.132248
O O20 0.250000 0.250000 0.500000
#
# Coordination Sequence:
#
# PCOD8079510 Si02
#       8
#     8   8   8   8   8   8   8   8
#     4  11  22  34  57  83 121 153 188 243 301 356
#     4  10  20  34  56  87 118 153 191 234 302 368
#     4  10  19  37  57  82 112 153 196 248 287 351
#     4  10  20  38  54  83 110 149 200 236 280 356
#     4  10  22  39  62  92 122 158 206 253 300 365
#     4  10  23  41  63  88 114 157 214 258 294 354
#     4  10  17  31  58  84 109 143 189 242 291 341
#     4  11  25  39  62  89 123 163 199 245 311 362
#
# _framework density 19.499860999999999
#
# number of rings (size 3 to 8) (size 9 to 14) (size 15 to 20)
#    0.000    1.750    2.500    2.250    5.250    2.250 
#    0.000    0.000    0.000   10.875    0.000    0.000 
#    0.000    0.000    0.000    0.000    0.000    0.000 
#
# Total GULP energy -396509.796911 kJ/mol
# GULP energy per Si atom -12390.931153 kJ/mol
# Density = 1.945548 g / cm^3
# Si number density = 19.499861 Si / 1000 Ang^3
#
#
#
# Elastic Constant Matrix: (Units=GPa)
#
#
# Indices 1 2 3 4 5 6 
#
# 1 67.3322 35.6030 33.6480 0.0000 -20.6672 0.0000
# 2 35.6030 91.2568 34.6770 0.0000 -6.4231 0.0000
# 3 33.6480 34.6770 105.7829 0.0000 -3.9651 0.0000
# 4 0.0000 0.0000 0.0000 22.4351 0.0000 4.0150
# 5 -20.6672 -6.4231 -3.9651 0.0000 34.1197 0.0000
# 6 0.0000 0.0000 0.0000 4.0150 0.0000 17.6552
#
#
#
# Elastic Compliance Matrix: (Units=1/GPa)
#
#
# Indices 1 2 3 4 5 6 
#
# 1 0.025239 -0.006905 -0.005263 0.000000 0.013376 0.000000
# 2 -0.006905 0.014529 -0.002632 0.000000 -0.001754 0.000000
# 3 -0.005263 -0.002632 0.011904 0.000000 -0.002300 0.000000
# 4 0.000000 0.000000 0.000000 0.046464 0.000000 -0.010566
# 5 0.013376 -0.001754 -0.002300 0.000000 0.036814 0.000000
# 6 0.000000 0.000000 0.000000 -0.010566 0.000000 0.059043
#
#
# Mechanical properties :
#
#
# Convention : Reuss Voigt Hill
#
# Bulk Modulus (GPa) = 45.30828 52.46977 48.88903
# Shear Modulus (GPa) = 21.64964 25.53826 23.59395
#
# Velocity S-wave (km/s) = 3.33565 3.62285 3.48221
# Velocity P-wave (km/s) = 6.17422 6.66830 6.42601
#
# Compressibility (1/GPa) = 0.02207102
#
# Stress axis : x y z
#
# Youngs Moduli (GPa) = 39.62125 68.82855 84.00514
#
# Poissons Ratio (x) = 0.47528 0.44213
# Poissons Ratio (y) = 0.27360 0.22110
# Poissons Ratio (z) = 0.20853 0.18116
#
# Static dielectric constant tensor:
#      x y z
#    x 3.387750 0.000000 0.053730 
#    y 0.000000 3.596890 0.000000 
#    z 0.053730 0.000000 3.788700 
# 
# 
# High freq. dielectric constant tensor:
#      x y z
#    x 1.732510 0.000000 0.007900 
#    y 0.000000 1.759490 0.000000 
#    z 0.007900 0.000000 1.774490 
# 
# From -- ./inp_files/278136.got.cif
#   From: 2010.06.25/outbox.cif.g09.slc.cpg/sg12_140_cif.got.tgz:278136.got - 2010.06.28 00:19:55.
