data_PCOD8079637
_publ_section_title
;
Structure prediction by ZEFSAII (Michael W. Deem and Ramdas Pophale) SiO2 
 PCOD8079637
Probable space group: C 2/M
;
_chemical_formula_sum "Si O2"
_cell_formula_units_Z 64
_cell_length_a 28.689906
_cell_length_b 14.637749
_cell_length_c 20.672509
_cell_angle_alpha 90.000000
_cell_angle_beta 157.526787
_cell_angle_gamma 90.000000
_cell_volume 3318.530095
_symmetry_space_group_name_H-M "C 2/M"
_symmetry_group_IT_number 12
_symmetry_cell_setting 'monoclinic'
loop_
_space_group_symop_operation_xyz
x,y,z
-x,y,-z
-x,-y,-z
x,-y,z
1/2+x,1/2+y,z
1/2-x,1/2+y,-z
1/2-x,1/2-y,-z
1/2+x,1/2-y,z
loop_
_atom_site_type_symbol
_atom_site_label
_atom_site_fract_x
_atom_site_fract_y
_atom_site_fract_z
Si Si1 0.580912 0.293719 0.460320
Si Si2 0.759297 0.394086 0.597053
Si Si3 0.638271 0.900642 0.663125
Si Si4 0.621721 0.901582 0.493182
Si Si5 0.020608 0.738110 0.099697
Si Si6 0.905105 0.897726 0.319957
Si Si7 0.743355 0.222326 0.191269
Si Si8 0.831767 0.101838 0.661095
O O1 0.641275 0.352016 0.480653
O O2 0.541991 0.191584 0.384812
O O3 0.458613 0.343306 0.327197
O O4 0.678086 0.285685 0.642712
O O5 0.771226 0.500000 0.631986
O O6 0.882758 0.343910 0.776202
O O7 0.743413 0.379953 0.500437
O O8 0.500000 0.867421 0.500000
O O9 0.663186 0.912450 0.619650
O O10 0.730769 0.822775 0.807095
O O11 0.660842 0.000000 0.726027
O O12 0.742012 0.884857 0.605869
O O13 0.558968 0.000000 0.391825
O O14 0.061424 0.825000 0.194219
O O15 0.000000 0.770398 0.000000
O O16 0.896643 0.702997 0.973045
O O17 0.780901 0.851970 0.185855
O O18 0.000000 0.897123 0.500000
O O19 0.875216 0.000000 0.258862
O O20 0.888806 0.000000 0.733247
#
# Coordination Sequence:
#
# PCOD8079637 Si02
#       8
#     8   8   8   8   8   8   8   8
#     4  10  17  33  54  79 107 143 189 236 276 329
#     4  11  23  38  57  82 111 153 198 234 276 332
#     4   9  16  28  48  77 110 142 180 230 282 333
#     4   9  16  28  49  76 105 135 175 226 274 322
#     4  12  22  37  55  85 120 151 180 235 293 343
#     4   9  18  31  49  74 105 145 187 231 278 328
#     4  10  19  31  49  77 115 143 178 225 291 342
#     4  10  22  39  58  81 112 154 197 231 274 340
#
# _framework density 19.285646
#
# number of rings (size 3 to 8) (size 9 to 14) (size 15 to 20)
#    0.000    2.000    2.500    3.375    0.000    2.000 
#    0.000    0.000    0.000    0.750    0.000    0.000 
#    0.000    0.000    0.000    0.000    0.000    0.000 
#
# Total GULP energy -396607.983641 kJ/mol
# GULP energy per Si atom -12393.999489 kJ/mol
# Density = 1.924175 g / cm^3
# Si number density = 19.285646 Si / 1000 Ang^3
#
#
#
# Elastic Constant Matrix: (Units=GPa)
#
#
# Indices 1 2 3 4 5 6 
#
# 1 100.8861 42.9946 32.9530 0.0000 31.4869 0.0000
# 2 42.9946 162.2112 27.8597 0.0000 13.2716 0.0000
# 3 32.9530 27.8597 38.9507 0.0000 9.7403 0.0000
# 4 0.0000 0.0000 0.0000 -6.0582 0.0000 -1.7089
# 5 31.4869 13.2716 9.7403 0.0000 28.0201 0.0000
# 6 0.0000 0.0000 0.0000 -1.7089 0.0000 30.0045
#
#
#
# Elastic Compliance Matrix: (Units=1/GPa)
#
#
# Indices 1 2 3 4 5 6 
#
# 1 0.019782 -0.001925 -0.010982 0.000000 -0.017499 0.000000
# 2 -0.001925 0.007293 -0.003576 0.000000 -0.000048 0.000000
# 3 -0.010982 -0.003576 0.037251 0.000000 0.001086 0.000000
# 4 0.000000 0.000000 0.000000 -0.162456 0.000000 -0.009252
# 5 -0.017499 -0.000048 0.001086 0.000000 0.054999 0.000000
# 6 0.000000 0.000000 0.000000 -0.009252 0.000000 0.032801
#
#
# Mechanical properties :
#
#
# Convention : Reuss Voigt Hill
#
# Bulk Modulus (GPa) = 31.88895 56.62918 44.25906
# Shear Modulus (GPa) = 151.10662 23.60932 87.35797
#
# Velocity S-wave (km/s) = 8.86126 3.50264 6.73760
# Velocity P-wave (km/s) = 11.01213 6.76647 9.13926
#
# Compressibility (1/GPa) = 0.03135882
#
# Stress axis : x y z
#
# Youngs Moduli (GPa) = 50.55218 137.11524 26.84498
#
# Poissons Ratio (x) = 0.26397 0.29482
# Poissons Ratio (y) = 0.09732 0.09599
# Poissons Ratio (z) = 0.55519 0.49029
#
# Static dielectric constant tensor:
#      x y z
#    x 3.664740 0.000000 0.155650 
#    y 0.000000 4.191890 0.000000 
#    z 0.155650 0.000000 2.920410 
# 
# 
# High freq. dielectric constant tensor:
#      x y z
#    x 1.762440 0.000000 0.022530 
#    y 0.000000 1.778770 0.000000 
#    z 0.022530 0.000000 1.676850 
# 
# From -- ./inp_files/189497.got.cif
#   From: 2010.06.25/outbox.cif.g09.slc.cpg/sg12_95_cif.got.tgz:189497.got - 2010.06.28 00:19:55.
