data_PCOD8079000
_publ_section_title
;
Structure prediction by ZEFSAII (Michael W. Deem and Ramdas Pophale) SiO2 
 PCOD8079000
Probable space group: C 2/M
;
_chemical_formula_sum "Si O2"
_cell_formula_units_Z 48
_cell_length_a 28.996686
_cell_length_b 8.734959
_cell_length_c 12.146838
_cell_angle_alpha 90.000000
_cell_angle_beta 69.462913
_cell_angle_gamma 90.000000
_cell_volume 2881.077187
_symmetry_space_group_name_H-M "C 2/M"
_symmetry_group_IT_number 12
_symmetry_cell_setting 'monoclinic'
loop_
_space_group_symop_operation_xyz
x,y,z
-x,y,-z
-x,-y,-z
x,-y,z
1/2+x,1/2+y,z
1/2-x,1/2+y,-z
1/2-x,1/2-y,-z
1/2+x,1/2-y,z
loop_
_atom_site_type_symbol
_atom_site_label
_atom_site_fract_x
_atom_site_fract_y
_atom_site_fract_z
Si Si1 0.837139 0.679668 0.256804
Si Si2 0.572690 0.180294 0.950435
Si Si3 0.766629 0.820219 0.600295
Si Si4 0.137250 0.680525 0.522998
Si Si5 0.965843 0.821391 0.429668
Si Si6 0.499996 0.678511 0.839713
O O1 0.844991 0.500000 0.262091
O O2 0.872132 0.737717 0.128173
O O3 0.779534 0.717397 0.278837
O O4 0.854924 0.748458 0.359928
O O5 0.538276 0.218698 0.875161
O O6 0.570576 0.000000 0.976346
O O7 0.554755 0.272390 0.073764
O O8 0.750000 0.750000 0.500000
O O9 0.818429 0.744336 0.592467
O O10 0.774299 0.000000 0.582064
O O11 0.139981 0.500000 0.517816
O O12 0.085514 0.733920 0.518308
O O13 0.000000 0.762586 0.500000
O O14 0.994459 0.783302 0.293071
O O15 0.954441 0.000000 0.450025
O O16 0.509123 0.500000 0.856904
#
# Coordination Sequence:
#
# PCOD8079000 Si02
#       6
#     8   8   8   8   8   8
#     4   8  15  26  42  65  92 120 149 178 217 274
#     4  10  17  28  46  66  92 124 150 179 225 275
#     4   9  16  27  42  64  92 122 153 185 225 273
#     4  10  18  30  45  65  92 121 154 191 231 274
#     4  10  21  35  49  65  89 124 161 195 233 275
#     4  10  19  30  43  65  91 117 153 192 228 270
#
# _framework density 16.660433999999999
#
# number of rings (size 3 to 8) (size 9 to 14) (size 15 to 20)
#    0.000    2.500    1.667    4.000    0.000    1.000 
#    0.000    2.500    0.000    0.000    0.000    1.167 
#    0.000    0.000    0.000    0.000    0.000    0.000 
#
# Total GULP energy -297394.773632 kJ/mol
# GULP energy per Si atom -12391.448901 kJ/mol
# Density = 1.662251 g / cm^3
# Si number density = 16.660434 Si / 1000 Ang^3
#
#
#
# Elastic Constant Matrix: (Units=GPa)
#
#
# Indices 1 2 3 4 5 6 
#
# 1 124.1988 38.7525 62.6790 0.0000 -34.5902 0.0000
# 2 38.7525 53.6090 23.7370 0.0000 -9.5212 0.0000
# 3 62.6790 23.7370 82.0612 0.0000 -21.8619 0.0000
# 4 0.0000 0.0000 0.0000 16.7491 0.0000 -6.2771
# 5 -34.5902 -9.5212 -21.8619 0.0000 33.9939 0.0000
# 6 0.0000 0.0000 0.0000 -6.2771 0.0000 25.3830
#
#
#
# Elastic Compliance Matrix: (Units=1/GPa)
#
#
# Indices 1 2 3 4 5 6 
#
# 1 0.017389 -0.006970 -0.008534 0.000000 0.010253 0.000000
# 2 -0.006970 0.024355 -0.002164 0.000000 -0.001663 0.000000
# 3 -0.008534 -0.002164 0.020340 0.000000 0.003791 0.000000
# 4 0.000000 0.000000 0.000000 0.065803 0.000000 0.016273
# 5 0.010253 -0.001663 0.003791 0.000000 0.041823 0.000000
# 6 0.000000 0.000000 0.000000 0.016273 0.000000 0.043421
#
#
# Mechanical properties :
#
#
# Convention : Reuss Voigt Hill
#
# Bulk Modulus (GPa) = 37.38603 56.68953 47.03778
# Shear Modulus (GPa) = 19.42625 24.20522 21.81574
#
# Velocity S-wave (km/s) = 3.41840 3.81577 3.62254
# Velocity P-wave (km/s) = 6.17003 7.31531 6.76694
#
# Compressibility (1/GPa) = 0.02674796
#
# Stress axis : x y z
#
# Youngs Moduli (GPa) = 57.50792 41.05924 49.16335
#
# Poissons Ratio (x) = 0.28619 0.41956
# Poissons Ratio (y) = 0.40084 0.10639
# Poissons Ratio (z) = 0.49077 0.08885
#
# Static dielectric constant tensor:
#      x y z
#    x 3.386780 0.000000 -0.629110 
#    y 0.000000 3.105730 0.000000 
#    z -0.629110 0.000000 3.287010 
# 
# 
# High freq. dielectric constant tensor:
#      x y z
#    x 1.627830 0.000000 -0.047630 
#    y 0.000000 1.642130 0.000000 
#    z -0.047630 0.000000 1.609810 
# 
# From -- ./inp_files/179209.got.cif
#   From: 2010.06.25/outbox.cif.g09.slc.cpg/sg12_90_cif.got.tgz:179209.got - 2010.06.28 00:19:55.
