data_PCOD8079447
_publ_section_title
;
Structure prediction by ZEFSAII (Michael W. Deem and Ramdas Pophale) SiO2 
 PCOD8079447
Probable space group: C 2/M
;
_chemical_formula_sum "Si O2"
_cell_formula_units_Z 52
_cell_length_a 15.686742
_cell_length_b 22.413739
_cell_length_c 13.619805
_cell_angle_alpha 90.000000
_cell_angle_beta 146.826076
_cell_angle_gamma 90.000000
_cell_volume 2620.294048
_symmetry_space_group_name_H-M "C 2/M"
_symmetry_group_IT_number 12
_symmetry_cell_setting 'monoclinic'
loop_
_space_group_symop_operation_xyz
x,y,z
-x,y,-z
-x,-y,-z
x,-y,z
1/2+x,1/2+y,z
1/2-x,1/2+y,-z
1/2-x,1/2-y,-z
1/2+x,1/2-y,z
loop_
_atom_site_type_symbol
_atom_site_label
_atom_site_fract_x
_atom_site_fract_y
_atom_site_fract_z
Si Si1 0.406717 0.628922 0.096741
Si Si2 0.115239 0.000000 0.964861
Si Si3 0.017341 0.777836 0.340829
Si Si4 0.224448 0.706688 0.771577
Si Si5 0.763236 0.376000 0.391500
Si Si6 0.730662 0.500000 0.285391
Si Si7 0.000000 0.702678 0.000000
Si Si8 0.651990 0.817558 0.332950
O O1 0.358585 0.560147 0.074084
O O2 0.407552 0.667636 0.197656
O O3 0.576859 0.629672 0.211382
O O4 0.282263 0.654958 0.900519
O O5 0.941964 0.000000 0.839123
O O6 0.233566 0.000000 0.170487
O O7 0.928774 0.737531 0.332941
O O8 0.175193 0.802879 0.542536
O O9 0.069824 0.742357 0.293623
O O10 0.175393 0.675952 0.621462
O O11 0.355131 0.756025 0.885658
O O12 0.819161 0.440957 0.409377
O O13 0.837587 0.366770 0.571221
O O14 0.047697 0.661119 0.139373
#
# Coordination Sequence:
#
# PCOD8079447 Si02
#       8
#     8   4   8   8   8   4   4   8
#     4  10  17  31  50  84 117 149 182 227 262 336
#     4   9  16  26  52  81 113 147 185 221 276 311
#     4  10  21  35  52  78 114 151 187 217 282 332
#     4  12  19  31  55  82 115 150 172 225 274 340
#     4  10  19  33  54  79 118 144 189 226 273 328
#     4   9  16  28  50  81 106 153 184 223 271 325
#     4  12  22  34  54  76 112 144 182 226 284 326
#     4  10  22  38  50  76 109 149 186 237 273 332
#
# _framework density 19.845102000000001
#
# number of rings (size 3 to 8) (size 9 to 14) (size 15 to 20)
#    0.000    1.692    4.615    2.308    0.000    2.462 
#    0.000    0.000    0.000    3.231    0.000    3.231 
#    0.000   11.077    0.000    0.000    0.000    0.000 
#
# Total GULP energy -322324.774408 kJ/mol
# GULP energy per Si atom -12397.106708 kJ/mol
# Density = 1.979993 g / cm^3
# Si number density = 19.845102 Si / 1000 Ang^3
#
#
#
# Elastic Constant Matrix: (Units=GPa)
#
#
# Indices 1 2 3 4 5 6 
#
# 1 73.1258 43.0424 47.3187 0.0000 -8.0349 0.0000
# 2 43.0424 123.2512 48.6312 0.0000 -13.4550 0.0000
# 3 47.3187 48.6312 112.8192 0.0000 -36.4048 0.0000
# 4 0.0000 0.0000 0.0000 18.1386 0.0000 -10.6529
# 5 -8.0349 -13.4550 -36.4048 0.0000 26.6591 0.0000
# 6 0.0000 0.0000 0.0000 -10.6529 0.0000 22.0290
#
#
#
# Elastic Compliance Matrix: (Units=1/GPa)
#
#
# Indices 1 2 3 4 5 6 
#
# 1 0.022119 -0.004677 -0.010497 0.000000 -0.010028 0.000000
# 2 -0.004677 0.010798 -0.002483 0.000000 0.000649 0.000000
# 3 -0.010497 -0.002483 0.023083 0.000000 0.027104 0.000000
# 4 0.000000 0.000000 0.000000 0.077000 0.000000 0.037236
# 5 -0.010028 0.000649 0.027104 0.000000 0.071828 0.000000
# 6 0.000000 0.000000 0.000000 0.037236 0.000000 0.063402
#
#
# Mechanical properties :
#
#
# Convention : Reuss Voigt Hill
#
# Bulk Modulus (GPa) = 48.34587 65.24230 56.79408
# Shear Modulus (GPa) = 16.10626 24.71226 20.40926
#
# Velocity S-wave (km/s) = 2.85195 3.53265 3.21039
# Velocity P-wave (km/s) = 5.93795 7.04178 6.51329
#
# Compressibility (1/GPa) = 0.02068429
#
# Stress axis : x y z
#
# Youngs Moduli (GPa) = 45.21070 92.61314 43.32257
#
# Poissons Ratio (x) = 0.43319 0.45475
# Poissons Ratio (y) = 0.21147 0.10758
# Poissons Ratio (z) = 0.47457 0.22997
#
# Static dielectric constant tensor:
#      x y z
#    x 3.367190 0.000000 -0.033460 
#    y 0.000000 3.748580 0.000000 
#    z -0.033460 0.000000 3.862150 
# 
# 
# High freq. dielectric constant tensor:
#      x y z
#    x 1.741160 0.000000 -0.002120 
#    y 0.000000 1.748330 0.000000 
#    z -0.002120 0.000000 1.779850 
# 
# From -- ./inp_files/227938.got.cif
#   From: 2010.06.25/outbox.cif.g09.slc.cpg/sg12_114_cif.got.tgz:227938.got - 2010.06.28 00:19:55.
