data_PCOD8079427
_publ_section_title
;
Structure prediction by ZEFSAII (Michael W. Deem and Ramdas Pophale) SiO2 
 PCOD8079427
Probable space group: C 2/M
;
_chemical_formula_sum "Si O2"
_cell_formula_units_Z 44
_cell_length_a 24.757332
_cell_length_b 14.177807
_cell_length_c 16.156906
_cell_angle_alpha 90.000000
_cell_angle_beta 23.635271
_cell_angle_gamma 90.000000
_cell_volume 2273.637944
_symmetry_space_group_name_H-M "C 2/M"
_symmetry_group_IT_number 12
_symmetry_cell_setting 'monoclinic'
loop_
_space_group_symop_operation_xyz
x,y,z
-x,y,-z
-x,-y,-z
x,-y,z
1/2+x,1/2+y,z
1/2-x,1/2+y,-z
1/2-x,1/2-y,-z
1/2+x,1/2-y,z
loop_
_atom_site_type_symbol
_atom_site_label
_atom_site_fract_x
_atom_site_fract_y
_atom_site_fract_z
Si Si1 0.827099 0.394038 0.356914
Si Si2 0.396644 0.390277 0.453963
Si Si3 0.856280 0.239380 0.922933
Si Si4 0.249126 0.770901 0.748776
Si Si5 0.073172 0.608528 0.607940
Si Si6 0.000000 0.267454 0.000000
O O1 0.873994 0.500000 0.272338
O O2 0.677584 0.376396 0.530541
O O3 0.824006 0.375452 0.459643
O O4 0.938797 0.329603 0.158950
O O5 0.405499 0.500000 0.467847
O O6 0.545077 0.347565 0.236861
O O7 0.307773 0.333902 0.646802
O O8 0.935310 0.337447 0.821745
O O9 0.750000 0.250000 0.000000
O O10 0.775918 0.217554 0.119375
O O11 0.359010 0.849029 0.569265
O O12 0.114669 0.793797 0.884276
O O13 0.037773 0.500000 0.642435
#
# Coordination Sequence:
#
# PCOD8079427 Si02
#       6
#     8   8   8   8   8   4
#     4   9  17  32  56  87 118 146 182 233 292 345
#     4   9  21  38  59  86 118 148 185 238 289 337
#     4  11  24  41  59  82 115 156 197 233 278 341
#     4  10  22  36  59  87 115 149 193 233 287 338
#     4  10  22  39  58  86 119 151 188 237 288 340
#     4  10  17  30  59  86 116 146 186 230 292 332
#
# _framework density 19.352246000000001
#
# number of rings (size 3 to 8) (size 9 to 14) (size 15 to 20)
#    0.000    2.182    1.818    0.273    2.545    8.000 
#    0.000    2.273    0.000    0.000    0.000    0.000 
#    0.000    0.000    0.000    0.000    0.000    0.000 
#
# Total GULP energy -272797.521109 kJ/mol
# GULP energy per Si atom -12399.887323 kJ/mol
# Density = 1.930820 g / cm^3
# Si number density = 19.352246 Si / 1000 Ang^3
#
#
#
# Elastic Constant Matrix: (Units=GPa)
#
#
# Indices 1 2 3 4 5 6 
#
# 1 97.7629 10.4880 37.9397 0.0001 0.6856 0.0000
# 2 10.4880 86.1446 19.0184 0.0001 -3.7472 0.0000
# 3 37.9397 19.0184 80.5092 -0.0001 6.9298 0.0001
# 4 0.0001 0.0001 -0.0001 5.2719 0.0001 2.0618
# 5 0.6856 -3.7472 6.9298 0.0001 34.5131 0.0000
# 6 0.0000 0.0000 0.0001 2.0618 0.0000 12.9701
#
#
#
# Elastic Compliance Matrix: (Units=1/GPa)
#
#
# Indices 1 2 3 4 5 6 
#
# 1 0.012551 -0.000173 -0.005954 0.000000 0.000927 0.000000
# 2 -0.000173 0.012379 -0.003011 0.000000 0.001952 0.000000
# 3 -0.005954 -0.003011 0.016236 0.000001 -0.003469 0.000000
# 4 0.000000 0.000000 0.000001 0.202258 -0.000001 -0.032153
# 5 0.000927 0.001952 -0.003469 -0.000001 0.029864 0.000000
# 6 0.000000 0.000000 0.000000 -0.032153 0.000000 0.082212
#
#
# Mechanical properties :
#
#
# Convention : Reuss Voigt Hill
#
# Bulk Modulus (GPa) = 43.68420 44.36764 44.02592
# Shear Modulus (GPa) = 13.10935 23.68239 18.39587
#
# Velocity S-wave (km/s) = 2.60553 3.50201 3.08649
# Velocity P-wave (km/s) = 5.62796 6.27123 5.95828
#
# Compressibility (1/GPa) = 0.02289157
#
# Stress axis : x y z
#
# Youngs Moduli (GPa) = 79.67223 80.78158 61.59028
#
# Poissons Ratio (x) = 0.01401 0.36669
# Poissons Ratio (y) = 0.01381 0.18542
# Poissons Ratio (z) = 0.47434 0.24320
#
# Static dielectric constant tensor:
#      x y z
#    x 3.437590 0.000000 -0.041790 
#    y 0.000000 3.498380 0.000000 
#    z -0.041790 0.000000 3.470990 
# 
# 
# High freq. dielectric constant tensor:
#      x y z
#    x 1.742760 0.000000 0.001150 
#    y 0.000000 1.746680 0.000000 
#    z 0.001150 0.000000 1.752380 
# 
# From -- ./inp_files/129750.got.cif
#   From: 2010.06.25/outbox.cif.g09.slc.cpg/sg12_65_cif.got.tgz:129750.got - 2010.06.28 00:19:55.
