data_PCOD8079929
_publ_section_title
;
Structure prediction by ZEFSAII (Michael W. Deem and Ramdas Pophale) SiO2 
 PCOD8079929
Probable space group: C 2/M
;
_chemical_formula_sum "Si O2"
_cell_formula_units_Z 56
_cell_length_a 26.863969
_cell_length_b 9.293658
_cell_length_c 17.413712
_cell_angle_alpha 90.000000
_cell_angle_beta 54.594177
_cell_angle_gamma 90.000000
_cell_volume 3543.582549
_symmetry_space_group_name_H-M "C 2/M"
_symmetry_group_IT_number 12
_symmetry_cell_setting 'monoclinic'
loop_
_space_group_symop_operation_xyz
x,y,z
-x,y,-z
-x,-y,-z
x,-y,z
1/2+x,1/2+y,z
1/2-x,1/2+y,-z
1/2-x,1/2-y,-z
1/2+x,1/2-y,z
loop_
_atom_site_type_symbol
_atom_site_label
_atom_site_fract_x
_atom_site_fract_y
_atom_site_fract_z
Si Si1 0.338139 0.334024 0.900117
Si Si2 0.782541 0.830024 0.539727
Si Si3 0.918853 0.835382 0.448438
Si Si4 0.758872 0.831758 0.108997
Si Si5 0.408422 0.837158 0.605315
Si Si6 0.047625 0.163832 0.289801
Si Si7 0.766536 0.337284 0.703198
O O1 0.322206 0.500000 0.900673
O O2 0.300463 0.247792 0.870253
O O3 0.410734 0.303905 0.822894
O O4 0.318221 0.289855 0.004502
O O5 0.750000 0.750000 0.500000
O O6 0.854318 0.787752 0.469476
O O7 0.753613 0.772112 0.645212
O O8 0.771250 0.000000 0.544240
O O9 0.936771 0.743689 0.506890
O O10 0.974964 0.813934 0.337729
O O11 0.912727 0.000000 0.480601
O O12 0.772066 0.790400 0.186381
O O13 0.743645 0.000000 0.118367
O O14 0.431521 0.767863 0.662160
O O15 0.335950 0.827607 0.667655
O O16 0.431788 0.000000 0.581353
O O17 0.058860 0.000000 0.306915
O O18 0.749930 0.500000 0.691600
#
# Coordination Sequence:
#
# PCOD8079929 Si02
#       7
#     8   8   8   8   8   8   8
#     4   9  17  26  41  62  87 121 156 185 211 245
#     4  10  20  34  51  68  86 108 139 181 227 271
#     4   9  19  32  44  60  85 116 145 176 217 265
#     4   9  16  28  42  61  89 120 152 185 217 247
#     4  10  18  27  40  61  88 119 152 182 210 247
#     4  10  18  28  41  60  88 121 152 178 209 252
#     4   9  17  29  45  64  90 119 146 179 218 258
#
# _framework density 15.803216000000001
#
# number of rings (size 3 to 8) (size 9 to 14) (size 15 to 20)
#    0.000    2.571    1.429    1.286    0.000    4.000 
#    0.000    0.000    0.000    0.000    0.000    1.000 
#    0.000    8.000    0.000    0.000    0.000    0.000 
#
# Total GULP energy -346998.727167 kJ/mol
# GULP energy per Si atom -12392.811685 kJ/mol
# Density = 1.576725 g / cm^3
# Si number density = 15.803216 Si / 1000 Ang^3
#
#
#
# Elastic Constant Matrix: (Units=GPa)
#
#
# Indices 1 2 3 4 5 6 
#
# 1 59.3698 33.8982 52.7194 0.0000 8.9116 0.0001
# 2 33.8982 64.5502 41.7472 -0.0002 6.6126 0.0001
# 3 52.7194 41.7472 133.1258 0.0000 -0.2194 0.0000
# 4 0.0000 -0.0002 0.0000 19.3433 0.0000 4.6537
# 5 8.9116 6.6126 -0.2194 0.0000 18.5373 0.0000
# 6 0.0001 0.0001 0.0000 4.6537 0.0000 20.2472
#
#
#
# Elastic Compliance Matrix: (Units=1/GPa)
#
#
# Indices 1 2 3 4 5 6 
#
# 1 0.033269 -0.009579 -0.010192 0.000000 -0.012697 0.000000
# 2 -0.009579 0.023145 -0.003471 0.000000 -0.003693 0.000000
# 3 -0.010192 -0.003471 0.012647 0.000000 0.006288 0.000000
# 4 0.000000 0.000000 0.000000 0.054723 0.000000 -0.012578
# 5 -0.012697 -0.003693 0.006288 0.000000 0.061441 0.000000
# 6 0.000000 0.000000 0.000000 -0.012578 0.000000 0.052280
#
#
# Mechanical properties :
#
#
# Convention : Reuss Voigt Hill
#
# Bulk Modulus (GPa) = 44.29206 57.08615 50.68910
# Shear Modulus (GPa) = 17.15179 20.20430 18.67805
#
# Velocity S-wave (km/s) = 3.29802 3.57948 3.44163
# Velocity P-wave (km/s) = 6.52615 7.29967 6.92372
#
# Compressibility (1/GPa) = 0.02257741
#
# Stress axis : x y z
#
# Youngs Moduli (GPa) = 30.05804 43.20567 79.07220
#
# Poissons Ratio (x) = 0.41386 0.80590
# Poissons Ratio (y) = 0.28792 0.27445
# Poissons Ratio (z) = 0.30635 0.14996
#
# Static dielectric constant tensor:
#      x y z
#    x 2.690170 0.000000 -0.136590 
#    y 0.000000 3.156000 0.000000 
#    z -0.136590 0.000000 3.472160 
# 
# 
# High freq. dielectric constant tensor:
#      x y z
#    x 1.555730 0.000000 -0.009660 
#    y 0.000000 1.614780 0.000000 
#    z -0.009660 0.000000 1.615140 
# 
# From -- ./inp_files/291439.got.cif
#   From: 2010.06.25/outbox.cif.g09.slc.cpg/sg12_146_cif.got.tgz:291439.got - 2010.06.28 00:19:55.
