data_PCOD8079910
_publ_section_title
;
Structure prediction by ZEFSAII (Michael W. Deem and Ramdas Pophale) SiO2 
 PCOD8079910
Probable space group: C 2/M
;
_chemical_formula_sum "Si O2"
_cell_formula_units_Z 64
_cell_length_a 31.928870
_cell_length_b 12.420552
_cell_length_c 11.539612
_cell_angle_alpha 90.000000
_cell_angle_beta 61.766413
_cell_angle_gamma 90.000000
_cell_volume 4031.851431
_symmetry_space_group_name_H-M "C 2/M"
_symmetry_group_IT_number 12
_symmetry_cell_setting 'monoclinic'
loop_
_space_group_symop_operation_xyz
x,y,z
-x,y,-z
-x,-y,-z
x,-y,z
1/2+x,1/2+y,z
1/2-x,1/2+y,-z
1/2-x,1/2-y,-z
1/2+x,1/2-y,z
loop_
_atom_site_type_symbol
_atom_site_label
_atom_site_fract_x
_atom_site_fract_y
_atom_site_fract_z
Si Si1 0.693004 0.622655 0.870478
Si Si2 0.602322 0.626275 0.122873
Si Si3 0.053657 0.872951 0.416495
Si Si4 0.795481 0.375822 0.410641
Si Si5 0.360116 0.621608 0.542663
Si Si6 0.271048 0.750574 0.662576
Si Si7 0.139120 0.812705 0.717402
Si Si8 0.552157 0.626164 0.957730
O O1 0.707871 0.500000 0.880242
O O2 0.739100 0.701228 0.809356
O O3 0.669524 0.622941 0.773302
O O4 0.654763 0.668584 0.014770
O O5 0.608198 0.500000 0.130396
O O6 0.581497 0.677013 0.268486
O O7 0.564000 0.653776 0.074551
O O8 0.086984 0.844205 0.483187
O O9 0.000000 0.823973 0.500000
O O10 0.048049 0.000000 0.406657
O O11 0.808342 0.500000 0.384056
O O12 0.754337 0.346934 0.372769
O O13 0.778944 0.348534 0.562495
O O14 0.842774 0.309129 0.318630
O O15 0.349761 0.500000 0.599044
O O16 0.320282 0.702076 0.648758
O O17 0.357019 0.624906 0.408461
O O18 0.084755 0.807067 0.827258
O O19 0.558836 0.500000 0.922716
O O20 0.500000 0.667381 0.000000
#
# Coordination Sequence:
#
# PCOD8079910 Si02
#       8
#     8   8   8   8   8   8   8   8
#     4   9  15  26  43  60  86 114 136 168 207 245
#     4   8  15  27  39  56  80 110 143 164 198 249
#     4   9  18  29  41  56  79 114 143 165 200 249
#     4   9  16  26  40  58  87 116 137 167 207 252
#     4  10  18  27  40  58  87 114 138 172 203 242
#     4   9  17  25  39  63  83 108 145 170 202 249
#     4   9  17  26  39  63  87 111 142 167 204 253
#     4   9  16  24  40  62  86 111 137 174 210 243
#
# _framework density 15.8736
#
# number of rings (size 3 to 8) (size 9 to 14) (size 15 to 20)
#    0.000    3.000    0.000    3.375    1.750    0.000 
#    0.000    0.625    0.000    0.375    0.000    0.000 
#    0.000   37.500    0.000    0.000    0.000    6.250 
#
# Total GULP energy -396575.647973 kJ/mol
# GULP energy per Si atom -12392.988999 kJ/mol
# Density = 1.583747 g / cm^3
# Si number density = 15.873600 Si / 1000 Ang^3
#
#
#
# Elastic Constant Matrix: (Units=GPa)
#
#
# Indices 1 2 3 4 5 6 
#
# 1 90.4181 24.1004 32.9932 0.0000 -22.6043 0.0000
# 2 24.1004 56.5399 15.4451 0.0000 -9.8747 0.0000
# 3 32.9932 15.4451 89.1121 0.0000 -18.9260 0.0000
# 4 0.0000 0.0000 0.0000 13.3998 0.0000 -6.5152
# 5 -22.6043 -9.8747 -18.9260 0.0000 24.5051 0.0000
# 6 0.0000 0.0000 0.0000 -6.5152 0.0000 15.2230
#
#
#
# Elastic Compliance Matrix: (Units=1/GPa)
#
#
# Indices 1 2 3 4 5 6 
#
# 1 0.015904 -0.004107 -0.002886 0.000000 0.010787 0.000000
# 2 -0.004107 0.020388 -0.001283 0.000000 0.003436 0.000000
# 3 -0.002886 -0.001283 0.014160 0.000000 0.007757 0.000000
# 4 0.000000 0.000000 0.000000 0.094238 0.000000 0.040332
# 5 0.010787 0.003436 0.007757 0.000000 0.058134 0.000000
# 6 0.000000 0.000000 0.000000 0.040332 0.000000 0.082951
#
#
# Mechanical properties :
#
#
# Convention : Reuss Voigt Hill
#
# Bulk Modulus (GPa) = 29.49823 42.34972 35.92398
# Shear Modulus (GPa) = 15.94252 21.52768 18.73510
#
# Velocity S-wave (km/s) = 3.17257 3.68665 3.43923
# Velocity P-wave (km/s) = 5.66073 6.69769 6.20092
#
# Compressibility (1/GPa) = 0.03390034
#
# Stress axis : x y z
#
# Youngs Moduli (GPa) = 62.87712 49.04864 70.62052
#
# Poissons Ratio (x) = 0.20144 0.20378
# Poissons Ratio (y) = 0.25823 0.09063
# Poissons Ratio (z) = 0.18144 0.06295
#
# Static dielectric constant tensor:
#      x y z
#    x 3.067530 0.000000 -0.238950 
#    y 0.000000 2.593850 0.000000 
#    z -0.238950 0.000000 3.228620 
# 
# 
# High freq. dielectric constant tensor:
#      x y z
#    x 1.603790 0.000000 -0.016150 
#    y 0.000000 1.554850 0.000000 
#    z -0.016150 0.000000 1.608340 
# 
# From -- ./inp_files/188331.got.cif
#   From: 2010.06.25/outbox.cif.g09.slc.cpg/sg12_95_cif.got.tgz:188331.got - 2010.06.28 00:19:55.
