data_PCOD8079843
_publ_section_title
;
Structure prediction by ZEFSAII (Michael W. Deem and Ramdas Pophale) SiO2 
 PCOD8079843
Probable space group: C 2/M
;
_chemical_formula_sum "Si O2"
_cell_formula_units_Z 56
_cell_length_a 24.572881
_cell_length_b 8.911821
_cell_length_c 25.788364
_cell_angle_alpha 90.000000
_cell_angle_beta 37.574159
_cell_angle_gamma 90.000000
_cell_volume 3443.697810
_symmetry_space_group_name_H-M "C 2/M"
_symmetry_group_IT_number 12
_symmetry_cell_setting 'monoclinic'
loop_
_space_group_symop_operation_xyz
x,y,z
-x,y,-z
-x,-y,-z
x,-y,z
1/2+x,1/2+y,z
1/2-x,1/2+y,-z
1/2-x,1/2-y,-z
1/2+x,1/2-y,z
loop_
_atom_site_type_symbol
_atom_site_label
_atom_site_fract_x
_atom_site_fract_y
_atom_site_fract_z
Si Si1 0.887279 0.169181 0.389912
Si Si2 0.179668 0.324768 0.714145
Si Si3 0.089425 0.823096 0.993177
Si Si4 0.340127 0.678371 0.951734
Si Si5 0.786719 0.331239 0.549432
Si Si6 0.490907 0.175909 0.225974
Si Si7 0.888651 0.177429 0.137090
O O1 0.867407 0.242027 0.460967
O O2 0.797935 0.168836 0.423962
O O3 0.961902 0.268313 0.304784
O O4 0.922669 0.000000 0.371003
O O5 0.198137 0.500000 0.700796
O O6 0.261777 0.248185 0.622203
O O7 0.086200 0.285411 0.757039
O O8 0.178252 0.261523 0.773600
O O9 0.136563 0.777654 0.903229
O O10 0.080235 0.000000 0.001795
O O11 0.145936 0.764897 0.999490
O O12 0.988571 0.761039 0.072335
O O13 0.334319 0.500000 0.952723
O O14 0.421048 0.734227 0.855493
O O15 0.250000 0.750000 0.000000
O O16 0.818682 0.500000 0.536833
O O17 0.511593 0.000000 0.212523
O O18 0.880739 0.000000 0.152380
#
# Coordination Sequence:
#
# PCOD8079843 Si02
#       7
#     8   8   8   8   8   8   8
#     4   9  16  26  40  58  82 113 147 184 222 261
#     4  10  18  26  39  63  92 118 146 183 223 265
#     4   8  16  29  47  65  84 112 150 187 224 268
#     4  11  21  34  49  66  88 117 152 192 231 268
#     4   9  16  25  38  57  83 117 150 179 214 262
#     4  10  19  30  43  61  86 117 152 185 221 269
#     4   9  15  28  47  65  84 114 151 185 220 269
#
# _framework density 16.261590000000002
#
# number of rings (size 3 to 8) (size 9 to 14) (size 15 to 20)
#    0.000    2.571    1.429    3.000    0.000    4.571 
#    0.000    2.857    0.000    0.000    0.000    0.000 
#    0.000    1.143    0.000   12.286    0.000    6.000 
#
# Total GULP energy -347124.884327 kJ/mol
# GULP energy per Si atom -12397.317297 kJ/mol
# Density = 1.622458 g / cm^3
# Si number density = 16.261590 Si / 1000 Ang^3
#
#
#
# Elastic Constant Matrix: (Units=GPa)
#
#
# Indices 1 2 3 4 5 6 
#
# 1 64.1187 25.7868 46.0794 0.0003 11.9795 -0.0016
# 2 25.7868 80.7732 47.0406 -0.0025 9.5735 0.0009
# 3 46.0794 47.0406 125.8547 -0.0002 33.0209 -0.0002
# 4 0.0003 -0.0025 -0.0002 33.3583 -0.0004 2.8280
# 5 11.9795 9.5735 33.0209 -0.0004 22.0912 0.0008
# 6 -0.0016 0.0009 -0.0002 2.8280 0.0008 15.1273
#
#
#
# Elastic Compliance Matrix: (Units=1/GPa)
#
#
# Indices 1 2 3 4 5 6 
#
# 1 0.021701 -0.002960 -0.006726 -0.000001 -0.000432 0.000002
# 2 -0.002960 0.016373 -0.005915 0.000001 0.003352 -0.000002
# 3 -0.006726 -0.005915 0.018081 -0.000001 -0.020815 0.000001
# 4 -0.000001 0.000001 -0.000001 0.030460 0.000001 -0.005694
# 5 -0.000432 0.003352 -0.020815 0.000001 0.075162 -0.000005
# 6 0.000002 -0.000002 0.000001 -0.005694 -0.000005 0.067170
#
#
# Mechanical properties :
#
#
# Convention : Reuss Voigt Hill
#
# Bulk Modulus (GPa) = 40.07660 56.50666 48.29163
# Shear Modulus (GPa) = 18.62431 24.23801 21.43116
#
# Velocity S-wave (km/s) = 3.38789 3.86490 3.63423
# Velocity P-wave (km/s) = 6.32473 7.39869 6.88269
#
# Compressibility (1/GPa) = 0.02495221
#
# Stress axis : x y z
#
# Youngs Moduli (GPa) = 46.08171 61.07600 55.30804
#
# Poissons Ratio (x) = 0.18077 0.37199
# Poissons Ratio (y) = 0.13639 0.32717
# Poissons Ratio (z) = 0.30993 0.36129
#
# Static dielectric constant tensor:
#      x y z
#    x 2.854290 -0.000010 0.302860 
#    y -0.000010 3.061150 0.000000 
#    z 0.302860 0.000000 3.175350 
# 
# 
# High freq. dielectric constant tensor:
#      x y z
#    x 1.562160 0.000000 0.031940 
#    y 0.000000 1.629000 0.000000 
#    z 0.031940 0.000000 1.631740 
# 
# From -- ./inp_files/348455.got.cif
#   From: 2010.06.25/outbox.cif.g09.slc.cpg/sg12_175_cif.got.tgz:348455.got - 2010.06.28 00:19:55.
