data_PCOD8079496
_publ_section_title
;
Structure prediction by ZEFSAII (Michael W. Deem and Ramdas Pophale) SiO2 
 PCOD8079496
Probable space group: C 2/M
;
_chemical_formula_sum "Si O2"
_cell_formula_units_Z 40
_cell_length_a 17.148718
_cell_length_b 20.822000
_cell_length_c 11.327917
_cell_angle_alpha 90.000000
_cell_angle_beta 34.250018
_cell_angle_gamma 90.000000
_cell_volume 2276.471674
_symmetry_space_group_name_H-M "C 2/M"
_symmetry_group_IT_number 12
_symmetry_cell_setting 'monoclinic'
loop_
_space_group_symop_operation_xyz
x,y,z
-x,y,-z
-x,-y,-z
x,-y,z
1/2+x,1/2+y,z
1/2-x,1/2+y,-z
1/2-x,1/2-y,-z
1/2+x,1/2-y,z
loop_
_atom_site_type_symbol
_atom_site_label
_atom_site_fract_x
_atom_site_fract_y
_atom_site_fract_z
Si Si1 0.688724 0.193299 0.997296
Si Si2 0.348670 0.739291 0.201100
Si Si3 0.340591 0.426503 0.721886
Si Si4 0.877757 0.327237 0.391334
Si Si5 0.864883 0.572528 0.230031
O O1 0.686841 0.216051 0.864770
O O2 0.778163 0.126793 0.890617
O O3 0.750000 0.250000 0.000000
O O4 0.535527 0.178474 0.238597
O O5 0.226334 0.687050 0.369818
O O6 0.350069 0.781844 0.315279
O O7 0.500000 0.705573 0.000000
O O8 0.500000 0.410443 0.500000
O O9 0.321029 0.500000 0.795296
O O10 0.268230 0.419972 0.685609
O O11 0.841479 0.397829 0.388605
O O12 0.903815 0.500000 0.208056
O O13 0.000000 0.606057 0.000000
#
# Coordination Sequence:
#
# PCOD8079496 Si02
#       5
#     8   8   8   8   8
#     4  11  22  32  51  80 109 144 182 223 269 327
#     4   9  19  33  49  74 104 136 175 219 271 318
#     4  10  21  34  51  78 114 143 173 226 280 320
#     4  10  18  33  54  75 103 139 173 224 272 319
#     4  10  17  31  56  80 101 131 178 226 266 320
#
# _framework density 17.571051000000001
#
# number of rings (size 3 to 8) (size 9 to 14) (size 15 to 20)
#    0.000    2.000    4.000    0.600    2.800    1.600 
#    0.000    0.000    0.000    1.800    0.000    2.800 
#    0.000    0.000    0.000    0.000    0.000    0.000 
#
# Total GULP energy -247868.965792 kJ/mol
# GULP energy per Si atom -12393.448290 kJ/mol
# Density = 1.753106 g / cm^3
# Si number density = 17.571051 Si / 1000 Ang^3
#
#
#
# Elastic Constant Matrix: (Units=GPa)
#
#
# Indices 1 2 3 4 5 6 
#
# 1 46.9808 28.2926 37.4075 -0.0002 -25.4757 0.0003
# 2 28.2926 105.5237 57.8504 -0.0003 -10.5762 0.0007
# 3 37.4075 57.8504 132.5959 -0.0014 -23.8775 0.0017
# 4 -0.0002 -0.0003 -0.0014 30.4056 0.0010 2.6969
# 5 -25.4757 -10.5762 -23.8775 0.0010 25.5827 -0.0011
# 6 0.0003 0.0007 0.0017 2.6969 -0.0011 27.4836
#
#
#
# Elastic Compliance Matrix: (Units=1/GPa)
#
#
# Indices 1 2 3 4 5 6 
#
# 1 0.054994 -0.008105 -0.003270 -0.000002 0.048362 0.000002
# 2 -0.008105 0.013651 -0.004936 0.000000 -0.007035 0.000000
# 3 -0.003270 -0.004936 0.011616 0.000000 0.005545 0.000000
# 4 -0.000002 0.000000 0.000000 0.033177 -0.000003 -0.003256
# 5 0.048362 -0.007035 0.005545 -0.000003 0.089516 0.000003
# 6 0.000002 0.000000 0.000000 -0.003256 0.000003 0.036705
#
#
# Mechanical properties :
#
#
# Convention : Reuss Voigt Hill
#
# Bulk Modulus (GPa) = 20.99097 59.13347 40.06222
# Shear Modulus (GPa) = 17.35145 27.46438 22.40792
#
# Velocity S-wave (km/s) = 3.14586 3.95783 3.57497
# Velocity P-wave (km/s) = 5.01673 7.39005 6.31587
#
# Compressibility (1/GPa) = 0.04763953
#
# Stress axis : x y z
#
# Youngs Moduli (GPa) = 18.18369 73.25726 86.08669
#
# Poissons Ratio (x) = 0.59377 0.28148
# Poissons Ratio (y) = 0.14738 0.42491
# Poissons Ratio (z) = 0.05946 0.36158
#
# Static dielectric constant tensor:
#      x y z
#    x 3.159880 0.000000 -0.163070 
#    y 0.000000 3.493540 0.000000 
#    z -0.163070 0.000000 3.725520 
# 
# 
# High freq. dielectric constant tensor:
#      x y z
#    x 1.658630 0.000000 -0.031260 
#    y 0.000000 1.674040 0.000000 
#    z -0.031260 0.000000 1.674730 
# 
# From -- ./inp_files/48509.got.cif
#   From: 2010.06.25/outbox.cif.g09.slc.cpg/sg12_25_cif.got.tgz:48509.got - 2010.06.28 00:19:55.
