data_PCOD8079615
_publ_section_title
;
Structure prediction by ZEFSAII (Michael W. Deem and Ramdas Pophale) SiO2 
 PCOD8079615
Probable space group: C 2/M
;
_chemical_formula_sum "Si O2"
_cell_formula_units_Z 36
_cell_length_a 9.068281
_cell_length_b 26.763910
_cell_length_c 9.454899
_cell_angle_alpha 90.000000
_cell_angle_beta 133.020316
_cell_angle_gamma 90.000000
_cell_volume 1677.703599
_symmetry_space_group_name_H-M "C 2/M"
_symmetry_group_IT_number 12
_symmetry_cell_setting 'monoclinic'
loop_
_space_group_symop_operation_xyz
x,y,z
-x,y,-z
-x,-y,-z
x,-y,z
1/2+x,1/2+y,z
1/2-x,1/2+y,-z
1/2-x,1/2-y,-z
1/2+x,1/2-y,z
loop_
_atom_site_type_symbol
_atom_site_label
_atom_site_fract_x
_atom_site_fract_y
_atom_site_fract_z
Si Si1 0.029754 0.728957 0.861797
Si Si2 0.935624 0.836038 0.750257
Si Si3 0.833158 0.637631 0.187293
Si Si4 0.000000 0.886711 0.500000
Si Si5 0.087913 0.443144 0.212542
O O1 0.004941 0.682556 0.736898
O O2 0.888532 0.776443 0.733120
O O3 0.250000 0.750000 0.000000
O O4 0.000000 0.707485 0.000000
O O5 0.744390 0.863038 0.701057
O O6 0.950120 0.850495 0.597208
O O7 0.141420 0.852865 0.960883
O O8 0.943131 0.585682 0.227502
O O9 0.187775 0.922271 0.649548
O O10 0.094394 0.500000 0.269952
O O11 0.000000 0.438293 0.000000
#
# Coordination Sequence:
#
# PCOD8079615 Si02
#       5
#     8   8   8   4   8
#     4  10  17  32  63  94 127 172 211 252 309 378
#     4  10  21  38  61  99 130 167 213 255 318 382
#     4  10  20  40  67  90 128 176 213 256 315 383
#     4  12  25  42  66  98 132 160 209 278 316 380
#     4  11  24  44  69  95 124 168 216 265 325 378
#
# _framework density 21.457903999999999
#
# number of rings (size 3 to 8) (size 9 to 14) (size 15 to 20)
#    0.000    1.556    6.667    1.000    3.111    0.889 
#    0.000   10.000    0.000    0.000    0.000    0.000 
#    0.000    0.000    0.000    0.000    0.000    0.000 
#
# Total GULP energy -223160.271245 kJ/mol
# GULP energy per Si atom -12397.792847 kJ/mol
# Density = 2.140906 g / cm^3
# Si number density = 21.457904 Si / 1000 Ang^3
#
#
#
# Elastic Constant Matrix: (Units=GPa)
#
#
# Indices 1 2 3 4 5 6 
#
# 1 151.5021 70.5795 39.5754 0.0000 -34.6390 0.0000
# 2 70.5795 151.9712 33.8170 0.0000 -16.4251 0.0000
# 3 39.5754 33.8170 58.4543 0.0000 -22.9486 0.0000
# 4 0.0000 0.0000 0.0000 40.9997 0.0000 25.2170
# 5 -34.6390 -16.4251 -22.9486 0.0000 43.2174 0.0000
# 6 0.0000 0.0000 0.0000 25.2170 0.0000 59.4032
#
#
#
# Elastic Compliance Matrix: (Units=1/GPa)
#
#
# Indices 1 2 3 4 5 6 
#
# 1 0.010196 -0.003544 -0.002745 0.000000 0.005367 0.000000
# 2 -0.003544 0.008801 -0.003151 0.000000 -0.001169 0.000000
# 3 -0.002745 -0.003151 0.024579 0.000000 0.009653 0.000000
# 4 0.000000 0.000000 0.000000 0.033009 0.000000 -0.014012
# 5 0.005367 -0.001169 0.009653 0.000000 0.032122 0.000000
# 6 0.000000 0.000000 0.000000 -0.014012 0.000000 0.022782
#
#
# Mechanical properties :
#
#
# Convention : Reuss Voigt Hill
#
# Bulk Modulus (GPa) = 40.49463 72.20795 56.35129
# Shear Modulus (GPa) = 31.52530 43.25443 37.38987
#
# Velocity S-wave (km/s) = 3.83713 4.49462 4.17883
# Velocity P-wave (km/s) = 6.20839 7.78842 7.04285
#
# Compressibility (1/GPa) = 0.02469463
#
# Stress axis : x y z
#
# Youngs Moduli (GPa) = 98.07696 113.62247 40.68530
#
# Poissons Ratio (x) = 0.40271 0.11170
# Poissons Ratio (y) = 0.34761 0.12820
# Poissons Ratio (z) = 0.26927 0.35802
#
# Static dielectric constant tensor:
#      x y z
#    x 4.162510 0.000000 -0.038640 
#    y 0.000000 4.372320 0.000000 
#    z -0.038640 0.000000 3.682050 
# 
# 
# High freq. dielectric constant tensor:
#      x y z
#    x 1.862880 0.000000 -0.001930 
#    y 0.000000 1.832570 0.000000 
#    z -0.001930 0.000000 1.822160 
# 
# From -- ./inp_files/40664.got.cif
#   From: 2010.06.25/outbox.cif.g09.slc.cpg/sg12_21_cif.got.tgz:40664.got - 2010.06.28 00:19:55.
