data_PCOD8079424
_publ_section_title
;
Structure prediction by ZEFSAII (Michael W. Deem and Ramdas Pophale) SiO2 
 PCOD8079424
Probable space group: C 2/M
;
_chemical_formula_sum "Si O2"
_cell_formula_units_Z 48
_cell_length_a 8.992710
_cell_length_b 25.785184
_cell_length_c 12.809422
_cell_angle_alpha 90.000000
_cell_angle_beta 52.385370
_cell_angle_gamma 90.000000
_cell_volume 2352.821140
_symmetry_space_group_name_H-M "C 2/M"
_symmetry_group_IT_number 12
_symmetry_cell_setting 'monoclinic'
loop_
_space_group_symop_operation_xyz
x,y,z
-x,y,-z
-x,-y,-z
x,-y,z
1/2+x,1/2+y,z
1/2-x,1/2+y,-z
1/2-x,1/2-y,-z
1/2+x,1/2-y,z
loop_
_atom_site_type_symbol
_atom_site_label
_atom_site_fract_x
_atom_site_fract_y
_atom_site_fract_z
Si Si1 0.000000 0.623667 0.000000
Si Si2 0.624464 0.439069 0.146886
Si Si3 0.905009 0.652676 0.823283
Si Si4 0.134941 0.301865 0.538817
Si Si5 0.461675 0.942148 0.675567
Si Si6 0.500000 0.623003 0.000000
Si Si7 0.721079 0.407954 0.588146
O O1 0.179257 0.586974 0.910198
O O2 0.975684 0.662170 0.911153
O O3 0.650967 0.500000 0.118134
O O4 0.526915 0.414093 0.087733
O O5 0.489311 0.428074 0.304307
O O6 0.947463 0.590963 0.787211
O O7 0.680198 0.660765 0.908798
O O8 0.015675 0.689121 0.695711
O O9 0.250000 0.250000 0.500000
O O10 0.277669 0.349223 0.455924
O O11 0.000000 0.294817 0.500000
O O12 0.336288 0.910454 0.646872
O O13 0.674881 0.944658 0.541063
O O14 0.384599 0.000000 0.728023
#
# Coordination Sequence:
#
# PCOD8079424 Si02
#       7
#     4   8   8   8   8   4   8
#     4  10  25  38  54  81 136 174 196 239 295 366
#     4  11  20  33  53  83 121 166 208 243 292 363
#     4  10  21  40  60  90 124 162 207 247 301 360
#     4  11  22  41  68  94 116 147 199 269 325 369
#     4  10  17  30  58  91 121 151 196 257 303 345
#     4  10  19  32  58  83 116 162 208 245 283 348
#     4  10  18  34  57  86 118 150 200 258 311 357
#
# _framework density 20.401039999999998
#
# number of rings (size 3 to 8) (size 9 to 14) (size 15 to 20)
#    0.000    1.667    5.000    2.500    0.000    4.667 
#    0.000    2.500    0.000   22.000    0.000    0.000 
#    0.000    0.000    0.000    0.000    0.000    0.000 
#
# Total GULP energy -297540.361455 kJ/mol
# GULP energy per Si atom -12397.515061 kJ/mol
# Density = 2.035461 g / cm^3
# Si number density = 20.401040 Si / 1000 Ang^3
#
#
#
# Elastic Constant Matrix: (Units=GPa)
#
#
# Indices 1 2 3 4 5 6 
#
# 1 106.9860 27.7250 58.9968 0.0000 -5.5075 0.0000
# 2 27.7250 103.4167 32.4801 0.0000 -1.5779 0.0000
# 3 58.9968 32.4801 122.3411 0.0000 -12.7758 0.0000
# 4 0.0000 0.0000 0.0000 17.2261 0.0000 -6.6480
# 5 -5.5075 -1.5779 -12.7758 0.0000 36.8166 0.0000
# 6 0.0000 0.0000 0.0000 -6.6480 0.0000 20.6628
#
#
#
# Elastic Compliance Matrix: (Units=1/GPa)
#
#
# Indices 1 2 3 4 5 6 
#
# 1 0.012988 -0.001650 -0.005841 0.000000 -0.000155 0.000000
# 2 -0.001650 0.010769 -0.002118 0.000000 -0.000520 0.000000
# 3 -0.005841 -0.002118 0.011883 0.000000 0.003159 0.000000
# 4 0.000000 0.000000 0.000000 0.066281 0.000000 0.021325
# 5 -0.000155 -0.000520 0.003159 0.000000 0.028212 0.000000
# 6 0.000000 0.000000 0.000000 0.021325 0.000000 0.055257
#
#
# Mechanical properties :
#
#
# Convention : Reuss Voigt Hill
#
# Bulk Modulus (GPa) = 60.89377 63.46083 62.17730
# Shear Modulus (GPa) = 23.80021 29.17724 26.48872
#
# Velocity S-wave (km/s) = 3.41928 3.78588 3.60724
# Velocity P-wave (km/s) = 6.74550 7.09117 6.92050
#
# Compressibility (1/GPa) = 0.01642204
#
# Stress axis : x y z
#
# Youngs Moduli (GPa) = 76.99604 92.85826 84.15475
#
# Poissons Ratio (x) = 0.15318 0.49157
# Poissons Ratio (y) = 0.12702 0.17823
# Poissons Ratio (z) = 0.44976 0.19666
#
# Static dielectric constant tensor:
#      x y z
#    x 3.628580 0.000000 -0.210950 
#    y 0.000000 3.578830 0.000000 
#    z -0.210950 0.000000 4.174680 
# 
# 
# High freq. dielectric constant tensor:
#      x y z
#    x 1.780570 0.000000 -0.011170 
#    y 0.000000 1.766160 0.000000 
#    z -0.011170 0.000000 1.818660 
# 
# From -- ./inp_files/123537.got.cif
#   From: 2010.06.25/outbox.cif.g09.slc.cpg/sg12_62_cif.got.tgz:123537.got - 2010.06.28 00:19:55.
