data_PCOD8079501
_publ_section_title
;
Structure prediction by ZEFSAII (Michael W. Deem and Ramdas Pophale) SiO2 
 PCOD8079501
Probable space group: C 2/M
;
_chemical_formula_sum "Si O2"
_cell_formula_units_Z 56
_cell_length_a 11.229682
_cell_length_b 28.554070
_cell_length_c 9.260633
_cell_angle_alpha 90.000000
_cell_angle_beta 60.030264
_cell_angle_gamma 90.000000
_cell_volume 2572.403814
_symmetry_space_group_name_H-M "C 2/M"
_symmetry_group_IT_number 12
_symmetry_cell_setting 'monoclinic'
loop_
_space_group_symop_operation_xyz
x,y,z
-x,y,-z
-x,-y,-z
x,-y,z
1/2+x,1/2+y,z
1/2-x,1/2+y,-z
1/2-x,1/2-y,-z
1/2+x,1/2-y,z
loop_
_atom_site_type_symbol
_atom_site_label
_atom_site_fract_x
_atom_site_fract_y
_atom_site_fract_z
Si Si1 0.650407 0.279673 0.456277
Si Si2 0.368679 0.080960 0.231583
Si Si3 0.352288 0.817326 0.108107
Si Si4 0.415714 0.355188 0.272142
Si Si5 0.697587 0.356458 0.953279
Si Si6 0.890200 0.053185 0.440502
Si Si7 0.166838 0.448140 0.060663
O O1 0.500000 0.257883 0.500000
O O2 0.750000 0.250000 0.500000
O O3 0.737815 0.286227 0.256787
O O4 0.617856 0.328255 0.559176
O O5 0.368799 0.135493 0.190630
O O6 0.260825 0.068111 0.418618
O O7 0.516754 0.067787 0.206636
O O8 0.332526 0.050382 0.113444
O O9 0.500000 0.791434 0.000000
O O10 0.315897 0.828274 0.963797
O O11 0.303703 0.343148 0.215586
O O12 0.426314 0.410932 0.291443
O O13 0.561167 0.340408 0.119346
O O14 0.719119 0.412453 0.949824
O O15 0.000000 0.059751 0.500000
O O16 0.891534 0.000000 0.380967
O O17 0.202444 0.500000 0.096749
#
# Coordination Sequence:
#
# PCOD8079501 Si02
#       7
#     8   8   8   8   8   8   8
#     4  12  27  50  76 106 137 177 226 283 355 424
#     4  10  17  31  56  87 122 171 224 269 324 385
#     4  11  20  42  73 101 132 171 226 277 336 412
#     4  11  23  42  67  91 136 176 220 283 335 411
#     4  10  22  39  64  94 127 181 220 269 349 396
#     4  11  21  33  56  91 127 173 226 275 325 388
#     4  10  18  31  53  87 131 173 222 275 323 390
#
# _framework density 21.769523
#
# number of rings (size 3 to 8) (size 9 to 14) (size 15 to 20)
#    0.000    1.286    5.714    3.857    0.000    3.429 
#    2.571    5.000    0.000    1.714    0.000    0.000 
#    0.000    0.000    0.000    0.000    0.000    0.000 
#
# Total GULP energy -347047.759930 kJ/mol
# GULP energy per Si atom -12394.562855 kJ/mol
# Density = 2.171997 g / cm^3
# Si number density = 21.769523 Si / 1000 Ang^3
#
#
#
# Elastic Constant Matrix: (Units=GPa)
#
#
# Indices 1 2 3 4 5 6 
#
# 1 121.0677 26.0727 33.5593 0.0000 -2.2906 0.0000
# 2 26.0727 47.8765 2.0408 0.0000 -0.9478 0.0000
# 3 33.5593 2.0408 67.1411 0.0000 -7.2513 0.0000
# 4 0.0000 0.0000 0.0000 15.8276 0.0000 -2.4400
# 5 -2.2906 -0.9478 -7.2513 0.0000 32.1330 0.0000
# 6 0.0000 0.0000 0.0000 -2.4400 0.0000 24.8775
#
#
#
# Elastic Compliance Matrix: (Units=1/GPa)
#
#
# Indices 1 2 3 4 5 6 
#
# 1 0.010980 -0.005762 -0.005378 0.000000 -0.000601 0.000000
# 2 -0.005762 0.023946 0.002239 0.000000 0.000801 0.000000
# 3 -0.005378 0.002239 0.017916 0.000000 0.003726 0.000000
# 4 0.000000 0.000000 0.000000 0.064151 0.000000 0.006292
# 5 -0.000601 0.000801 0.003726 0.000000 0.031942 0.000000
# 6 0.000000 0.000000 0.000000 0.006292 0.000000 0.040814
#
#
# Mechanical properties :
#
#
# Convention : Reuss Voigt Hill
#
# Bulk Modulus (GPa) = 28.53942 39.93677 34.23810
# Shear Modulus (GPa) = 22.80691 26.19511 24.50101
#
# Velocity S-wave (km/s) = 3.24026 3.47261 3.35845
# Velocity P-wave (km/s) = 5.20935 5.87059 5.54983
#
# Compressibility (1/GPa) = 0.03503925
#
# Stress axis : x y z
#
# Youngs Moduli (GPa) = 91.07329 41.76142 55.81470
#
# Poissons Ratio (x) = 0.24064 0.30017
# Poissons Ratio (y) = 0.52479 -0.12496
# Poissons Ratio (z) = 0.48979 -0.09350
#
# Static dielectric constant tensor:
#      x y z
#    x 4.115900 0.000000 -0.158390 
#    y 0.000000 3.768830 0.000000 
#    z -0.158390 0.000000 3.852850 
# 
# 
# High freq. dielectric constant tensor:
#      x y z
#    x 1.857940 0.000000 -0.016690 
#    y 0.000000 1.837600 0.000000 
#    z -0.016690 0.000000 1.841260 
# 
# From -- ./inp_files/54617.got.cif
#   From: 2010.06.25/outbox.cif.g09.slc.cpg/sg12_28_cif.got.tgz:54617.got - 2010.06.28 00:19:55.
