data_PCOD8079001
_publ_section_title
;
Structure prediction by ZEFSAII (Michael W. Deem and Ramdas Pophale) SiO2 
 PCOD8079001
Probable space group: C 2/M
;
_chemical_formula_sum "Si O2"
_cell_formula_units_Z 56
_cell_length_a 25.417596
_cell_length_b 8.686732
_cell_length_c 25.869487
_cell_angle_alpha 90.000000
_cell_angle_beta 34.773328
_cell_angle_gamma 90.000000
_cell_volume 3257.660935
_symmetry_space_group_name_H-M "C 2/M"
_symmetry_group_IT_number 12
_symmetry_cell_setting 'monoclinic'
loop_
_space_group_symop_operation_xyz
x,y,z
-x,y,-z
-x,-y,-z
x,-y,z
1/2+x,1/2+y,z
1/2-x,1/2+y,-z
1/2-x,1/2-y,-z
1/2+x,1/2-y,z
loop_
_atom_site_type_symbol
_atom_site_label
_atom_site_fract_x
_atom_site_fract_y
_atom_site_fract_z
Si Si1 0.177012 0.682878 0.890777
Si Si2 0.979189 0.182638 0.596923
Si Si3 0.650592 0.181893 0.092534
Si Si4 0.839231 0.316267 0.212266
Si Si5 0.370458 0.682500 0.781483
Si Si6 0.534398 0.183134 0.089887
Si Si7 0.357413 0.683070 0.600973
O O1 0.176571 0.500000 0.889523
O O2 0.162887 0.748407 0.844554
O O3 0.273630 0.739889 0.836293
O O4 0.095073 0.746132 0.993107
O O5 0.951216 0.237943 0.676900
O O6 0.905671 0.245630 0.614310
O O7 0.082509 0.238769 0.497371
O O8 0.974165 0.000000 0.599531
O O9 0.611225 0.235635 0.179105
O O10 0.577911 0.241952 0.108408
O O11 0.659775 0.000000 0.083307
O O12 0.750000 0.250000 0.000000
O O13 0.840586 0.500000 0.209690
O O14 0.747935 0.255786 0.316306
O O15 0.930075 0.253030 0.168139
O O16 0.370523 0.500000 0.789976
O O17 0.534419 0.000000 0.088398
O O18 0.356587 0.500000 0.603453
#
# Coordination Sequence:
#
# PCOD8079001 Si02
#       7
#     8   8   8   8   8   8   8
#     4   9  14  22  37  61  89 114 138 171 218 266
#     4   8  13  21  36  61  92 117 138 173 220 265
#     4  11  21  33  47  64  87 117 152 187 217 251
#     4   9  14  21  36  60  91 118 138 173 225 267
#     4  10  17  28  46  67  92 118 143 177 220 261
#     4   9  17  26  37  57  86 116 146 178 216 260
#     4   8  12  19  34  60  92 118 138 170 223 269
#
# _framework density 17.190248
#
# number of rings (size 3 to 8) (size 9 to 14) (size 15 to 20)
#    0.000    2.857    2.857    1.714    0.000    1.714 
#    0.000    0.000    0.000    0.857    0.000    5.000 
#    0.000    0.000    0.000    0.000    0.000    0.143 
#
# Total GULP energy -346966.898277 kJ/mol
# GULP energy per Si atom -12391.674938 kJ/mol
# Density = 1.715112 g / cm^3
# Si number density = 17.190248 Si / 1000 Ang^3
#
#
#
# Elastic Constant Matrix: (Units=GPa)
#
#
# Indices 1 2 3 4 5 6 
#
# 1 134.1382 12.9302 90.5348 -0.0035 -5.7201 0.0026
# 2 12.9302 13.3533 12.3578 -0.0222 0.4559 0.0355
# 3 90.5348 12.3578 184.9390 -0.0067 -3.9561 0.0151
# 4 -0.0035 -0.0222 -0.0067 10.6096 0.0029 5.4484
# 5 -5.7201 0.4559 -3.9561 0.0029 28.2182 -0.0057
# 6 0.0026 0.0355 0.0151 5.4484 -0.0057 14.7087
#
#
#
# Elastic Compliance Matrix: (Units=1/GPa)
#
#
# Indices 1 2 3 4 5 6 
#
# 1 0.011707 -0.006530 -0.005258 -0.000029 0.001742 0.000031
# 2 -0.006530 0.083586 -0.002453 0.000338 -0.003018 -0.000324
# 3 -0.005258 -0.002453 0.008147 -0.000001 0.000116 -0.000001
# 4 -0.000029 0.000338 -0.000001 0.116397 -0.000032 -0.043117
# 5 0.001742 -0.003018 0.000116 -0.000032 0.035856 0.000033
# 6 0.000031 -0.000324 -0.000001 -0.043117 0.000033 0.083959
#
#
# Mechanical properties :
#
#
# Convention : Reuss Voigt Hill
#
# Bulk Modulus (GPa) = 13.34063 62.67513 38.00788
# Shear Modulus (GPa) = 12.71871 25.14779 18.93325
#
# Velocity S-wave (km/s) = 2.72302 3.82895 3.32233
# Velocity P-wave (km/s) = 4.20285 7.48910 6.07250
#
# Compressibility (1/GPa) = 0.07495895
#
# Stress axis : x y z
#
# Youngs Moduli (GPa) = 85.41703 11.96372 122.73917
#
# Poissons Ratio (x) = 0.07813 0.64531
# Poissons Ratio (y) = 0.55780 0.30108
# Poissons Ratio (z) = 0.44908 0.02935
#
# Static dielectric constant tensor:
#      x y z
#    x 3.301290 -0.000020 -0.039690 
#    y -0.000020 2.552290 0.000020 
#    z -0.039690 0.000020 3.696890 
# 
# 
# High freq. dielectric constant tensor:
#      x y z
#    x 1.646160 0.000000 0.000700 
#    y 0.000000 1.594290 0.000000 
#    z 0.000700 0.000000 1.676830 
# 
# From -- ./inp_files/239350.got.cif
#   From: 2010.06.25/outbox.cif.g09.slc.cpg/sg12_120_cif.got.tgz:239350.got - 2010.06.28 00:19:55.
