data_PCOD8079234
_publ_section_title
;
Structure prediction by ZEFSAII (Michael W. Deem and Ramdas Pophale) SiO2 
 PCOD8079234
Probable space group: C 2/M
;
_chemical_formula_sum "Si O2"
_cell_formula_units_Z 64
_cell_length_a 20.657727
_cell_length_b 9.179803
_cell_length_c 20.037609
_cell_angle_alpha 90.000000
_cell_angle_beta 102.792057
_cell_angle_gamma 90.000000
_cell_volume 3705.498183
_symmetry_space_group_name_H-M "C 2/M"
_symmetry_group_IT_number 12
_symmetry_cell_setting 'monoclinic'
loop_
_space_group_symop_operation_xyz
x,y,z
-x,y,-z
-x,-y,-z
x,-y,z
1/2+x,1/2+y,z
1/2-x,1/2+y,-z
1/2-x,1/2-y,-z
1/2+x,1/2-y,z
loop_
_atom_site_type_symbol
_atom_site_label
_atom_site_fract_x
_atom_site_fract_y
_atom_site_fract_z
Si Si1 0.392793 0.331798 0.143180
Si Si2 0.316387 0.331027 0.994829
Si Si3 0.111262 0.673187 0.638524
Si Si4 0.468778 0.825779 0.654533
Si Si5 0.575173 0.159830 0.493061
Si Si6 0.842615 0.172589 0.853858
Si Si7 0.959333 0.827482 0.787410
Si Si8 0.700730 0.172485 0.775709
O O1 0.384220 0.500000 0.161278
O O2 0.468193 0.279797 0.170705
O O3 0.343941 0.238198 0.176651
O O4 0.374465 0.305476 0.061737
O O5 0.297609 0.500000 0.984038
O O6 0.342754 0.269619 0.929989
O O7 0.250000 0.250000 0.000000
O O8 0.107909 0.500000 0.629598
O O9 0.114761 0.740408 0.563287
O O10 0.174380 0.723362 0.696753
O O11 0.045101 0.724506 0.662178
O O12 0.425435 0.766391 0.580697
O O13 0.440804 0.748707 0.713630
O O14 0.463448 0.000000 0.659800
O O15 0.500000 0.144574 0.500000
O O16 0.606393 0.000000 0.490404
O O17 0.906732 0.232614 0.829602
O O18 0.776023 0.227215 0.801087
O O19 0.845161 0.000000 0.854404
O O20 0.953837 0.000000 0.776607
O O21 0.694909 0.000000 0.781659
#
# Coordination Sequence:
#
# PCOD8079234 Si02
#       8
#     8   8   8   8   8   8   8   8
#     4  10  20  31  48  72  95 122 153 190 235 277
#     4  10  19  33  52  72  93 119 154 194 235 274
#     4   8  13  22  42  71  94 114 149 198 237 266
#     4   9  15  26  46  69  92 121 156 194 234 271
#     4   7  11  20  37  65  95 116 144 192 237 268
#     4   9  19  33  49  69  93 125 159 190 226 277
#     4  10  20  33  46  66  99 130 156 186 227 281
#     4  10  17  29  51  73  92 119 158 197 231 271
#
# _framework density 17.271630999999999
#
# number of rings (size 3 to 8) (size 9 to 14) (size 15 to 20)
#    0.000    2.875    2.500    1.500    0.000    0.500 
#    0.000    3.750    0.000    4.875    0.000    2.625 
#    0.000    0.000    0.000    0.000    0.000    0.000 
#
# Total GULP energy -396485.336479 kJ/mol
# GULP energy per Si atom -12390.166765 kJ/mol
# Density = 1.723232 g / cm^3
# Si number density = 17.271631 Si / 1000 Ang^3
#
#
#
# Elastic Constant Matrix: (Units=GPa)
#
#
# Indices 1 2 3 4 5 6 
#
# 1 89.9944 16.0756 51.1978 0.0000 -5.5144 0.0000
# 2 16.0756 18.7842 22.0402 0.0000 -2.1630 0.0000
# 3 51.1978 22.0402 154.1169 0.0000 0.9079 0.0000
# 4 0.0000 0.0000 0.0000 20.7077 0.0000 -3.3554
# 5 -5.5144 -2.1630 0.9079 0.0000 25.9047 0.0000
# 6 0.0000 0.0000 0.0000 -3.3554 0.0000 15.5032
#
#
#
# Elastic Compliance Matrix: (Units=1/GPa)
#
#
# Indices 1 2 3 4 5 6 
#
# 1 0.014863 -0.007937 -0.003818 0.000000 0.002635 0.000000
# 2 -0.007937 0.069050 -0.007264 0.000000 0.004331 0.000000
# 3 -0.003818 -0.007264 0.008806 0.000000 -0.001728 0.000000
# 4 0.000000 0.000000 0.000000 0.050046 0.000000 0.010832
# 5 0.002635 0.004331 -0.001728 0.000000 0.039586 0.000000
# 6 0.000000 0.000000 0.000000 0.010832 0.000000 0.066847
#
#
# Mechanical properties :
#
#
# Convention : Reuss Voigt Hill
#
# Bulk Modulus (GPa) = 18.28753 49.05807 33.67280
# Shear Modulus (GPa) = 16.36861 23.99525 20.18193
#
# Velocity S-wave (km/s) = 3.08184 3.73136 3.42204
# Velocity P-wave (km/s) = 4.82440 6.85781 5.92893
#
# Compressibility (1/GPa) = 0.05468208
#
# Stress axis : x y z
#
# Youngs Moduli (GPa) = 67.28096 14.48228 113.56023
#
# Poissons Ratio (x) = 0.11494 0.43358
# Poissons Ratio (y) = 0.53398 0.82487
# Poissons Ratio (z) = 0.25688 0.10520
#
# Static dielectric constant tensor:
#      x y z
#    x 3.136170 0.000000 0.146690 
#    y 0.000000 2.809040 0.000000 
#    z 0.146690 0.000000 3.812340 
# 
# 
# High freq. dielectric constant tensor:
#      x y z
#    x 1.635860 0.000000 0.010800 
#    y 0.000000 1.620380 0.000000 
#    z 0.010800 0.000000 1.693440 
# 
# From -- ./inp_files/319224.got.cif
#   From: 2010.06.25/outbox.cif.g09.slc.cpg/sg12_160_cif.got.tgz:319224.got - 2010.06.28 00:19:55.
