data_PCOD8079497
_publ_section_title
;
Structure prediction by ZEFSAII (Michael W. Deem and Ramdas Pophale) SiO2 
 PCOD8079497
Probable space group: C 2/M
;
_chemical_formula_sum "Si O2"
_cell_formula_units_Z 64
_cell_length_a 31.042023
_cell_length_b 9.178461
_cell_length_c 14.129413
_cell_angle_alpha 90.000000
_cell_angle_beta 57.467135
_cell_angle_gamma 90.000000
_cell_volume 3394.019961
_symmetry_space_group_name_H-M "C 2/M"
_symmetry_group_IT_number 12
_symmetry_cell_setting 'monoclinic'
loop_
_space_group_symop_operation_xyz
x,y,z
-x,y,-z
-x,-y,-z
x,-y,z
1/2+x,1/2+y,z
1/2-x,1/2+y,-z
1/2-x,1/2-y,-z
1/2+x,1/2-y,z
loop_
_atom_site_type_symbol
_atom_site_label
_atom_site_fract_x
_atom_site_fract_y
_atom_site_fract_z
Si Si1 0.218121 0.672312 0.617738
Si Si2 0.642913 0.667175 0.244494
Si Si3 0.991854 0.668284 0.234409
Si Si4 0.038279 0.672405 0.371927
Si Si5 0.397236 0.172967 0.237508
Si Si6 0.414603 0.168418 0.006273
Si Si7 0.173053 0.828953 0.999107
Si Si8 0.254114 0.331124 0.782244
O O1 0.223235 0.500000 0.599690
O O2 0.250000 0.750000 0.500000
O O3 0.159904 0.726494 0.673508
O O4 0.238414 0.722418 0.696319
O O5 0.625144 0.500000 0.263470
O O6 0.593877 0.763213 0.326918
O O7 0.685400 0.694940 0.275221
O O8 0.668659 0.710807 0.114652
O O9 0.983700 0.500000 0.268214
O O10 0.937005 0.737062 0.268606
O O11 0.015228 0.740119 0.301703
O O12 0.029008 0.689260 0.101498
O O13 0.045232 0.500000 0.356987
O O14 0.000000 0.718629 0.500000
O O15 0.414448 0.225948 0.113580
O O16 0.400193 0.000000 0.236173
O O17 0.376626 0.266527 0.992059
O O18 0.396712 0.000000 0.021015
O O19 0.223949 0.757765 0.897257
O O20 0.176060 0.000000 0.978008
O O21 0.239757 0.500000 0.812670
#
# Coordination Sequence:
#
# PCOD8079497 Si02
#       8
#     8   8   8   8   8   8   8   8
#     4  10  21  37  57  79 107 142 182 226 268 317
#     4  10  22  38  57  81 112 147 183 224 272 333
#     4   9  17  30  53  82 108 135 173 222 269 317
#     4  10  21  36  55  81 110 142 184 231 273 317
#     4   9  17  31  53  81 105 134 179 222 263 317
#     4  10  17  31  56  80 105 141 177 217 272 332
#     4  11  21  33  54  85 115 142 177 225 277 327
#     4  10  21  39  59  81 109 146 187 222 269 331
#
# _framework density 18.856694999999998
#
# number of rings (size 3 to 8) (size 9 to 14) (size 15 to 20)
#    0.000    2.125    2.500    1.125    0.000    4.250 
#    0.000    1.250    0.000    3.750    0.000    0.000 
#    0.000    0.000    0.000    0.000    0.000    0.000 
#
# Total GULP energy -396785.757213 kJ/mol
# GULP energy per Si atom -12399.554913 kJ/mol
# Density = 1.881378 g / cm^3
# Si number density = 18.856695 Si / 1000 Ang^3
#
#
#
# Elastic Constant Matrix: (Units=GPa)
#
#
# Indices 1 2 3 4 5 6 
#
# 1 135.4840 27.1754 51.6355 0.0000 -20.1094 0.0000
# 2 27.1754 38.7733 40.4537 0.0000 -6.7980 0.0000
# 3 51.6355 40.4537 117.2707 0.0000 -13.2584 0.0000
# 4 0.0000 0.0000 0.0000 26.9460 0.0000 -3.8683
# 5 -20.1094 -6.7980 -13.2584 0.0000 20.3645 0.0000
# 6 0.0000 0.0000 0.0000 -3.8683 0.0000 23.5485
#
#
#
# Elastic Compliance Matrix: (Units=1/GPa)
#
#
# Indices 1 2 3 4 5 6 
#
# 1 0.010045 -0.003142 -0.002522 0.000000 0.007229 0.000000
# 2 -0.003142 0.041706 -0.012716 0.000000 0.002541 0.000000
# 3 -0.002522 -0.012716 0.014317 0.000000 0.002586 0.000000
# 4 0.000000 0.000000 0.000000 0.038008 0.000000 0.006243
# 5 0.007229 0.002541 0.002586 0.000000 0.058775 0.000000
# 6 0.000000 0.000000 0.000000 0.006243 0.000000 0.043491
#
#
# Mechanical properties :
#
#
# Convention : Reuss Voigt Hill
#
# Bulk Modulus (GPa) = 34.12088 58.89524 46.50806
# Shear Modulus (GPa) = 19.77302 25.65604 22.71453
#
# Velocity S-wave (km/s) = 3.24171 3.69261 3.47448
# Velocity P-wave (km/s) = 5.66972 7.03430 6.38855
#
# Compressibility (1/GPa) = 0.02930757
#
# Stress axis : x y z
#
# Youngs Moduli (GPa) = 99.54971 23.97755 69.84903
#
# Poissons Ratio (x) = 0.07534 0.17615
# Poissons Ratio (y) = 0.31278 0.88821
# Poissons Ratio (z) = 0.25106 0.30490
#
# Static dielectric constant tensor:
#      x y z
#    x 3.807880 0.000000 0.064130 
#    y 0.000000 3.127520 0.000000 
#    z 0.064130 0.000000 3.453760 
# 
# 
# High freq. dielectric constant tensor:
#      x y z
#    x 1.750610 0.000000 -0.001940 
#    y 0.000000 1.694700 0.000000 
#    z -0.001940 0.000000 1.731640 
# 
# From -- ./inp_files/249663.got.cif
#   From: 2010.06.25/outbox.cif.g09.slc.cpg/sg12_125_cif.got.tgz:249663.got - 2010.06.28 00:19:55.
