data_PCOD8079842
_publ_section_title
;
Structure prediction by ZEFSAII (Michael W. Deem and Ramdas Pophale) SiO2 
 PCOD8079842
Probable space group: C 2/M
;
_chemical_formula_sum "Si O2"
_cell_formula_units_Z 56
_cell_length_a 26.895308
_cell_length_b 9.318383
_cell_length_c 24.922603
_cell_angle_alpha 90.000000
_cell_angle_beta 143.814151
_cell_angle_gamma 90.000000
_cell_volume 3687.750195
_symmetry_space_group_name_H-M "C 2/M"
_symmetry_group_IT_number 12
_symmetry_cell_setting 'monoclinic'
loop_
_space_group_symop_operation_xyz
x,y,z
-x,y,-z
-x,-y,-z
x,-y,z
1/2+x,1/2+y,z
1/2-x,1/2+y,-z
1/2-x,1/2-y,-z
1/2+x,1/2-y,z
loop_
_atom_site_type_symbol
_atom_site_label
_atom_site_fract_x
_atom_site_fract_y
_atom_site_fract_z
Si Si1 0.944452 0.665787 0.693222
Si Si2 0.584263 0.165788 0.142301
Si Si3 0.131334 0.665324 0.874803
Si Si4 0.297363 0.163303 0.497102
Si Si5 0.392105 0.834259 0.959570
Si Si6 0.653864 0.668437 0.300371
Si Si7 0.802410 0.832458 0.969163
O O1 0.933691 0.500000 0.701537
O O2 0.897233 0.693862 0.594218
O O3 0.906823 0.762631 0.707805
O O4 0.042415 0.702412 0.769555
O O5 0.615747 0.200938 0.110011
O O6 0.637961 0.263304 0.228841
O O7 0.599948 0.000000 0.169887
O O8 0.485635 0.202130 0.061956
O O9 0.136362 0.500000 0.897787
O O10 0.204237 0.699406 0.895332
O O11 0.140047 0.762256 0.934931
O O12 0.250000 0.250000 0.500000
O O13 0.253608 0.198954 0.401587
O O14 0.277257 0.000000 0.492725
O O15 0.324636 0.736562 0.931431
O O16 0.371407 0.000000 0.952515
O O17 0.634054 0.500000 0.280235
O O18 0.822533 0.000000 0.984955
#
# Coordination Sequence:
#
# PCOD8079842 Si02
#       7
#     8   8   8   8   8   8   8
#     4   9  16  28  44  58  79 114 146 165 189 236
#     4   9  18  31  45  60  79 108 142 166 193 241
#     4   9  18  30  43  60  82 111 143 167 193 237
#     4   8  15  26  39  57  81 108 135 164 199 237
#     4   9  18  32  46  59  79 108 140 170 197 235
#     4  10  18  26  39  63  90 108 129 168 210 240
#     4  10  19  29  42  62  86 108 133 170 209 238
#
# _framework density 15.185409999999999
#
# number of rings (size 3 to 8) (size 9 to 14) (size 15 to 20)
#    0.000    2.857    0.000    2.571    0.000    6.286 
#    0.000    1.429    0.000    0.000    0.000    1.000 
#    0.000    8.000    0.000    0.000    0.000    0.000 
#
# Total GULP energy -346953.624678 kJ/mol
# GULP energy per Si atom -12391.200881 kJ/mol
# Density = 1.515085 g / cm^3
# Si number density = 15.185410 Si / 1000 Ang^3
#
#
#
# Elastic Constant Matrix: (Units=GPa)
#
#
# Indices 1 2 3 4 5 6 
#
# 1 79.4672 43.9113 51.5684 0.0000 -0.8645 0.0000
# 2 43.9113 69.1464 54.9152 0.0000 -4.6933 0.0000
# 3 51.5684 54.9152 143.2722 0.0000 -0.8338 0.0000
# 4 0.0000 0.0000 0.0000 22.1227 0.0000 -3.0214
# 5 -0.8645 -4.6933 -0.8338 0.0000 18.9663 0.0000
# 6 0.0000 0.0000 0.0000 -3.0214 0.0000 25.3627
#
#
#
# Elastic Compliance Matrix: (Units=1/GPa)
#
#
# Indices 1 2 3 4 5 6 
#
# 1 0.020559 -0.010485 -0.003391 0.000000 -0.001807 0.000000
# 2 -0.010485 0.026584 -0.006382 0.000000 0.005820 0.000000
# 3 -0.003391 -0.006382 0.010639 0.000000 -0.001266 0.000000
# 4 0.000000 0.000000 0.000000 0.045950 0.000000 0.005474
# 5 -0.001807 0.005820 -0.001266 0.000000 0.054027 0.000000
# 6 0.000000 0.000000 0.000000 0.005474 0.000000 0.040080
#
#
# Mechanical properties :
#
#
# Convention : Reuss Voigt Hill
#
# Bulk Modulus (GPa) = 57.91905 65.85285 61.88595
# Shear Modulus (GPa) = 20.48258 22.72306 21.60282
#
# Velocity S-wave (km/s) = 3.67663 3.87250 3.77583
# Velocity P-wave (km/s) = 7.49984 7.96586 7.73636
#
# Compressibility (1/GPa) = 0.01726548
#
# Stress axis : x y z
#
# Youngs Moduli (GPa) = 48.64140 37.61708 93.99310
#
# Poissons Ratio (x) = 0.39441 0.31877
# Poissons Ratio (y) = 0.51000 0.59983
# Poissons Ratio (z) = 0.16497 0.24006
#
# Static dielectric constant tensor:
#      x y z
#    x 2.637660 0.000000 0.056160 
#    y 0.000000 2.952280 0.000000 
#    z 0.056160 0.000000 3.373410 
# 
# 
# High freq. dielectric constant tensor:
#      x y z
#    x 1.544600 0.000000 0.000290 
#    y 0.000000 1.590580 0.000000 
#    z 0.000290 0.000000 1.586120 
# 
# From -- ./inp_files/243258.got.cif
#   From: 2010.06.25/outbox.cif.g09.slc.cpg/sg12_122_cif.got.tgz:243258.got - 2010.06.28 00:19:55.
