data_PCOD8079474
_publ_section_title
;
Structure prediction by ZEFSAII (Michael W. Deem and Ramdas Pophale) SiO2 
 PCOD8079474
Probable space group: C 2/M
;
_chemical_formula_sum "Si O2"
_cell_formula_units_Z 64
_cell_length_a 25.064430
_cell_length_b 8.938625
_cell_length_c 27.203411
_cell_angle_alpha 90.000000
_cell_angle_beta 140.692034
_cell_angle_gamma 90.000000
_cell_volume 3860.918360
_symmetry_space_group_name_H-M "C 2/M"
_symmetry_group_IT_number 12
_symmetry_cell_setting 'monoclinic'
loop_
_space_group_symop_operation_xyz
x,y,z
-x,y,-z
-x,-y,-z
x,-y,z
1/2+x,1/2+y,z
1/2-x,1/2+y,-z
1/2-x,1/2-y,-z
1/2+x,1/2-y,z
loop_
_atom_site_type_symbol
_atom_site_label
_atom_site_fract_x
_atom_site_fract_y
_atom_site_fract_z
Si Si1 0.906346 0.677041 0.918314
Si Si2 0.707964 0.323150 0.081623
Si Si3 0.910478 0.178020 0.818637
Si Si4 0.558284 0.674677 0.343217
Si Si5 0.409163 0.676137 0.089917
Si Si6 0.622826 0.324149 0.823672
Si Si7 0.687010 0.174756 0.492902
Si Si8 0.325877 0.674400 0.661630
O O1 0.897424 0.500000 0.912503
O O2 0.840453 0.746468 0.908674
O O3 0.883119 0.739351 0.848406
O O4 0.000000 0.729020 0.000000
O O5 0.704971 0.500000 0.087000
O O6 0.803085 0.265649 0.149736
O O7 0.665290 0.274953 0.999702
O O8 0.845014 0.234502 0.729923
O O9 0.002687 0.236580 0.868318
O O10 0.908720 0.000000 0.826100
O O11 0.575670 0.500000 0.361267
O O12 0.459946 0.709401 0.267526
O O13 0.594411 0.753756 0.418696
O O14 0.608345 0.740924 0.331543
O O15 0.417383 0.500000 0.100708
O O16 0.390090 0.740676 0.130439
O O17 0.643983 0.500000 0.839770
O O18 0.750000 0.250000 0.500000
O O19 0.728294 0.205832 0.576377
O O20 0.681876 0.000000 0.478757
O O21 0.346073 0.500000 0.677369
#
# Coordination Sequence:
#
# PCOD8079474 Si02
#       8
#     8   8   8   8   8   8   8   8
#     4  11  23  37  51  70  96 126 162 207 255 294
#     4  11  22  35  51  72  95 127 171 210 243 286
#     4  10  17  31  54  74  94 127 168 203 239 288
#     4   9  16  28  46  68  97 133 165 191 233 290
#     4   9  17  30  51  73  96 129 166 201 241 288
#     4  10  19  33  51  72 101 135 165 199 244 292
#     4   9  16  26  42  66  97 130 162 195 235 285
#     4   8  14  26  46  70  95 126 162 196 234 286
#
# _framework density 16.576366
#
# number of rings (size 3 to 8) (size 9 to 14) (size 15 to 20)
#    0.000    2.375    2.500    2.250    0.000    1.000 
#    0.000    4.375    0.000    0.000    0.000    0.875 
#    0.000    7.000    0.000    0.000    0.000    0.000 
#
# Total GULP energy -396650.352687 kJ/mol
# GULP energy per Si atom -12395.323521 kJ/mol
# Density = 1.653864 g / cm^3
# Si number density = 16.576366 Si / 1000 Ang^3
#
#
#
# Elastic Constant Matrix: (Units=GPa)
#
#
# Indices 1 2 3 4 5 6 
#
# 1 88.9936 32.5368 48.7002 0.0000 2.4007 0.0000
# 2 32.5368 51.8854 48.6428 0.0000 0.5097 0.0009
# 3 48.7002 48.6428 141.2482 0.0000 1.7459 -0.0002
# 4 0.0000 0.0000 0.0000 25.5866 0.0000 2.9594
# 5 2.4007 0.5097 1.7459 0.0000 16.2135 -0.0002
# 6 0.0000 0.0009 -0.0002 2.9594 -0.0002 15.9224
#
#
#
# Elastic Compliance Matrix: (Units=1/GPa)
#
#
# Indices 1 2 3 4 5 6 
#
# 1 0.015404 -0.006917 -0.002907 0.000000 -0.001750 0.000000
# 2 -0.006917 0.031569 -0.008499 0.000000 0.000947 -0.000002
# 3 -0.002907 -0.008499 0.011015 0.000000 -0.000488 0.000001
# 4 0.000000 0.000000 0.000000 0.039942 0.000000 -0.007424
# 5 -0.001750 0.000947 -0.000488 0.000000 0.061959 0.000001
# 6 0.000000 -0.000002 0.000001 -0.007424 0.000001 0.064185
#
#
# Mechanical properties :
#
#
# Convention : Reuss Voigt Hill
#
# Bulk Modulus (GPa) = 46.85547 60.20965 53.53256
# Shear Modulus (GPa) = 18.66843 21.69431 20.18137
#
# Velocity S-wave (km/s) = 3.35954 3.62159 3.49302
# Velocity P-wave (km/s) = 6.58608 7.34093 6.97373
#
# Compressibility (1/GPa) = 0.02134222
#
# Stress axis : x y z
#
# Youngs Moduli (GPa) = 64.91908 31.67699 90.78608
#
# Poissons Ratio (x) = 0.21910 0.26395
# Poissons Ratio (y) = 0.44902 0.77155
# Poissons Ratio (z) = 0.18875 0.26921
#
# Static dielectric constant tensor:
#      x y z
#    x 2.847000 0.000000 -0.041580 
#    y 0.000000 2.970020 0.000000 
#    z -0.041580 0.000000 3.570630 
# 
# 
# High freq. dielectric constant tensor:
#      x y z
#    x 1.600220 0.000000 0.000770 
#    y 0.000000 1.621650 0.000000 
#    z 0.000770 0.000000 1.651780 
# 
# From -- ./inp_files/346173.got.cif
#   From: 2010.06.25/outbox.cif.g09.slc.cpg/sg12_174_cif.got.tgz:346173.got - 2010.06.28 00:19:55.
