data_PCOD8079715
_publ_section_title
;
Structure prediction by ZEFSAII (Michael W. Deem and Ramdas Pophale) SiO2 
 PCOD8079715
Probable space group: C 2/M
;
_chemical_formula_sum "Si O2"
_cell_formula_units_Z 56
_cell_length_a 15.282437
_cell_length_b 22.977041
_cell_length_c 8.587358
_cell_angle_alpha 90.000000
_cell_angle_beta 73.044498
_cell_angle_gamma 90.000000
_cell_volume 2884.334164
_symmetry_space_group_name_H-M "C 2/M"
_symmetry_group_IT_number 12
_symmetry_cell_setting 'monoclinic'
loop_
_space_group_symop_operation_xyz
x,y,z
-x,y,-z
-x,-y,-z
x,-y,z
1/2+x,1/2+y,z
1/2-x,1/2+y,-z
1/2-x,1/2-y,-z
1/2+x,1/2-y,z
loop_
_atom_site_type_symbol
_atom_site_label
_atom_site_fract_x
_atom_site_fract_y
_atom_site_fract_z
Si Si1 0.522943 0.433055 0.309417
Si Si2 0.893990 0.786621 0.507638
Si Si3 0.893890 0.664556 0.591058
Si Si4 0.219465 0.432748 0.491621
Si Si5 0.208935 0.881644 0.245286
Si Si6 0.736821 0.816468 0.065653
Si Si7 0.871321 0.865270 0.243768
O O1 0.500000 0.411450 0.500000
O O2 0.494620 0.500000 0.306013
O O3 0.630374 0.425099 0.223039
O O4 0.471671 0.395345 0.200431
O O5 0.852309 0.721328 0.527636
O O6 0.838649 0.825091 0.658070
O O7 0.876599 0.807434 0.343061
O O8 0.000000 0.786396 0.500000
O O9 0.862607 0.603942 0.537110
O O10 0.856735 0.673257 0.787721
O O11 0.000000 0.665513 0.500000
O O12 0.196868 0.500000 0.479806
O O13 0.228654 0.417786 0.668484
O O14 0.311239 0.415902 0.353785
O O15 0.274857 0.859139 0.074969
O O16 0.828666 0.841415 0.105330
O O17 0.750000 0.750000 0.000000
#
# Coordination Sequence:
#
# PCOD8079715 Si02
#       7
#     8   8   8   8   8   8   8
#     4  11  19  34  59  90 127 166 201 232 277 366
#     4  10  17  34  59  89 117 151 196 238 281 359
#     4  10  23  41  64  86 112 153 206 256 303 359
#     4  10  21  38  62  87 112 157 212 250 291 355
#     4  11  20  35  57  88 128 158 194 238 304 353
#     4  11  24  38  57  90 128 155 194 253 314 355
#     4  10  20  34  60  89 123 163 200 236 288 362
#
# _framework density 19.415226000000001
#
# number of rings (size 3 to 8) (size 9 to 14) (size 15 to 20)
#    0.000    1.571    5.714    0.857    2.000    2.571 
#    0.000    8.571    0.000    0.857    0.000    0.000 
#    0.000    0.000    0.000    0.000    0.000    0.000 
#
# Total GULP energy -346900.035954 kJ/mol
# GULP energy per Si atom -12389.286998 kJ/mol
# Density = 1.937104 g / cm^3
# Si number density = 19.415226 Si / 1000 Ang^3
#
#
#
# Elastic Constant Matrix: (Units=GPa)
#
#
# Indices 1 2 3 4 5 6 
#
# 1 53.7609 33.0580 33.1619 0.0000 -1.2775 0.0000
# 2 33.0580 149.1709 41.0913 0.0000 9.3918 0.0000
# 3 33.1619 41.0913 78.1344 0.0000 -1.7692 0.0000
# 4 0.0000 0.0000 0.0000 22.2998 0.0000 7.7183
# 5 -1.2775 9.3918 -1.7692 0.0000 30.2858 0.0000
# 6 0.0000 0.0000 0.0000 7.7183 0.0000 28.5044
#
#
#
# Elastic Compliance Matrix: (Units=1/GPa)
#
#
# Indices 1 2 3 4 5 6 
#
# 1 0.026550 -0.003381 -0.009453 0.000000 0.001616 0.000000
# 2 -0.003381 0.008493 -0.003098 0.000000 -0.002957 0.000000
# 3 -0.009453 -0.003098 0.018477 0.000000 0.001641 0.000000
# 4 0.000000 0.000000 0.000000 0.049481 0.000000 -0.013398
# 5 0.001616 -0.002957 0.001641 0.000000 0.034100 0.000000
# 6 0.000000 0.000000 0.000000 -0.013398 0.000000 0.038710
#
#
# Mechanical properties :
#
#
# Convention : Reuss Voigt Hill
#
# Bulk Modulus (GPa) = 46.18146 55.07652 50.62899
# Shear Modulus (GPa) = 23.26725 27.80167 25.53446
#
# Velocity S-wave (km/s) = 3.46555 3.78822 3.63047
# Velocity P-wave (km/s) = 6.31278 6.89662 6.61115
#
# Compressibility (1/GPa) = 0.02165371
#
# Stress axis : x y z
#
# Youngs Moduli (GPa) = 37.66513 117.74795 54.12087
#
# Poissons Ratio (x) = 0.39816 0.51162
# Poissons Ratio (y) = 0.12736 0.16768
# Poissons Ratio (z) = 0.35606 0.36480
#
# Static dielectric constant tensor:
#      x y z
#    x 3.383440 0.000000 0.029160 
#    y 0.000000 3.756140 0.000000 
#    z 0.029160 0.000000 3.457990 
# 
# 
# High freq. dielectric constant tensor:
#      x y z
#    x 1.738730 0.000000 0.004820 
#    y 0.000000 1.768280 0.000000 
#    z 0.004820 0.000000 1.735520 
# 
# From -- ./inp_files/65296.got.cif
#   From: 2010.06.25/outbox.cif.g09.slc.cpg/sg12_33_cif.got.tgz:65296.got - 2010.06.28 00:19:55.
