data_PCOD8079372
_publ_section_title
;
Structure prediction by ZEFSAII (Michael W. Deem and Ramdas Pophale) SiO2 
 PCOD8079372
Probable space group: C 2/M
;
_chemical_formula_sum "Si O2"
_cell_formula_units_Z 44
_cell_length_a 21.062833
_cell_length_b 15.692636
_cell_length_c 8.429595
_cell_angle_alpha 90.000000
_cell_angle_beta 53.807204
_cell_angle_gamma 90.000000
_cell_volume 2248.596501
_symmetry_space_group_name_H-M "C 2/M"
_symmetry_group_IT_number 12
_symmetry_cell_setting 'monoclinic'
loop_
_space_group_symop_operation_xyz
x,y,z
-x,y,-z
-x,-y,-z
x,-y,z
1/2+x,1/2+y,z
1/2-x,1/2+y,-z
1/2-x,1/2-y,-z
1/2+x,1/2-y,z
loop_
_atom_site_type_symbol
_atom_site_label
_atom_site_fract_x
_atom_site_fract_y
_atom_site_fract_z
Si Si1 0.055206 0.262160 0.187099
Si Si2 0.115901 0.252448 0.431079
Si Si3 0.854761 0.906584 0.400743
Si Si4 0.500000 0.355629 0.000000
Si Si5 0.410903 0.904499 0.076607
Si Si6 0.695476 0.902116 0.470492
O O1 0.105619 0.227950 0.261424
O O2 0.054130 0.198819 0.039709
O O3 0.966301 0.281156 0.371249
O O4 0.099811 0.347278 0.063592
O O5 0.149969 0.167397 0.461700
O O6 0.173391 0.334040 0.366419
O O7 0.787667 0.891466 0.368748
O O8 0.842025 0.000000 0.500025
O O9 0.939416 0.911325 0.190642
O O10 0.352604 0.875244 0.301558
O O11 0.391122 0.000000 0.053772
O O12 0.500000 0.893296 0.000000
O O13 0.675008 0.000000 0.450125
#
# Coordination Sequence:
#
# PCOD8079372 Si02
#       6
#     8   8   8   4   8   8
#     4  10  19  33  54  80 110 142 178 219 258 319
#     4  10  20  34  54  82 111 141 176 220 269 310
#     4  10  21  38  58  78 103 140 182 226 269 315
#     4  10  19  38  57  76 100 140 183 222 266 320
#     4  10  17  30  52  77 107 145 176 208 255 316
#     4  10  20  35  56  81 110 141 177 217 263 319
#
# _framework density 19.567761000000001
#
# number of rings (size 3 to 8) (size 9 to 14) (size 15 to 20)
#    0.000    2.000    2.727    1.909    0.000    0.727 
#    0.000   13.636    0.000    4.364    0.000    0.000 
#    0.000    0.000    0.000    0.000    0.000    0.000 
#
# Total GULP energy -272734.464971 kJ/mol
# GULP energy per Si atom -12397.021135 kJ/mol
# Density = 1.952322 g / cm^3
# Si number density = 19.567761 Si / 1000 Ang^3
#
#
#
# Elastic Constant Matrix: (Units=GPa)
#
#
# Indices 1 2 3 4 5 6 
#
# 1 92.6576 60.1035 17.4679 0.0000 13.9775 0.0000
# 2 60.1035 123.1475 21.0093 0.0000 21.8183 0.0000
# 3 17.4679 21.0093 35.6650 0.0000 8.0063 0.0000
# 4 0.0000 0.0000 0.0000 14.1269 0.0000 -3.9866
# 5 13.9775 21.8183 8.0063 0.0000 34.7703 0.0000
# 6 0.0000 0.0000 0.0000 -3.9866 0.0000 24.4299
#
#
#
# Elastic Compliance Matrix: (Units=1/GPa)
#
#
# Indices 1 2 3 4 5 6 
#
# 1 0.016256 -0.007114 -0.003486 0.000000 -0.001268 0.000000
# 2 -0.007114 0.012927 -0.003112 0.000000 -0.004535 0.000000
# 3 -0.003486 -0.003112 0.032507 0.000000 -0.004131 0.000000
# 4 0.000000 0.000000 0.000000 0.074204 0.000000 0.012109
# 5 -0.001268 -0.004535 -0.004131 0.000000 0.033067 0.000000
# 6 0.000000 0.000000 0.000000 0.012109 0.000000 0.042910
#
#
# Mechanical properties :
#
#
# Convention : Reuss Voigt Hill
#
# Bulk Modulus (GPa) = 29.18550 49.84794 39.51672
# Shear Modulus (GPa) = 19.94277 24.85804 22.40041
#
# Velocity S-wave (km/s) = 3.19590 3.56807 3.38710
# Velocity P-wave (km/s) = 5.34470 6.51956 5.96115
#
# Compressibility (1/GPa) = 0.03426359
#
# Stress axis : x y z
#
# Youngs Moduli (GPa) = 61.51670 77.35673 30.76270
#
# Poissons Ratio (x) = 0.55035 0.10724
# Poissons Ratio (y) = 0.43766 0.09575
# Poissons Ratio (z) = 0.21446 0.24077
#
# Static dielectric constant tensor:
#      x y z
#    x 3.505770 0.000000 -0.021380 
#    y 0.000000 3.645550 0.000000 
#    z -0.021380 0.000000 3.433410 
# 
# 
# High freq. dielectric constant tensor:
#      x y z
#    x 1.749830 0.000000 -0.009670 
#    y 0.000000 1.766200 0.000000 
#    z -0.009670 0.000000 1.742760 
# 
# From -- ./inp_files/85605.got.cif
#   From: 2010.06.25/outbox.cif.g09.slc.cpg/sg12_43_cif.got.tgz:85605.got - 2010.06.28 00:19:55.
