data_PCOD8079584
_publ_section_title
;
Structure prediction by ZEFSAII (Michael W. Deem and Ramdas Pophale) SiO2 
 PCOD8079584
Probable space group: C 2/M
;
_chemical_formula_sum "Si O2"
_cell_formula_units_Z 36
_cell_length_a 15.207502
_cell_length_b 24.858323
_cell_length_c 15.187778
_cell_angle_alpha 90.000000
_cell_angle_beta 160.645637
_cell_angle_gamma 90.000000
_cell_volume 1902.782772
_symmetry_space_group_name_H-M "C 2/M"
_symmetry_group_IT_number 12
_symmetry_cell_setting 'monoclinic'
loop_
_space_group_symop_operation_xyz
x,y,z
-x,y,-z
-x,-y,-z
x,-y,z
1/2+x,1/2+y,z
1/2-x,1/2+y,-z
1/2-x,1/2-y,-z
1/2+x,1/2-y,z
loop_
_atom_site_type_symbol
_atom_site_label
_atom_site_fract_x
_atom_site_fract_y
_atom_site_fract_z
Si Si1 0.674466 0.081410 0.892403
Si Si2 0.869133 0.942121 0.537410
Si Si3 0.826852 0.307049 0.034619
Si Si4 0.776548 0.500000 0.214299
Si Si5 0.877063 0.831762 0.474183
O O1 0.411254 0.054625 0.679946
O O2 0.641635 0.147051 0.859572
O O3 0.714681 0.055156 0.834581
O O4 0.914813 0.067648 0.183471
O O5 0.852623 0.896672 0.446099
O O6 0.923764 0.000000 0.543624
O O7 0.094045 0.304147 0.227697
O O8 0.750000 0.250000 0.000000
O O9 0.577185 0.320927 0.740613
O O10 0.000000 0.500000 0.500000
O O11 0.500000 0.500000 0.000000
O O12 0.000000 0.809008 0.500000
#
# Coordination Sequence:
#
# PCOD8079584 Si02
#       5
#     8   8   8   4   8
#     4  10  20  35  54  78 108 143 190 224 271 343
#     4  10  17  32  56  78 109 149 174 210 270 341
#     4  10  21  39  61  79 107 155 195 224 279 350
#     4  12  22  34  54  80 113 144 183 242 290 318
#     4  10  21  35  56  87 114 139 181 236 283 320
#
# _framework density 18.919658999999999
#
# number of rings (size 3 to 8) (size 9 to 14) (size 15 to 20)
#    0.000    1.778    2.222    2.667    0.000    0.444 
#    0.000    3.333    0.000    8.000    0.000    0.000 
#    0.000    0.000    0.000    0.000    0.000    0.000 
#
# Total GULP energy -223041.222078 kJ/mol
# GULP energy per Si atom -12391.179004 kJ/mol
# Density = 1.887660 g / cm^3
# Si number density = 18.919659 Si / 1000 Ang^3
#
#
#
# Elastic Constant Matrix: (Units=GPa)
#
#
# Indices 1 2 3 4 5 6 
#
# 1 202.2582 33.3703 115.4427 -0.0145 29.3970 0.0018
# 2 33.3703 154.4922 0.9346 0.0050 7.5318 0.0002
# 3 115.4427 0.9346 192.0966 -0.0228 35.2553 -0.0048
# 4 -0.0145 0.0050 -0.0228 27.4333 -0.0045 6.3271
# 5 29.3970 7.5318 35.2553 -0.0045 35.0684 0.0025
# 6 0.0018 0.0002 -0.0048 6.3271 0.0025 21.7505
#
#
#
# Elastic Compliance Matrix: (Units=1/GPa)
#
#
# Indices 1 2 3 4 5 6 
#
# 1 0.008042 -0.001618 -0.004478 0.000001 -0.001892 -0.000002
# 2 -0.001618 0.006879 0.001178 -0.000002 -0.001306 0.000001
# 3 -0.004478 0.001178 0.008888 0.000003 -0.005435 0.000002
# 4 0.000001 -0.000002 0.000003 0.039074 0.000002 -0.011366
# 5 -0.001892 -0.001306 -0.005435 0.000002 0.035847 -0.000006
# 6 -0.000002 0.000001 0.000002 -0.011366 -0.000006 0.049282
#
#
# Mechanical properties :
#
#
# Convention : Reuss Voigt Hill
#
# Bulk Modulus (GPa) = 71.55580 94.26024 82.90802
# Shear Modulus (GPa) = 30.76848 43.45708 37.11278
#
# Velocity S-wave (km/s) = 4.03708 4.79783 4.43380
# Velocity P-wave (km/s) = 7.72228 8.97896 8.37423
#
# Compressibility (1/GPa) = 0.01397511
#
# Stress axis : x y z
#
# Youngs Moduli (GPa) = 124.34994 145.37458 112.50569
#
# Poissons Ratio (x) = 0.23517 0.50376
# Poissons Ratio (y) = 0.20116 -0.13258
# Poissons Ratio (z) = 0.55680 -0.17131
#
# Static dielectric constant tensor:
#      x y z
#    x 3.207860 -0.000010 0.180420 
#    y -0.000010 3.744020 0.000030 
#    z 0.180420 0.000030 3.647900 
# 
# 
# High freq. dielectric constant tensor:
#      x y z
#    x 1.705680 0.000000 0.016860 
#    y 0.000000 1.738680 0.000000 
#    z 0.016860 0.000000 1.760480 
# 
# From -- ./inp_files/7939.got.cif
#   From: 2010.06.25/outbox.cif.g09.slc.cpg/sg12_4_cif.got.tgz:7939.got - 2010.06.28 00:19:55.
