data_PCOD8079748
_publ_section_title
;
Structure prediction by ZEFSAII (Michael W. Deem and Ramdas Pophale) SiO2 
 PCOD8079748
Probable space group: C 2/M
;
_chemical_formula_sum "Si O2"
_cell_formula_units_Z 52
_cell_length_a 12.870493
_cell_length_b 19.836900
_cell_length_c 14.363127
_cell_angle_alpha 90.000000
_cell_angle_beta 122.939525
_cell_angle_gamma 90.000000
_cell_volume 3077.561422
_symmetry_space_group_name_H-M "C 2/M"
_symmetry_group_IT_number 12
_symmetry_cell_setting 'monoclinic'
loop_
_space_group_symop_operation_xyz
x,y,z
-x,y,-z
-x,-y,-z
x,-y,z
1/2+x,1/2+y,z
1/2-x,1/2+y,-z
1/2-x,1/2-y,-z
1/2+x,1/2-y,z
loop_
_atom_site_type_symbol
_atom_site_label
_atom_site_fract_x
_atom_site_fract_y
_atom_site_fract_z
Si Si1 0.253646 0.075160 0.308122
Si Si2 0.279811 0.650956 0.040987
Si Si3 0.500000 0.862619 0.500000
Si Si4 0.709238 0.258336 0.133803
Si Si5 0.470100 0.799674 0.298606
Si Si6 0.552193 0.682711 0.211208
Si Si7 0.862786 0.574898 0.164296
O O1 0.384619 0.089915 0.419919
O O2 0.151416 0.127990 0.293006
O O3 0.264840 0.080930 0.201712
O O4 0.212068 0.000000 0.316723
O O5 0.207487 0.680528 0.096778
O O6 0.424270 0.642160 0.135916
O O7 0.268924 0.700286 0.948641
O O8 0.211570 0.583580 0.970360
O O9 0.534595 0.816143 0.428246
O O10 0.587670 0.279145 0.131914
O O11 0.831184 0.273509 0.255424
O O12 0.546181 0.740951 0.285475
O O13 0.467046 0.867316 0.231541
O O14 0.923273 0.500000 0.193208
#
# Coordination Sequence:
#
# PCOD8079748 Si02
#       7
#     8   8   4   8   8   8   8
#     4  10  20  31  47  71 100 125 153 199 248 290
#     4   9  17  26  46  67  93 136 157 180 236 275
#     4  10  17  36  50  66  97 124 162 194 245 298
#     4   9  16  30  42  68 101 122 159 192 225 284
#     4   9  19  31  50  72  93 129 159 200 243 276
#     4  11  18  30  49  73 101 123 159 203 234 286
#     4   9  17  32  46  69 104 131 159 193 232 285
#
# _framework density 16.896495000000002
#
# number of rings (size 3 to 8) (size 9 to 14) (size 15 to 20)
#    0.000    2.462    4.615    1.615    0.000    1.846 
#    0.000    1.538    0.000    1.846    0.000    0.538 
#    0.000    0.000    0.000    0.000    0.000    0.000 
#
# Total GULP energy -322145.470554 kJ/mol
# GULP energy per Si atom -12390.210406 kJ/mol
# Density = 1.685804 g / cm^3
# Si number density = 16.896495 Si / 1000 Ang^3
#
#
#
# Elastic Constant Matrix: (Units=GPa)
#
#
# Indices 1 2 3 4 5 6 
#
# 1 38.4913 33.9317 19.9860 0.0000 1.3062 0.0000
# 2 33.9317 119.2565 48.1304 0.0000 0.6472 0.0000
# 3 19.9860 48.1304 81.5121 0.0000 4.0797 0.0000
# 4 0.0000 0.0000 0.0000 13.9072 0.0000 2.2452
# 5 1.3062 0.6472 4.0797 0.0000 17.8706 0.0000
# 6 0.0000 0.0000 0.0000 2.2452 0.0000 23.3716
#
#
#
# Elastic Compliance Matrix: (Units=1/GPa)
#
#
# Indices 1 2 3 4 5 6 
#
# 1 0.035501 -0.008678 -0.003506 0.000000 -0.001480 0.000000
# 2 -0.008678 0.013151 -0.005711 0.000000 0.001462 0.000000
# 3 -0.003506 -0.005711 0.016667 0.000000 -0.003342 0.000000
# 4 0.000000 0.000000 0.000000 0.073038 0.000000 -0.007016
# 5 -0.001480 0.001462 -0.003342 0.000000 0.056776 0.000000
# 6 0.000000 0.000000 0.000000 -0.007016 0.000000 0.043461
#
#
# Mechanical properties :
#
#
# Convention : Reuss Voigt Hill
#
# Bulk Modulus (GPa) = 33.86499 49.26179 41.56339
# Shear Modulus (GPa) = 17.59156 20.17731 18.88444
#
# Velocity S-wave (km/s) = 3.23017 3.45943 3.34676
# Velocity P-wave (km/s) = 5.83079 6.72125 6.29179
#
# Compressibility (1/GPa) = 0.02952902
#
# Stress axis : x y z
#
# Youngs Moduli (GPa) = 28.16858 76.03859 59.99805
#
# Poissons Ratio (x) = 0.65984 0.21038
# Poissons Ratio (y) = 0.24444 0.34264
# Poissons Ratio (z) = 0.09877 0.43425
#
# Static dielectric constant tensor:
#      x y z
#    x 2.867780 0.000000 0.020000 
#    y 0.000000 3.378760 0.000000 
#    z 0.020000 0.000000 3.270540 
# 
# 
# High freq. dielectric constant tensor:
#      x y z
#    x 1.612700 0.000000 0.007150 
#    y 0.000000 1.644340 0.000000 
#    z 0.007150 0.000000 1.644680 
# 
# From -- ./inp_files/207347.got.cif
#   From: 2010.06.25/outbox.cif.g09.slc.cpg/sg12_104_cif.got.tgz:207347.got - 2010.06.28 00:19:55.
