data_PCOD8079826
_publ_section_title
;
Structure prediction by ZEFSAII (Michael W. Deem and Ramdas Pophale) SiO2 
 PCOD8079826
Probable space group: C 2/M
;
_chemical_formula_sum "Si O2"
_cell_formula_units_Z 64
_cell_length_a 24.572626
_cell_length_b 9.106421
_cell_length_c 20.380924
_cell_angle_alpha 90.000000
_cell_angle_beta 117.332140
_cell_angle_gamma 90.000000
_cell_volume 4051.464790
_symmetry_space_group_name_H-M "C 2/M"
_symmetry_group_IT_number 12
_symmetry_cell_setting 'monoclinic'
loop_
_space_group_symop_operation_xyz
x,y,z
-x,y,-z
-x,-y,-z
x,-y,z
1/2+x,1/2+y,z
1/2-x,1/2+y,-z
1/2-x,1/2-y,-z
1/2+x,1/2-y,z
loop_
_atom_site_type_symbol
_atom_site_label
_atom_site_fract_x
_atom_site_fract_y
_atom_site_fract_z
Si Si1 0.426977 0.835542 0.465637
Si Si2 0.451725 0.827775 0.619669
Si Si3 0.424857 0.667836 0.343499
Si Si4 0.685141 0.826199 0.960495
Si Si5 0.393719 0.334505 0.185737
Si Si6 0.458011 0.173717 0.880546
Si Si7 0.463010 0.329073 0.752828
Si Si8 0.086122 0.673037 0.006723
O O1 0.500000 0.823351 0.500000
O O2 0.409590 0.795307 0.531764
O O3 0.394773 0.725120 0.395350
O O4 0.404762 0.000000 0.437115
O O5 0.519528 0.774329 0.641321
O O6 0.427868 0.742458 0.670954
O O7 0.453823 0.000000 0.636083
O O8 0.447496 0.500000 0.364586
O O9 0.379114 0.678085 0.255808
O O10 0.649631 0.779528 0.875209
O O11 0.693834 0.000000 0.964678
O O12 0.750000 0.750000 0.000000
O O13 0.646669 0.771425 0.002803
O O14 0.379500 0.500000 0.153542
O O15 0.464621 0.296117 0.211620
O O16 0.435460 0.256921 0.803210
O O17 0.412916 0.218161 0.915950
O O18 0.457264 0.000000 0.867061
O O19 0.525689 0.233449 0.936692
O O20 0.448291 0.500000 0.744696
O O21 0.080940 0.500000 0.999224
#
# Coordination Sequence:
#
# PCOD8079826 Si02
#       8
#     8   8   8   8   8   8   8   8
#     4   8  14  23  33  48  70  99 137 170 197 237
#     4   9  16  24  34  49  73 106 140 169 198 239
#     4   9  16  24  36  53  74  99 130 171 212 243
#     4  11  21  33  48  64  82 109 140 175 216 254
#     4   9  18  30  40  56  81 106 137 173 207 251
#     4   9  15  28  47  63  81 106 138 174 206 250
#     4  10  18  26  38  60  85 107 135 173 213 248
#     4   8  16  29  46  65  81 103 139 173 207 252
#
# _framework density 15.796754999999999
#
# number of rings (size 3 to 8) (size 9 to 14) (size 15 to 20)
#    0.000    2.875    1.250    3.750    0.000    5.250 
#    0.000    2.500    0.000    0.000    0.000    0.000 
#    0.000    0.000    0.000    1.125    0.000   13.375 
#
# Total GULP energy -396486.256440 kJ/mol
# GULP energy per Si atom -12390.195514 kJ/mol
# Density = 1.576080 g / cm^3
# Si number density = 15.796755 Si / 1000 Ang^3
#
#
#
# Elastic Constant Matrix: (Units=GPa)
#
#
# Indices 1 2 3 4 5 6 
#
# 1 59.1008 29.8050 42.9019 0.0000 -15.8122 0.0000
# 2 29.8050 78.9156 54.1823 0.0000 -17.6787 0.0000
# 3 42.9019 54.1823 108.3206 0.0000 -40.2256 0.0000
# 4 0.0000 0.0000 0.0000 28.2255 0.0000 -3.1472
# 5 -15.8122 -17.6787 -40.2256 0.0000 25.0701 0.0000
# 6 0.0000 0.0000 0.0000 -3.1472 0.0000 12.3794
#
#
#
# Elastic Compliance Matrix: (Units=1/GPa)
#
#
# Indices 1 2 3 4 5 6 
#
# 1 0.024536 -0.003983 -0.007476 0.000000 0.000670 0.000000
# 2 -0.003983 0.020169 -0.010299 0.000000 -0.004814 0.000000
# 3 -0.007476 -0.010299 0.031910 0.000000 0.039223 0.000000
# 4 0.000000 0.000000 0.000000 0.036462 0.000000 0.009270
# 5 0.000670 -0.004814 0.039223 0.000000 0.099850 0.000000
# 6 0.000000 0.000000 0.000000 0.009270 0.000000 0.083136
#
#
# Mechanical properties :
#
#
# Convention : Reuss Voigt Hill
#
# Bulk Modulus (GPa) = 30.21366 55.56838 42.89102
# Shear Modulus (GPa) = 14.26079 21.09817 17.67948
#
# Velocity S-wave (km/s) = 3.00787 3.65855 3.34905
# Velocity P-wave (km/s) = 5.58847 7.28698 6.49350
#
# Compressibility (1/GPa) = 0.03309761
#
# Stress axis : x y z
#
# Youngs Moduli (GPa) = 40.75727 49.58217 31.33817
#
# Poissons Ratio (x) = 0.19751 0.23429
# Poissons Ratio (y) = 0.16235 0.32274
# Poissons Ratio (z) = 0.30471 0.51063
#
# Static dielectric constant tensor:
#      x y z
#    x 2.751040 0.000000 -0.511870 
#    y 0.000000 2.988670 0.000000 
#    z -0.511870 0.000000 3.444520 
# 
# 
# High freq. dielectric constant tensor:
#      x y z
#    x 1.537710 0.000000 -0.045550 
#    y 0.000000 1.608660 0.000000 
#    z -0.045550 0.000000 1.609800 
# 
# From -- ./inp_files/326608.got.cif
#   From: 2010.06.25/outbox.cif.g09.slc.cpg/sg12_164_cif.got.tgz:326608.got - 2010.06.28 00:19:55.
