data_PCOD8079970
_publ_section_title
;
Structure prediction by ZEFSAII (Michael W. Deem and Ramdas Pophale) SiO2 
 PCOD8079970
Probable space group: C 2/M
;
_chemical_formula_sum "Si O2"
_cell_formula_units_Z 48
_cell_length_a 23.684945
_cell_length_b 9.254338
_cell_length_c 13.666255
_cell_angle_alpha 90.000000
_cell_angle_beta 109.256458
_cell_angle_gamma 90.000000
_cell_volume 2827.893876
_symmetry_space_group_name_H-M "C 2/M"
_symmetry_group_IT_number 12
_symmetry_cell_setting 'monoclinic'
loop_
_space_group_symop_operation_xyz
x,y,z
-x,y,-z
-x,-y,-z
x,-y,z
1/2+x,1/2+y,z
1/2-x,1/2+y,-z
1/2-x,1/2-y,-z
1/2+x,1/2-y,z
loop_
_atom_site_type_symbol
_atom_site_label
_atom_site_fract_x
_atom_site_fract_y
_atom_site_fract_z
Si Si1 0.818828 0.334893 0.430173
Si Si2 0.504617 0.668012 0.393219
Si Si3 0.798574 0.836663 0.759215
Si Si4 0.759768 0.169334 0.106132
Si Si5 0.125995 0.169676 0.371810
Si Si6 0.874119 0.833865 0.291794
O O1 0.837457 0.500000 0.456064
O O2 0.752343 0.319454 0.351459
O O3 0.824340 0.251881 0.535655
O O4 0.864947 0.263982 0.380936
O O5 0.500000 0.736614 0.500000
O O6 0.517763 0.500000 0.413639
O O7 0.559959 0.731405 0.361633
O O8 0.442759 0.693962 0.297658
O O9 0.788381 0.726773 0.842497
O O10 0.859984 0.800678 0.735559
O O11 0.799231 0.000000 0.802070
O O12 0.827466 0.205571 0.179291
O O13 0.749176 0.000000 0.085664
O O14 0.750000 0.250000 0.000000
O O15 0.132736 0.000000 0.396762
O O16 0.864657 0.000000 0.318132
#
# Coordination Sequence:
#
# PCOD8079970 Si02
#       6
#     8   8   8   8   8   8
#     4  10  18  27  41  65  98 130 158 193 229 273
#     4   9  15  26  47  70  94 126 164 197 221 262
#     4   9  19  32  46  68  96 124 158 195 236 280
#     4  10  20  34  55  75  93 117 151 198 246 289
#     4  10  18  29  46  66  94 132 163 192 228 272
#     4   9  17  31  49  70  93 123 161 195 231 276
#
# _framework density 16.973763000000002
#
# number of rings (size 3 to 8) (size 9 to 14) (size 15 to 20)
#    0.000    2.500    1.667    1.500    0.000    2.000 
#    0.000    1.667    0.000    1.000    0.000    7.000 
#    0.000    0.000    0.000    0.000    0.000    0.000 
#
# Total GULP energy -297462.477384 kJ/mol
# GULP energy per Si atom -12394.269891 kJ/mol
# Density = 1.693513 g / cm^3
# Si number density = 16.973763 Si / 1000 Ang^3
#
#
#
# Elastic Constant Matrix: (Units=GPa)
#
#
# Indices 1 2 3 4 5 6 
#
# 1 110.9431 33.0092 47.3583 0.0000 -16.1171 0.0000
# 2 33.0092 72.1773 46.1779 0.0000 -12.9560 0.0000
# 3 47.3583 46.1779 91.3737 0.0000 -14.1401 0.0000
# 4 0.0000 0.0000 0.0000 26.3650 0.0000 -4.4619
# 5 -16.1171 -12.9560 -14.1401 0.0000 18.6447 0.0000
# 6 0.0000 0.0000 0.0000 -4.4619 0.0000 17.2998
#
#
#
# Elastic Compliance Matrix: (Units=1/GPa)
#
#
# Indices 1 2 3 4 5 6 
#
# 1 0.012355 -0.001577 -0.004671 0.000000 0.006041 0.000000
# 2 -0.001577 0.021574 -0.009037 0.000000 0.006774 0.000000
# 3 -0.004671 -0.009037 0.018508 0.000000 0.003718 0.000000
# 4 0.000000 0.000000 0.000000 0.039660 0.000000 0.010229
# 5 0.006041 0.006774 0.003718 0.000000 0.066384 0.000000
# 6 0.000000 0.000000 0.000000 0.010229 0.000000 0.060442
#
#
# Mechanical properties :
#
#
# Convention : Reuss Voigt Hill
#
# Bulk Modulus (GPa) = 45.73540 58.62057 52.17798
# Shear Modulus (GPa) = 19.47175 22.32515 20.89845
#
# Velocity S-wave (km/s) = 3.39066 3.63060 3.51268
# Velocity P-wave (km/s) = 6.50631 7.22399 6.87452
#
# Compressibility (1/GPa) = 0.02186490
#
# Stress axis : x y z
#
# Youngs Moduli (GPa) = 80.94191 46.35231 54.03142
#
# Poissons Ratio (x) = 0.07310 0.25240
# Poissons Ratio (y) = 0.12765 0.48829
# Poissons Ratio (z) = 0.37811 0.41889
#
# Static dielectric constant tensor:
#      x y z
#    x 3.483740 0.000000 -0.030620 
#    y 0.000000 3.129080 0.000000 
#    z -0.030620 0.000000 2.908980 
# 
# 
# High freq. dielectric constant tensor:
#      x y z
#    x 1.657800 0.000000 -0.004440 
#    y 0.000000 1.642370 0.000000 
#    z -0.004440 0.000000 1.619960 
# 
# From -- ./inp_files/172127.got.cif
#   From: 2010.06.25/outbox.cif.g09.slc.cpg/sg12_87_cif.got.tgz:172127.got - 2010.06.28 00:19:55.
