data_PCOD8079055
_publ_section_title
;
Structure prediction by ZEFSAII (Michael W. Deem and Ramdas Pophale) SiO2 
 PCOD8079055
Probable space group: C 2/M
;
_chemical_formula_sum "Si O2"
_cell_formula_units_Z 48
_cell_length_a 17.674403
_cell_length_b 13.442225
_cell_length_c 26.024023
_cell_angle_alpha 90.000000
_cell_angle_beta 152.719599
_cell_angle_gamma 90.000000
_cell_volume 2833.892537
_symmetry_space_group_name_H-M "C 2/M"
_symmetry_group_IT_number 12
_symmetry_cell_setting 'monoclinic'
loop_
_space_group_symop_operation_xyz
x,y,z
-x,y,-z
-x,-y,-z
x,-y,z
1/2+x,1/2+y,z
1/2-x,1/2+y,-z
1/2-x,1/2-y,-z
1/2+x,1/2-y,z
loop_
_atom_site_type_symbol
_atom_site_label
_atom_site_fract_x
_atom_site_fract_y
_atom_site_fract_z
Si Si1 0.879308 0.298765 0.246851
Si Si2 0.703305 0.114258 0.399192
Si Si3 0.320227 0.384147 0.780566
Si Si4 0.679382 0.279206 0.628416
Si Si5 0.121730 0.109598 0.025997
Si Si6 0.566494 0.387367 0.658541
O O1 0.807179 0.362996 0.250207
O O2 0.770030 0.314454 0.129095
O O3 0.878807 0.182185 0.261023
O O4 0.064464 0.335035 0.349932
O O5 0.713395 0.169219 0.350774
O O6 0.871906 0.124089 0.532458
O O7 0.659153 0.000000 0.361806
O O8 0.309696 0.500000 0.760068
O O9 0.273046 0.320740 0.702135
O O10 0.508786 0.354342 0.910054
O O11 0.500000 0.247409 0.500000
O O12 0.663611 0.356799 0.665671
O O13 0.197635 0.000000 0.060654
O O14 0.000000 0.100875 0.000000
O O15 0.614677 0.500000 0.701757
#
# Coordination Sequence:
#
# PCOD8079055 Si02
#       6
#     8   8   8   8   8   8
#     4  10  17  28  48  70  89 110 148 190 222 256
#     4  10  18  29  46  68  91 115 148 186 219 256
#     4   9  17  30  48  68  90 116 147 183 222 262
#     4   9  18  31  46  64  89 122 153 177 212 264
#     4   8  14  26  45  67  88 113 144 179 221 263
#     4   9  18  31  46  64  90 122 149 177 218 266
#
# _framework density 16.937833999999999
#
# number of rings (size 3 to 8) (size 9 to 14) (size 15 to 20)
#    0.000    2.833    0.000    3.500    0.000    2.333 
#    0.000    1.667    0.000   13.500    0.000    0.000 
#    0.000    0.000    0.000    0.000    0.000    0.000 
#
# Total GULP energy -297527.187010 kJ/mol
# GULP energy per Si atom -12396.966125 kJ/mol
# Density = 1.689928 g / cm^3
# Si number density = 16.937834 Si / 1000 Ang^3
#
#
#
# Elastic Constant Matrix: (Units=GPa)
#
#
# Indices 1 2 3 4 5 6 
#
# 1 43.8847 34.4316 26.2400 0.0054 -2.0857 -0.0007
# 2 34.4316 138.5150 65.3868 0.0052 -15.0675 -0.0004
# 3 26.2400 65.3868 73.8691 0.0064 -11.2474 -0.0001
# 4 0.0054 0.0052 0.0064 27.9135 -0.0007 -3.8874
# 5 -2.0857 -15.0675 -11.2474 -0.0007 18.7718 -0.0001
# 6 -0.0007 -0.0004 -0.0001 -3.8874 -0.0001 18.8059
#
#
#
# Elastic Compliance Matrix: (Units=1/GPa)
#
#
# Indices 1 2 3 4 5 6 
#
# 1 0.030678 -0.004567 -0.007586 -0.000003 -0.004803 0.000000
# 2 -0.004567 0.013321 -0.009484 0.000001 0.004503 0.000000
# 3 -0.007586 -0.009484 0.025683 -0.000003 0.006933 -0.000001
# 4 -0.000003 0.000001 -0.000003 0.036887 0.000000 0.007625
# 5 -0.004803 0.004503 0.006933 0.000000 0.060506 0.000000
# 6 0.000000 0.000000 -0.000001 0.007625 0.000000 0.054751
#
#
# Mechanical properties :
#
#
# Convention : Reuss Voigt Hill
#
# Bulk Modulus (GPa) = 37.86730 56.48728 47.17729
# Shear Modulus (GPa) = 18.25467 21.77894 20.01680
#
# Velocity S-wave (km/s) = 3.28646 3.58972 3.44143
# Velocity P-wave (km/s) = 6.06682 7.11362 6.61097
#
# Compressibility (1/GPa) = 0.02640801
#
# Stress axis : x y z
#
# Youngs Moduli (GPa) = 32.59661 75.06706 38.93700
#
# Poissons Ratio (x) = 0.34285 0.29538
# Poissons Ratio (y) = 0.14888 0.36927
# Poissons Ratio (z) = 0.24728 0.71191
#
# Static dielectric constant tensor:
#      x y z
#    x 2.890330 0.000000 -0.038430 
#    y 0.000000 3.199480 -0.000010 
#    z -0.038430 -0.000010 3.390640 
# 
# 
# High freq. dielectric constant tensor:
#      x y z
#    x 1.623650 0.000000 0.003390 
#    y 0.000000 1.650500 0.000000 
#    z 0.003390 0.000000 1.650280 
# 
# From -- ./inp_files/166147.got.cif
#   From: 2010.06.25/outbox.cif.g09.slc.cpg/sg12_84_cif.got.tgz:166147.got - 2010.06.28 00:19:55.
