data_PCOD8079694
_publ_section_title
;
Structure prediction by ZEFSAII (Michael W. Deem and Ramdas Pophale) SiO2 
 PCOD8079694
Probable space group: C 2/M
;
_chemical_formula_sum "Si O2"
_cell_formula_units_Z 36
_cell_length_a 8.603475
_cell_length_b 20.083339
_cell_length_c 20.482155
_cell_angle_alpha 90.000000
_cell_angle_beta 146.676743
_cell_angle_gamma 90.000000
_cell_volume 1944.214209
_symmetry_space_group_name_H-M "C 2/M"
_symmetry_group_IT_number 12
_symmetry_cell_setting 'monoclinic'
loop_
_space_group_symop_operation_xyz
x,y,z
-x,y,-z
-x,-y,-z
x,-y,z
1/2+x,1/2+y,z
1/2-x,1/2+y,-z
1/2-x,1/2-y,-z
1/2+x,1/2-y,z
loop_
_atom_site_type_symbol
_atom_site_label
_atom_site_fract_x
_atom_site_fract_y
_atom_site_fract_z
Si Si1 0.000000 0.108429 0.500000
Si Si2 0.782294 0.422857 0.137519
Si Si3 0.716159 0.676736 0.699116
Si Si4 0.893418 0.572218 0.319170
Si Si5 0.246210 0.308167 0.636915
O O1 0.018774 0.153550 0.570715
O O2 0.280399 0.064990 0.589375
O O3 0.872953 0.500000 0.157265
O O4 0.719927 0.410122 0.192492
O O5 0.023768 0.372932 0.196813
O O6 0.500000 0.404659 0.000000
O O7 0.538326 0.678122 0.702826
O O8 0.811126 0.751307 0.713101
O O9 0.800125 0.500000 0.313902
O O10 0.847037 0.625315 0.358933
O O11 0.000000 0.287073 0.500000
#
# Coordination Sequence:
#
# PCOD8079694 Si02
#       5
#     4   8   8   8   8
#     4  10  17  34  54  80 111 146 186 230 281 340
#     4   9  20  41  64  84 112 150 190 235 284 335
#     4  11  21  35  59  83 113 152 194 228 284 340
#     4  10  21  35  55  84 115 148 190 234 282 338
#     4  12  22  37  55  85 122 156 185 232 290 341
#
# _framework density 18.516477999999999
#
# number of rings (size 3 to 8) (size 9 to 14) (size 15 to 20)
#    0.000    1.556    3.333    3.667    0.000    2.222 
#    0.000    5.556    0.000    4.000    0.000    0.000 
#    0.000    0.000    0.000    0.000    0.000    0.000 
#
# Total GULP energy -223163.849545 kJ/mol
# GULP energy per Si atom -12397.991641 kJ/mol
# Density = 1.847433 g / cm^3
# Si number density = 18.516478 Si / 1000 Ang^3
#
#
#
# Elastic Constant Matrix: (Units=GPa)
#
#
# Indices 1 2 3 4 5 6 
#
# 1 116.6263 58.3031 38.2025 -0.0046 9.4491 -0.0013
# 2 58.3031 119.1538 41.7750 -0.0053 10.2847 -0.0014
# 3 38.2025 41.7750 105.8300 -0.0211 0.8285 -0.0041
# 4 -0.0046 -0.0053 -0.0211 9.9361 -0.0098 -8.8606
# 5 9.4491 10.2847 0.8285 -0.0098 17.7477 -0.0010
# 6 -0.0013 -0.0014 -0.0041 -8.8606 -0.0010 14.6653
#
#
#
# Elastic Compliance Matrix: (Units=1/GPa)
#
#
# Indices 1 2 3 4 5 6 
#
# 1 0.012023 -0.004717 -0.002450 -0.000013 -0.003553 -0.000008
# 2 -0.004717 0.012152 -0.003060 -0.000015 -0.004388 -0.000009
# 3 -0.002450 -0.003060 0.011521 0.000058 0.002540 0.000038
# 4 -0.000013 -0.000015 0.000058 0.218215 0.000140 0.131843
# 5 -0.003553 -0.004388 0.002540 0.000140 0.060661 0.000089
# 6 -0.000008 -0.000009 0.000038 0.131843 0.000089 0.147846
#
#
# Mechanical properties :
#
#
# Convention : Reuss Voigt Hill
#
# Bulk Modulus (GPa) = 65.60655 68.68570 67.14612
# Shear Modulus (GPa) = 10.24685 22.02513 16.13599
#
# Velocity S-wave (km/s) = 2.35498 3.45264 2.95522
# Velocity P-wave (km/s) = 6.55003 7.28486 6.92720
#
# Compressibility (1/GPa) = 0.01524238
#
# Stress axis : x y z
#
# Youngs Moduli (GPa) = 83.17311 82.28969 86.79429
#
# Poissons Ratio (x) = 0.38819 0.21266
# Poissons Ratio (y) = 0.39235 0.26557
# Poissons Ratio (z) = 0.20379 0.25178
#
# Static dielectric constant tensor:
#      x y z
#    x 3.280120 0.000000 -0.091880 
#    y 0.000000 3.451370 -0.000010 
#    z -0.091880 -0.000010 3.270790 
# 
# 
# High freq. dielectric constant tensor:
#      x y z
#    x 1.710140 0.000000 -0.006300 
#    y 0.000000 1.733020 0.000000 
#    z -0.006300 0.000000 1.697020 
# 
# From -- ./inp_files/118487.got.cif
#   From: 2010.06.25/outbox.cif.g09.slc.cpg/sg12_60_cif.got.tgz:118487.got - 2010.06.28 00:19:55.
