data_PCOD8079469
_publ_section_title
;
Structure prediction by ZEFSAII (Michael W. Deem and Ramdas Pophale) SiO2 
 PCOD8079469
Probable space group: C 2/M
;
_chemical_formula_sum "Si O2"
_cell_formula_units_Z 56
_cell_length_a 16.448512
_cell_length_b 16.877328
_cell_length_c 11.599920
_cell_angle_alpha 90.000000
_cell_angle_beta 114.209973
_cell_angle_gamma 90.000000
_cell_volume 2936.995989
_symmetry_space_group_name_H-M "C 2/M"
_symmetry_group_IT_number 12
_symmetry_cell_setting 'monoclinic'
loop_
_space_group_symop_operation_xyz
x,y,z
-x,y,-z
-x,-y,-z
x,-y,z
1/2+x,1/2+y,z
1/2-x,1/2+y,-z
1/2-x,1/2-y,-z
1/2+x,1/2-y,z
loop_
_atom_site_type_symbol
_atom_site_label
_atom_site_fract_x
_atom_site_fract_y
_atom_site_fract_z
Si Si1 0.768317 0.342424 0.499729
Si Si2 0.944419 0.223562 0.358567
Si Si3 0.163979 0.317133 0.125725
Si Si4 0.228132 0.329767 0.755122
Si Si5 0.178807 0.907782 0.664540
Si Si6 0.451335 0.167797 0.727277
Si Si7 0.625119 0.910853 0.879210
O O1 0.750000 0.250000 0.500000
O O2 0.748811 0.368243 0.356252
O O3 0.699440 0.388906 0.542138
O O4 0.870063 0.359466 0.597683
O O5 0.854305 0.272390 0.311475
O O6 0.914863 0.131520 0.348120
O O7 0.000000 0.250471 0.500000
O O8 0.005311 0.247084 0.284148
O O9 0.192966 0.224764 0.146601
O O10 0.241215 0.376307 0.210629
O O11 0.079186 0.325199 0.159041
O O12 0.135622 0.343369 0.982097
O O13 0.203443 0.399022 0.830416
O O14 0.167301 0.000000 0.677512
O O15 0.528327 0.100984 0.763913
O O16 0.632280 0.000000 0.932736
#
# Coordination Sequence:
#
# PCOD8079469 Si02
#       7
#     8   8   8   8   8   8   8
#     4  11  17  36  58  81 106 143 187 233 268 323
#     4  10  17  31  53  77 109 133 173 226 274 323
#     4  10  20  38  59  76 105 147 201 231 258 321
#     4  10  20  35  60  81 102 148 197 225 270 327
#     4  10  21  32  53  82 108 145 181 222 281 330
#     4  10  20  32  58  83 102 143 181 226 281 323
#     4  11  24  37  52  82 122 151 177 229 286 333
#
# _framework density 19.067101999999998
#
# number of rings (size 3 to 8) (size 9 to 14) (size 15 to 20)
#    0.000    1.714    5.714    1.286    0.000    4.286 
#    0.000    0.714    0.000    0.000    0.000    0.000 
#    0.000    9.143    0.000    0.000    0.000    0.000 
#
# Total GULP energy -347082.990487 kJ/mol
# GULP energy per Si atom -12395.821089 kJ/mol
# Density = 1.902370 g / cm^3
# Si number density = 19.067102 Si / 1000 Ang^3
#
#
#
# Elastic Constant Matrix: (Units=GPa)
#
#
# Indices 1 2 3 4 5 6 
#
# 1 66.5201 30.8854 23.9155 0.0000 -18.7087 0.0000
# 2 30.8854 72.1331 22.3755 0.0000 -4.1260 0.0000
# 3 23.9155 22.3755 90.4175 0.0000 -14.2498 0.0000
# 4 0.0000 0.0000 0.0000 20.5773 0.0000 -6.8761
# 5 -18.7087 -4.1260 -14.2498 0.0000 26.9597 0.0000
# 6 0.0000 0.0000 0.0000 -6.8761 0.0000 11.2690
#
#
#
# Elastic Compliance Matrix: (Units=1/GPa)
#
#
# Indices 1 2 3 4 5 6 
#
# 1 0.023769 -0.008784 -0.001882 0.000000 0.014156 0.000000
# 2 -0.008784 0.018265 -0.002964 0.000000 -0.004867 0.000000
# 3 -0.001882 -0.002964 0.013105 0.000000 0.005167 0.000000
# 4 0.000000 0.000000 0.000000 0.061044 0.000000 0.037247
# 5 0.014156 -0.004867 0.005167 0.000000 0.048902 0.000000
# 6 0.000000 0.000000 0.000000 0.037247 0.000000 0.111466
#
#
# Mechanical properties :
#
#
# Convention : Reuss Voigt Hill
#
# Bulk Modulus (GPa) = 35.86771 42.60260 39.23515
# Shear Modulus (GPa) = 15.96908 21.88749 18.92828
#
# Velocity S-wave (km/s) = 2.89713 3.39177 3.15416
# Velocity P-wave (km/s) = 5.48118 6.14254 5.82126
#
# Compressibility (1/GPa) = 0.02788023
#
# Stress axis : x y z
#
# Youngs Moduli (GPa) = 42.07099 54.74891 76.30393
#
# Poissons Ratio (x) = 0.48090 0.14363
# Poissons Ratio (y) = 0.36954 0.22615
# Poissons Ratio (z) = 0.07919 0.16226
#
# Static dielectric constant tensor:
#      x y z
#    x 3.867140 0.000000 -0.164390 
#    y 0.000000 3.267240 0.000000 
#    z -0.164390 0.000000 3.652640 
# 
# 
# High freq. dielectric constant tensor:
#      x y z
#    x 1.745190 0.000000 -0.004650 
#    y 0.000000 1.707670 0.000000 
#    z -0.004650 0.000000 1.737990 
# 
# From -- ./inp_files/145645.got.cif
#   From: 2010.06.25/outbox.cif.g09.slc.cpg/sg12_73_cif.got.tgz:145645.got - 2010.06.28 00:19:55.
