data_PCOD8079146
_publ_section_title
;
Structure prediction by ZEFSAII (Michael W. Deem and Ramdas Pophale) SiO2 
 PCOD8079146
Probable space group: C 2/M
;
_chemical_formula_sum "Si O2"
_cell_formula_units_Z 56
_cell_length_a 17.035348
_cell_length_b 22.023473
_cell_length_c 8.469709
_cell_angle_alpha 90.000000
_cell_angle_beta 82.497546
_cell_angle_gamma 90.000000
_cell_volume 3150.441518
_symmetry_space_group_name_H-M "C 2/M"
_symmetry_group_IT_number 12
_symmetry_cell_setting 'monoclinic'
loop_
_space_group_symop_operation_xyz
x,y,z
-x,y,-z
-x,-y,-z
x,-y,z
1/2+x,1/2+y,z
1/2-x,1/2+y,-z
1/2-x,1/2-y,-z
1/2+x,1/2-y,z
loop_
_atom_site_type_symbol
_atom_site_label
_atom_site_fract_x
_atom_site_fract_y
_atom_site_fract_z
Si Si1 0.535668 0.292471 0.659583
Si Si2 0.090317 0.656363 0.607073
Si Si3 0.977627 0.568561 0.825044
Si Si4 0.145497 0.654526 0.245366
Si Si5 0.875218 0.209321 0.839725
Si Si6 0.743121 0.794432 0.652959
Si Si7 0.182131 0.183040 0.811926
O O1 0.500000 0.312375 0.500000
O O2 0.555011 0.221256 0.663623
O O3 0.467362 0.306618 0.803482
O O4 0.613762 0.329926 0.697194
O O5 0.091113 0.653773 0.417389
O O6 0.182865 0.650651 0.635825
O O7 0.042254 0.602405 0.699711
O O8 0.971934 0.500000 0.762657
O O9 0.890943 0.599505 0.844647
O O10 0.000000 0.570271 0.000000
O O11 0.134733 0.717630 0.154467
O O12 0.239637 0.642652 0.249441
O O13 0.828369 0.183595 0.695757
O O14 0.846491 0.173255 0.001859
O O15 0.750000 0.750000 0.500000
O O16 0.706286 0.753824 0.802591
#
# Coordination Sequence:
#
# PCOD8079146 Si02
#       7
#     8   8   8   8   8   8   8
#     4  11  19  31  48  73 109 142 172 207 252 317
#     4  11  20  33  54  71 100 143 180 218 259 308
#     4  11  26  40  54  76 101 136 185 232 270 305
#     4  11  20  35  51  73 101 135 182 216 265 307
#     4  11  19  30  47  75 104 141 173 211 259 313
#     4  10  17  29  46  71 103 131 172 211 253 315
#     4  10  22  29  46  76 104 137 174 213 254 321
#
# _framework density 17.775286999999999
#
# number of rings (size 3 to 8) (size 9 to 14) (size 15 to 20)
#    0.000    1.286    5.714    3.429    6.000    1.143 
#    0.000    0.000    0.000    0.000    0.000    0.000 
#    0.000    4.000    0.000    0.000    0.000    0.143 
#
# Total GULP energy -346899.678642 kJ/mol
# GULP energy per Si atom -12389.274237 kJ/mol
# Density = 1.773483 g / cm^3
# Si number density = 17.775287 Si / 1000 Ang^3
#
#
#
# Elastic Constant Matrix: (Units=GPa)
#
#
# Indices 1 2 3 4 5 6 
#
# 1 143.8153 41.6017 29.2765 0.0000 6.8427 0.0000
# 2 41.6017 52.6044 18.0436 0.0000 5.3175 0.0000
# 3 29.2765 18.0436 82.9810 0.0000 -4.9859 0.0000
# 4 0.0000 0.0000 0.0000 15.4203 0.0000 -0.9620
# 5 6.8427 5.3175 -4.9859 0.0000 34.2593 0.0000
# 6 0.0000 0.0000 0.0000 -0.9620 0.0000 14.6948
#
#
#
# Elastic Compliance Matrix: (Units=1/GPa)
#
#
# Indices 1 2 3 4 5 6 
#
# 1 0.009302 -0.006586 -0.001917 0.000000 -0.001115 0.000000
# 2 -0.006586 0.025727 -0.003462 0.000000 -0.003182 0.000000
# 3 -0.001917 -0.003462 0.013655 0.000000 0.002907 0.000000
# 4 0.000000 0.000000 0.000000 0.065116 0.000000 0.004263
# 5 -0.001115 -0.003182 0.002907 0.000000 0.030329 0.000000
# 6 0.000000 0.000000 0.000000 0.004263 0.000000 0.068331
#
#
# Mechanical properties :
#
#
# Convention : Reuss Voigt Hill
#
# Bulk Modulus (GPa) = 40.39632 50.80495 45.60063
# Shear Modulus (GPa) = 20.43827 25.57345 23.00586
#
# Velocity S-wave (km/s) = 3.39457 3.79715 3.60149
# Velocity P-wave (km/s) = 6.17573 6.91869 6.55774
#
# Compressibility (1/GPa) = 0.02475473
#
# Stress axis : x y z
#
# Youngs Moduli (GPa) = 107.50685 38.86906 73.23562
#
# Poissons Ratio (x) = 0.25600 0.14036
# Poissons Ratio (y) = 0.70805 0.25352
# Poissons Ratio (z) = 0.20605 0.13456
#
# Static dielectric constant tensor:
#      x y z
#    x 3.943310 0.000000 0.052140 
#    y 0.000000 2.735700 0.000000 
#    z 0.052140 0.000000 3.369220 
# 
# 
# High freq. dielectric constant tensor:
#      x y z
#    x 1.719330 0.000000 0.002170 
#    y 0.000000 1.585700 0.000000 
#    z 0.002170 0.000000 1.702840 
# 
# From -- ./inp_files/76839.got.cif
#   From: 2010.06.25/outbox.cif.g09.slc.cpg/sg12_39_cif.got.tgz:76839.got - 2010.06.28 00:19:55.
