data_PCOD8079786
_publ_section_title
;
Structure prediction by ZEFSAII (Michael W. Deem and Ramdas Pophale) SiO2 
 PCOD8079786
Probable space group: C 2/M
;
_chemical_formula_sum "Si O2"
_cell_formula_units_Z 44
_cell_length_a 13.122770
_cell_length_b 14.052396
_cell_length_c 12.277541
_cell_angle_alpha 90.000000
_cell_angle_beta 101.747684
_cell_angle_gamma 90.000000
_cell_volume 2216.633051
_symmetry_space_group_name_H-M "C 2/M"
_symmetry_group_IT_number 12
_symmetry_cell_setting 'monoclinic'
loop_
_space_group_symop_operation_xyz
x,y,z
-x,y,-z
-x,-y,-z
x,-y,z
1/2+x,1/2+y,z
1/2-x,1/2+y,-z
1/2-x,1/2-y,-z
1/2+x,1/2-y,z
loop_
_atom_site_type_symbol
_atom_site_label
_atom_site_fract_x
_atom_site_fract_y
_atom_site_fract_z
Si Si1 0.603202 0.605471 0.735804
Si Si2 0.434189 0.390574 0.878265
Si Si3 0.716614 0.751835 0.244945
Si Si4 0.074505 0.671688 0.386338
Si Si5 0.146139 0.395101 0.616583
Si Si6 0.000000 0.838678 0.500000
O O1 0.643746 0.500000 0.775817
O O2 0.503251 0.631693 0.786738
O O3 0.692704 0.681811 0.784492
O O4 0.569616 0.601894 0.600843
O O5 0.393123 0.500000 0.867311
O O6 0.339969 0.313526 0.858715
O O7 0.500000 0.371680 0.000000
O O8 0.636306 0.823530 0.286837
O O9 0.760947 0.677538 0.342174
O O10 0.125675 0.597710 0.482282
O O11 0.078644 0.773771 0.447365
O O12 0.955252 0.641150 0.338480
O O13 0.177225 0.500000 0.664848
#
# Coordination Sequence:
#
# PCOD8079786 Si02
#       6
#     8   8   8   8   8   4
#     4  11  23  37  57  87 117 149 188 230 278 333
#     4  10  23  43  62  81 109 145 188 238 288 337
#     4  12  20  36  58  84 110 144 192 233 277 328
#     4  10  19  33  51  76 120 154 171 222 270 327
#     4  10  20  33  51  78 115 155 188 216 264 334
#     4  10  17  38  53  78 120 156 177 220 269 332
#
# _framework density 19.849924999999999
#
# number of rings (size 3 to 8) (size 9 to 14) (size 15 to 20)
#    0.000    1.636    5.455    2.455    0.000    2.182 
#    0.000    0.000    0.000    0.545    0.000    0.000 
#    0.000    0.000    0.000    0.000    0.000    0.000 
#
# Total GULP energy -272680.440228 kJ/mol
# GULP energy per Si atom -12394.565465 kJ/mol
# Density = 1.980475 g / cm^3
# Si number density = 19.849925 Si / 1000 Ang^3
#
#
#
# Elastic Constant Matrix: (Units=GPa)
#
#
# Indices 1 2 3 4 5 6 
#
# 1 61.4982 43.3286 20.7906 0.0000 15.6316 0.0000
# 2 43.3286 112.0255 21.1187 0.0000 11.5283 0.0000
# 3 20.7906 21.1187 59.6749 0.0000 13.5631 0.0000
# 4 0.0000 0.0000 0.0000 17.8834 0.0000 6.6877
# 5 15.6316 11.5283 13.5631 0.0000 21.9603 0.0000
# 6 0.0000 0.0000 0.0000 6.6877 0.0000 21.0125
#
#
#
# Elastic Compliance Matrix: (Units=1/GPa)
#
#
# Indices 1 2 3 4 5 6 
#
# 1 0.026401 -0.008292 -0.003469 0.000000 -0.012297 0.000000
# 2 -0.008292 0.012393 -0.001582 0.000000 0.000373 0.000000
# 3 -0.003469 -0.001582 0.020679 0.000000 -0.009472 0.000000
# 4 0.000000 0.000000 0.000000 0.063472 0.000000 -0.020202
# 5 -0.012297 0.000373 -0.009472 0.000000 0.059944 0.000000
# 6 0.000000 0.000000 0.000000 -0.020202 0.000000 0.054020
#
#
# Mechanical properties :
#
#
# Convention : Reuss Voigt Hill
#
# Bulk Modulus (GPa) = 30.49874 44.85273 37.67573
# Shear Modulus (GPa) = 18.21331 22.03527 20.12429
#
# Velocity S-wave (km/s) = 3.03240 3.33542 3.18751
# Velocity P-wave (km/s) = 5.25914 6.12196 5.70688
#
# Compressibility (1/GPa) = 0.03278824
#
# Stress axis : x y z
#
# Youngs Moduli (GPa) = 37.87727 80.68778 48.35920
#
# Poissons Ratio (x) = 0.66905 0.16774
# Poissons Ratio (y) = 0.31407 0.07650
# Poissons Ratio (z) = 0.13138 0.12765
#
# Static dielectric constant tensor:
#      x y z
#    x 3.569410 0.000000 0.050670 
#    y 0.000000 3.657570 0.000000 
#    z 0.050670 0.000000 3.277540 
# 
# 
# High freq. dielectric constant tensor:
#      x y z
#    x 1.767170 0.000000 0.006940 
#    y 0.000000 1.780020 0.000000 
#    z 0.006940 0.000000 1.730830 
# 
# From -- ./inp_files/142104.got.cif
#   From: 2010.06.25/outbox.cif.g09.slc.cpg/sg12_72_cif.got.tgz:142104.got - 2010.06.28 00:19:55.
