data_PCOD8079593
_publ_section_title
;
Structure prediction by ZEFSAII (Michael W. Deem and Ramdas Pophale) SiO2 
 PCOD8079593
Probable space group: C 2/M
;
_chemical_formula_sum "Si O2"
_cell_formula_units_Z 40
_cell_length_a 12.242122
_cell_length_b 17.461229
_cell_length_c 12.104382
_cell_angle_alpha 90.000000
_cell_angle_beta 63.001258
_cell_angle_gamma 90.000000
_cell_volume 2305.472121
_symmetry_space_group_name_H-M "C 2/M"
_symmetry_group_IT_number 12
_symmetry_cell_setting 'monoclinic'
loop_
_space_group_symop_operation_xyz
x,y,z
-x,y,-z
-x,-y,-z
x,-y,z
1/2+x,1/2+y,z
1/2-x,1/2+y,-z
1/2-x,1/2-y,-z
1/2+x,1/2-y,z
loop_
_atom_site_type_symbol
_atom_site_label
_atom_site_fract_x
_atom_site_fract_y
_atom_site_fract_z
Si Si1 0.081929 0.671995 0.568304
Si Si2 0.353155 0.653421 0.471065
Si Si3 0.183249 0.589458 0.916642
Si Si4 0.007688 0.409230 0.178366
Si Si5 0.904914 0.088034 0.681092
O O1 0.215922 0.631966 0.494850
O O2 0.108362 0.760755 0.577127
O O3 0.000000 0.655719 0.500000
O O4 0.003614 0.637452 0.704043
O O5 0.364138 0.640987 0.597589
O O6 0.450582 0.599566 0.361385
O O7 0.162010 0.500000 0.933584
O O8 0.325059 0.611377 0.826207
O O9 0.103581 0.617466 0.849100
O O10 0.132981 0.619301 0.058098
O O11 0.006241 0.500000 0.204833
O O12 0.878469 0.000000 0.661614
#
# Coordination Sequence:
#
# PCOD8079593 Si02
#       5
#     8   8   8   8   8
#     4  11  21  33  49  70 109 143 158 199 253 311
#     4  10  20  32  48  74 103 133 170 202 251 300
#     4   8  15  29  52  76  97 121 166 226 251 270
#     4   9  17  30  48  74 101 131 170 205 249 294
#     4  10  17  32  57  77  95 123 174 225 251 276
#
# _framework density 17.350024999999999
#
# number of rings (size 3 to 8) (size 9 to 14) (size 15 to 20)
#    0.000    2.400    4.000    2.400    0.000    1.200 
#    0.000    1.000    0.000    1.200    0.000    4.200 
#    0.000    0.000    0.000    0.000    0.000    0.000 
#
# Total GULP energy -247792.759233 kJ/mol
# GULP energy per Si atom -12389.637962 kJ/mol
# Density = 1.731054 g / cm^3
# Si number density = 17.350025 Si / 1000 Ang^3
#
#
#
# Elastic Constant Matrix: (Units=GPa)
#
#
# Indices 1 2 3 4 5 6 
#
# 1 104.9250 11.1318 65.0750 0.0000 -19.5160 0.0000
# 2 11.1318 47.6751 41.5895 0.0000 -4.8774 0.0000
# 3 65.0750 41.5895 157.7415 0.0000 -26.9102 0.0000
# 4 0.0000 0.0000 0.0000 13.3789 0.0000 3.0578
# 5 -19.5160 -4.8774 -26.9102 0.0000 34.4710 0.0000
# 6 0.0000 0.0000 0.0000 3.0578 0.0000 18.1150
#
#
#
# Elastic Compliance Matrix: (Units=1/GPa)
#
#
# Indices 1 2 3 4 5 6 
#
# 1 0.013349 0.001973 -0.005411 0.000000 0.003613 0.000000
# 2 0.001973 0.027655 -0.008361 0.000000 -0.001497 0.000000
# 3 -0.005411 -0.008361 0.011596 0.000000 0.004806 0.000000
# 4 0.000000 0.000000 0.000000 0.077744 0.000000 -0.013123
# 5 0.003613 -0.001497 0.004806 0.000000 0.034595 0.000000
# 6 0.000000 0.000000 0.000000 -0.013123 0.000000 0.057418
#
#
# Mechanical properties :
#
#
# Convention : Reuss Voigt Hill
#
# Bulk Modulus (GPa) = 34.47953 60.65934 47.56944
# Shear Modulus (GPa) = 19.56009 26.02933 22.79471
#
# Velocity S-wave (km/s) = 3.36129 3.87750 3.62859
# Velocity P-wave (km/s) = 5.91443 7.42191 6.71063
#
# Compressibility (1/GPa) = 0.02900271
#
# Stress axis : x y z
#
# Youngs Moduli (GPa) = 74.91106 36.15986 86.23679
#
# Poissons Ratio (x) = -0.07134 0.46662
# Poissons Ratio (y) = -0.14779 0.72100
# Poissons Ratio (z) = 0.40534 0.30232
#
# Static dielectric constant tensor:
#      x y z
#    x 3.348560 0.000000 -0.454520 
#    y 0.000000 3.017210 0.000000 
#    z -0.454520 0.000000 3.397860 
# 
# 
# High freq. dielectric constant tensor:
#      x y z
#    x 1.651680 0.000000 -0.036530 
#    y 0.000000 1.645940 0.000000 
#    z -0.036530 0.000000 1.671060 
# 
# From -- ./inp_files/130345.got.cif
#   From: 2010.06.25/outbox.cif.g09.slc.cpg/sg12_66_cif.got.tgz:130345.got - 2010.06.28 00:19:55.
