data_PCOD8079684
_publ_section_title
;
Structure prediction by ZEFSAII (Michael W. Deem and Ramdas Pophale) SiO2 
 PCOD8079684
Probable space group: C 2/M
;
_chemical_formula_sum "Si O2"
_cell_formula_units_Z 40
_cell_length_a 8.929589
_cell_length_b 16.168965
_cell_length_c 19.391558
_cell_angle_alpha 90.000000
_cell_angle_beta 126.355659
_cell_angle_gamma 90.000000
_cell_volume 2254.823582
_symmetry_space_group_name_H-M "C 2/M"
_symmetry_group_IT_number 12
_symmetry_cell_setting 'monoclinic'
loop_
_space_group_symop_operation_xyz
x,y,z
-x,y,-z
-x,-y,-z
x,-y,z
1/2+x,1/2+y,z
1/2-x,1/2+y,-z
1/2-x,1/2-y,-z
1/2+x,1/2-y,z
loop_
_atom_site_type_symbol
_atom_site_label
_atom_site_fract_x
_atom_site_fract_y
_atom_site_fract_z
Si Si1 0.795617 0.500000 0.973090
Si Si2 0.411117 0.500000 0.260960
Si Si3 0.590866 0.861738 0.288777
Si Si4 0.985556 0.500000 0.161739
Si Si5 0.154765 0.000000 0.599802
Si Si6 0.242272 0.744048 0.773591
Si Si7 0.585100 0.638236 0.836661
O O1 0.689013 0.582943 0.921616
O O2 0.816338 0.500000 0.061670
O O3 0.000000 0.500000 0.000000
O O4 0.442862 0.500000 0.351445
O O5 0.496767 0.581459 0.248286
O O6 0.189914 0.500000 0.181444
O O7 0.469034 0.918257 0.203913
O O8 0.731587 0.804949 0.283638
O O9 0.447427 0.806826 0.293453
O O10 0.716282 0.918751 0.373122
O O11 0.000000 0.000000 0.500000
O O12 0.416186 0.682899 0.829158
O O13 0.223042 0.794013 0.840341
#
# Coordination Sequence:
#
# PCOD8079684 Si02
#       7
#     4   4   8   4   4   8   8
#     4  11  18  32  52  70 102 144 178 211 254 302
#     4   9  16  34  54  72  93 143 168 197 250 309
#     4   9  19  35  57  74 102 137 169 211 254 304
#     4  10  17  34  51  69 100 142 179 203 254 304
#     4  10  19  35  58  81 103 133 168 198 248 313
#     4  10  18  34  54  79 101 133 173 213 258 301
#     4  10  19  32  55  74 100 137 175 211 253 297
#
# _framework density 17.739747000000001
#
# number of rings (size 3 to 8) (size 9 to 14) (size 15 to 20)
#    0.000    2.400    6.000    0.000    0.000    3.200 
#    0.000   14.000    0.000    1.200    0.000    0.000 
#    0.000    0.000    0.000    0.000    0.000    0.000 
#
# Total GULP energy -247920.013984 kJ/mol
# GULP energy per Si atom -12396.000699 kJ/mol
# Density = 1.769937 g / cm^3
# Si number density = 17.739747 Si / 1000 Ang^3
#
#
#
# Elastic Constant Matrix: (Units=GPa)
#
#
# Indices 1 2 3 4 5 6 
#
# 1 93.4856 57.1750 34.8295 0.0000 9.2655 0.0000
# 2 57.1750 130.1960 57.2201 0.0000 9.6790 0.0000
# 3 34.8295 57.2201 133.7493 0.0000 2.4316 0.0000
# 4 0.0000 0.0000 0.0000 12.5562 0.0000 10.5679
# 5 9.2655 9.6790 2.4316 0.0000 15.0162 0.0000
# 6 0.0000 0.0000 0.0000 10.5679 0.0000 21.6338
#
#
#
# Elastic Compliance Matrix: (Units=1/GPa)
#
#
# Indices 1 2 3 4 5 6 
#
# 1 0.015237 -0.005641 -0.001454 0.000000 -0.005530 0.000000
# 2 -0.005641 0.012016 -0.003605 0.000000 -0.003681 0.000000
# 3 -0.001454 -0.003605 0.009366 0.000000 0.001704 0.000000
# 4 0.000000 0.000000 0.000000 0.135247 0.000000 -0.066067
# 5 -0.005530 -0.003681 0.001704 0.000000 0.072103 0.000000
# 6 0.000000 0.000000 0.000000 -0.066067 0.000000 0.078497
#
#
# Mechanical properties :
#
#
# Convention : Reuss Voigt Hill
#
# Bulk Modulus (GPa) = 65.70433 72.87557 69.28995
# Shear Modulus (GPa) = 14.32918 23.72167 19.02543
#
# Velocity S-wave (km/s) = 2.84517 3.66075 3.27842
# Velocity P-wave (km/s) = 6.92182 7.68360 7.31264
#
# Compressibility (1/GPa) = 0.01521970
#
# Stress axis : x y z
#
# Youngs Moduli (GPa) = 65.63161 83.22381 106.76414
#
# Poissons Ratio (x) = 0.46946 0.15522
# Poissons Ratio (y) = 0.37023 0.38485
# Poissons Ratio (z) = 0.09542 0.29999
#
# Static dielectric constant tensor:
#      x y z
#    x 3.211940 0.000000 -0.024610 
#    y 0.000000 3.645470 0.000000 
#    z -0.024610 0.000000 2.912720 
# 
# 
# High freq. dielectric constant tensor:
#      x y z
#    x 1.679330 0.000000 -0.000890 
#    y 0.000000 1.712020 0.000000 
#    z -0.000890 0.000000 1.632090 
# 
# From -- ./inp_files/299999.got.cif
#   From: 2010.06.25/outbox.cif.g09.slc.cpg/sg12_150_cif.got.tgz:299999.got - 2010.06.28 00:19:55.
