data_PCOD8079735
_publ_section_title
;
Structure prediction by ZEFSAII (Michael W. Deem and Ramdas Pophale) SiO2 
 PCOD8079735
Probable space group: C 2/M
;
_chemical_formula_sum "Si O2"
_cell_formula_units_Z 56
_cell_length_a 15.448588
_cell_length_b 17.675953
_cell_length_c 21.694248
_cell_angle_alpha 90.000000
_cell_angle_beta 26.684877
_cell_angle_gamma 90.000000
_cell_volume 2660.375992
_symmetry_space_group_name_H-M "C 2/M"
_symmetry_group_IT_number 12
_symmetry_cell_setting 'monoclinic'
loop_
_space_group_symop_operation_xyz
x,y,z
-x,y,-z
-x,-y,-z
x,-y,z
1/2+x,1/2+y,z
1/2-x,1/2+y,-z
1/2-x,1/2-y,-z
1/2+x,1/2-y,z
loop_
_atom_site_type_symbol
_atom_site_label
_atom_site_fract_x
_atom_site_fract_y
_atom_site_fract_z
Si Si1 0.224455 0.087362 0.843753
Si Si2 0.670271 0.811285 0.116742
Si Si3 0.209044 0.146806 0.218464
Si Si4 0.102086 0.081626 0.500015
Si Si5 0.603781 0.209176 0.343383
Si Si6 0.383299 0.166740 0.984784
Si Si7 0.735953 0.238941 0.629890
O O1 0.343782 0.122774 0.824088
O O2 0.298561 0.128538 0.733830
O O3 0.276707 0.000000 0.802803
O O4 0.000000 0.099644 0.000000
O O5 0.859735 0.758819 0.005034
O O6 0.492411 0.750013 0.232014
O O7 0.672976 0.855657 0.049224
O O8 0.135286 0.234414 0.265732
O O9 0.249043 0.125700 0.121627
O O10 0.052372 0.090841 0.346533
O O11 0.400289 0.142164 0.138571
O O12 0.243977 0.152653 0.407620
O O13 0.000000 0.078941 0.500000
O O14 0.206294 0.000000 0.445232
O O15 0.702799 0.251221 0.338153
O O16 0.371626 0.203621 0.503888
#
# Coordination Sequence:
#
# PCOD8079735 Si02
#       7
#     8   8   8   8   8   8   8
#     4  11  25  42  61  86 122 165 203 247 304 360
#     4  11  21  34  58  91 115 149 201 254 301 340
#     4  10  17  35  55  86 115 151 195 239 292 358
#     4  10  18  32  55  82 118 155 185 225 291 366
#     4  10  18  37  60  88 117 151 200 247 294 359
#     4  10  20  31  57  88 114 144 197 253 293 339
#     4  10  20  35  60  93 114 149 201 251 295 354
#
# _framework density 21.049655999999999
#
# number of rings (size 3 to 8) (size 9 to 14) (size 15 to 20)
#    0.000    1.714    5.714    0.857    2.000    1.143 
#    0.000    4.286    0.000    0.000    0.000    0.000 
#    0.000    0.000    0.000    0.000    0.000    0.000 
#
# Total GULP energy -346916.394984 kJ/mol
# GULP energy per Si atom -12389.871249 kJ/mol
# Density = 2.100175 g / cm^3
# Si number density = 21.049656 Si / 1000 Ang^3
#
#
#
# Elastic Constant Matrix: (Units=GPa)
#
#
# Indices 1 2 3 4 5 6 
#
# 1 67.7556 15.3388 28.0232 -0.0206 9.9235 -0.0104
# 2 15.3388 108.5111 34.1099 -0.0066 7.8838 0.0103
# 3 28.0232 34.1099 92.3544 -0.0216 19.6257 0.0635
# 4 -0.0206 -0.0066 -0.0216 28.9218 0.0233 1.3983
# 5 9.9235 7.8838 19.6257 0.0233 30.1120 -0.0018
# 6 -0.0104 0.0103 0.0635 1.3983 -0.0018 3.4083
#
#
#
# Elastic Compliance Matrix: (Units=1/GPa)
#
#
# Indices 1 2 3 4 5 6 
#
# 1 0.017125 -0.000873 -0.004321 0.000004 -0.002598 0.000132
# 2 -0.000873 0.010472 -0.003577 -0.000002 -0.000123 0.000033
# 3 -0.004321 -0.003577 0.015042 0.000028 -0.007443 -0.000298
# 4 0.000004 -0.000002 0.000028 0.035276 -0.000047 -0.014473
# 5 -0.002598 -0.000123 -0.007443 -0.000047 0.038949 0.000171
# 6 0.000132 0.000033 -0.000298 -0.014473 0.000171 0.299342
#
#
# Mechanical properties :
#
#
# Convention : Reuss Voigt Hill
#
# Bulk Modulus (GPa) = 39.84755 47.06277 43.45516
# Shear Modulus (GPa) = 11.30930 25.23172 18.27051
#
# Velocity S-wave (km/s) = 2.32042 3.46595 2.94933
# Velocity P-wave (km/s) = 5.11375 6.19867 5.68217
#
# Compressibility (1/GPa) = 0.02509565
#
# Stress axis : x y z
#
# Youngs Moduli (GPa) = 58.39569 95.48946 66.48036
#
# Poissons Ratio (x) = 0.08341 0.28729
# Poissons Ratio (y) = 0.05101 0.23778
# Poissons Ratio (z) = 0.25235 0.34154
#
# Static dielectric constant tensor:
#      x y z
#    x 3.677060 -0.000010 0.200590 
#    y -0.000010 3.673350 0.000120 
#    z 0.200590 0.000120 4.141480 
# 
# 
# High freq. dielectric constant tensor:
#      x y z
#    x 1.813210 0.000000 0.016710 
#    y 0.000000 1.776270 0.000010 
#    z 0.016710 0.000010 1.843880 
# 
# From -- ./inp_files/311670.got.cif
#   From: 2010.06.25/outbox.cif.g09.slc.cpg/sg12_156_cif.got.tgz:311670.got - 2010.06.28 00:19:55.
