data_PCOD8079847
_publ_section_title
;
Structure prediction by ZEFSAII (Michael W. Deem and Ramdas Pophale) SiO2 
 PCOD8079847
Probable space group: C 2/M
;
_chemical_formula_sum "Si O2"
_cell_formula_units_Z 56
_cell_length_a 28.102443
_cell_length_b 9.229469
_cell_length_c 17.464734
_cell_angle_alpha 90.000000
_cell_angle_beta 127.213840
_cell_angle_gamma 90.000000
_cell_volume 3607.490630
_symmetry_space_group_name_H-M "C 2/M"
_symmetry_group_IT_number 12
_symmetry_cell_setting 'monoclinic'
loop_
_space_group_symop_operation_xyz
x,y,z
-x,y,-z
-x,-y,-z
x,-y,z
1/2+x,1/2+y,z
1/2-x,1/2+y,-z
1/2-x,1/2-y,-z
1/2+x,1/2-y,z
loop_
_atom_site_type_symbol
_atom_site_label
_atom_site_fract_x
_atom_site_fract_y
_atom_site_fract_z
Si Si1 0.850159 0.335689 0.967775
Si Si2 0.810956 0.667557 0.545154
Si Si3 0.714660 0.669871 0.793248
Si Si4 0.692720 0.832130 0.913885
Si Si5 0.350684 0.668302 0.718043
Si Si6 0.932289 0.171007 0.935933
Si Si7 0.218396 0.335471 0.647869
O O1 0.862618 0.500000 0.954666
O O2 0.783917 0.290862 0.875481
O O3 0.899413 0.235085 0.977579
O O4 0.856525 0.319261 0.066397
O O5 0.803303 0.500000 0.560096
O O6 0.750000 0.750000 0.500000
O O7 0.860405 0.740963 0.648656
O O8 0.825370 0.683128 0.468521
O O9 0.701946 0.500000 0.787010
O O10 0.673492 0.752880 0.816276
O O11 0.695842 0.727055 0.691448
O O12 0.707947 0.000000 0.912674
O O13 0.750000 0.750000 0.000000
O O14 0.357089 0.500000 0.703832
O O15 0.400535 0.720567 0.826603
O O16 0.286229 0.703195 0.691221
O O17 0.929205 0.000000 0.942025
O O18 0.000000 0.228059 0.000000
O O19 0.215631 0.500000 0.675943
#
# Coordination Sequence:
#
# PCOD8079847 Si02
#       7
#     8   8   8   8   8   8   8
#     4   9  18  30  42  59  82 110 143 178 215 250
#     4   9  17  27  40  59  81 109 142 173 210 254
#     4  10  18  26  40  63  86 112 143 171 207 253
#     4   9  17  28  41  59  82 109 141 173 209 253
#     4   9  17  29  42  58  81 111 144 178 217 252
#     4  10  20  32  46  63  83 112 150 186 218 252
#     4   9  16  26  40  59  83 113 142 171 208 249
#
# _framework density 15.523256
#
# number of rings (size 3 to 8) (size 9 to 14) (size 15 to 20)
#    0.000    2.714    1.429    3.000    0.000    6.571 
#    0.000    0.000    0.000    0.000    0.000    0.000 
#    0.000    1.143    0.000   12.857    0.000    5.714 
#
# Total GULP energy -347027.077150 kJ/mol
# GULP energy per Si atom -12393.824184 kJ/mol
# Density = 1.548792 g / cm^3
# Si number density = 15.523256 Si / 1000 Ang^3
#
#
#
# Elastic Constant Matrix: (Units=GPa)
#
#
# Indices 1 2 3 4 5 6 
#
# 1 55.0399 37.2878 45.2704 0.0000 -14.8877 0.0000
# 2 37.2878 85.5125 50.1123 0.0000 -20.1583 0.0000
# 3 45.2704 50.1123 100.0808 0.0000 -23.5361 0.0000
# 4 0.0000 0.0000 0.0000 27.0537 0.0000 -10.4378
# 5 -14.8877 -20.1583 -23.5361 0.0000 23.6330 0.0000
# 6 0.0000 0.0000 0.0000 -10.4378 0.0000 21.5914
#
#
#
# Elastic Compliance Matrix: (Units=1/GPa)
#
#
# Indices 1 2 3 4 5 6 
#
# 1 0.032536 -0.007283 -0.010070 0.000000 0.004255 0.000000
# 2 -0.007283 0.019315 -0.004677 0.000000 0.007230 0.000000
# 3 -0.010070 -0.004677 0.018881 0.000000 0.008471 0.000000
# 4 0.000000 0.000000 0.000000 0.045438 0.000000 0.021966
# 5 0.004255 0.007230 0.008471 0.000000 0.059597 0.000000
# 6 0.000000 0.000000 0.000000 0.021966 0.000000 0.056934
#
#
# Mechanical properties :
#
#
# Convention : Reuss Voigt Hill
#
# Bulk Modulus (GPa) = 37.49188 56.21937 46.85563
# Shear Modulus (GPa) = 17.50388 21.65313 19.57851
#
# Velocity S-wave (km/s) = 3.36160 3.73887 3.55524
# Velocity P-wave (km/s) = 6.26671 7.41173 6.86314
#
# Compressibility (1/GPa) = 0.02667244
#
# Stress axis : x y z
#
# Youngs Moduli (GPa) = 30.73489 51.77342 52.96424
#
# Poissons Ratio (x) = 0.37707 0.53334
# Poissons Ratio (y) = 0.22385 0.24770
# Poissons Ratio (z) = 0.30950 0.24213
#
# Static dielectric constant tensor:
#      x y z
#    x 2.800180 0.000000 -0.448350 
#    y 0.000000 3.076790 0.000000 
#    z -0.448350 0.000000 3.353940 
# 
# 
# High freq. dielectric constant tensor:
#      x y z
#    x 1.544430 0.000000 -0.042300 
#    y 0.000000 1.607220 0.000000 
#    z -0.042300 0.000000 1.584520 
# 
# From -- ./inp_files/291674.got.cif
#   From: 2010.06.25/outbox.cif.g09.slc.cpg/sg12_146_cif.got.tgz:291674.got - 2010.06.28 00:19:55.
