data_PCOD8079403
_publ_section_title
;
Structure prediction by ZEFSAII (Michael W. Deem and Ramdas Pophale) SiO2 
 PCOD8079403
Probable space group: C 2/M
;
_chemical_formula_sum "Si O2"
_cell_formula_units_Z 64
_cell_length_a 11.070051
_cell_length_b 26.166231
_cell_length_c 22.097571
_cell_angle_alpha 90.000000
_cell_angle_beta 30.764002
_cell_angle_gamma 90.000000
_cell_volume 3274.037092
_symmetry_space_group_name_H-M "C 2/M"
_symmetry_group_IT_number 12
_symmetry_cell_setting 'monoclinic'
loop_
_space_group_symop_operation_xyz
x,y,z
-x,y,-z
-x,-y,-z
x,-y,z
1/2+x,1/2+y,z
1/2-x,1/2+y,-z
1/2-x,1/2-y,-z
1/2+x,1/2-y,z
loop_
_atom_site_type_symbol
_atom_site_label
_atom_site_fract_x
_atom_site_fract_y
_atom_site_fract_z
Si Si1 0.835284 0.557060 0.774721
Si Si2 0.265270 0.307860 0.375067
Si Si3 0.972993 0.855442 0.629597
Si Si4 0.109763 0.214253 0.013647
Si Si5 0.645667 0.445088 0.492996
Si Si6 0.750894 0.659672 0.747347
Si Si7 0.707887 0.193144 0.599540
Si Si8 0.973681 0.367062 0.806426
O O1 0.709952 0.500000 0.829629
O O2 0.720603 0.599563 0.778893
O O3 0.089123 0.546884 0.638718
O O4 0.852531 0.579422 0.836787
O O5 0.453911 0.327132 0.341849
O O6 0.360887 0.329946 0.270321
O O7 0.277601 0.246789 0.373072
O O8 0.000000 0.328057 0.500000
O O9 0.122017 0.907679 0.560273
O O10 0.037132 0.820426 0.541744
O O11 0.696711 0.870244 0.755612
O O12 0.885856 0.191505 0.143452
O O13 0.250000 0.250000 0.000000
O O14 0.279745 0.168732 0.919522
O O15 0.000000 0.241533 0.000000
O O16 0.500000 0.420314 0.500000
O O17 0.532395 0.500000 0.558674
O O18 0.013659 0.686159 0.629024
O O19 0.594053 0.151865 0.692907
#
# Coordination Sequence:
#
# PCOD8079403 Si02
#       8
#     8   8   8   8   8   8   8   8
#     4  10  19  36  64  88 118 155 196 253 314 354
#     4  12  24  35  56  84 122 164 199 245 313 380
#     4  12  21  35  56  90 123 157 202 253 307 371
#     4  12  26  43  64  86 124 170 209 252 306 367
#     4  10  17  30  54  87 121 153 187 246 311 361
#     4  11  24  42  56  86 123 154 210 251 296 371
#     4  11  21  35  57  82 119 154 195 250 306 361
#     4  11  22  37  59  88 120 152 206 253 303 365
#
# _framework density 19.547732
#
# number of rings (size 3 to 8) (size 9 to 14) (size 15 to 20)
#    0.000    0.875    7.500    2.250    3.500    0.000 
#    0.000    1.875    0.000    2.250    0.000    0.000 
#    0.000    4.000    0.000    0.000    0.000    0.000 
#
# Total GULP energy -396419.526271 kJ/mol
# GULP energy per Si atom -12388.110196 kJ/mol
# Density = 1.950324 g / cm^3
# Si number density = 19.547732 Si / 1000 Ang^3
#
#
#
# Elastic Constant Matrix: (Units=GPa)
#
#
# Indices 1 2 3 4 5 6 
#
# 1 74.9031 47.2454 10.1306 -0.0187 14.4088 -0.0329
# 2 47.2454 133.0936 14.4283 -0.0067 4.2839 -0.0064
# 3 10.1306 14.4283 47.1371 0.0336 4.8078 0.0210
# 4 -0.0187 -0.0067 0.0336 25.4614 0.0181 4.1858
# 5 14.4088 4.2839 4.8078 0.0181 22.2845 0.0010
# 6 -0.0329 -0.0064 0.0210 4.1858 0.0010 24.3434
#
#
#
# Elastic Compliance Matrix: (Units=1/GPa)
#
#
# Indices 1 2 3 4 5 6 
#
# 1 0.019804 -0.006547 -0.001099 0.000019 -0.011310 0.000023
# 2 -0.006547 0.009958 -0.001920 -0.000001 0.002733 -0.000005
# 3 -0.001099 -0.001920 0.022422 -0.000025 -0.003758 -0.000017
# 4 0.000019 -0.000001 -0.000025 0.040418 -0.000039 -0.006950
# 5 -0.011310 0.002733 -0.003758 -0.000039 0.052472 -0.000007
# 6 0.000023 -0.000005 -0.000017 -0.006950 -0.000007 0.042274
#
#
# Mechanical properties :
#
#
# Convention : Reuss Voigt Hill
#
# Bulk Modulus (GPa) = 30.25454 44.30471 37.27963
# Shear Modulus (GPa) = 22.98890 26.63981 24.81435
#
# Velocity S-wave (km/s) = 3.43306 3.69563 3.56676
# Velocity P-wave (km/s) = 5.58797 6.39721 6.00624
#
# Compressibility (1/GPa) = 0.03305289
#
# Stress axis : x y z
#
# Youngs Moduli (GPa) = 50.49414 100.42506 44.59946
#
# Poissons Ratio (x) = 0.65748 0.04901
# Poissons Ratio (y) = 0.33058 0.08562
# Poissons Ratio (z) = 0.05548 0.19278
#
# Static dielectric constant tensor:
#      x y z
#    x 3.547370 0.009010 -0.098070 
#    y 0.009010 36.560570 0.001560 
#    z -0.098070 0.001560 3.438490 
# 
# 
# High freq. dielectric constant tensor:
#      x y z
#    x 1.752590 0.000000 -0.012310 
#    y 0.000000 1.756600 0.000000 
#    z -0.012310 0.000000 1.745950 
# 
# From -- ./inp_files/307494.got.cif
#   From: 2010.06.25/outbox.cif.g09.slc.cpg/sg12_154_cif.got.tgz:307494.got - 2010.06.28 00:19:55.
