data_PCOD8079019
_publ_section_title
;
Structure prediction by ZEFSAII (Michael W. Deem and Ramdas Pophale) SiO2 
 PCOD8079019
Probable space group: C 2/M
;
_chemical_formula_sum "Si O2"
_cell_formula_units_Z 64
_cell_length_a 27.735134
_cell_length_b 21.890219
_cell_length_c 17.944737
_cell_angle_alpha 90.000000
_cell_angle_beta 160.575256
_cell_angle_gamma 90.000000
_cell_volume 3623.251765
_symmetry_space_group_name_H-M "C 2/M"
_symmetry_group_IT_number 12
_symmetry_cell_setting 'monoclinic'
loop_
_space_group_symop_operation_xyz
x,y,z
-x,y,-z
-x,-y,-z
x,-y,z
1/2+x,1/2+y,z
1/2-x,1/2+y,-z
1/2-x,1/2-y,-z
1/2+x,1/2-y,z
loop_
_atom_site_type_symbol
_atom_site_label
_atom_site_fract_x
_atom_site_fract_y
_atom_site_fract_z
Si Si1 0.746335 0.125411 0.415760
Si Si2 0.195995 0.777238 0.137070
Si Si3 0.169990 0.684213 0.519779
Si Si4 0.514312 0.303648 0.749775
Si Si5 0.912401 0.254083 0.797999
Si Si6 0.412851 0.335187 0.448560
Si Si7 0.198740 0.429858 0.188532
Si Si8 0.103381 0.568404 0.334805
O O1 0.907829 0.150117 0.638706
O O2 0.646500 0.179024 0.302596
O O3 0.681420 0.101245 0.243662
O O4 0.732240 0.075021 0.460719
O O5 0.252801 0.820999 0.285871
O O6 0.291055 0.716944 0.274819
O O7 0.175595 0.807205 0.024494
O O8 0.023562 0.762005 0.894697
O O9 0.042114 0.733624 0.337408
O O10 0.280892 0.705984 0.616096
O O11 0.115832 0.616428 0.420936
O O12 0.526112 0.327507 0.681914
O O13 0.000000 0.253823 0.000000
O O14 0.500000 0.330998 0.500000
O O15 0.329197 0.399261 0.331986
O O16 0.241201 0.500000 0.261362
O O17 0.049830 0.421374 0.928163
O O18 0.114397 0.500000 0.384365
#
# Coordination Sequence:
#
# PCOD8079019 Si02
#       8
#     8   8   8   8   8   8   8   8
#     4  10  17  28  46  73 101 121 154 192 226 271
#     4  10  18  31  49  68  95 125 155 189 233 285
#     4   9  18  29  45  71  98 124 157 190 223 272
#     4   9  18  31  51  72  93 124 152 188 240 286
#     4   9  15  25  46  69  92 124 151 184 227 271
#     4  10  21  34  49  72  96 117 152 202 245 282
#     4  10  20  32  47  67  94 129 160 190 233 280
#     4  11  20  29  45  69  99 133 162 189 222 264
#
# _framework density 17.663691
#
# number of rings (size 3 to 8) (size 9 to 14) (size 15 to 20)
#    0.000    2.250    0.000    6.750    0.000    3.750 
#    0.000    0.000    0.000   12.375    0.000    0.000 
#    0.000   10.000    0.000    0.000    0.000    0.000 
#
# Total GULP energy -396551.516859 kJ/mol
# GULP energy per Si atom -12392.234902 kJ/mol
# Density = 1.762349 g / cm^3
# Si number density = 17.663691 Si / 1000 Ang^3
#
#
#
# Elastic Constant Matrix: (Units=GPa)
#
#
# Indices 1 2 3 4 5 6 
#
# 1 82.7235 33.1752 32.9535 0.0000 -15.6930 0.0000
# 2 33.1752 119.6424 35.2106 0.0000 -8.1923 0.0000
# 3 32.9535 35.2106 64.3266 0.0000 -30.7843 0.0000
# 4 0.0000 0.0000 0.0000 20.4188 0.0000 -8.2385
# 5 -15.6930 -8.1923 -30.7843 0.0000 28.2278 0.0000
# 6 0.0000 0.0000 0.0000 -8.2385 0.0000 14.7300
#
#
#
# Elastic Compliance Matrix: (Units=1/GPa)
#
#
# Indices 1 2 3 4 5 6 
#
# 1 0.015763 -0.002508 -0.005975 0.000000 0.001519 0.000000
# 2 -0.002508 0.010946 -0.008060 0.000000 -0.007008 0.000000
# 3 -0.005975 -0.008060 0.042480 0.000000 0.040666 0.000000
# 4 0.000000 0.000000 0.000000 0.063247 0.000000 0.035374
# 5 0.001519 -0.007008 0.040666 0.000000 0.078586 0.000000
# 6 0.000000 0.000000 0.000000 0.035374 0.000000 0.087673
#
#
# Mechanical properties :
#
#
# Convention : Reuss Voigt Hill
#
# Bulk Modulus (GPa) = 27.69999 52.15232 39.92615
# Shear Modulus (GPa) = 14.54263 23.69886 19.12074
#
# Velocity S-wave (km/s) = 2.87244 3.66686 3.29369
# Velocity P-wave (km/s) = 5.16887 6.89326 6.09238
#
# Compressibility (1/GPa) = 0.03610110
#
# Stress axis : x y z
#
# Youngs Moduli (GPa) = 63.44059 91.35698 23.54051
#
# Poissons Ratio (x) = 0.22915 0.14066
# Poissons Ratio (y) = 0.15913 0.18975
# Poissons Ratio (z) = 0.37906 0.73638
#
# Static dielectric constant tensor:
#      x y z
#    x 2.923030 0.000000 -0.455940 
#    y 0.000000 3.352060 0.000000 
#    z -0.455940 0.000000 3.158130 
# 
# 
# High freq. dielectric constant tensor:
#      x y z
#    x 1.671370 0.000000 -0.029710 
#    y 0.000000 1.662580 0.000000 
#    z -0.029710 0.000000 1.674080 
# 
# From -- ./inp_files/294187.got.cif
#   From: 2010.06.25/outbox.cif.g09.slc.cpg/sg12_148_cif.got.tgz:294187.got - 2010.06.28 00:19:55.
