data_PCOD8079262
_publ_section_title
;
Structure prediction by ZEFSAII (Michael W. Deem and Ramdas Pophale) SiO2 
 PCOD8079262
Probable space group: C 2/M
;
_chemical_formula_sum "Si O2"
_cell_formula_units_Z 64
_cell_length_a 28.483603
_cell_length_b 9.341128
_cell_length_c 14.609421
_cell_angle_alpha 90.000000
_cell_angle_beta 120.899897
_cell_angle_gamma 90.000000
_cell_volume 3335.399496
_symmetry_space_group_name_H-M "C 2/M"
_symmetry_group_IT_number 12
_symmetry_cell_setting 'monoclinic'
loop_
_space_group_symop_operation_xyz
x,y,z
-x,y,-z
-x,-y,-z
x,-y,z
1/2+x,1/2+y,z
1/2-x,1/2+y,-z
1/2-x,1/2-y,-z
1/2+x,1/2-y,z
loop_
_atom_site_type_symbol
_atom_site_label
_atom_site_fract_x
_atom_site_fract_y
_atom_site_fract_z
Si Si1 0.699707 0.668911 0.905370
Si Si2 0.885367 0.336072 0.696773
Si Si3 0.419857 0.330496 0.156908
Si Si4 0.985676 0.840025 0.390554
Si Si5 0.811827 0.166477 0.310046
Si Si6 0.233894 0.666795 0.392098
Si Si7 0.498888 0.169151 0.892665
Si Si8 0.605875 0.657572 0.463914
O O1 0.711482 0.500000 0.916697
O O2 0.644912 0.700963 0.909822
O O3 0.692958 0.733772 0.795839
O O4 0.750000 0.750000 0.000000
O O5 0.897504 0.500000 0.688948
O O6 0.830179 0.313325 0.700511
O O7 0.939938 0.272333 0.798406
O O8 0.870223 0.265760 0.585219
O O9 0.432464 0.500000 0.161912
O O10 0.441463 0.271115 0.277671
O O11 0.450700 0.248628 0.106356
O O12 0.041195 0.843273 0.388955
O O13 0.000000 0.755901 0.500000
O O14 0.964970 0.000000 0.396628
O O15 0.767702 0.227218 0.338860
O O16 0.872492 0.199147 0.412419
O O17 0.801578 0.000000 0.286003
O O18 0.246779 0.500000 0.422512
O O19 0.250000 0.750000 0.500000
O O20 0.506186 0.000000 0.884130
O O21 0.500000 0.208524 0.000000
O O22 0.629589 0.500000 0.464640
#
# Coordination Sequence:
#
# PCOD8079262 Si02
#       8
#     8   8   8   8   8   8   8   8
#     4  10  22  40  60  83 112 147 189 236 279 326
#     4  10  20  33  50  76 110 142 176 224 273 318
#     4  10  20  36  59  86 112 140 183 238 282 320
#     4   9  16  27  49  81 111 138 173 218 269 325
#     4   9  18  33  55  82 110 143 185 227 270 329
#     4  10  19  32  52  78 109 145 181 223 274 328
#     4  10  22  39  58  81 112 152 192 226 273 340
#     4  10  17  29  53  80 105 138 178 217 267 329
#
# _framework density 19.188108
#
# number of rings (size 3 to 8) (size 9 to 14) (size 15 to 20)
#    0.000    2.250    2.500    0.750    0.000    4.750 
#    0.000    3.750    0.000    3.000    0.000    0.000 
#    0.000    0.000    0.000    0.000    0.000    0.000 
#
# Total GULP energy -396499.887563 kJ/mol
# GULP energy per Si atom -12390.621486 kJ/mol
# Density = 1.914444 g / cm^3
# Si number density = 19.188108 Si / 1000 Ang^3
#
#
#
# Elastic Constant Matrix: (Units=GPa)
#
#
# Indices 1 2 3 4 5 6 
#
# 1 109.2256 35.3035 58.3621 0.0000 9.1780 0.0000
# 2 35.3035 35.3801 34.9310 0.0000 0.9130 0.0000
# 3 58.3621 34.9310 129.4382 0.0000 4.2404 0.0000
# 4 0.0000 0.0000 0.0000 24.3490 0.0000 0.6397
# 5 9.1780 0.9130 4.2404 0.0000 36.5935 0.0000
# 6 0.0000 0.0000 0.0000 0.6397 0.0000 25.6536
#
#
#
# Elastic Compliance Matrix: (Units=1/GPa)
#
#
# Indices 1 2 3 4 5 6 
#
# 1 0.015001 -0.011330 -0.003606 0.000000 -0.003062 0.000000
# 2 -0.011330 0.047089 -0.007683 0.000000 0.002557 0.000000
# 3 -0.003606 -0.007683 0.011433 0.000000 -0.000229 0.000000
# 4 0.000000 0.000000 0.000000 0.041096 0.000000 -0.001025
# 5 -0.003062 0.002557 -0.000229 0.000000 0.028058 0.000000
# 6 0.000000 0.000000 0.000000 -0.001025 0.000000 0.039006
#
#
# Mechanical properties :
#
#
# Convention : Reuss Voigt Hill
#
# Bulk Modulus (GPa) = 35.35396 59.02634 47.19015
# Shear Modulus (GPa) = 21.15505 27.01570 24.08538
#
# Velocity S-wave (km/s) = 3.32401 3.75632 3.54676
# Velocity P-wave (km/s) = 5.76168 7.04571 6.43580
#
# Compressibility (1/GPa) = 0.02828538
#
# Stress axis : x y z
#
# Youngs Moduli (GPa) = 66.66026 21.23631 87.46914
#
# Poissons Ratio (x) = 0.24060 0.31543
# Poissons Ratio (y) = 0.75523 0.67204
# Poissons Ratio (z) = 0.24039 0.16316
#
# Static dielectric constant tensor:
#      x y z
#    x 3.740950 0.000000 0.086710 
#    y 0.000000 3.152320 0.000000 
#    z 0.086710 0.000000 3.614830 
# 
# 
# High freq. dielectric constant tensor:
#      x y z
#    x 1.760930 0.000000 0.009620 
#    y 0.000000 1.699640 0.000000 
#    z 0.009620 0.000000 1.746920 
# 
# From -- ./inp_files/249145.got.cif
#   From: 2010.06.25/outbox.cif.g09.slc.cpg/sg12_125_cif.got.tgz:249145.got - 2010.06.28 00:19:55.
