data_PCOD8079050
_publ_section_title
;
Structure prediction by ZEFSAII (Michael W. Deem and Ramdas Pophale) SiO2 
 PCOD8079050
Probable space group: C 2/M
;
_chemical_formula_sum "Si O2"
_cell_formula_units_Z 56
_cell_length_a 30.066873
_cell_length_b 13.809977
_cell_length_c 11.894960
_cell_angle_alpha 90.000000
_cell_angle_beta 142.462663
_cell_angle_gamma 90.000000
_cell_volume 3009.261361
_symmetry_space_group_name_H-M "C 2/M"
_symmetry_group_IT_number 12
_symmetry_cell_setting 'monoclinic'
loop_
_space_group_symop_operation_xyz
x,y,z
-x,y,-z
-x,-y,-z
x,-y,z
1/2+x,1/2+y,z
1/2-x,1/2+y,-z
1/2-x,1/2-y,-z
1/2+x,1/2-y,z
loop_
_atom_site_type_symbol
_atom_site_label
_atom_site_fract_x
_atom_site_fract_y
_atom_site_fract_z
Si Si1 0.790152 0.608970 0.319272
Si Si2 0.637027 0.695118 0.528806
Si Si3 0.000803 0.110520 0.868743
Si Si4 0.159505 0.395878 0.819501
Si Si5 0.788728 0.391010 0.837717
Si Si6 0.361600 0.304916 0.976585
Si Si7 0.915959 0.792832 0.331288
O O1 0.812479 0.500000 0.405075
O O2 0.849227 0.690843 0.472772
O O3 0.786456 0.615845 0.177160
O O4 0.709713 0.634453 0.203140
O O5 0.569663 0.664422 0.318827
O O6 0.707900 0.634425 0.632073
O O7 0.621955 0.670128 0.630054
O O8 0.072190 0.163959 0.967959
O O9 0.000854 0.000000 0.826615
O O10 0.000000 0.116933 0.000000
O O11 0.120551 0.500000 0.741699
O O12 0.091458 0.323161 0.683591
O O13 0.214064 0.384072 0.033155
O O14 0.810754 0.500000 0.840462
O O15 0.847572 0.309131 0.919604
O O16 0.378253 0.329952 0.140949
O O17 0.000000 0.824423 0.500000
#
# Coordination Sequence:
#
# PCOD8079050 Si02
#       7
#     8   8   8   8   8   8   8
#     4   9  17  31  53  79 108 142 179 216 257 309
#     4  10  19  34  55  80 110 141 175 217 262 308
#     4  11  24  41  58  76 103 139 175 213 263 319
#     4   8  15  26  43  72 109 148 178 203 250 312
#     4   9  17  31  53  79 108 142 179 216 257 309
#     4  10  19  34  55  80 110 141 175 217 262 308
#     4  10  17  28  47  77 114 140 168 214 261 308
#
# _framework density 18.609217999999998
#
# number of rings (size 3 to 8) (size 9 to 14) (size 15 to 20)
#    0.000    2.429    1.429    1.714    0.000    3.714 
#    0.000    6.429    0.000    3.429    0.000    0.000 
#    0.000    0.000    0.000    0.000    0.000    0.000 
#
# Total GULP energy -346931.943128 kJ/mol
# GULP energy per Si atom -12390.426540 kJ/mol
# Density = 1.856686 g / cm^3
# Si number density = 18.609218 Si / 1000 Ang^3
#
#
#
# Elastic Constant Matrix: (Units=GPa)
#
#
# Indices 1 2 3 4 5 6 
#
# 1 53.8846 43.4867 53.8027 0.0000 12.1674 0.0000
# 2 43.4867 136.7659 45.9064 0.0000 12.3015 0.0000
# 3 53.8027 45.9064 60.8898 0.0000 21.8012 0.0000
# 4 0.0000 0.0000 0.0000 20.2293 0.0000 2.7307
# 5 12.1674 12.3015 21.8012 0.0000 24.1384 0.0000
# 6 0.0000 0.0000 0.0000 2.7307 0.0000 18.9901
#
#
#
# Elastic Compliance Matrix: (Units=1/GPa)
#
#
# Indices 1 2 3 4 5 6 
#
# 1 0.307850 -0.003431 -0.317012 0.000000 0.132889 0.000000
# 2 -0.003431 0.009929 -0.004820 0.000000 0.001023 0.000000
# 3 -0.317012 -0.004820 0.357774 0.000000 -0.160881 0.000000
# 4 0.000000 0.000000 0.000000 0.050412 0.000000 -0.007249
# 5 0.132889 0.001023 -0.160881 0.000000 0.119225 0.000000
# 6 0.000000 0.000000 0.000000 -0.007249 0.000000 0.053701
#
#
# Mechanical properties :
#
#
# Convention : Reuss Voigt Hill
#
# Bulk Modulus (GPa) = 39.95808 59.77022 49.86415
# Shear Modulus (GPa) = 3.20974 19.89453 11.55213
#
# Velocity S-wave (km/s) = 1.31475 3.27321 2.49424
# Velocity P-wave (km/s) = 4.88094 6.81715 5.92862
#
# Compressibility (1/GPa) = 0.02502623
#
# Stress axis : x y z
#
# Youngs Moduli (GPa) = 3.24833 100.71951 2.79506
#
# Poissons Ratio (x) = 0.34557 0.88607
# Poissons Ratio (y) = 0.01115 0.01347
# Poissons Ratio (z) = 1.02976 0.48547
#
# Static dielectric constant tensor:
#      x y z
#    x 3.134310 0.000000 0.069180 
#    y 0.000000 3.702660 0.000000 
#    z 0.069180 0.000000 3.157010 
# 
# 
# High freq. dielectric constant tensor:
#      x y z
#    x 1.695010 0.000000 0.015410 
#    y 0.000000 1.730670 0.000000 
#    z 0.015410 0.000000 1.701540 
# 
# From -- ./inp_files/189218.got.cif
#   From: 2010.06.25/outbox.cif.g09.slc.cpg/sg12_95_cif.got.tgz:189218.got - 2010.06.28 00:19:55.
