data_PCOD8079996
_publ_section_title
;
Structure prediction by ZEFSAII (Michael W. Deem and Ramdas Pophale) SiO2 
 PCOD8079996
Probable space group: C 2/M
;
_chemical_formula_sum "Si O2"
_cell_formula_units_Z 64
_cell_length_a 24.545976
_cell_length_b 9.270371
_cell_length_c 16.931433
_cell_angle_alpha 90.000000
_cell_angle_beta 85.082838
_cell_angle_gamma 90.000000
_cell_volume 3838.573312
_symmetry_space_group_name_H-M "C 2/M"
_symmetry_group_IT_number 12
_symmetry_cell_setting 'monoclinic'
loop_
_space_group_symop_operation_xyz
x,y,z
-x,y,-z
-x,-y,-z
x,-y,z
1/2+x,1/2+y,z
1/2-x,1/2+y,-z
1/2-x,1/2-y,-z
1/2+x,1/2-y,z
loop_
_atom_site_type_symbol
_atom_site_label
_atom_site_fract_x
_atom_site_fract_y
_atom_site_fract_z
Si Si1 0.936529 0.169474 0.227818
Si Si2 0.280054 0.167669 0.837544
Si Si3 0.128646 0.668672 0.294139
Si Si4 0.342527 0.670773 0.129157
Si Si5 0.851362 0.167509 0.951263
Si Si6 0.078733 0.170049 0.432801
Si Si7 0.442405 0.665780 0.819364
Si Si8 0.540963 0.670731 0.603273
O O1 0.887524 0.239802 0.182748
O O2 0.936851 0.235774 0.316763
O O3 0.993817 0.202404 0.176656
O O4 0.926567 0.000000 0.235638
O O5 0.312621 0.202077 0.752806
O O6 0.217438 0.215446 0.832582
O O7 0.304553 0.252752 0.908221
O O8 0.284370 0.000000 0.858835
O O9 0.118657 0.500000 0.305827
O O10 0.126422 0.745330 0.380057
O O11 0.081050 0.732468 0.245448
O O12 0.349858 0.500000 0.126600
O O13 0.352520 0.730892 0.039608
O O14 0.911078 0.193583 0.905536
O O15 0.835475 0.000000 0.953299
O O16 0.080364 0.214818 0.525349
O O17 0.020798 0.223073 0.404555
O O18 0.087719 0.000000 0.421253
O O19 0.434960 0.500000 0.792228
O O20 0.538259 0.500000 0.608811
#
# Coordination Sequence:
#
# PCOD8079996 Si02
#       8
#     8   8   8   8   8   8   8   8
#     4   9  15  25  44  66  89 115 141 173 214 261
#     4   9  18  31  45  62  86 117 149 181 213 249
#     4  10  18  27  42  64  89 115 144 177 216 254
#     4   9  17  28  43  65  89 113 146 183 215 251
#     4   9  17  28  45  69  89 108 141 186 224 251
#     4   9  15  26  45  67  89 110 139 177 214 254
#     4   9  16  27  44  65  89 114 140 174 220 261
#     4   8  14  24  42  67  90 112 137 171 213 258
#
# _framework density 16.672861999999999
#
# number of rings (size 3 to 8) (size 9 to 14) (size 15 to 20)
#    0.000    3.000    1.250    1.500    0.000    1.000 
#    0.000    3.750    0.000    2.250    0.000    3.500 
#    0.000    0.000    0.000    0.000    0.000    0.375 
#
# Total GULP energy -396620.728568 kJ/mol
# GULP energy per Si atom -12394.397768 kJ/mol
# Density = 1.663491 g / cm^3
# Si number density = 16.672862 Si / 1000 Ang^3
#
#
#
# Elastic Constant Matrix: (Units=GPa)
#
#
# Indices 1 2 3 4 5 6 
#
# 1 117.1855 26.4034 70.4066 0.0000 -4.0783 0.0000
# 2 26.4034 32.8456 28.3258 0.0000 -6.3833 0.0000
# 3 70.4066 28.3258 120.5398 0.0000 -16.2794 0.0000
# 4 0.0000 0.0000 0.0000 15.8470 0.0000 -3.9637
# 5 -4.0783 -6.3833 -16.2794 0.0000 23.1201 0.0000
# 6 0.0000 0.0000 0.0000 -3.9637 0.0000 15.4798
#
#
#
# Elastic Compliance Matrix: (Units=1/GPa)
#
#
# Indices 1 2 3 4 5 6 
#
# 1 0.014210 -0.005778 -0.007536 0.000000 -0.004395 0.000000
# 2 -0.005778 0.040995 -0.005379 0.000000 0.006512 0.000000
# 3 -0.007536 -0.005379 0.015009 0.000000 0.007754 0.000000
# 4 0.000000 0.000000 0.000000 0.067421 0.000000 0.017264
# 5 -0.004395 0.006512 0.007754 0.000000 0.049735 0.000000
# 6 0.000000 0.000000 0.000000 0.017264 0.000000 0.069021
#
#
# Mechanical properties :
#
#
# Convention : Reuss Voigt Hill
#
# Bulk Modulus (GPa) = 30.46209 57.87139 44.16674
# Shear Modulus (GPa) = 16.40859 20.58504 18.49682
#
# Velocity S-wave (km/s) = 3.14052 3.51756 3.33437
# Velocity P-wave (km/s) = 5.60898 7.16121 6.43209
#
# Compressibility (1/GPa) = 0.03282769
#
# Stress axis : x y z
#
# Youngs Moduli (GPa) = 70.37319 24.39338 66.62808
#
# Poissons Ratio (x) = 0.14095 0.50208
# Poissons Ratio (y) = 0.40664 0.35839
# Poissons Ratio (z) = 0.53031 0.13121
#
# Static dielectric constant tensor:
#      x y z
#    x 3.139980 0.000000 -0.109230 
#    y 0.000000 2.798860 0.000000 
#    z -0.109230 0.000000 3.504860 
# 
# 
# High freq. dielectric constant tensor:
#      x y z
#    x 1.623670 0.000000 -0.021430 
#    y 0.000000 1.601540 0.000000 
#    z -0.021430 0.000000 1.648300 
# 
# From -- ./inp_files/287628.got.cif
#   From: 2010.06.25/outbox.cif.g09.slc.cpg/sg12_144_cif.got.tgz:287628.got - 2010.06.28 00:19:55.
