data_PCOD8079269
_publ_section_title
;
Structure prediction by ZEFSAII (Michael W. Deem and Ramdas Pophale) SiO2 
 PCOD8079269
Probable space group: C 2/M
;
_chemical_formula_sum "Si O2"
_cell_formula_units_Z 56
_cell_length_a 25.920168
_cell_length_b 17.403238
_cell_length_c 8.396053
_cell_angle_alpha 90.000000
_cell_angle_beta 57.654411
_cell_angle_gamma 90.000000
_cell_volume 3199.747119
_symmetry_space_group_name_H-M "C 2/M"
_symmetry_group_IT_number 12
_symmetry_cell_setting 'monoclinic'
loop_
_space_group_symop_operation_xyz
x,y,z
-x,y,-z
-x,-y,-z
x,-y,z
1/2+x,1/2+y,z
1/2-x,1/2+y,-z
1/2-x,1/2-y,-z
1/2+x,1/2-y,z
loop_
_atom_site_type_symbol
_atom_site_label
_atom_site_fract_x
_atom_site_fract_y
_atom_site_fract_z
Si Si1 0.336434 0.129830 0.268094
Si Si2 0.791651 0.913517 0.398467
Si Si3 0.940386 0.702630 0.515223
Si Si4 0.459224 0.086360 0.210230
Si Si5 0.665767 0.177042 0.076016
Si Si6 0.263849 0.314629 0.154869
Si Si7 0.838692 0.770986 0.480864
O O1 0.275850 0.086189 0.419339
O O2 0.389838 0.083708 0.265674
O O3 0.338066 0.218628 0.323228
O O4 0.342756 0.126439 0.067549
O O5 0.790345 0.881797 0.220670
O O6 0.834480 0.859643 0.436683
O O7 0.818034 0.000000 0.354944
O O8 0.965579 0.635139 0.360453
O O9 0.896511 0.668210 0.722999
O O10 0.901882 0.763422 0.474120
O O11 0.000000 0.741094 0.500000
O O12 0.481249 0.000000 0.212374
O O13 0.500000 0.122452 0.000000
O O14 0.722992 0.145154 0.084914
O O15 0.679998 0.266688 0.012277
O O16 0.220344 0.253752 0.319596
#
# Coordination Sequence:
#
# PCOD8079269 Si02
#       7
#     8   8   8   8   8   8   8
#     4  10  17  31  52  75 101 139 178 202 238 294
#     4  11  19  31  50  76 106 135 170 208 253 305
#     4  10  21  34  53  78  97 129 178 215 249 297
#     4  10  21  36  51  71 107 143 170 204 245 290
#     4  10  17  29  54  71 102 129 166 212 248 289
#     4   9  17  31  51  74  99 138 167 199 262 296
#     4   9  17  33  52  71 102 133 171 215 245 295
#
# _framework density 17.501382
#
# number of rings (size 3 to 8) (size 9 to 14) (size 15 to 20)
#    0.000    2.143    2.857    3.000    0.000    0.286 
#    0.000    2.857    0.000    0.429    0.000    1.000 
#    0.000    0.000    0.000    0.000    0.000    0.000 
#
# Total GULP energy -347147.122686 kJ/mol
# GULP energy per Si atom -12398.111525 kJ/mol
# Density = 1.746155 g / cm^3
# Si number density = 17.501382 Si / 1000 Ang^3
#
#
#
# Elastic Constant Matrix: (Units=GPa)
#
#
# Indices 1 2 3 4 5 6 
#
# 1 94.6489 30.3140 19.6975 0.0000 10.8155 0.0000
# 2 30.3140 92.7387 19.8779 0.0000 6.1313 0.0000
# 3 19.6975 19.8779 95.3269 0.0000 8.7512 0.0000
# 4 0.0000 0.0000 0.0000 19.3508 0.0000 2.6359
# 5 10.8155 6.1313 8.7512 0.0000 30.6436 0.0000
# 6 0.0000 0.0000 0.0000 2.6359 0.0000 14.5204
#
#
#
# Elastic Compliance Matrix: (Units=1/GPa)
#
#
# Indices 1 2 3 4 5 6 
#
# 1 0.012375 -0.003504 -0.001530 0.000000 -0.003230 0.000000
# 2 -0.003504 0.012359 -0.001787 0.000000 -0.000726 0.000000
# 3 -0.001530 -0.001787 0.011395 0.000000 -0.002357 0.000000
# 4 0.000000 0.000000 0.000000 0.052988 0.000000 -0.009619
# 5 -0.003230 -0.000726 -0.002357 0.000000 0.034591 0.000000
# 6 0.000000 0.000000 0.000000 -0.009619 0.000000 0.070615
#
#
# Mechanical properties :
#
#
# Convention : Reuss Voigt Hill
#
# Bulk Modulus (GPa) = 44.46599 46.94370 45.70484
# Shear Modulus (GPa) = 23.20616 27.09131 25.14874
#
# Velocity S-wave (km/s) = 3.64533 3.93867 3.79483
# Velocity P-wave (km/s) = 6.57116 6.89676 6.73593
#
# Compressibility (1/GPa) = 0.02248910
#
# Stress axis : x y z
#
# Youngs Moduli (GPa) = 80.80844 80.91159 87.75584
#
# Poissons Ratio (x) = 0.28348 0.13426
# Poissons Ratio (y) = 0.28312 0.15678
# Poissons Ratio (z) = 0.12363 0.14455
#
# Static dielectric constant tensor:
#      x y z
#    x 3.319250 0.000000 0.179370 
#    y 0.000000 2.896230 0.000000 
#    z 0.179370 0.000000 3.368670 
# 
# 
# High freq. dielectric constant tensor:
#      x y z
#    x 1.678520 0.000000 0.019290 
#    y 0.000000 1.631250 0.000000 
#    z 0.019290 0.000000 1.679810 
# 
# From -- ./inp_files/87304.got.cif
#   From: 2010.06.25/outbox.cif.g09.slc.cpg/sg12_44_cif.got.tgz:87304.got - 2010.06.28 00:19:55.
