data_PCOD8079353
_publ_section_title
;
Structure prediction by ZEFSAII (Michael W. Deem and Ramdas Pophale) SiO2 
 PCOD8079353
Probable space group: C 2/M
;
_chemical_formula_sum "Si O2"
_cell_formula_units_Z 64
_cell_length_a 18.361083
_cell_length_b 13.129991
_cell_length_c 22.211330
_cell_angle_alpha 90.000000
_cell_angle_beta 43.258167
_cell_angle_gamma 90.000000
_cell_volume 3669.523364
_symmetry_space_group_name_H-M "C 2/M"
_symmetry_group_IT_number 12
_symmetry_cell_setting 'monoclinic'
loop_
_space_group_symop_operation_xyz
x,y,z
-x,y,-z
-x,-y,-z
x,-y,z
1/2+x,1/2+y,z
1/2-x,1/2+y,-z
1/2-x,1/2-y,-z
1/2+x,1/2-y,z
loop_
_atom_site_type_symbol
_atom_site_label
_atom_site_fract_x
_atom_site_fract_y
_atom_site_fract_z
Si Si1 0.916535 0.879806 0.912789
Si Si2 0.111421 0.885628 0.865521
Si Si3 0.668020 0.885670 0.583176
Si Si4 0.822202 0.615761 0.666849
Si Si5 0.261590 0.313937 0.402490
Si Si6 0.939587 0.694790 0.709784
Si Si7 0.242274 0.120328 0.895446
Si Si8 0.496308 0.616851 0.264404
O O1 0.930167 0.844130 0.835789
O O2 0.007980 0.829196 0.900257
O O3 0.936647 0.000000 0.900499
O O4 0.800412 0.853791 0.011310
O O5 0.201877 0.883470 0.760970
O O6 0.154889 0.834755 0.900882
O O7 0.078422 0.000000 0.902116
O O8 0.721599 0.806895 0.597624
O O9 0.710446 0.865807 0.491087
O O10 0.540998 0.875764 0.660085
O O11 0.698379 0.000000 0.585114
O O12 0.865172 0.500000 0.635951
O O13 0.821489 0.669999 0.602160
O O14 0.895908 0.677913 0.668895
O O15 0.373003 0.369549 0.321387
O O16 0.855373 0.669700 0.813232
O O17 0.973148 0.813357 0.696696
O O18 0.255309 0.000000 0.877019
O O19 0.519618 0.500000 0.267430
#
# Coordination Sequence:
#
# PCOD8079353 Si02
#       8
#     8   8   8   8   8   8   8   8
#     4   9  15  24  43  67  91 124 160 193 237 283
#     4   8  13  22  40  66  95 120 147 191 240 280
#     4  10  20  35  52  74 102 130 158 193 237 286
#     4  10  17  30  51  74  99 124 156 200 243 284
#     4  10  20  33  55  77  94 125 166 199 235 281
#     4  10  21  32  46  70 101 131 159 192 247 299
#     4   9  16  26  41  66  99 126 150 190 241 291
#     4  10  19  33  49  68  94 126 166 208 239 280
#
# _framework density 17.440957000000001
#
# number of rings (size 3 to 8) (size 9 to 14) (size 15 to 20)
#    0.000    2.500    1.250    3.375    0.000    2.500 
#    0.000    1.875    0.000    0.000    0.000    5.250 
#    0.000    2.250    0.000    0.000    0.000    0.000 
#
# Total GULP energy -396550.460678 kJ/mol
# GULP energy per Si atom -12392.201896 kJ/mol
# Density = 1.740126 g / cm^3
# Si number density = 17.440957 Si / 1000 Ang^3
#
#
#
# Elastic Constant Matrix: (Units=GPa)
#
#
# Indices 1 2 3 4 5 6 
#
# 1 77.1514 42.8883 24.4469 0.0000 8.6447 0.0000
# 2 42.8883 93.3251 24.1111 0.0000 6.6116 0.0000
# 3 24.4469 24.1111 70.3097 0.0000 5.8316 0.0000
# 4 0.0000 0.0000 0.0000 18.0590 0.0000 2.7933
# 5 8.6447 6.6116 5.8316 0.0000 20.9267 0.0000
# 6 0.0000 0.0000 0.0000 2.7933 0.0000 17.7217
#
#
#
# Elastic Compliance Matrix: (Units=1/GPa)
#
#
# Indices 1 2 3 4 5 6 
#
# 1 0.018678 -0.007339 -0.003614 0.000000 -0.004390 0.000000
# 2 -0.007339 0.014786 -0.002439 0.000000 -0.000960 0.000000
# 3 -0.003614 -0.002439 0.016510 0.000000 -0.002337 0.000000
# 4 0.000000 0.000000 0.000000 0.056758 0.000000 -0.008946
# 5 -0.004390 -0.000960 -0.002337 0.000000 0.050554 0.000000
# 6 0.000000 0.000000 0.000000 -0.008946 0.000000 0.057838
#
#
# Mechanical properties :
#
#
# Convention : Reuss Voigt Hill
#
# Bulk Modulus (GPa) = 43.12140 47.07540 45.09840
# Shear Modulus (GPa) = 20.02904 21.29748 20.66326
#
# Velocity S-wave (km/s) = 3.39247 3.49824 3.44576
# Velocity P-wave (km/s) = 6.33427 6.58535 6.46103
#
# Compressibility (1/GPa) = 0.02319034
#
# Stress axis : x y z
#
# Youngs Moduli (GPa) = 53.53810 67.63078 60.57109
#
# Poissons Ratio (x) = 0.49635 0.21888
# Poissons Ratio (y) = 0.39292 0.14774
# Poissons Ratio (z) = 0.19346 0.16496
#
# Static dielectric constant tensor:
#      x y z
#    x 3.088470 0.000000 0.020070 
#    y 0.000000 2.962480 0.000000 
#    z 0.020070 0.000000 3.410210 
# 
# 
# High freq. dielectric constant tensor:
#      x y z
#    x 1.654050 0.000000 -0.001250 
#    y 0.000000 1.633130 0.000000 
#    z -0.001250 0.000000 1.690720 
# 
# From -- ./inp_files/346829.got.cif
#   From: 2010.06.25/outbox.cif.g09.slc.cpg/sg12_174_cif.got.tgz:346829.got - 2010.06.28 00:19:55.
