data_PCOD8079414
_publ_section_title
;
Structure prediction by ZEFSAII (Michael W. Deem and Ramdas Pophale) SiO2 
 PCOD8079414
Probable space group: C 2/M
;
_chemical_formula_sum "Si O2"
_cell_formula_units_Z 64
_cell_length_a 9.034777
_cell_length_b 32.343784
_cell_length_c 15.272332
_cell_angle_alpha 90.000000
_cell_angle_beta 46.618372
_cell_angle_gamma 90.000000
_cell_volume 3243.586789
_symmetry_space_group_name_H-M "C 2/M"
_symmetry_group_IT_number 12
_symmetry_cell_setting 'monoclinic'
loop_
_space_group_symop_operation_xyz
x,y,z
-x,y,-z
-x,-y,-z
x,-y,z
1/2+x,1/2+y,z
1/2-x,1/2+y,-z
1/2-x,1/2-y,-z
1/2+x,1/2-y,z
loop_
_atom_site_type_symbol
_atom_site_label
_atom_site_fract_x
_atom_site_fract_y
_atom_site_fract_z
Si Si1 0.408943 0.370617 0.837287
Si Si2 0.887143 0.319913 0.456016
Si Si3 0.939175 0.272227 0.259130
Si Si4 0.943937 0.804915 0.691879
Si Si5 0.777187 0.826453 0.059988
Si Si6 0.718356 0.546213 0.882558
Si Si7 0.335748 0.119706 0.734644
Si Si8 0.709024 0.046392 0.955033
O O1 0.349938 0.347310 0.770751
O O2 0.651053 0.365048 0.748872
O O3 0.370807 0.419970 0.854792
O O4 0.281197 0.348128 0.964622
O O5 0.961078 0.289947 0.348527
O O6 0.643634 0.317367 0.555701
O O7 0.000000 0.306012 0.500000
O O8 0.958477 0.366525 0.399394
O O9 0.721906 0.282569 0.302815
O O10 0.979008 0.223443 0.257567
O O11 0.121842 0.287897 0.122400
O O12 0.682706 0.860273 0.162642
O O13 0.000000 0.811087 0.000000
O O14 0.681770 0.500000 0.860766
O O15 0.827425 0.570767 0.759078
O O16 0.500000 0.566234 0.000000
O O17 0.845202 0.546663 0.919967
O O18 0.780067 0.000000 0.897799
O O19 0.500000 0.060479 0.000000
#
# Coordination Sequence:
#
# PCOD8079414 Si02
#       8
#     8   8   8   8   8   8   8   8
#     4  11  21  36  60  87 127 154 204 238 304 373
#     4  11  22  42  65  82 112 155 210 261 308 348
#     4  11  26  43  62  86 120 153 208 257 308 364
#     4  12  26  41  61  90 113 165 205 261 306 358
#     4   9  20  37  58  87 122 162 188 244 305 366
#     4  10  17  30  56  90 122 158 198 238 300 373
#     4  10  18  35  61  86 117 156 200 256 295 352
#     4  10  21  34  54  88 129 163 194 239 289 354
#
# _framework density 19.731242999999999
#
# number of rings (size 3 to 8) (size 9 to 14) (size 15 to 20)
#    0.000    1.500    3.750    1.875    5.250    0.500 
#    0.000    0.000    0.000    1.125    0.000    0.000 
#    0.000    6.250    0.000    0.000    0.000    0.000 
#
# Total GULP energy -396604.293652 kJ/mol
# GULP energy per Si atom -12393.884177 kJ/mol
# Density = 1.968633 g / cm^3
# Si number density = 19.731243 Si / 1000 Ang^3
#
#
#
# Elastic Constant Matrix: (Units=GPa)
#
#
# Indices 1 2 3 4 5 6 
#
# 1 93.1184 18.2474 31.2474 0.0000 -6.0083 0.0000
# 2 18.2474 105.1747 39.7131 0.0000 -9.9635 0.0000
# 3 31.2474 39.7131 71.6518 0.0000 -19.4914 0.0000
# 4 0.0000 0.0000 0.0000 30.6814 0.0000 0.8699
# 5 -6.0083 -9.9635 -19.4914 0.0000 28.7565 0.0000
# 6 0.0000 0.0000 0.0000 0.8699 0.0000 24.1692
#
#
#
# Elastic Compliance Matrix: (Units=1/GPa)
#
#
# Indices 1 2 3 4 5 6 
#
# 1 0.012623 -0.000127 -0.005798 0.000000 -0.001337 0.000000
# 2 -0.000127 0.012030 -0.006726 0.000000 -0.000417 0.000000
# 3 -0.005798 -0.006726 0.023601 0.000000 0.012455 0.000000
# 4 0.000000 0.000000 0.000000 0.032626 0.000000 -0.001174
# 5 -0.001337 -0.000417 0.012455 0.000000 0.042793 0.000000
# 6 0.000000 0.000000 0.000000 -0.001174 0.000000 0.041417
#
#
# Mechanical properties :
#
#
# Convention : Reuss Voigt Hill
#
# Bulk Modulus (GPa) = 43.56904 49.81786 46.69345
# Shear Modulus (GPa) = 25.24693 28.77053 27.00873
#
# Velocity S-wave (km/s) = 3.58095 3.82268 3.70378
# Velocity P-wave (km/s) = 6.26313 6.69230 6.48127
#
# Compressibility (1/GPa) = 0.02295208
#
# Stress axis : x y z
#
# Youngs Moduli (GPa) = 79.21807 83.12472 42.37152
#
# Poissons Ratio (x) = 0.01059 0.24567
# Poissons Ratio (y) = 0.01010 0.28497
# Poissons Ratio (z) = 0.45931 0.55906
#
# Static dielectric constant tensor:
#      x y z
#    x 3.585360 0.000000 0.005470 
#    y 0.000000 3.718380 0.000000 
#    z 0.005470 0.000000 3.549470 
# 
# 
# High freq. dielectric constant tensor:
#      x y z
#    x 1.770610 0.000000 0.001690 
#    y 0.000000 1.765770 0.000000 
#    z 0.001690 0.000000 1.742150 
# 
# From -- ./inp_files/201234.got.cif
#   From: 2010.06.25/outbox.cif.g09.slc.cpg/sg12_101_cif.got.tgz:201234.got - 2010.06.28 00:19:55.
