data_PCOD8079686
_publ_section_title
;
Structure prediction by ZEFSAII (Michael W. Deem and Ramdas Pophale) SiO2 
 PCOD8079686
Probable space group: C 2/M
;
_chemical_formula_sum "Si O2"
_cell_formula_units_Z 32
_cell_length_a 13.622437
_cell_length_b 18.682608
_cell_length_c 10.825029
_cell_angle_alpha 90.000000
_cell_angle_beta 143.681845
_cell_angle_gamma 90.000000
_cell_volume 1631.698925
_symmetry_space_group_name_H-M "C 2/M"
_symmetry_group_IT_number 12
_symmetry_cell_setting 'monoclinic'
loop_
_space_group_symop_operation_xyz
x,y,z
-x,y,-z
-x,-y,-z
x,-y,z
1/2+x,1/2+y,z
1/2-x,1/2+y,-z
1/2-x,1/2-y,-z
1/2+x,1/2-y,z
loop_
_atom_site_type_symbol
_atom_site_label
_atom_site_fract_x
_atom_site_fract_y
_atom_site_fract_z
Si Si1 0.657230 0.817333 0.086530
Si Si2 0.500000 0.277921 0.500000
Si Si3 0.500000 0.319597 0.000000
Si Si4 0.425613 0.147205 0.263783
Si Si5 0.238532 0.417249 0.664937
O O1 0.834141 0.827962 0.336298
O O2 0.500000 0.852464 0.000000
O O3 0.626044 0.730847 0.048833
O O4 0.667800 0.850678 0.961317
O O5 0.481451 0.227138 0.361087
O O6 0.598414 0.369710 0.197333
O O7 0.314232 0.105089 0.249442
O O8 0.595490 0.101451 0.421895
O O9 0.285192 0.500000 0.705907
#
# Coordination Sequence:
#
# PCOD8079686 Si02
#       5
#     8   4   4   8   8
#     4  10  20  33  51  84 113 139 173 219 280 323
#     4  10  18  30  51  76 111 144 164 222 272 322
#     4  10  19  32  50  82 113 132 172 228 268 326
#     4  10  17  34  52  74 109 142 178 219 268 324
#     4  10  20  34  54  79 106 144 183 221 264 315
#
# _framework density 19.611460999999998
#
# number of rings (size 3 to 8) (size 9 to 14) (size 15 to 20)
#    0.750    1.500    5.000    2.625    0.000    4.000 
#    0.000    0.000    0.000    3.000    0.000    3.500 
#    0.000    0.000    0.000    0.000    0.000    0.000 
#
# Total GULP energy -198220.797010 kJ/mol
# GULP energy per Si atom -12388.799813 kJ/mol
# Density = 1.956682 g / cm^3
# Si number density = 19.611461 Si / 1000 Ang^3
#
#
#
# Elastic Constant Matrix: (Units=GPa)
#
#
# Indices 1 2 3 4 5 6 
#
# 1 44.2511 5.4439 44.7936 0.0000 9.9411 0.0000
# 2 5.4439 51.1834 20.9847 0.0000 3.6541 0.0000
# 3 44.7936 20.9847 119.1147 0.0000 17.2291 0.0000
# 4 0.0000 0.0000 0.0000 16.3590 0.0000 2.0148
# 5 9.9411 3.6541 17.2291 0.0000 36.7819 0.0000
# 6 0.0000 0.0000 0.0000 2.0148 0.0000 10.5980
#
#
#
# Elastic Compliance Matrix: (Units=1/GPa)
#
#
# Indices 1 2 3 4 5 6 
#
# 1 0.037141 0.001964 -0.013766 0.000000 -0.003785 0.000000
# 2 0.001964 0.021167 -0.004384 0.000000 -0.000580 0.000000
# 3 -0.013766 -0.004384 0.014742 0.000000 -0.002749 0.000000
# 4 0.000000 0.000000 0.000000 0.062594 0.000000 -0.011900
# 5 -0.003785 -0.000580 -0.002749 0.000000 0.029556 0.000000
# 6 0.000000 0.000000 0.000000 -0.011900 0.000000 0.096620
#
#
# Mechanical properties :
#
#
# Convention : Reuss Voigt Hill
#
# Bulk Modulus (GPa) = 24.58239 39.66594 32.12417
# Shear Modulus (GPa) = 16.24689 22.30293 19.27491
#
# Velocity S-wave (km/s) = 2.88138 3.37596 3.13843
# Velocity P-wave (km/s) = 4.86125 5.95533 5.43588
#
# Compressibility (1/GPa) = 0.04067953
#
# Stress axis : x y z
#
# Youngs Moduli (GPa) = 26.92408 47.24245 67.83414
#
# Poissons Ratio (x) = -0.09277 0.93378
# Poissons Ratio (y) = -0.05287 0.29736
# Poissons Ratio (z) = 0.37063 0.20709
#
# Static dielectric constant tensor:
#      x y z
#    x 3.259490 0.000000 0.433340 
#    y 0.000000 3.177860 0.000000 
#    z 0.433340 0.000000 3.754550 
# 
# 
# High freq. dielectric constant tensor:
#      x y z
#    x 1.730830 0.000000 0.035670 
#    y 0.000000 1.716920 0.000000 
#    z 0.035670 0.000000 1.770770 
# 
# From -- ./inp_files/159057.got.cif
#   From: 2010.06.25/outbox.cif.g09.slc.cpg/sg12_80_cif.got.tgz:159057.got - 2010.06.28 00:19:55.
