data_PCOD8079765
_publ_section_title
;
Structure prediction by ZEFSAII (Michael W. Deem and Ramdas Pophale) SiO2 
 PCOD8079765
Probable space group: C 2/M
;
_chemical_formula_sum "Si O2"
_cell_formula_units_Z 48
_cell_length_a 13.259349
_cell_length_b 13.754548
_cell_length_c 22.641920
_cell_angle_alpha 90.000000
_cell_angle_beta 33.017456
_cell_angle_gamma 90.000000
_cell_volume 2250.060623
_symmetry_space_group_name_H-M "C 2/M"
_symmetry_group_IT_number 12
_symmetry_cell_setting 'monoclinic'
loop_
_space_group_symop_operation_xyz
x,y,z
-x,y,-z
-x,-y,-z
x,-y,z
1/2+x,1/2+y,z
1/2-x,1/2+y,-z
1/2-x,1/2-y,-z
1/2+x,1/2-y,z
loop_
_atom_site_type_symbol
_atom_site_label
_atom_site_fract_x
_atom_site_fract_y
_atom_site_fract_z
Si Si1 0.813725 0.698325 0.223814
Si Si2 0.325120 0.000000 0.154890
Si Si3 0.882039 0.169722 0.958800
Si Si4 0.079301 0.610508 0.186503
Si Si5 0.832845 0.611750 0.413269
Si Si6 0.267147 0.500000 0.933427
Si Si7 0.048724 0.726879 0.538826
O O1 0.758561 0.599803 0.217168
O O2 0.625899 0.743440 0.337652
O O3 0.915289 0.780704 0.132644
O O4 0.946200 0.678763 0.213980
O O5 0.220217 0.000000 0.143461
O O6 0.546950 0.000000 0.051511
O O7 0.874067 0.089352 0.911106
O O8 0.750000 0.250000 0.000000
O O9 0.796108 0.132221 0.064076
O O10 0.037440 0.500000 0.188291
O O11 0.025872 0.626008 0.281674
O O12 0.767840 0.500000 0.442675
O O13 0.850648 0.643698 0.472610
O O14 0.674734 0.679106 0.462394
O O15 0.000000 0.679024 0.500000
#
# Coordination Sequence:
#
# PCOD8079765 Si02
#       7
#     8   4   8   8   8   4   8
#     4  11  21  37  61  92 122 169 204 260 311 368
#     4  11  22  36  57  94 130 156 219 268 301 365
#     4  10  19  35  59  88 125 167 201 248 315 374
#     4  10  17  36  63  88 121 162 207 251 303 372
#     4  10  24  43  68  93 124 165 209 262 322 374
#     4  11  20  38  56  88 128 168 204 260 310 374
#     4  11  24  44  66  94 126 161 218 263 317 377
#
# _framework density 21.332757999999998
#
# number of rings (size 3 to 8) (size 9 to 14) (size 15 to 20)
#    0.000    1.500    6.667    0.000    1.167    3.333 
#    1.500    0.000    0.000    2.000    0.000    0.000 
#    0.000    0.000    0.000    0.000    0.000    0.000 
#
# Total GULP energy -297358.042075 kJ/mol
# GULP energy per Si atom -12389.918420 kJ/mol
# Density = 2.128420 g / cm^3
# Si number density = 21.332758 Si / 1000 Ang^3
#
#
#
# Elastic Constant Matrix: (Units=GPa)
#
#
# Indices 1 2 3 4 5 6 
#
# 1 58.2479 18.1362 15.1889 -0.0010 19.1042 0.0009
# 2 18.1362 94.8233 29.7168 -0.0007 7.1936 0.0008
# 3 15.1889 29.7168 109.1323 0.0015 1.1100 0.0037
# 4 -0.0010 -0.0007 0.0015 22.5649 -0.0003 16.7006
# 5 19.1042 7.1936 1.1100 -0.0003 27.5969 -0.0005
# 6 0.0009 0.0008 0.0037 16.7006 -0.0005 0.6334
#
#
#
# Elastic Compliance Matrix: (Units=1/GPa)
#
#
# Indices 1 2 3 4 5 6 
#
# 1 0.023749 -0.002589 -0.002441 -0.000001 -0.015668 0.000003
# 2 -0.002589 0.012046 -0.002907 0.000000 -0.001231 0.000000
# 3 -0.002441 -0.002907 0.010274 -0.000002 0.002034 0.000002
# 4 -0.000001 0.000000 -0.000002 -0.002394 0.000002 0.063112
# 5 -0.015668 -0.001231 0.002034 0.000002 0.047321 -0.000003
# 6 0.000003 0.000000 0.000002 0.063112 -0.000003 -0.085274
#
#
# Mechanical properties :
#
#
# Convention : Reuss Voigt Hill
#
# Bulk Modulus (GPa) = 33.11854 43.14303 38.13079
# Shear Modulus (GPa) = 157.92076 23.43648 90.67862
#
# Velocity S-wave (km/s) = 8.61325 3.31813 6.52679
# Velocity P-wave (km/s) = 10.69934 5.91166 8.64360
#
# Compressibility (1/GPa) = 0.03019456
#
# Stress axis : x y z
#
# Youngs Moduli (GPa) = 42.10662 83.01840 97.33425
#
# Poissons Ratio (x) = 0.21491 0.23760
# Poissons Ratio (y) = 0.10900 0.28297
# Poissons Ratio (z) = 0.10279 0.24135
#
# Static dielectric constant tensor:
#      x y z
#    x 3.536110 0.000000 0.259410 
#    y 0.000000 4.229900 0.000010 
#    z 0.259410 0.000010 4.215800 
# 
# 
# High freq. dielectric constant tensor:
#      x y z
#    x 1.812890 0.000000 0.013900 
#    y 0.000000 1.839970 0.000000 
#    z 0.013900 0.000000 1.838310 
# 
# From -- ./inp_files/340104.got.cif
#   From: 2010.06.25/outbox.cif.g09.slc.cpg/sg12_171_cif.got.tgz:340104.got - 2010.06.28 00:19:55.
