data_PCOD8079350
_publ_section_title
;
Structure prediction by ZEFSAII (Michael W. Deem and Ramdas Pophale) SiO2 
 PCOD8079350
Probable space group: C 2/M
;
_chemical_formula_sum "Si O2"
_cell_formula_units_Z 56
_cell_length_a 34.360593
_cell_length_b 8.861464
_cell_length_c 12.540306
_cell_angle_alpha 90.000000
_cell_angle_beta 124.185220
_cell_angle_gamma 90.000000
_cell_volume 3158.625936
_symmetry_space_group_name_H-M "C 2/M"
_symmetry_group_IT_number 12
_symmetry_cell_setting 'monoclinic'
loop_
_space_group_symop_operation_xyz
x,y,z
-x,y,-z
-x,-y,-z
x,-y,z
1/2+x,1/2+y,z
1/2-x,1/2+y,-z
1/2-x,1/2-y,-z
1/2+x,1/2-y,z
loop_
_atom_site_type_symbol
_atom_site_label
_atom_site_fract_x
_atom_site_fract_y
_atom_site_fract_z
Si Si1 0.970780 0.823055 0.557852
Si Si2 0.056490 0.167095 0.823071
Si Si3 0.143506 0.831429 0.829349
Si Si4 0.370536 0.822149 0.406625
Si Si5 0.198524 0.824890 0.540914
Si Si6 0.860270 0.676835 0.966125
Si Si7 0.295543 0.675350 0.698245
O O1 0.924548 0.724604 0.499275
O O2 0.000000 0.772109 0.500000
O O3 0.003555 0.785250 0.711664
O O4 0.957815 0.000000 0.534195
O O5 0.086713 0.160132 0.758388
O O6 0.056771 0.000000 0.875935
O O7 0.083490 0.282584 0.944375
O O8 0.154526 0.746324 0.736708
O O9 0.165319 0.000000 0.858471
O O10 0.164750 0.741184 0.964410
O O11 0.343965 0.762537 0.469415
O O12 0.366682 0.000000 0.393889
O O13 0.247940 0.759993 0.658468
O O14 0.192673 0.796497 0.406653
O O15 0.196064 0.000000 0.567097
O O16 0.852712 0.500000 0.946696
O O17 0.838551 0.756689 0.830316
O O18 0.289312 0.500000 0.714832
#
# Coordination Sequence:
#
# PCOD8079350 Si02
#       7
#     8   8   8   8   8   8   8
#     4  10  17  30  51  73 103 146 185 217 258 312
#     4   8  16  29  48  73 102 139 180 215 251 303
#     4   9  17  32  50  72 105 142 179 214 254 308
#     4  12  23  33  50  79 115 145 176 221 270 316
#     4  10  22  39  59  81 105 138 177 220 266 316
#     4  10  18  30  53  82 109 138 174 216 263 316
#     4  10  20  38  62  83 104 133 176 221 267 319
#
# _framework density 17.729229
#
# number of rings (size 3 to 8) (size 9 to 14) (size 15 to 20)
#    0.857    1.286    1.429    3.429    0.000    2.571 
#    0.000    0.714    0.000    0.857    0.000    6.000 
#    0.000    0.000    0.000    0.000    0.000    0.000 
#
# Total GULP energy -347047.404860 kJ/mol
# GULP energy per Si atom -12394.550174 kJ/mol
# Density = 1.768888 g / cm^3
# Si number density = 17.729229 Si / 1000 Ang^3
#
#
#
# Elastic Constant Matrix: (Units=GPa)
#
#
# Indices 1 2 3 4 5 6 
#
# 1 40.9056 19.9422 12.3066 0.0000 -3.9032 0.0000
# 2 19.9422 91.8843 41.6730 0.0000 -4.6179 0.0000
# 3 12.3066 41.6730 90.9763 0.0000 2.4014 0.0000
# 4 0.0000 0.0000 0.0000 31.2770 0.0000 2.0976
# 5 -3.9032 -4.6179 2.4014 0.0000 10.6927 0.0000
# 6 0.0000 0.0000 0.0000 2.0976 0.0000 27.3183
#
#
#
# Elastic Compliance Matrix: (Units=1/GPa)
#
#
# Indices 1 2 3 4 5 6 
#
# 1 0.028182 -0.004863 -0.001812 0.000000 0.008594 0.000000
# 2 -0.004863 0.015182 -0.006461 0.000000 0.006233 0.000000
# 3 -0.001812 -0.006461 0.014373 0.000000 -0.006680 0.000000
# 4 0.000000 0.000000 0.000000 0.032138 0.000000 -0.002468
# 5 0.008594 0.006233 -0.006680 0.000000 0.100851 0.000000
# 6 0.000000 0.000000 0.000000 -0.002468 0.000000 0.036795
#
#
# Mechanical properties :
#
#
# Convention : Reuss Voigt Hill
#
# Bulk Modulus (GPa) = 31.78026 41.28996 36.53511
# Shear Modulus (GPa) = 18.91922 23.84724 21.38323
#
# Velocity S-wave (km/s) = 3.27022 3.67151 3.47666
# Velocity P-wave (km/s) = 5.67657 6.42753 6.06368
#
# Compressibility (1/GPa) = 0.03146607
#
# Stress axis : x y z
#
# Youngs Moduli (GPa) = 35.48308 65.86600 69.57559
#
# Poissons Ratio (x) = 0.32031 0.12604
# Poissons Ratio (y) = 0.17256 0.44954
# Poissons Ratio (z) = 0.06428 0.42557
#
# Static dielectric constant tensor:
#      x y z
#    x 2.975190 0.000000 0.051360 
#    y 0.000000 3.288550 0.000000 
#    z 0.051360 0.000000 3.199880 
# 
# 
# High freq. dielectric constant tensor:
#      x y z
#    x 1.647110 0.000000 0.007420 
#    y 0.000000 1.694390 0.000000 
#    z 0.007420 0.000000 1.684550 
# 
# From -- ./inp_files/187729.got.cif
#   From: 2010.06.25/outbox.cif.g09.slc.cpg/sg12_94_cif.got.tgz:187729.got - 2010.06.28 00:19:55.
