data_PCOD8079928
_publ_section_title
;
Structure prediction by ZEFSAII (Michael W. Deem and Ramdas Pophale) SiO2 
 PCOD8079928
Probable space group: C 2/M
;
_chemical_formula_sum "Si O2"
_cell_formula_units_Z 64
_cell_length_a 27.597688
_cell_length_b 9.136178
_cell_length_c 23.709388
_cell_angle_alpha 90.000000
_cell_angle_beta 43.476958
_cell_angle_gamma 90.000000
_cell_volume 4113.255413
_symmetry_space_group_name_H-M "C 2/M"
_symmetry_group_IT_number 12
_symmetry_cell_setting 'monoclinic'
loop_
_space_group_symop_operation_xyz
x,y,z
-x,y,-z
-x,-y,-z
x,-y,z
1/2+x,1/2+y,z
1/2-x,1/2+y,-z
1/2-x,1/2-y,-z
1/2+x,1/2-y,z
loop_
_atom_site_type_symbol
_atom_site_label
_atom_site_fract_x
_atom_site_fract_y
_atom_site_fract_z
Si Si1 0.543093 0.171467 0.338909
Si Si2 0.254966 0.163961 0.078551
Si Si3 0.718176 0.164232 0.815691
Si Si4 0.933870 0.327063 0.019487
Si Si5 0.156999 0.671161 0.337368
Si Si6 0.598976 0.668588 0.186517
Si Si7 0.058017 0.164988 0.499184
Si Si8 0.106251 0.168673 0.055272
O O1 0.609873 0.207784 0.322214
O O2 0.555954 0.228944 0.265019
O O3 0.472877 0.250268 0.420853
O O4 0.528134 0.000000 0.349653
O O5 0.247551 0.166425 0.151922
O O6 0.180733 0.215653 0.116296
O O7 0.274874 0.000000 0.041423
O O8 0.313787 0.275685 0.008020
O O9 0.637334 0.220194 0.887695
O O10 0.763458 0.271953 0.738293
O O11 0.721079 0.000000 0.787971
O O12 0.934007 0.500000 0.009641
O O13 0.938308 0.255056 0.953995
O O14 0.000000 0.273067 0.000000
O O15 0.158537 0.500000 0.348467
O O16 0.126479 0.751059 0.418345
O O17 0.592079 0.500000 0.212247
O O18 0.569887 0.689557 0.147335
O O19 0.000000 0.164020 0.500000
O O20 0.078809 0.000000 0.499065
O O21 0.108461 0.000000 0.035764
#
# Coordination Sequence:
#
# PCOD8079928 Si02
#       8
#     8   8   8   8   8   8   8   8
#     4  10  19  28  40  60  86 118 153 188 221 253
#     4   9  17  29  43  58  84 120 153 182 214 257
#     4   9  16  27  45  65  84 112 149 183 218 263
#     4   9  19  36  53  66  85 115 148 184 228 276
#     4  10  18  27  40  61  88 114 146 187 222 256
#     4  10  19  30  42  59  87 121 153 183 215 260
#     4   9  17  28  42  57  79 116 154 185 218 258
#     4  10  20  30  44  66  88 111 145 187 227 263
#
# _framework density 15.559452
#
# number of rings (size 3 to 8) (size 9 to 14) (size 15 to 20)
#    0.000    2.500    1.250    2.625    0.000    6.250 
#    0.000    0.000    0.000    0.000    0.000    0.000 
#    0.000    1.000    0.000    3.000    0.000    4.625 
#
# Total GULP energy -396765.810520 kJ/mol
# GULP energy per Si atom -12398.931579 kJ/mol
# Density = 1.552404 g / cm^3
# Si number density = 15.559452 Si / 1000 Ang^3
#
#
#
# Elastic Constant Matrix: (Units=GPa)
#
#
# Indices 1 2 3 4 5 6 
#
# 1 65.4970 30.2616 43.3871 0.0043 -1.9119 -0.0062
# 2 30.2616 86.1889 59.0335 0.0236 1.1498 -0.0335
# 3 43.3871 59.0335 101.6689 0.0063 2.6520 -0.0111
# 4 0.0043 0.0236 0.0063 30.3679 -0.0046 1.8016
# 5 -1.9119 1.1498 2.6520 -0.0046 13.3695 0.0088
# 6 -0.0062 -0.0335 -0.0111 1.8016 0.0088 14.9529
#
#
#
# Elastic Compliance Matrix: (Units=1/GPa)
#
#
# Indices 1 2 3 4 5 6 
#
# 1 0.021831 -0.002095 -0.008229 0.000001 0.004934 -0.000005
# 2 -0.002095 0.019469 -0.010413 -0.000015 0.000092 0.000037
# 3 -0.008229 -0.010413 0.019502 0.000005 -0.004150 -0.000010
# 4 0.000001 -0.000015 0.000005 0.033167 0.000015 -0.003996
# 5 0.004934 0.000092 -0.004150 0.000015 0.076318 -0.000047
# 6 -0.000005 0.000037 -0.000010 -0.003996 -0.000047 0.067358
#
#
# Mechanical properties :
#
#
# Convention : Reuss Voigt Hill
#
# Bulk Modulus (GPa) = 51.73632 57.63548 54.68590
# Shear Modulus (GPa) = 17.50948 19.78290 18.64619
#
# Velocity S-wave (km/s) = 3.35823 3.56959 3.46552
# Velocity P-wave (km/s) = 6.95413 7.35608 7.15792
#
# Compressibility (1/GPa) = 0.01932878
#
# Stress axis : x y z
#
# Youngs Moduli (GPa) = 45.80725 51.36406 51.27707
#
# Poissons Ratio (x) = 0.10759 0.42194
# Poissons Ratio (y) = 0.09595 0.53395
# Poissons Ratio (z) = 0.37693 0.53485
#
# Static dielectric constant tensor:
#      x y z
#    x 2.625850 -0.000010 -0.002390 
#    y -0.000010 3.018230 0.000010 
#    z -0.002390 0.000010 2.958960 
# 
# 
# High freq. dielectric constant tensor:
#      x y z
#    x 1.539480 0.000000 0.001990 
#    y 0.000000 1.607370 0.000000 
#    z 0.001990 0.000000 1.594490 
# 
# From -- ./inp_files/326859.got.cif
#   From: 2010.06.25/outbox.cif.g09.slc.cpg/sg12_164_cif.got.tgz:326859.got - 2010.06.28 00:19:55.
