data_PCOD8079045
_publ_section_title
;
Structure prediction by ZEFSAII (Michael W. Deem and Ramdas Pophale) SiO2 
 PCOD8079045
Probable space group: C 2/M
;
_chemical_formula_sum "Si O2"
_cell_formula_units_Z 64
_cell_length_a 25.454578
_cell_length_b 8.483804
_cell_length_c 22.672181
_cell_angle_alpha 90.000000
_cell_angle_beta 41.350742
_cell_angle_gamma 90.000000
_cell_volume 3234.687063
_symmetry_space_group_name_H-M "C 2/M"
_symmetry_group_IT_number 12
_symmetry_cell_setting 'monoclinic'
loop_
_space_group_symop_operation_xyz
x,y,z
-x,y,-z
-x,-y,-z
x,-y,z
1/2+x,1/2+y,z
1/2-x,1/2+y,-z
1/2-x,1/2-y,-z
1/2+x,1/2-y,z
loop_
_atom_site_type_symbol
_atom_site_label
_atom_site_fract_x
_atom_site_fract_y
_atom_site_fract_z
Si Si1 0.595470 0.814235 0.072683
Si Si2 0.437179 0.316173 0.175621
Si Si3 0.208198 0.814379 0.779080
Si Si4 0.928066 0.687561 0.398136
Si Si5 0.337968 0.182663 0.359460
Si Si6 0.197052 0.315743 0.409935
Si Si7 0.909026 0.312720 0.789115
Si Si8 0.241358 0.812209 0.881091
O O1 0.529058 0.729979 0.087231
O O2 0.587524 0.751774 0.146534
O O3 0.584641 0.000000 0.077625
O O4 0.681583 0.765618 0.977333
O O5 0.428230 0.500000 0.198025
O O6 0.381824 0.274354 0.165780
O O7 0.410186 0.211543 0.253544
O O8 0.272395 0.740930 0.677859
O O9 0.223367 0.743828 0.830912
O O10 0.221379 0.000000 0.770592
O O11 0.933768 0.500000 0.393259
O O12 0.867917 0.741323 0.397583
O O13 0.888699 0.747961 0.493454
O O14 0.016266 0.756390 0.311591
O O15 0.262256 0.285878 0.405493
O O16 0.314508 0.000000 0.378583
O O17 0.189540 0.500000 0.406734
O O18 0.911694 0.500000 0.787440
O O19 0.829048 0.253970 0.824965
O O20 0.232727 0.000000 0.891314
#
# Coordination Sequence:
#
# PCOD8079045 Si02
#       8
#     8   8   8   8   8   8   8   8
#     4  11  21  35  54  78 106 128 163 213 261 305
#     4  10  19  33  53  77 105 136 167 204 252 305
#     4   8  17  33  51  74 103 133 170 212 244 288
#     4   9  16  28  48  74 103 134 164 206 256 296
#     4  10  17  28  47  73 108 138 164 204 253 298
#     4   9  17  30  49  72 102 137 172 204 244 298
#     4   9  18  33  53  76 103 132 164 211 260 299
#     4  10  20  36  56  73  96 136 177 208 251 303
#
# _framework density 19.785530000000001
#
# number of rings (size 3 to 8) (size 9 to 14) (size 15 to 20)
#    0.000    2.500    1.250    2.625    0.000    0.500 
#    0.000    7.500    0.000    3.750    0.000    0.000 
#    0.000    5.000    0.000    0.000    0.000    0.000 
#
# Total GULP energy -396581.850459 kJ/mol
# GULP energy per Si atom -12393.182827 kJ/mol
# Density = 1.974050 g / cm^3
# Si number density = 19.785530 Si / 1000 Ang^3
#
#
#
# Elastic Constant Matrix: (Units=GPa)
#
#
# Indices 1 2 3 4 5 6 
#
# 1 113.9751 12.0690 67.3466 0.0060 -3.8021 -0.0040
# 2 12.0690 15.8251 6.9137 0.0088 4.3587 -0.0260
# 3 67.3466 6.9137 123.9902 0.0100 -23.7275 -0.0190
# 4 0.0060 0.0088 0.0100 21.3797 -0.0020 -2.5324
# 5 -3.8021 4.3587 -23.7275 -0.0020 23.5983 0.0100
# 6 -0.0040 -0.0260 -0.0190 -2.5324 0.0100 17.2026
#
#
#
# Elastic Compliance Matrix: (Units=1/GPa)
#
#
# Indices 1 2 3 4 5 6 
#
# 1 0.014129 -0.005761 -0.008313 0.000000 -0.005018 -0.000012
# 2 -0.005761 0.075100 -0.004817 -0.000015 -0.019643 0.000116
# 3 -0.008313 -0.004817 0.015804 -0.000002 0.015441 -0.000001
# 4 0.000000 -0.000015 -0.000002 0.047603 0.000002 0.007008
# 5 -0.005018 -0.019643 0.015441 0.000002 0.060721 -0.000049
# 6 -0.000012 0.000116 -0.000001 0.007008 -0.000049 0.059163
#
#
# Mechanical properties :
#
#
# Convention : Reuss Voigt Hill
#
# Bulk Modulus (GPa) = 14.87013 47.38321 31.12667
# Shear Modulus (GPa) = 15.02769 23.60020 19.31395
#
# Velocity S-wave (km/s) = 2.75895 3.45744 3.12775
# Velocity P-wave (km/s) = 4.20488 6.31973 5.36749
#
# Compressibility (1/GPa) = 0.06724891
#
# Stress axis : x y z
#
# Youngs Moduli (GPa) = 70.77794 13.31565 63.27487
#
# Poissons Ratio (x) = 0.07671 0.52602
# Poissons Ratio (y) = 0.40776 0.30482
# Poissons Ratio (z) = 0.58839 0.06415
#
# Static dielectric constant tensor:
#      x y z
#    x 3.653810 -0.000020 -0.027960 
#    y -0.000020 3.139680 0.000020 
#    z -0.027960 0.000020 4.013160 
# 
# 
# High freq. dielectric constant tensor:
#      x y z
#    x 1.755920 0.000000 -0.009300 
#    y 0.000000 1.729030 0.000000 
#    z -0.009300 0.000000 1.782610 
# 
# From -- ./inp_files/324120.got.cif
#   From: 2010.06.25/outbox.cif.g09.slc.cpg/sg12_163_cif.got.tgz:324120.got - 2010.06.28 00:19:55.
