data_PCOD8079243
_publ_section_title
;
Structure prediction by ZEFSAII (Michael W. Deem and Ramdas Pophale) SiO2 
 PCOD8079243
Probable space group: C 2/M
;
_chemical_formula_sum "Si O2"
_cell_formula_units_Z 48
_cell_length_a 13.554268
_cell_length_b 13.482677
_cell_length_c 16.283313
_cell_angle_alpha 90.000000
_cell_angle_beta 128.020344
_cell_angle_gamma 90.000000
_cell_volume 2344.264397
_symmetry_space_group_name_H-M "C 2/M"
_symmetry_group_IT_number 12
_symmetry_cell_setting 'monoclinic'
loop_
_space_group_symop_operation_xyz
x,y,z
-x,y,-z
-x,-y,-z
x,-y,z
1/2+x,1/2+y,z
1/2-x,1/2+y,-z
1/2-x,1/2-y,-z
1/2+x,1/2-y,z
loop_
_atom_site_type_symbol
_atom_site_label
_atom_site_fract_x
_atom_site_fract_y
_atom_site_fract_z
Si Si1 0.107143 0.885232 0.117310
Si Si2 0.318888 0.700410 0.424926
Si Si3 0.014954 0.113845 0.628696
Si Si4 0.567453 0.894177 0.450964
Si Si5 0.385172 0.887764 0.208363
Si Si6 0.945339 0.234789 0.748697
O O1 0.239719 0.864097 0.143831
O O2 0.101317 0.822440 0.196383
O O3 0.091399 0.000000 0.132999
O O4 0.000000 0.850458 0.000000
O O5 0.379067 0.616094 0.514035
O O6 0.388090 0.685670 0.371892
O O7 0.162635 0.694653 0.518125
O O8 0.168910 0.693931 0.341625
O O9 0.998635 0.154853 0.711816
O O10 0.062998 0.000000 0.656394
O O11 0.500000 0.916433 0.500000
O O12 0.461685 0.863787 0.330727
O O13 0.633000 0.000000 0.459052
O O14 0.442900 0.811606 0.171069
O O15 0.403653 0.000000 0.187614
#
# Coordination Sequence:
#
# PCOD8079243 Si02
#       6
#     8   8   8   8   8   8
#     4  10  23  43  64  86 114 147 189 249 308 349
#     4  11  21  37  52  81 124 163 187 231 282 338
#     4  11  23  37  53  80 122 164 195 232 276 335
#     4  10  17  29  51  77 112 153 190 227 272 326
#     4  10  22  39  58  85 117 150 191 243 294 341
#     4  12  22  37  62  89 113 152 205 236 282 348
#
# _framework density 20.475505999999999
#
# number of rings (size 3 to 8) (size 9 to 14) (size 15 to 20)
#    0.000    1.333    3.333    4.000    0.000    4.667 
#    0.000    0.000    0.000    0.500    0.000    0.000 
#    0.000    0.000    0.000    0.000    0.000    0.000 
#
# Total GULP energy -297392.519338 kJ/mol
# GULP energy per Si atom -12391.354972 kJ/mol
# Density = 2.042890 g / cm^3
# Si number density = 20.475506 Si / 1000 Ang^3
#
#
#
# Elastic Constant Matrix: (Units=GPa)
#
#
# Indices 1 2 3 4 5 6 
#
# 1 69.2198 40.7326 25.5382 0.0000 27.4576 0.0000
# 2 40.7326 104.0434 20.0614 0.0000 16.6115 0.0000
# 3 25.5382 20.0614 44.6999 0.0000 21.7439 0.0000
# 4 0.0000 0.0000 0.0000 16.5675 0.0000 4.0901
# 5 27.4576 16.6115 21.7439 0.0000 21.9411 0.0000
# 6 0.0000 0.0000 0.0000 4.0901 0.0000 29.2970
#
#
#
# Elastic Compliance Matrix: (Units=1/GPa)
#
#
# Indices 1 2 3 4 5 6 
#
# 1 0.033061 -0.007348 0.003531 0.000000 -0.039309 0.000000
# 2 -0.007348 0.012633 -0.002495 0.000000 0.002103 0.000000
# 3 0.003531 -0.002495 0.043837 0.000000 -0.045972 0.000000
# 4 0.000000 0.000000 0.000000 0.062514 0.000000 -0.008727
# 5 -0.039309 0.002103 -0.045972 0.000000 0.138735 0.000000
# 6 0.000000 0.000000 0.000000 -0.008727 0.000000 0.035352
#
#
# Mechanical properties :
#
#
# Convention : Reuss Voigt Hill
#
# Bulk Modulus (GPa) = 13.00278 43.40307 28.20293
# Shear Modulus (GPa) = 13.72153 22.33653 18.02903
#
# Velocity S-wave (km/s) = 2.59152 3.30645 2.97057
# Velocity P-wave (km/s) = 3.91393 5.98501 5.05664
#
# Compressibility (1/GPa) = 0.07690662
#
# Stress axis : x y z
#
# Youngs Moduli (GPa) = 30.24729 79.15575 22.81197
#
# Poissons Ratio (x) = 0.58163 -0.08054
# Poissons Ratio (y) = 0.22226 0.05691
# Poissons Ratio (z) = -0.10680 0.19749
#
# Static dielectric constant tensor:
#      x y z
#    x -0.327270 0.000000 -1.761530 
#    y 0.000000 4.182120 0.000000 
#    z -1.761530 0.000000 2.661940 
# 
# 
# High freq. dielectric constant tensor:
#      x y z
#    x 1.806120 0.000000 0.001210 
#    y 0.000000 1.812720 0.000000 
#    z 0.001210 0.000000 1.756110 
# 
# From -- ./inp_files/205117.got.cif
#   From: 2010.06.25/outbox.cif.g09.slc.cpg/sg12_103_cif.got.tgz:205117.got - 2010.06.28 00:19:55.
