data_PCOD8079206
_publ_section_title
;
Structure prediction by ZEFSAII (Michael W. Deem and Ramdas Pophale) SiO2 
 PCOD8079206
Probable space group: C 2/M
;
_chemical_formula_sum "Si O2"
_cell_formula_units_Z 64
_cell_length_a 26.110401
_cell_length_b 12.782656
_cell_length_c 11.828178
_cell_angle_alpha 90.000000
_cell_angle_beta 73.444484
_cell_angle_gamma 90.000000
_cell_volume 3784.117294
_symmetry_space_group_name_H-M "C 2/M"
_symmetry_group_IT_number 12
_symmetry_cell_setting 'monoclinic'
loop_
_space_group_symop_operation_xyz
x,y,z
-x,y,-z
-x,-y,-z
x,-y,z
1/2+x,1/2+y,z
1/2-x,1/2+y,-z
1/2-x,1/2-y,-z
1/2+x,1/2-y,z
loop_
_atom_site_type_symbol
_atom_site_label
_atom_site_fract_x
_atom_site_fract_y
_atom_site_fract_z
Si Si1 0.353112 0.620411 0.025379
Si Si2 0.163522 0.379231 0.143922
Si Si3 0.929522 0.700205 0.945768
Si Si4 0.641904 0.878437 0.636896
Si Si5 0.188213 0.376853 0.373356
Si Si6 0.714767 0.745656 0.754755
Si Si7 0.756715 0.878623 0.926673
Si Si8 0.958635 0.379623 0.163705
O O1 0.366482 0.500000 0.041991
O O2 0.323176 0.667901 0.151954
O O3 0.409059 0.680487 0.969079
O O4 0.316800 0.632992 0.936162
O O5 0.177000 0.500000 0.142520
O O6 0.108059 0.361520 0.116581
O O7 0.160467 0.337283 0.274398
O O8 0.213841 0.328657 0.043944
O O9 0.989933 0.696284 0.860208
O O10 0.926260 0.642884 0.068785
O O11 0.650768 0.843441 0.501747
O O12 0.680009 0.815305 0.694491
O O13 0.579996 0.856010 0.706509
O O14 0.655077 0.000000 0.646994
O O15 0.197846 0.500000 0.368479
O O16 0.245906 0.322823 0.347559
O O17 0.750144 0.819836 0.812752
O O18 0.742964 0.000000 0.914772
O O19 0.978018 0.500000 0.151051
#
# Coordination Sequence:
#
# PCOD8079206 Si02
#       8
#     8   8   8   8   8   8   8   8
#     4  11  21  31  46  75 110 134 158 197 248 303
#     4  10  17  29  49  76 103 130 162 197 246 303
#     4  11  19  32  52  75  99 129 164 201 257 301
#     4  10  21  36  51  71  98 132 171 211 248 287
#     4  10  21  33  48  72 106 139 166 197 239 295
#     4  12  18  32  52  74 102 137 168 197 242 300
#     4  10  19  30  49  78 106 131 161 205 252 297
#     4  10  20  35  54  76  99 124 164 217 257 294
#
# _framework density 16.912794999999999
#
# number of rings (size 3 to 8) (size 9 to 14) (size 15 to 20)
#    0.000    1.500    3.750    3.750    0.000    2.000 
#    0.000    1.875    0.000    3.000    0.000    0.000 
#    0.000    3.000    0.000    0.000    0.000    0.000 
#
# Total GULP energy -396788.153728 kJ/mol
# GULP energy per Si atom -12399.629804 kJ/mol
# Density = 1.687430 g / cm^3
# Si number density = 16.912795 Si / 1000 Ang^3
#
#
#
# Elastic Constant Matrix: (Units=GPa)
#
#
# Indices 1 2 3 4 5 6 
#
# 1 101.8982 39.1370 57.9676 0.0000 -9.3420 0.0000
# 2 39.1370 66.8988 42.8500 0.0000 -10.2988 0.0000
# 3 57.9676 42.8500 117.9153 0.0000 -16.1330 0.0000
# 4 0.0000 0.0000 0.0000 21.9540 0.0000 -2.9223
# 5 -9.3420 -10.2988 -16.1330 0.0000 21.5649 0.0000
# 6 0.0000 0.0000 0.0000 -2.9223 0.0000 31.0418
#
#
#
# Elastic Compliance Matrix: (Units=1/GPa)
#
#
# Indices 1 2 3 4 5 6 
#
# 1 0.014917 -0.005262 -0.005437 0.000000 -0.000119 0.000000
# 2 -0.005262 0.021733 -0.004682 0.000000 0.004597 0.000000
# 3 -0.005437 -0.004682 0.013621 0.000000 0.005599 0.000000
# 4 0.000000 0.000000 0.000000 0.046128 0.000000 0.004342
# 5 -0.000119 0.004597 0.005599 0.000000 0.052704 0.000000
# 6 0.000000 0.000000 0.000000 0.004342 0.000000 0.032623
#
#
# Mechanical properties :
#
#
# Convention : Reuss Voigt Hill
#
# Bulk Modulus (GPa) = 51.26009 62.95795 57.10902
# Shear Modulus (GPa) = 22.83191 24.69600 23.76395
#
# Velocity S-wave (km/s) = 3.67819 3.82540 3.75252
# Velocity P-wave (km/s) = 6.95795 7.53773 7.25364
#
# Compressibility (1/GPa) = 0.01950835
#
# Stress axis : x y z
#
# Youngs Moduli (GPa) = 67.03705 46.01309 73.41637
#
# Poissons Ratio (x) = 0.24214 0.39918
# Poissons Ratio (y) = 0.35278 0.34371
# Poissons Ratio (z) = 0.36449 0.21542
#
# Static dielectric constant tensor:
#      x y z
#    x 3.064320 0.000000 0.026370 
#    y 0.000000 3.279530 0.000000 
#    z 0.026370 0.000000 3.330980 
# 
# 
# High freq. dielectric constant tensor:
#      x y z
#    x 1.640620 0.000000 0.002320 
#    y 0.000000 1.654860 0.000000 
#    z 0.002320 0.000000 1.641530 
# 
# From -- ./inp_files/176107.got.cif
#   From: 2010.06.25/outbox.cif.g09.slc.cpg/sg12_89_cif.got.tgz:176107.got - 2010.06.28 00:19:55.
