data_PCOD8079022
_publ_section_title
;
Structure prediction by ZEFSAII (Michael W. Deem and Ramdas Pophale) SiO2 
 PCOD8079022
Probable space group: C 2/M
;
_chemical_formula_sum "Si O2"
_cell_formula_units_Z 56
_cell_length_a 15.875920
_cell_length_b 20.080816
_cell_length_c 11.484805
_cell_angle_alpha 90.000000
_cell_angle_beta 122.845128
_cell_angle_gamma 90.000000
_cell_volume 3076.064086
_symmetry_space_group_name_H-M "C 2/M"
_symmetry_group_IT_number 12
_symmetry_cell_setting 'monoclinic'
loop_
_space_group_symop_operation_xyz
x,y,z
-x,y,-z
-x,-y,-z
x,-y,z
1/2+x,1/2+y,z
1/2-x,1/2+y,-z
1/2-x,1/2-y,-z
1/2+x,1/2-y,z
loop_
_atom_site_type_symbol
_atom_site_label
_atom_site_fract_x
_atom_site_fract_y
_atom_site_fract_z
Si Si1 0.281879 0.139337 0.342070
Si Si2 0.153593 0.500000 0.662278
Si Si3 0.559722 0.233343 0.656724
Si Si4 0.108388 0.825567 0.065853
Si Si5 0.398817 0.856713 0.659184
Si Si6 0.206187 0.816196 0.913462
Si Si7 0.389384 0.827269 0.906919
Si Si8 0.469715 0.000000 0.664112
O O1 0.362208 0.178017 0.325433
O O2 0.171301 0.166479 0.232224
O O3 0.308419 0.145472 0.498063
O O4 0.276767 0.064087 0.293024
O O5 0.078843 0.500000 0.498302
O O6 0.089544 0.500000 0.733803
O O7 0.500000 0.261408 0.500000
O O8 0.486875 0.194542 0.691019
O O9 0.616003 0.295929 0.757590
O O10 0.095145 0.747180 0.035406
O O11 0.161372 0.857553 0.989970
O O12 0.000000 0.859762 0.000000
O O13 0.352692 0.832271 0.746210
O O14 0.438456 0.932339 0.706940
O O15 0.296857 0.856687 0.916119
O O16 0.250000 0.750000 0.000000
O O17 0.500000 0.863136 0.000000
#
# Coordination Sequence:
#
# PCOD8079022 Si02
#       8
#     8   4   8   8   8   8   8   4
#     4  10  18  30  50  72  97 126 163 207 247 281
#     4   9  16  28  47  74  97 129 164 202 250 287
#     4  10  17  28  46  73  99 126 162 202 236 282
#     4  10  20  34  51  71  95 130 167 203 246 291
#     4  10  19  30  48  74 102 128 162 200 243 293
#     4  10  18  33  49  67  97 135 163 192 241 293
#     4  10  20  31  48  70  99 137 161 189 241 297
#     4   9  16  28  47  70 103 131 160 198 243 296
#
# _framework density 18.205082000000001
#
# number of rings (size 3 to 8) (size 9 to 14) (size 15 to 20)
#    0.000    2.143    4.286    2.571    0.000    0.571 
#    2.571    0.714    0.000    0.857    0.000    0.000 
#    0.000    3.429    0.000    0.000    0.000    0.000 
#
# Total GULP energy -346910.172925 kJ/mol
# GULP energy per Si atom -12389.649033 kJ/mol
# Density = 1.816365 g / cm^3
# Si number density = 18.205082 Si / 1000 Ang^3
#
#
#
# Elastic Constant Matrix: (Units=GPa)
#
#
# Indices 1 2 3 4 5 6 
#
# 1 141.2171 11.0159 60.1137 0.0000 -4.6763 0.0000
# 2 11.0159 18.8732 10.3360 0.0000 1.6777 0.0000
# 3 60.1137 10.3360 109.0733 0.0000 6.4943 0.0000
# 4 0.0000 0.0000 0.0000 10.1417 0.0000 -4.0283
# 5 -4.6763 1.6777 6.4943 0.0000 32.8589 0.0000
# 6 0.0000 0.0000 0.0000 -4.0283 0.0000 30.4680
#
#
#
# Elastic Compliance Matrix: (Units=1/GPa)
#
#
# Indices 1 2 3 4 5 6 
#
# 1 0.009593 -0.003003 -0.005154 0.000000 0.002537 0.000000
# 2 -0.003003 0.056934 -0.003584 0.000000 -0.002626 0.000000
# 3 -0.005154 -0.003584 0.012528 0.000000 -0.003027 0.000000
# 4 0.000000 0.000000 0.000000 0.104067 0.000000 0.013759
# 5 0.002537 -0.002626 -0.003027 0.000000 0.031526 0.000000
# 6 0.000000 0.000000 0.000000 0.013759 0.000000 0.034640
#
#
# Mechanical properties :
#
#
# Convention : Reuss Voigt Hill
#
# Bulk Modulus (GPa) = 17.99370 48.01055 33.00213
# Shear Modulus (GPa) = 17.16468 27.20692 22.18580
#
# Velocity S-wave (km/s) = 3.07392 3.87003 3.49472
# Velocity P-wave (km/s) = 4.74384 6.81167 5.86953
#
# Compressibility (1/GPa) = 0.05557501
#
# Stress axis : x y z
#
# Youngs Moduli (GPa) = 104.23827 17.56422 79.81877
#
# Poissons Ratio (x) = 0.05274 0.41137
# Poissons Ratio (y) = 0.31298 0.28607
# Poissons Ratio (z) = 0.53722 0.06295
#
# Static dielectric constant tensor:
#      x y z
#    x 4.985780 0.000000 -0.653280 
#    y 0.000000 3.067940 0.000000 
#    z -0.653280 0.000000 3.913520 
# 
# 
# High freq. dielectric constant tensor:
#      x y z
#    x 1.704220 0.000000 -0.002180 
#    y 0.000000 1.642100 0.000000 
#    z -0.002180 0.000000 1.710330 
# 
# From -- ./inp_files/146271.got.cif
#   From: 2010.06.25/outbox.cif.g09.slc.cpg/sg12_74_cif.got.tgz:146271.got - 2010.06.28 00:19:55.
