data_PCOD8079869
_publ_section_title
;
Structure prediction by ZEFSAII (Michael W. Deem and Ramdas Pophale) SiO2 
 PCOD8079869
Probable space group: C 2/M
;
_chemical_formula_sum "Si O2"
_cell_formula_units_Z 36
_cell_length_a 7.554351
_cell_length_b 17.868709
_cell_length_c 14.777692
_cell_angle_alpha 90.000000
_cell_angle_beta 96.697705
_cell_angle_gamma 90.000000
_cell_volume 1981.175125
_symmetry_space_group_name_H-M "C 2/M"
_symmetry_group_IT_number 12
_symmetry_cell_setting 'monoclinic'
loop_
_space_group_symop_operation_xyz
x,y,z
-x,y,-z
-x,-y,-z
x,-y,z
1/2+x,1/2+y,z
1/2-x,1/2+y,-z
1/2-x,1/2-y,-z
1/2+x,1/2-y,z
loop_
_atom_site_type_symbol
_atom_site_label
_atom_site_fract_x
_atom_site_fract_y
_atom_site_fract_z
Si Si1 0.000000 0.802867 0.000000
Si Si2 0.723628 0.411060 0.599094
Si Si3 0.554963 0.089166 0.732123
Si Si4 0.378492 0.159438 0.072117
Si Si5 0.331151 0.411057 0.603218
O O1 0.921534 0.748935 0.075343
O O2 0.165501 0.853954 0.043657
O O3 0.730461 0.500000 0.598741
O O4 0.533951 0.382857 0.626249
O O5 0.749639 0.382211 0.497366
O O6 0.876712 0.379958 0.673494
O O7 0.564926 0.123994 0.830935
O O8 0.718248 0.119351 0.680912
O O9 0.556027 0.000000 0.740811
O O10 0.500000 0.121410 0.000000
O O11 0.324405 0.500000 0.602010
#
# Coordination Sequence:
#
# PCOD8079869 Si02
#       5
#     4   8   8   8   8
#     4   8  18  38  54  62  78 112 166 198 216 252
#     4   8  14  25  40  60  94 130 154 174 202 258
#     4  10  18  26  43  74 100 117 140 178 233 278
#     4   9  18  34  52  66  86 113 152 195 223 262
#     4   8  14  25  39  61  95 130 154 171 203 260
#
# _framework density 18.171033000000001
#
# number of rings (size 3 to 8) (size 9 to 14) (size 15 to 20)
#    0.667    2.667    0.000    2.000    0.000    4.889 
#    0.000    0.556    0.000    0.000    0.000    6.222 
#    0.000    0.000    0.000    0.000    0.000    0.000 
#
# Total GULP energy -223000.345875 kJ/mol
# GULP energy per Si atom -12388.908104 kJ/mol
# Density = 1.812968 g / cm^3
# Si number density = 18.171033 Si / 1000 Ang^3
#
#
#
# Elastic Constant Matrix: (Units=GPa)
#
#
# Indices 1 2 3 4 5 6 
#
# 1 142.9568 13.4221 87.6662 0.0000 -1.9191 0.0000
# 2 13.4221 11.9328 21.6555 0.0000 0.9730 0.0000
# 3 87.6662 21.6555 160.6983 0.0000 -10.4199 0.0000
# 4 0.0000 0.0000 0.0000 -43.1136 0.0000 -8.8028
# 5 -1.9191 0.9730 -10.4199 0.0000 20.7820 0.0000
# 6 0.0000 0.0000 0.0000 -8.8028 0.0000 5.2750
#
#
#
# Elastic Compliance Matrix: (Units=1/GPa)
#
#
# Indices 1 2 3 4 5 6 
#
# 1 0.010608 -0.001413 -0.005714 0.000000 -0.001819 0.000000
# 2 -0.001413 0.114690 -0.015547 0.000000 -0.013295 0.000000
# 3 -0.005714 -0.015547 0.011833 0.000000 0.006133 0.000000
# 4 0.000000 0.000000 0.000000 -0.017300 0.000000 -0.028870
# 5 -0.001819 -0.013295 0.006133 0.000000 0.051648 0.000000
# 6 0.000000 0.000000 0.000000 -0.028870 0.000000 0.141397
#
#
# Mechanical properties :
#
#
# Convention : Reuss Voigt Hill
#
# Bulk Modulus (GPa) = 10.89535 62.34174 36.61854
# Shear Modulus (GPa) = 12.85950 9.44494 11.15222
#
# Velocity S-wave (km/s) = 2.66314 2.28234 2.48006
# Velocity P-wave (km/s) = 3.93261 6.42870 5.32887
#
# Compressibility (1/GPa) = 0.09178232
#
# Stress axis : x y z
#
# Youngs Moduli (GPa) = 94.27193 8.71918 84.50939
#
# Poissons Ratio (x) = 0.01232 0.48292
# Poissons Ratio (y) = 0.13318 1.31386
# Poissons Ratio (z) = 0.53871 0.13556
#
# Static dielectric constant tensor:
#      x y z
#    x 3.802490 0.000000 -0.011390 
#    y 0.000000 2.645910 0.000000 
#    z -0.011390 0.000000 3.274550 
# 
# 
# High freq. dielectric constant tensor:
#      x y z
#    x 1.725060 0.000000 0.000490 
#    y 0.000000 1.627810 0.000000 
#    z 0.000490 0.000000 1.698300 
# 
# From -- ./inp_files/119737.got.cif
#   From: 2010.06.25/outbox.cif.g09.slc.cpg/sg12_60_cif.got.tgz:119737.got - 2010.06.28 00:19:55.
