data_PCOD8079636
_publ_section_title
;
Structure prediction by ZEFSAII (Michael W. Deem and Ramdas Pophale) SiO2 
 PCOD8079636
Probable space group: C 2/M
;
_chemical_formula_sum "Si O2"
_cell_formula_units_Z 40
_cell_length_a 8.870606
_cell_length_b 27.361600
_cell_length_c 7.940994
_cell_angle_alpha 90.000000
_cell_angle_beta 86.525789
_cell_angle_gamma 90.000000
_cell_volume 1923.847999
_symmetry_space_group_name_H-M "C 2/M"
_symmetry_group_IT_number 12
_symmetry_cell_setting 'monoclinic'
loop_
_space_group_symop_operation_xyz
x,y,z
-x,y,-z
-x,-y,-z
x,-y,z
1/2+x,1/2+y,z
1/2-x,1/2+y,-z
1/2-x,1/2-y,-z
1/2+x,1/2-y,z
loop_
_atom_site_type_symbol
_atom_site_label
_atom_site_fract_x
_atom_site_fract_y
_atom_site_fract_z
Si Si1 0.952707 0.186546 0.689075
Si Si2 0.858568 0.903373 0.918498
Si Si3 0.396613 0.859179 0.849865
Si Si4 0.927730 0.552905 0.189851
Si Si5 0.756114 0.764650 0.194563
O O1 0.074270 0.221718 0.769081
O O2 0.000000 0.170475 0.500000
O O3 0.928831 0.137865 0.795797
O O4 0.797974 0.218067 0.692663
O O5 0.753174 0.939208 0.813714
O O6 0.761877 0.879981 0.074678
O O7 0.000000 0.931029 0.000000
O O8 0.486101 0.900624 0.729263
O O9 0.355766 0.810234 0.751338
O O10 0.500000 0.843755 0.000000
O O11 0.955401 0.500000 0.277694
O O12 0.000000 0.551616 0.000000
O O13 0.750000 0.750000 0.000000
#
# Coordination Sequence:
#
# PCOD8079636 Si02
#       5
#     8   8   8   8   8
#     4  12  25  36  50  81 118 146 183 231 274 319
#     4  10  17  33  54  78 108 145 183 221 273 337
#     4   9  17  30  55  79 104 138 185 216 271 325
#     4   8  17  31  53  85 112 129 173 241 287 315
#     4  12  21  37  58  78 106 155 190 222 265 336
#
# _framework density 20.791663
#
# number of rings (size 3 to 8) (size 9 to 14) (size 15 to 20)
#    0.000    2.200    4.000    2.400    2.800    0.400 
#    0.000    0.000    0.000    0.600    0.000    1.400 
#    0.000    0.000    0.000    0.000    0.000    0.000 
#
# Total GULP energy -247770.754281 kJ/mol
# GULP energy per Si atom -12388.537714 kJ/mol
# Density = 2.074434 g / cm^3
# Si number density = 20.791663 Si / 1000 Ang^3
#
#
#
# Elastic Constant Matrix: (Units=GPa)
#
#
# Indices 1 2 3 4 5 6 
#
# 1 106.7863 19.4229 24.6748 0.0000 -7.1778 0.0000
# 2 19.4229 98.9550 13.7242 0.0000 -5.2135 0.0000
# 3 24.6748 13.7242 36.2058 0.0000 -5.7216 0.0000
# 4 0.0000 0.0000 0.0000 6.8502 0.0000 2.5575
# 5 -7.1778 -5.2135 -5.7216 0.0000 15.7052 0.0000
# 6 0.0000 0.0000 0.0000 2.5575 0.0000 25.2807
#
#
#
# Elastic Compliance Matrix: (Units=1/GPa)
#
#
# Indices 1 2 3 4 5 6 
#
# 1 0.011326 -0.001143 -0.006926 0.000000 0.002274 0.000000
# 2 -0.001143 0.010853 -0.003023 0.000000 0.001980 0.000000
# 3 -0.006926 -0.003023 0.034832 0.000000 0.008521 0.000000
# 4 0.000000 0.000000 0.000000 0.151710 0.000000 -0.015347
# 5 0.002274 0.001980 0.008521 0.000000 0.068474 0.000000
# 6 0.000000 0.000000 0.000000 -0.015347 0.000000 0.041109
#
#
# Mechanical properties :
#
#
# Convention : Reuss Voigt Hill
#
# Bulk Modulus (GPa) = 28.71186 39.73231 34.22208
# Shear Modulus (GPa) = 14.20068 21.84224 18.02146
#
# Velocity S-wave (km/s) = 2.61626 3.24470 2.94728
# Velocity P-wave (km/s) = 4.79226 5.76096 5.29879
#
# Compressibility (1/GPa) = 0.03482881
#
# Stress axis : x y z
#
# Youngs Moduli (GPa) = 88.29599 92.13726 28.70886
#
# Poissons Ratio (x) = 0.10528 0.19884
# Poissons Ratio (y) = 0.10089 0.08677
# Poissons Ratio (z) = 0.61155 0.27849
#
# Static dielectric constant tensor:
#      x y z
#    x 4.210410 0.000000 -0.105040 
#    y 0.000000 4.354390 0.000000 
#    z -0.105040 0.000000 3.111990 
# 
# 
# High freq. dielectric constant tensor:
#      x y z
#    x 1.834170 0.000000 -0.010590 
#    y 0.000000 1.812260 0.000000 
#    z -0.010590 0.000000 1.740510 
# 
# From -- ./inp_files/41060.got.cif
#   From: 2010.06.25/outbox.cif.g09.slc.cpg/sg12_21_cif.got.tgz:41060.got - 2010.06.28 00:19:55.
