data_PCOD8079618
_publ_section_title
;
Structure prediction by ZEFSAII (Michael W. Deem and Ramdas Pophale) SiO2 
 PCOD8079618
Probable space group: C 2/M
;
_chemical_formula_sum "Si O2"
_cell_formula_units_Z 64
_cell_length_a 24.382316
_cell_length_b 23.639806
_cell_length_c 8.622568
_cell_angle_alpha 90.000000
_cell_angle_beta 131.993335
_cell_angle_gamma 90.000000
_cell_volume 3693.808980
_symmetry_space_group_name_H-M "C 2/M"
_symmetry_group_IT_number 12
_symmetry_cell_setting 'monoclinic'
loop_
_space_group_symop_operation_xyz
x,y,z
-x,y,-z
-x,-y,-z
x,-y,z
1/2+x,1/2+y,z
1/2-x,1/2+y,-z
1/2-x,1/2-y,-z
1/2+x,1/2-y,z
loop_
_atom_site_type_symbol
_atom_site_label
_atom_site_fract_x
_atom_site_fract_y
_atom_site_fract_z
Si Si1 0.297255 0.763147 0.941932
Si Si2 0.107427 0.064037 0.363470
Si Si3 0.527841 0.383072 0.730025
Si Si4 0.944098 0.757663 0.103048
Si Si5 0.737994 0.836470 0.629429
Si Si6 0.199954 0.836539 0.590441
Si Si7 0.101176 0.266372 0.332675
Si Si8 0.837093 0.935006 0.877688
O O1 0.283141 0.714170 0.791074
O O2 0.267329 0.824337 0.833958
O O3 0.250000 0.750000 0.000000
O O4 0.386600 0.765188 0.126267
O O5 0.163638 0.103739 0.565786
O O6 0.119521 0.074076 0.202998
O O7 0.025467 0.079973 0.261367
O O8 0.124637 0.000000 0.442767
O O9 0.500000 0.377812 0.500000
O O10 0.537686 0.322892 0.831368
O O11 0.606612 0.415310 0.880689
O O12 0.020845 0.723164 0.257113
O O13 0.906949 0.747824 0.864696
O O14 0.763301 0.837888 0.504056
O O15 0.650132 0.822546 0.462820
O O16 0.762071 0.896976 0.748652
O O17 0.138473 0.787387 0.487008
O O18 0.813439 0.000000 0.856539
#
# Coordination Sequence:
#
# PCOD8079618 Si02
#       8
#     8   8   8   8   8   8   8   8
#     4  11  21  31  50  74 105 136 170 214 260 312
#     4  10  21  35  52  72  98 140 182 217 251 301
#     4  12  24  33  47  73 112 143 176 216 255 308
#     4  11  20  33  51  80 105 142 174 209 265 319
#     4  10  18  35  52  75 101 131 177 219 257 309
#     4  10  17  33  50  71  98 134 177 214 253 301
#     4  10  18  31  57  77  99 134 178 218 263 311
#     4  10  21  37  57  73  98 140 186 221 254 306
#
# _framework density 17.326288000000002
#
# number of rings (size 3 to 8) (size 9 to 14) (size 15 to 20)
#    0.000    1.500    5.000    2.250    3.500    2.000 
#    0.000    0.000    0.000    0.000    0.000    2.625 
#    0.000    1.000    0.000    0.000    0.000    0.125 
#
# Total GULP energy -396500.988389 kJ/mol
# GULP energy per Si atom -12390.655887 kJ/mol
# Density = 1.728685 g / cm^3
# Si number density = 17.326288 Si / 1000 Ang^3
#
#
#
# Elastic Constant Matrix: (Units=GPa)
#
#
# Indices 1 2 3 4 5 6 
#
# 1 93.9356 38.3123 31.7692 0.0000 34.4951 0.0000
# 2 38.3123 113.5790 61.2750 0.0000 23.2357 0.0000
# 3 31.7692 61.2750 70.1689 0.0000 21.7917 0.0000
# 4 0.0000 0.0000 0.0000 17.6441 0.0000 12.6553
# 5 34.4951 23.2357 21.7917 0.0000 25.5805 0.0000
# 6 0.0000 0.0000 0.0000 12.6553 0.0000 15.8156
#
#
#
# Elastic Compliance Matrix: (Units=1/GPa)
#
#
# Indices 1 2 3 4 5 6 
#
# 1 0.021333 -0.001827 0.000483 0.000000 -0.027520 0.000000
# 2 -0.001827 0.017068 -0.013635 0.000000 -0.001424 0.000000
# 3 0.000483 -0.013635 0.030316 0.000000 -0.014092 0.000000
# 4 0.000000 0.000000 0.000000 0.133022 0.000000 -0.106442
# 5 -0.027520 -0.001424 -0.014092 0.000000 0.089501 0.000000
# 6 0.000000 0.000000 0.000000 -0.106442 0.000000 0.148402
#
#
# Mechanical properties :
#
#
# Convention : Reuss Voigt Hill
#
# Bulk Modulus (GPa) = 25.80017 60.04405 42.92211
# Shear Modulus (GPa) = 10.36225 21.56318 15.96271
#
# Velocity S-wave (km/s) = 2.44819 3.53162 3.03859
# Velocity P-wave (km/s) = 4.78692 7.16659 6.09404
#
# Compressibility (1/GPa) = 0.03875943
#
# Stress axis : x y z
#
# Youngs Moduli (GPa) = 46.87555 58.58831 32.98580
#
# Poissons Ratio (x) = 0.10703 -0.01594
# Poissons Ratio (y) = 0.08563 0.44977
# Poissons Ratio (z) = -0.02265 0.79887
#
# Static dielectric constant tensor:
#      x y z
#    x 3.228050 0.000000 0.109810 
#    y 0.000000 2.657870 0.000000 
#    z 0.109810 0.000000 3.104010 
# 
# 
# High freq. dielectric constant tensor:
#      x y z
#    x 1.663350 0.000000 0.004910 
#    y 0.000000 1.640470 0.000000 
#    z 0.004910 0.000000 1.662170 
# 
# From -- ./inp_files/99692.got.cif
#   From: 2010.06.25/outbox.cif.g09.slc.cpg/sg12_50_cif.got.tgz:99692.got - 2010.06.28 00:19:55.
