data_PCOD8079589
_publ_section_title
;
Structure prediction by ZEFSAII (Michael W. Deem and Ramdas Pophale) SiO2 
 PCOD8079589
Probable space group: C 2/M
;
_chemical_formula_sum "Si O2"
_cell_formula_units_Z 48
_cell_length_a 18.452055
_cell_length_b 20.491956
_cell_length_c 9.095992
_cell_angle_alpha 90.000000
_cell_angle_beta 45.802893
_cell_angle_gamma 90.000000
_cell_volume 2465.838078
_symmetry_space_group_name_H-M "C 2/M"
_symmetry_group_IT_number 12
_symmetry_cell_setting 'monoclinic'
loop_
_space_group_symop_operation_xyz
x,y,z
-x,y,-z
-x,-y,-z
x,-y,z
1/2+x,1/2+y,z
1/2-x,1/2+y,-z
1/2-x,1/2-y,-z
1/2+x,1/2-y,z
loop_
_atom_site_type_symbol
_atom_site_label
_atom_site_fract_x
_atom_site_fract_y
_atom_site_fract_z
Si Si1 0.869050 0.749198 0.809927
Si Si2 0.963696 0.114402 0.700433
Si Si3 0.030511 0.698514 0.800414
Si Si4 0.902328 0.629990 0.563447
Si Si5 0.693739 0.572968 0.837932
Si Si6 0.906797 0.836399 0.238449
O O1 0.908474 0.820990 0.718080
O O2 0.893081 0.703342 0.638567
O O3 0.926340 0.724340 0.874890
O O4 0.750000 0.750000 0.000000
O O5 0.000000 0.076257 0.500000
O O6 0.066203 0.128363 0.646880
O O7 0.883894 0.076384 0.915745
O O8 0.081377 0.640603 0.634333
O O9 0.110110 0.758934 0.711002
O O10 0.000000 0.667838 0.000000
O O11 0.806731 0.585349 0.737675
O O12 0.000000 0.595664 0.500000
O O13 0.685316 0.500000 0.784314
O O14 0.682219 0.626151 0.722693
O O15 0.000000 0.845453 0.000000
#
# Coordination Sequence:
#
# PCOD8079589 Si02
#       6
#     8   8   8   8   8   8
#     4  10  17  32  56  83 115 144 173 223 285 337
#     4  10  19  35  57  84 111 139 178 232 281 328
#     4   9  18  33  53  84 113 135 178 226 282 335
#     4  10  21  37  57  82 113 147 181 227 279 325
#     4  11  23  38  55  78 109 155 196 217 262 328
#     4   8  17  33  53  78 110 139 173 221 275 333
#
# _framework density 19.465999
#
# number of rings (size 3 to 8) (size 9 to 14) (size 15 to 20)
#    0.000    2.333    1.667    3.500    0.000    4.333 
#    3.000    0.000    0.000    0.500    0.000    0.000 
#    0.000    0.000    0.000    0.000    0.000    0.000 
#
# Total GULP energy -297399.545762 kJ/mol
# GULP energy per Si atom -12391.647740 kJ/mol
# Density = 1.942169 g / cm^3
# Si number density = 19.465999 Si / 1000 Ang^3
#
#
#
# Elastic Constant Matrix: (Units=GPa)
#
#
# Indices 1 2 3 4 5 6 
#
# 1 80.4164 16.0098 46.9723 0.0000 -0.6169 0.0000
# 2 16.0098 48.1517 15.3614 0.0000 2.1032 0.0000
# 3 46.9723 15.3614 94.4976 0.0000 12.4388 0.0000
# 4 0.0000 0.0000 0.0000 5.4296 0.0000 8.7612
# 5 -0.6169 2.1032 12.4388 0.0000 40.3786 0.0000
# 6 0.0000 0.0000 0.0000 8.7612 0.0000 1.2636
#
#
#
# Elastic Compliance Matrix: (Units=1/GPa)
#
#
# Indices 1 2 3 4 5 6 
#
# 1 0.018405 -0.003382 -0.009025 0.000000 0.003238 0.000000
# 2 -0.003382 0.022525 -0.001896 0.000000 -0.000641 0.000000
# 3 -0.009025 -0.001896 0.016032 0.000000 -0.004978 0.000000
# 4 0.000000 0.000000 0.000000 -0.018077 0.000000 0.125343
# 5 0.003238 -0.000641 -0.004978 0.000000 0.026382 0.000000
# 6 0.000000 0.000000 0.000000 0.125343 0.000000 -0.077680
#
#
# Mechanical properties :
#
#
# Convention : Reuss Voigt Hill
#
# Bulk Modulus (GPa) = 35.26625 42.19477 38.73051
# Shear Modulus (GPa) = 194.97287 19.06250 107.01768
#
# Velocity S-wave (km/s) = 10.01889 3.13273 7.42267
# Velocity P-wave (km/s) = 12.32857 5.89987 9.66443
#
# Compressibility (1/GPa) = 0.02835573
#
# Stress axis : x y z
#
# Youngs Moduli (GPa) = 54.33289 44.39509 62.37552
#
# Poissons Ratio (x) = 0.15013 0.56295
# Poissons Ratio (y) = 0.18373 0.11829
# Poissons Ratio (z) = 0.49036 0.08419
#
# Static dielectric constant tensor:
#      x y z
#    x 4.246390 0.000000 0.007370 
#    y 0.000000 3.167380 0.000000 
#    z 0.007370 0.000000 3.695750 
# 
# 
# High freq. dielectric constant tensor:
#      x y z
#    x 1.760960 0.000000 0.007530 
#    y 0.000000 1.713260 0.000000 
#    z 0.007530 0.000000 1.751790 
# 
# From -- ./inp_files/77255.got.cif
#   From: 2010.06.25/outbox.cif.g09.slc.cpg/sg12_39_cif.got.tgz:77255.got - 2010.06.28 00:19:55.
