data_PCOD8079887
_publ_section_title
;
Structure prediction by ZEFSAII (Michael W. Deem and Ramdas Pophale) SiO2 
 PCOD8079887
Probable space group: C 2/M
;
_chemical_formula_sum "Si O2"
_cell_formula_units_Z 64
_cell_length_a 27.841461
_cell_length_b 9.510223
_cell_length_c 14.960929
_cell_angle_alpha 90.000000
_cell_angle_beta 91.341974
_cell_angle_gamma 90.000000
_cell_volume 3960.245869
_symmetry_space_group_name_H-M "C 2/M"
_symmetry_group_IT_number 12
_symmetry_cell_setting 'monoclinic'
loop_
_space_group_symop_operation_xyz
x,y,z
-x,y,-z
-x,-y,-z
x,-y,z
1/2+x,1/2+y,z
1/2-x,1/2+y,-z
1/2-x,1/2-y,-z
1/2+x,1/2-y,z
loop_
_atom_site_type_symbol
_atom_site_label
_atom_site_fract_x
_atom_site_fract_y
_atom_site_fract_z
Si Si1 0.054954 0.164474 0.259824
Si Si2 0.358417 0.338557 0.625646
Si Si3 0.007217 0.167899 0.901553
Si Si4 0.660548 0.155851 0.693240
Si Si5 0.406404 0.655688 0.212125
Si Si6 0.251282 0.336477 0.591006
Si Si7 0.524710 0.343441 0.616625
Si Si8 0.092481 0.657819 0.521209
O O1 0.111066 0.196079 0.282421
O O2 0.036050 0.226605 0.164431
O O3 0.024089 0.223100 0.343068
O O4 0.043324 0.000000 0.255711
O O5 0.368269 0.500000 0.596384
O O6 0.302273 0.315431 0.642948
O O7 0.374004 0.235376 0.548095
O O8 0.058869 0.216764 0.864503
O O9 0.005818 0.000000 0.905150
O O10 0.000000 0.232566 0.000000
O O11 0.640720 0.248317 0.775079
O O12 0.710327 0.219837 0.656653
O O13 0.621539 0.149809 0.613894
O O14 0.670115 0.000000 0.731651
O O15 0.388349 0.500000 0.184996
O O16 0.436031 0.648753 0.304237
O O17 0.241703 0.500000 0.567028
O O18 0.250000 0.250000 0.500000
O O19 0.516268 0.500000 0.577411
O O20 0.543341 0.245465 0.536118
O O21 0.080003 0.500000 0.487491
#
# Coordination Sequence:
#
# PCOD8079887 Si02
#       8
#     8   8   8   8   8   8   8   8
#     4   8  15  27  41  60  84 109 137 169 206 251
#     4  10  19  29  42  58  79 109 144 178 211 249
#     4   8  13  24  45  71  94 109 126 164 213 253
#     4   9  17  28  40  56  81 110 140 179 216 241
#     4   8  14  24  41  65  85 105 135 166 202 250
#     4  10  19  30  43  59  79 108 148 188 220 247
#     4   8  14  26  41  55  78 109 140 170 201 242
#     4  10  18  27  39  56  80 109 144 180 210 241
#
# _framework density 16.160613000000001
#
# number of rings (size 3 to 8) (size 9 to 14) (size 15 to 20)
#    0.000    3.125    1.250    1.875    0.000    1.500 
#    0.000    3.125    0.000    1.125    0.000    0.875 
#    0.000    0.000    0.000    0.000    0.000    0.000 
#
# Total GULP energy -396522.293309 kJ/mol
# GULP energy per Si atom -12391.321666 kJ/mol
# Density = 1.612383 g / cm^3
# Si number density = 16.160613 Si / 1000 Ang^3
#
#
#
# Elastic Constant Matrix: (Units=GPa)
#
#
# Indices 1 2 3 4 5 6 
#
# 1 105.7754 30.5445 43.0018 0.0000 -15.4481 0.0000
# 2 30.5445 55.3552 25.3442 0.0000 -11.0771 0.0000
# 3 43.0018 25.3442 84.5351 0.0000 -16.3107 0.0000
# 4 0.0000 0.0000 0.0000 10.4000 0.0000 -5.4803
# 5 -15.4481 -11.0771 -16.3107 0.0000 20.5818 0.0000
# 6 0.0000 0.0000 0.0000 -5.4803 0.0000 9.4796
#
#
#
# Elastic Compliance Matrix: (Units=1/GPa)
#
#
# Indices 1 2 3 4 5 6 
#
# 1 0.013166 -0.004368 -0.004645 0.000000 0.003850 0.000000
# 2 -0.004368 0.023397 -0.003537 0.000000 0.006512 0.000000
# 3 -0.004645 -0.003537 0.016778 0.000000 0.007907 0.000000
# 4 0.000000 0.000000 0.000000 0.138279 0.000000 0.079942
# 5 0.003850 0.006512 0.007907 0.000000 0.061247 0.000000
# 6 0.000000 0.000000 0.000000 0.079942 0.000000 0.151706
#
#
# Mechanical properties :
#
#
# Convention : Reuss Voigt Hill
#
# Bulk Modulus (GPa) = 35.40706 49.27187 42.33946
# Shear Modulus (GPa) = 11.38730 17.87731 14.63230
#
# Velocity S-wave (km/s) = 2.65737 3.32961 3.01230
# Velocity P-wave (km/s) = 5.60112 6.73326 6.19311
#
# Compressibility (1/GPa) = 0.02824295
#
# Stress axis : x y z
#
# Youngs Moduli (GPa) = 75.95374 42.73979 59.60177
#
# Poissons Ratio (x) = 0.18667 0.27685
# Poissons Ratio (y) = 0.33174 0.21078
# Poissons Ratio (z) = 0.35280 0.15115
#
# Static dielectric constant tensor:
#      x y z
#    x 3.210730 0.000000 -0.131850 
#    y 0.000000 3.085980 0.000000 
#    z -0.131850 0.000000 2.951360 
# 
# 
# High freq. dielectric constant tensor:
#      x y z
#    x 1.618630 0.000000 -0.012370 
#    y 0.000000 1.597360 0.000000 
#    z -0.012370 0.000000 1.582160 
# 
# From -- ./inp_files/248250.got.cif
#   From: 2010.06.25/outbox.cif.g09.slc.cpg/sg12_125_cif.got.tgz:248250.got - 2010.06.28 00:19:55.
