data_PCOD8079549
_publ_section_title
;
Structure prediction by ZEFSAII (Michael W. Deem and Ramdas Pophale) SiO2 
 PCOD8079549
Probable space group: C 2/M
;
_chemical_formula_sum "Si O2"
_cell_formula_units_Z 64
_cell_length_a 21.761901
_cell_length_b 22.288835
_cell_length_c 9.379995
_cell_angle_alpha 90.000000
_cell_angle_beta 62.739217
_cell_angle_gamma 90.000000
_cell_volume 4044.406837
_symmetry_space_group_name_H-M "C 2/M"
_symmetry_group_IT_number 12
_symmetry_cell_setting 'monoclinic'
loop_
_space_group_symop_operation_xyz
x,y,z
-x,y,-z
-x,-y,-z
x,-y,z
1/2+x,1/2+y,z
1/2-x,1/2+y,-z
1/2-x,1/2-y,-z
1/2+x,1/2-y,z
loop_
_atom_site_type_symbol
_atom_site_label
_atom_site_fract_x
_atom_site_fract_y
_atom_site_fract_z
Si Si1 0.275408 0.566515 0.342269
Si Si2 0.666370 0.567326 0.009523
Si Si3 0.729710 0.841833 0.583305
Si Si4 0.015394 0.185911 0.649580
Si Si5 0.570131 0.332530 0.008137
Si Si6 0.141530 0.769617 0.673532
Si Si7 0.094945 0.933114 0.607134
Si Si8 0.287866 0.568187 0.736452
O O1 0.258520 0.500000 0.418931
O O2 0.218134 0.612289 0.463358
O O3 0.352253 0.584363 0.320524
O O4 0.273945 0.568685 0.173921
O O5 0.638761 0.500000 0.064023
O O6 0.602570 0.605509 0.023631
O O7 0.701872 0.592100 0.114268
O O8 0.797914 0.804053 0.473117
O O9 0.663812 0.799390 0.674292
O O10 0.738267 0.883239 0.714328
O O11 0.077447 0.229183 0.632971
O O12 0.034675 0.116099 0.661004
O O13 0.000000 0.197467 0.500000
O O14 0.949901 0.201840 0.821919
O O15 0.500000 0.347832 0.000000
O O16 0.622543 0.295248 0.851225
O O17 0.136983 0.931566 0.415306
O O18 0.063465 0.000000 0.664672
O O19 0.256996 0.500000 0.765280
#
# Coordination Sequence:
#
# PCOD8079549 Si02
#       8
#     8   8   8   8   8   8   8   8
#     4   9  15  27  48  68  91 119 148 189 232 266
#     4  10  18  28  42  65  94 120 154 192 228 260
#     4  10  17  32  52  62  89 117 158 198 218 287
#     4  11  20  31  47  63  92 124 158 197 225 263
#     4  10  20  32  43  61  93 125 164 193 217 263
#     4  10  20  33  46  67  84 123 163 190 233 256
#     4   9  16  28  43  62  88 121 162 188 215 258
#     4   9  17  29  47  68  92 117 144 190 239 270
#
# _framework density 15.824322
#
# number of rings (size 3 to 8) (size 9 to 14) (size 15 to 20)
#    0.000    2.250    3.750    2.625    0.000    1.000 
#    0.000    1.875    0.000    0.000    0.000    0.000 
#    0.000   20.000    0.000    0.000    0.000    0.500 
#
# Total GULP energy -396501.591846 kJ/mol
# GULP energy per Si atom -12390.674745 kJ/mol
# Density = 1.578831 g / cm^3
# Si number density = 15.824322 Si / 1000 Ang^3
#
#
#
# Elastic Constant Matrix: (Units=GPa)
#
#
# Indices 1 2 3 4 5 6 
#
# 1 47.4389 45.9473 44.0809 0.0000 8.3216 0.0000
# 2 45.9473 83.6822 33.3482 0.0000 2.8412 0.0000
# 3 44.0809 33.3482 100.8509 0.0000 26.4615 0.0000
# 4 0.0000 0.0000 0.0000 18.0764 0.0000 -2.5102
# 5 8.3216 2.8412 26.4615 0.0000 24.4226 0.0000
# 6 0.0000 0.0000 0.0000 -2.5102 0.0000 22.9255
#
#
#
# Elastic Compliance Matrix: (Units=1/GPa)
#
#
# Indices 1 2 3 4 5 6 
#
# 1 0.068503 -0.029351 -0.020969 0.000000 0.002793 0.000000
# 2 -0.029351 0.026729 0.003050 0.000000 0.003587 0.000000
# 3 -0.020969 0.003050 0.022762 0.000000 -0.017872 0.000000
# 4 0.000000 0.000000 0.000000 0.056175 0.000000 0.006151
# 5 0.002793 0.003587 -0.017872 0.000000 0.058941 0.000000
# 6 0.000000 0.000000 0.000000 0.006151 0.000000 0.044293
#
#
# Mechanical properties :
#
#
# Convention : Reuss Voigt Hill
#
# Bulk Modulus (GPa) = 42.64073 53.19164 47.91618
# Shear Modulus (GPa) = 13.16613 20.32462 16.74538
#
# Velocity S-wave (km/s) = 2.88760 3.58773 3.25654
# Velocity P-wave (km/s) = 6.17434 7.13086 6.66977
#
# Compressibility (1/GPa) = 0.02345176
#
# Stress axis : x y z
#
# Youngs Moduli (GPa) = 14.59784 37.41285 43.93277
#
# Poissons Ratio (x) = 1.09812 0.92124
# Poissons Ratio (y) = 0.42847 -0.13397
# Poissons Ratio (z) = 0.30611 -0.11409
#
# Static dielectric constant tensor:
#      x y z
#    x 2.623960 0.000000 0.177470 
#    y 0.000000 3.097830 0.000000 
#    z 0.177470 0.000000 3.331100 
# 
# 
# High freq. dielectric constant tensor:
#      x y z
#    x 1.554660 0.000000 0.025820 
#    y 0.000000 1.594520 0.000000 
#    z 0.025820 0.000000 1.618170 
# 
# From -- ./inp_files/99500.got.cif
#   From: 2010.06.25/outbox.cif.g09.slc.cpg/sg12_50_cif.got.tgz:99500.got - 2010.06.28 00:19:55.
