data_PCOD8079284
_publ_section_title
;
Structure prediction by ZEFSAII (Michael W. Deem and Ramdas Pophale) SiO2 
 PCOD8079284
Probable space group: C 2/M
;
_chemical_formula_sum "Si O2"
_cell_formula_units_Z 64
_cell_length_a 14.268358
_cell_length_b 25.722027
_cell_length_c 15.694796
_cell_angle_alpha 90.000000
_cell_angle_beta 136.275248
_cell_angle_gamma 90.000000
_cell_volume 3981.394789
_symmetry_space_group_name_H-M "C 2/M"
_symmetry_group_IT_number 12
_symmetry_cell_setting 'monoclinic'
loop_
_space_group_symop_operation_xyz
x,y,z
-x,y,-z
-x,-y,-z
x,-y,z
1/2+x,1/2+y,z
1/2-x,1/2+y,-z
1/2-x,1/2-y,-z
1/2+x,1/2-y,z
loop_
_atom_site_type_symbol
_atom_site_label
_atom_site_fract_x
_atom_site_fract_y
_atom_site_fract_z
Si Si1 0.299236 0.640064 0.653578
Si Si2 0.930412 0.716560 0.538951
Si Si3 0.496658 0.289579 0.278638
Si Si4 0.303854 0.221281 0.865914
Si Si5 0.151756 0.843715 0.122620
Si Si6 0.068710 0.366562 0.745481
Si Si7 0.001196 0.299367 0.855772
Si Si8 0.417660 0.939503 0.532027
O O1 0.211624 0.691345 0.578016
O O2 0.444747 0.653183 0.705415
O O3 0.319222 0.632842 0.766111
O O4 0.228148 0.589186 0.567418
O O5 0.000000 0.738776 0.500000
O O6 0.903305 0.763195 0.586745
O O7 0.033887 0.675257 0.649179
O O8 0.351844 0.294012 0.228820
O O9 0.488261 0.255172 0.187436
O O10 0.332910 0.282272 0.877597
O O11 0.361198 0.195877 0.816543
O O12 0.375622 0.198680 0.996847
O O13 0.267306 0.870340 0.138827
O O14 0.000000 0.861598 0.000000
O O15 0.008541 0.348451 0.796713
O O16 0.002014 0.420755 0.670642
O O17 0.500000 0.926171 0.500000
O O18 0.388768 0.000000 0.522824
#
# Coordination Sequence:
#
# PCOD8079284 Si02
#       8
#     8   8   8   8   8   8   8   8
#     4  11  19  32  46  75  97 134 170 202 255 300
#     4  10  17  30  44  63 101 134 167 206 230 282
#     4  11  20  27  45  67 101 141 172 203 245 286
#     4  11  19  31  41  72 107 150 179 194 225 286
#     4  12  19  28  48  73 110 141 174 201 230 294
#     4  10  19  33  50  74  96 135 173 208 252 297
#     4  10  20  29  46  68 107 144 180 201 224 289
#     4  10  20  38  61  76  94 123 166 224 272 313
#
# _framework density 16.074769
#
# number of rings (size 3 to 8) (size 9 to 14) (size 15 to 20)
#    0.000    1.375    7.500    1.500    1.750    0.000 
#    0.000    0.000    0.000    1.500    0.000    3.500 
#    0.000    0.000    0.000    0.000    0.000    0.000 
#
# Total GULP energy -396689.745575 kJ/mol
# GULP energy per Si atom -12396.554549 kJ/mol
# Density = 1.603818 g / cm^3
# Si number density = 16.074769 Si / 1000 Ang^3
#
#
#
# Elastic Constant Matrix: (Units=GPa)
#
#
# Indices 1 2 3 4 5 6 
#
# 1 107.1146 37.1840 47.2793 0.0000 3.4480 0.0000
# 2 37.1840 67.6773 26.6289 0.0000 0.3999 0.0000
# 3 47.2793 26.6289 80.4336 0.0000 2.8759 0.0000
# 4 0.0000 0.0000 0.0000 14.2512 0.0000 -0.2460
# 5 3.4480 0.3999 2.8759 0.0000 30.0069 0.0000
# 6 0.0000 0.0000 0.0000 -0.2460 0.0000 15.2900
#
#
#
# Elastic Compliance Matrix: (Units=1/GPa)
#
#
# Indices 1 2 3 4 5 6 
#
# 1 0.014021 -0.005138 -0.006508 0.000000 -0.000919 0.000000
# 2 -0.005138 0.018875 -0.003252 0.000000 0.000650 0.000000
# 3 -0.006508 -0.003252 0.017366 0.000000 -0.000873 0.000000
# 4 0.000000 0.000000 0.000000 0.070189 0.000000 0.001129
# 5 -0.000919 0.000650 -0.000873 0.000000 0.033506 0.000000
# 6 0.000000 0.000000 0.000000 0.001129 0.000000 0.065420
#
#
# Mechanical properties :
#
#
# Convention : Reuss Voigt Hill
#
# Bulk Modulus (GPa) = 48.86075 53.04555 50.95315
# Shear Modulus (GPa) = 19.53159 21.51851 20.52505
#
# Velocity S-wave (km/s) = 3.48953 3.66273 3.57718
# Velocity P-wave (km/s) = 6.83357 7.13851 6.98770
#
# Compressibility (1/GPa) = 0.02046632
#
# Stress axis : x y z
#
# Youngs Moduli (GPa) = 71.31907 52.98148 57.58377
#
# Poissons Ratio (x) = 0.27220 0.37476
# Poissons Ratio (y) = 0.36641 0.18727
# Poissons Ratio (z) = 0.46415 0.17230
#
# Static dielectric constant tensor:
#      x y z
#    x 3.215400 0.000000 0.061060 
#    y 0.000000 2.621130 0.000000 
#    z 0.061060 0.000000 3.308920 
# 
# 
# High freq. dielectric constant tensor:
#      x y z
#    x 1.622870 0.000000 0.002530 
#    y 0.000000 1.550540 0.000000 
#    z 0.002530 0.000000 1.630520 
# 
# From -- ./inp_files/218943.got.cif
#   From: 2010.06.25/outbox.cif.g09.slc.cpg/sg12_110_cif.got.tgz:218943.got - 2010.06.28 00:19:55.
