data_PCOD8079215
_publ_section_title
;
Structure prediction by ZEFSAII (Michael W. Deem and Ramdas Pophale) SiO2 
 PCOD8079215
Probable space group: C 2/M
;
_chemical_formula_sum "Si O2"
_cell_formula_units_Z 56
_cell_length_a 10.198710
_cell_length_b 28.480459
_cell_length_c 12.399627
_cell_angle_alpha 90.000000
_cell_angle_beta 77.910394
_cell_angle_gamma 90.000000
_cell_volume 3521.764555
_symmetry_space_group_name_H-M "C 2/M"
_symmetry_group_IT_number 12
_symmetry_cell_setting 'monoclinic'
loop_
_space_group_symop_operation_xyz
x,y,z
-x,y,-z
-x,-y,-z
x,-y,z
1/2+x,1/2+y,z
1/2-x,1/2+y,-z
1/2-x,1/2-y,-z
1/2+x,1/2-y,z
loop_
_atom_site_type_symbol
_atom_site_label
_atom_site_fract_x
_atom_site_fract_y
_atom_site_fract_z
Si Si1 0.125150 0.051311 0.623752
Si Si2 0.855913 0.693036 0.064822
Si Si3 0.099808 0.147457 0.714894
Si Si4 0.685293 0.551306 0.377440
Si Si5 0.151150 0.792865 0.496797
Si Si6 0.860087 0.802784 0.075025
Si Si7 0.793267 0.853138 0.720218
O O1 0.154502 0.093692 0.701522
O O2 0.214053 0.056832 0.500197
O O3 0.972267 0.055136 0.614210
O O4 0.153923 0.000000 0.672296
O O5 0.855992 0.747463 0.097055
O O6 0.817655 0.665105 0.178400
O O7 0.755594 0.681445 0.985539
O O8 0.000000 0.675978 0.000000
O O9 0.151375 0.173531 0.599832
O O10 0.164457 0.171521 0.807735
O O11 0.938872 0.149197 0.750852
O O12 0.738515 0.500000 0.328848
O O13 0.753291 0.593771 0.300431
O O14 0.250000 0.750000 0.500000
O O15 0.207569 0.822012 0.386814
O O16 0.000000 0.774430 0.500000
O O17 0.000000 0.818675 0.000000
#
# Coordination Sequence:
#
# PCOD8079215 Si02
#       7
#     8   8   8   8   8   8   8
#     4   8  13  23  42  71 100 123 152 192 239 293
#     4  10  21  34  50  68  93 128 173 207 229 275
#     4  10  17  29  50  71  98 129 157 195 247 292
#     4   8  13  23  43  70  98 124 155 193 237 288
#     4  10  20  32  46  71 103 132 155 193 246 292
#     4  10  19  34  50  68  93 130 168 201 239 281
#     4  10  17  30  49  70  98 127 162 200 239 288
#
# _framework density 15.901119
#
# number of rings (size 3 to 8) (size 9 to 14) (size 15 to 20)
#    0.000    2.571    2.857    1.714    0.000    0.000 
#    2.571    0.000    0.000    1.714    0.000    0.000 
#    0.000    3.429    0.000    0.000    0.000    0.000 
#
# Total GULP energy -347070.140976 kJ/mol
# GULP energy per Si atom -12395.362178 kJ/mol
# Density = 1.586493 g / cm^3
# Si number density = 15.901119 Si / 1000 Ang^3
#
#
#
# Elastic Constant Matrix: (Units=GPa)
#
#
# Indices 1 2 3 4 5 6 
#
# 1 66.9557 44.2187 45.1343 0.0000 -4.7231 0.0000
# 2 44.2187 116.8996 67.2335 0.0000 -0.1658 0.0000
# 3 45.1343 67.2335 119.8275 0.0000 -4.8756 0.0000
# 4 0.0000 0.0000 0.0000 20.1305 0.0000 -1.4194
# 5 -4.7231 -0.1658 -4.8756 0.0000 21.0279 0.0000
# 6 0.0000 0.0000 0.0000 -1.4194 0.0000 11.8619
#
#
#
# Elastic Compliance Matrix: (Units=1/GPa)
#
#
# Indices 1 2 3 4 5 6 
#
# 1 0.022294 -0.005442 -0.005191 0.000000 0.003761 0.000000
# 2 -0.005442 0.014009 -0.005912 0.000000 -0.002483 0.000000
# 3 -0.005191 -0.005912 0.013697 0.000000 0.001963 0.000000
# 4 0.000000 0.000000 0.000000 0.050099 0.000000 0.005995
# 5 0.003761 -0.002483 0.001963 0.000000 0.048836 0.000000
# 6 0.000000 0.000000 0.000000 0.005995 0.000000 0.085021
#
#
# Mechanical properties :
#
#
# Convention : Reuss Voigt Hill
#
# Bulk Modulus (GPa) = 59.13149 68.53954 63.83551
# Shear Modulus (GPa) = 18.33638 20.41047 19.37342
#
# Velocity S-wave (km/s) = 3.39949 3.58660 3.49430
# Velocity P-wave (km/s) = 7.25785 7.76845 7.51749
#
# Compressibility (1/GPa) = 0.01691146
#
# Stress axis : x y z
#
# Youngs Moduli (GPa) = 44.85598 71.38054 73.00745
#
# Poissons Ratio (x) = 0.38847 0.37895
# Poissons Ratio (y) = 0.24411 0.43159
# Poissons Ratio (z) = 0.23283 0.42198
#
# Static dielectric constant tensor:
#      x y z
#    x 2.722990 0.000000 0.000740 
#    y 0.000000 3.259750 0.000000 
#    z 0.000740 0.000000 2.939360 
# 
# 
# High freq. dielectric constant tensor:
#      x y z
#    x 1.569850 0.000000 -0.000490 
#    y 0.000000 1.613880 0.000000 
#    z -0.000490 0.000000 1.605230 
# 
# From -- ./inp_files/136310.got.cif
#   From: 2010.06.25/outbox.cif.g09.slc.cpg/sg12_69_cif.got.tgz:136310.got - 2010.06.28 00:19:55.
