data_PCOD8079480
_publ_section_title
;
Structure prediction by ZEFSAII (Michael W. Deem and Ramdas Pophale) SiO2 
 PCOD8079480
Probable space group: C 2/M
;
_chemical_formula_sum "Si O2"
_cell_formula_units_Z 44
_cell_length_a 13.150493
_cell_length_b 19.924216
_cell_length_c 9.368365
_cell_angle_alpha 90.000000
_cell_angle_beta 77.661570
_cell_angle_gamma 90.000000
_cell_volume 2397.939854
_symmetry_space_group_name_H-M "C 2/M"
_symmetry_group_IT_number 12
_symmetry_cell_setting 'monoclinic'
loop_
_space_group_symop_operation_xyz
x,y,z
-x,y,-z
-x,-y,-z
x,-y,z
1/2+x,1/2+y,z
1/2-x,1/2+y,-z
1/2-x,1/2-y,-z
1/2+x,1/2-y,z
loop_
_atom_site_type_symbol
_atom_site_label
_atom_site_fract_x
_atom_site_fract_y
_atom_site_fract_z
Si Si1 0.076190 0.747884 0.166990
Si Si2 0.117909 0.632299 0.948688
Si Si3 0.626844 0.804108 0.660559
Si Si4 0.221860 0.923598 0.884672
Si Si5 0.000000 0.136737 0.000000
Si Si6 0.780257 0.307202 0.661826
O O1 0.169089 0.751612 0.253681
O O2 0.995591 0.703604 0.281460
O O3 0.029772 0.818597 0.129783
O O4 0.114133 0.707761 0.015169
O O5 0.158682 0.642152 0.773895
O O6 0.205938 0.587228 0.997426
O O7 0.000000 0.600970 0.000000
O O8 0.673005 0.728418 0.652985
O O9 0.654418 0.831160 0.495751
O O10 0.264806 0.876106 0.748987
O O11 0.233331 0.000000 0.831364
O O12 0.099943 0.909467 0.944810
#
# Coordination Sequence:
#
# PCOD8079480 Si02
#       6
#     8   8   8   8   4   8
#     4  10  17  31  54  83 109 130 171 235 281 314
#     4   9  18  35  57  80 103 136 182 234 279 312
#     4  10  17  32  52  85 104 132 173 234 289 313
#     4  11  23  37  53  77 114 155 187 215 255 332
#     4  12  19  34  58  82 109 146 186 226 270 318
#     4  10  20  31  53  79 111 138 176 223 280 325
#
# _framework density 18.349083
#
# number of rings (size 3 to 8) (size 9 to 14) (size 15 to 20)
#    0.000    1.818    4.545    1.909    0.000    3.273 
#    0.000    0.909    0.000   14.182    0.000    5.091 
#    0.000    0.000    0.000    0.000    0.000    0.000 
#
# Total GULP energy -272582.053570 kJ/mol
# GULP energy per Si atom -12390.093344 kJ/mol
# Density = 1.830732 g / cm^3
# Si number density = 18.349083 Si / 1000 Ang^3
#
#
#
# Elastic Constant Matrix: (Units=GPa)
#
#
# Indices 1 2 3 4 5 6 
#
# 1 78.4069 29.2538 30.2166 0.0000 5.6282 0.0000
# 2 29.2538 83.8782 28.3630 0.0000 5.4641 0.0000
# 3 30.2166 28.3630 109.7355 0.0000 -2.1635 0.0000
# 4 0.0000 0.0000 0.0000 13.6605 0.0000 0.2449
# 5 5.6282 5.4641 -2.1635 0.0000 22.1894 0.0000
# 6 0.0000 0.0000 0.0000 0.2449 0.0000 19.1316
#
#
#
# Elastic Compliance Matrix: (Units=1/GPa)
#
#
# Indices 1 2 3 4 5 6 
#
# 1 0.015840 -0.004177 -0.003348 0.000000 -0.003316 0.000000
# 2 -0.004177 0.014451 -0.002639 0.000000 -0.002756 0.000000
# 3 -0.003348 -0.002639 0.010767 0.000000 0.002549 0.000000
# 4 0.000000 0.000000 0.000000 0.073221 0.000000 -0.000937
# 5 -0.003316 -0.002756 0.002549 0.000000 0.046835 0.000000
# 6 0.000000 0.000000 0.000000 -0.000937 0.000000 0.052282
#
#
# Mechanical properties :
#
#
# Convention : Reuss Voigt Hill
#
# Bulk Modulus (GPa) = 48.23680 49.74306 48.98993
# Shear Modulus (GPa) = 20.77856 23.27545 22.02700
#
# Velocity S-wave (km/s) = 3.36877 3.56544 3.46850
# Velocity P-wave (km/s) = 6.44026 6.64213 6.54198
#
# Compressibility (1/GPa) = 0.02073106
#
# Stress axis : x y z
#
# Youngs Moduli (GPa) = 63.12964 69.20066 92.87585
#
# Poissons Ratio (x) = 0.28902 0.31092
# Poissons Ratio (y) = 0.26367 0.24513
# Poissons Ratio (z) = 0.21134 0.18264
#
# Static dielectric constant tensor:
#      x y z
#    x 3.647380 0.000000 0.059210 
#    y 0.000000 2.903720 0.000000 
#    z 0.059210 0.000000 3.464290 
# 
# 
# High freq. dielectric constant tensor:
#      x y z
#    x 1.731940 0.000000 0.000560 
#    y 0.000000 1.660310 0.000000 
#    z 0.000560 0.000000 1.710150 
# 
# From -- ./inp_files/62712.got.cif
#   From: 2010.06.25/outbox.cif.g09.slc.cpg/sg12_32_cif.got.tgz:62712.got - 2010.06.28 00:19:55.
