data_PCOD8079788
_publ_section_title
;
Structure prediction by ZEFSAII (Michael W. Deem and Ramdas Pophale) SiO2 
 PCOD8079788
Probable space group: C 2/M
;
_chemical_formula_sum "Si O2"
_cell_formula_units_Z 36
_cell_length_a 13.127046
_cell_length_b 18.581846
_cell_length_c 10.680457
_cell_angle_alpha 90.000000
_cell_angle_beta 47.357139
_cell_angle_gamma 90.000000
_cell_volume 1916.380888
_symmetry_space_group_name_H-M "C 2/M"
_symmetry_group_IT_number 12
_symmetry_cell_setting 'monoclinic'
loop_
_space_group_symop_operation_xyz
x,y,z
-x,y,-z
-x,-y,-z
x,-y,z
1/2+x,1/2+y,z
1/2-x,1/2+y,-z
1/2-x,1/2-y,-z
1/2+x,1/2-y,z
loop_
_atom_site_type_symbol
_atom_site_label
_atom_site_fract_x
_atom_site_fract_y
_atom_site_fract_z
Si Si1 0.228670 0.680433 0.103723
Si Si2 0.416021 0.584876 0.805904
Si Si3 0.078757 0.287870 0.605645
Si Si4 0.151908 0.176352 0.728404
Si Si5 0.500000 0.334325 0.500000
O O1 0.070094 0.673749 0.282236
O O2 0.331016 0.682307 0.137111
O O3 0.250000 0.750000 0.000000
O O4 0.271819 0.610344 0.988492
O O5 0.422175 0.500000 0.797278
O O6 0.545451 0.613632 0.779492
O O7 0.414537 0.615474 0.665879
O O8 0.096166 0.254736 0.729836
O O9 0.201104 0.342092 0.463465
O O10 0.098988 0.218647 0.496636
#
# Coordination Sequence:
#
# PCOD8079788 Si02
#       5
#     8   8   8   8   4
#     4  12  20  35  57  87 116 148 192 241 287 334
#     4  11  24  37  56  84 120 158 188 231 292 350
#     4  10  19  34  59  88 109 143 192 241 287 321
#     4  10  20  34  55  83 116 144 187 240 278 339
#     4  10  17  38  60  80 111 144 200 236 279 338
#
# _framework density 18.785409999999999
#
# number of rings (size 3 to 8) (size 9 to 14) (size 15 to 20)
#    0.000    1.333    6.667    1.000    0.000    1.778 
#    0.000    1.111    0.000    2.667    0.000   17.111 
#    0.000    0.000    0.000    0.000    0.000    0.000 
#
# Total GULP energy -223087.379498 kJ/mol
# GULP energy per Si atom -12393.743305 kJ/mol
# Density = 1.874265 g / cm^3
# Si number density = 18.785410 Si / 1000 Ang^3
#
#
#
# Elastic Constant Matrix: (Units=GPa)
#
#
# Indices 1 2 3 4 5 6 
#
# 1 84.1595 28.8272 50.8831 0.0000 -4.0527 0.0000
# 2 28.8272 90.5476 58.3197 0.0000 -11.7065 0.0000
# 3 50.8831 58.3197 101.3945 0.0000 7.7483 0.0000
# 4 0.0000 0.0000 0.0000 23.2975 0.0000 -3.7528
# 5 -4.0527 -11.7065 7.7483 0.0000 39.2651 0.0000
# 6 0.0000 0.0000 0.0000 -3.7528 0.0000 17.9785
#
#
#
# Elastic Compliance Matrix: (Units=1/GPa)
#
#
# Indices 1 2 3 4 5 6 
#
# 1 0.017633 0.001319 -0.009926 0.000000 0.004172 0.000000
# 2 0.001319 0.020000 -0.012825 0.000000 0.008630 0.000000
# 3 -0.009926 -0.012825 0.022936 0.000000 -0.009374 0.000000
# 4 0.000000 0.000000 0.000000 0.044417 0.000000 0.009271
# 5 0.004172 0.008630 -0.009374 0.000000 0.030321 0.000000
# 6 0.000000 0.000000 0.000000 0.009271 0.000000 0.057557
#
#
# Mechanical properties :
#
#
# Convention : Reuss Voigt Hill
#
# Bulk Modulus (GPa) = 56.48053 61.35128 58.91590
# Shear Modulus (GPa) = 20.69283 25.31299 23.00291
#
# Velocity S-wave (km/s) = 3.32254 3.67479 3.50310
# Velocity P-wave (km/s) = 6.69705 7.12287 6.91324
#
# Compressibility (1/GPa) = 0.01770522
#
# Stress axis : x y z
#
# Youngs Moduli (GPa) = 56.71295 50.00040 43.59866
#
# Poissons Ratio (x) = -0.06594 0.43276
# Poissons Ratio (y) = -0.07480 0.55914
# Poissons Ratio (z) = 0.56293 0.64124
#
# Static dielectric constant tensor:
#      x y z
#    x 3.734970 0.000000 0.069130 
#    y 0.000000 3.035920 0.000000 
#    z 0.069130 0.000000 3.825020 
# 
# 
# High freq. dielectric constant tensor:
#      x y z
#    x 1.738930 0.000000 0.008580 
#    y 0.000000 1.673620 0.000000 
#    z 0.008580 0.000000 1.750720 
# 
# From -- ./inp_files/144465.got.cif
#   From: 2010.06.25/outbox.cif.g09.slc.cpg/sg12_73_cif.got.tgz:144465.got - 2010.06.28 00:19:55.
