data_PCOD8079736
_publ_section_title
;
Structure prediction by ZEFSAII (Michael W. Deem and Ramdas Pophale) SiO2 
 PCOD8079736
Probable space group: C 2/M
;
_chemical_formula_sum "Si O2"
_cell_formula_units_Z 64
_cell_length_a 25.548141
_cell_length_b 16.810619
_cell_length_c 8.064376
_cell_angle_alpha 90.000000
_cell_angle_beta 79.794172
_cell_angle_gamma 90.000000
_cell_volume 3408.687987
_symmetry_space_group_name_H-M "C 2/M"
_symmetry_group_IT_number 12
_symmetry_cell_setting 'monoclinic'
loop_
_space_group_symop_operation_xyz
x,y,z
-x,y,-z
-x,-y,-z
x,-y,z
1/2+x,1/2+y,z
1/2-x,1/2+y,-z
1/2-x,1/2-y,-z
1/2+x,1/2-y,z
loop_
_atom_site_type_symbol
_atom_site_label
_atom_site_fract_x
_atom_site_fract_y
_atom_site_fract_z
Si Si1 0.629738 0.204707 0.104979
Si Si2 0.438193 0.745978 0.540165
Si Si3 0.601583 0.590452 0.307977
Si Si4 0.732038 0.724944 0.685718
Si Si5 0.217764 0.590547 0.147443
Si Si6 0.705225 0.655335 0.147927
Si Si7 0.437362 0.412576 0.038415
Si Si8 0.390509 0.265426 0.223578
O O1 0.589893 0.213058 0.284614
O O2 0.661855 0.122138 0.103962
O O3 0.671285 0.277753 0.070681
O O4 0.599690 0.207512 0.942460
O O5 0.500000 0.769119 0.500000
O O6 0.430871 0.650155 0.555584
O O7 0.412083 0.775498 0.380965
O O8 0.587813 0.500000 0.365935
O O9 0.665158 0.606975 0.291099
O O10 0.585861 0.610430 0.127825
O O11 0.750000 0.750000 0.500000
O O12 0.765445 0.645639 0.708277
O O13 0.746361 0.799616 0.792620
O O14 0.670049 0.709857 0.720937
O O15 0.209484 0.500000 0.210054
O O16 0.266967 0.593700 0.991442
O O17 0.415780 0.500000 0.101770
O O18 0.500000 0.413676 0.000000
O O19 0.420826 0.348514 0.183224
#
# Coordination Sequence:
#
# PCOD8079736 Si02
#       8
#     8   8   8   8   8   8   8   8
#     4  10  20  39  57  84 116 150 194 238 287 347
#     4  11  24  37  57  85 109 148 203 246 292 350
#     4  10  19  34  51  76 118 154 186 236 285 336
#     4  11  21  36  57  85 121 158 197 236 283 352
#     4  11  20  35  60  88 119 153 193 240 295 349
#     4  10  17  35  56  80 114 153 193 229 279 347
#     4  10  20  33  52  79 113 152 194 243 289 334
#     4  12  20  35  61  78 111 156 195 238 286 342
#
# _framework density 18.775552000000001
#
# number of rings (size 3 to 8) (size 9 to 14) (size 15 to 20)
#    0.000    1.375    5.000    4.125    0.000    2.250 
#    0.000    2.500    0.000    0.375    0.000    0.875 
#    0.000    0.000    0.000    0.000    0.000    0.000 
#
# Total GULP energy -396659.967844 kJ/mol
# GULP energy per Si atom -12395.623995 kJ/mol
# Density = 1.873282 g / cm^3
# Si number density = 18.775552 Si / 1000 Ang^3
#
#
#
# Elastic Constant Matrix: (Units=GPa)
#
#
# Indices 1 2 3 4 5 6 
#
# 1 88.4956 27.4726 37.7767 0.0000 -2.4536 0.0000
# 2 27.4726 73.7622 30.0343 0.0000 4.4695 0.0000
# 3 37.7767 30.0343 113.2507 0.0000 4.3072 0.0000
# 4 0.0000 0.0000 0.0000 22.2341 0.0000 -2.6577
# 5 -2.4536 4.4695 4.3072 0.0000 27.1814 0.0000
# 6 0.0000 0.0000 0.0000 -2.6577 0.0000 23.2705
#
#
#
# Elastic Compliance Matrix: (Units=1/GPa)
#
#
# Indices 1 2 3 4 5 6 
#
# 1 0.014201 -0.003895 -0.003800 0.000000 0.002525 0.000000
# 2 -0.003895 0.016362 -0.002942 0.000000 -0.002576 0.000000
# 3 -0.003800 -0.002942 0.010938 0.000000 -0.001593 0.000000
# 4 0.000000 0.000000 0.000000 0.045598 0.000000 0.005208
# 5 0.002525 -0.002576 -0.001593 0.000000 0.037694 0.000000
# 6 0.000000 0.000000 0.000000 0.005208 0.000000 0.043568
#
#
# Mechanical properties :
#
#
# Convention : Reuss Voigt Hill
#
# Bulk Modulus (GPa) = 49.43810 51.78618 50.61214
# Shear Modulus (GPa) = 25.46115 26.55220 26.00667
#
# Velocity S-wave (km/s) = 3.68649 3.76465 3.72578
# Velocity P-wave (km/s) = 6.67148 6.82190 6.74711
#
# Compressibility (1/GPa) = 0.02022731
#
# Stress axis : x y z
#
# Youngs Moduli (GPa) = 70.41595 61.11838 91.42125
#
# Poissons Ratio (x) = 0.23805 0.34742
# Poissons Ratio (y) = 0.27426 0.26896
# Poissons Ratio (z) = 0.26759 0.17981
#
# Static dielectric constant tensor:
#      x y z
#    x 3.562350 0.000000 0.124310 
#    y 0.000000 3.208480 0.000000 
#    z 0.124310 0.000000 3.294030 
# 
# 
# High freq. dielectric constant tensor:
#      x y z
#    x 1.731280 0.000000 -0.001740 
#    y 0.000000 1.690000 0.000000 
#    z -0.001740 0.000000 1.730050 
# 
# From -- ./inp_files/97710.got.cif
#   From: 2010.06.25/outbox.cif.g09.slc.cpg/sg12_49_cif.got.tgz:97710.got - 2010.06.28 00:19:55.
