data_PCOD8079669
_publ_section_title
;
Structure prediction by ZEFSAII (Michael W. Deem and Ramdas Pophale) SiO2 
 PCOD8079669
Probable space group: C 2/M
;
_chemical_formula_sum "Si O2"
_cell_formula_units_Z 56
_cell_length_a 20.636144
_cell_length_b 8.945175
_cell_length_c 22.486563
_cell_angle_alpha 90.000000
_cell_angle_beta 131.893822
_cell_angle_gamma 90.000000
_cell_volume 3089.848881
_symmetry_space_group_name_H-M "C 2/M"
_symmetry_group_IT_number 12
_symmetry_cell_setting 'monoclinic'
loop_
_space_group_symop_operation_xyz
x,y,z
-x,y,-z
-x,-y,-z
x,-y,z
1/2+x,1/2+y,z
1/2-x,1/2+y,-z
1/2-x,1/2-y,-z
1/2+x,1/2-y,z
loop_
_atom_site_type_symbol
_atom_site_label
_atom_site_fract_x
_atom_site_fract_y
_atom_site_fract_z
Si Si1 0.771028 0.822826 0.340637
Si Si2 0.690172 0.177003 0.760886
Si Si3 0.867232 0.176129 0.921229
Si Si4 0.499514 0.677025 0.903276
Si Si5 0.424391 0.176285 0.499900
Si Si6 0.499007 0.822913 0.670130
Si Si7 0.922737 0.322982 0.746083
O O1 0.797007 0.755233 0.293844
O O2 0.836267 0.762549 0.430560
O O3 0.674585 0.768337 0.299314
O O4 0.776708 0.000000 0.341006
O O5 0.766836 0.226620 0.853438
O O6 0.599411 0.230880 0.733449
O O7 0.691493 0.000000 0.750042
O O8 0.921279 0.235712 0.897591
O O9 0.876831 0.000000 0.925415
O O10 0.909756 0.229614 0.009659
O O11 0.496161 0.500000 0.891297
O O12 0.491291 0.756944 0.835071
O O13 0.500000 0.218785 0.500000
O O14 0.452624 0.235683 0.582059
O O15 0.406166 0.000000 0.487603
O O16 0.449316 0.760285 0.697446
O O17 0.496589 0.000000 0.667933
O O18 0.930408 0.500000 0.752817
#
# Coordination Sequence:
#
# PCOD8079669 Si02
#       7
#     8   8   8   8   8   8   8
#     4  11  22  33  50  77 109 136 162 207 263 311
#     4  10  17  33  58  78  96 132 182 217 245 294
#     4   8  15  27  51  81 102 125 170 223 257 284
#     4   9  16  30  51  77 105 132 169 217 256 294
#     4  10  19  35  58  80  97 127 179 220 246 291
#     4   9  19  35  55  75 100 134 174 215 249 299
#     4  10  21  36  50  73 109 143 167 199 259 317
#
# _framework density 18.123864999999999
#
# number of rings (size 3 to 8) (size 9 to 14) (size 15 to 20)
#    0.000    2.429    2.857    1.286    0.000    1.429 
#    0.000    4.286    0.000    0.000    0.000    0.000 
#    0.000    0.000    0.000    0.000    0.000    0.000 
#
# Total GULP energy -347123.056885 kJ/mol
# GULP energy per Si atom -12397.252032 kJ/mol
# Density = 1.808261 g / cm^3
# Si number density = 18.123865 Si / 1000 Ang^3
#
#
#
# Elastic Constant Matrix: (Units=GPa)
#
#
# Indices 1 2 3 4 5 6 
#
# 1 96.7866 18.5791 60.0691 0.0000 -4.1223 0.0000
# 2 18.5791 22.6261 23.3781 0.0000 1.9893 0.0000
# 3 60.0691 23.3781 157.0504 0.0000 3.1135 0.0000
# 4 0.0000 0.0000 0.0000 25.6584 0.0000 -4.3598
# 5 -4.1223 1.9893 3.1135 0.0000 34.6195 0.0000
# 6 0.0000 0.0000 0.0000 -4.3598 0.0000 14.1681
#
#
#
# Elastic Compliance Matrix: (Units=1/GPa)
#
#
# Indices 1 2 3 4 5 6 
#
# 1 0.014731 -0.007622 -0.004551 0.000000 0.002601 0.000000
# 2 -0.007622 0.056358 -0.005401 0.000000 -0.003660 0.000000
# 3 -0.004551 -0.005401 0.008933 0.000000 -0.001035 0.000000
# 4 0.000000 0.000000 0.000000 0.041124 0.000000 0.012655
# 5 0.002601 -0.003660 -0.001035 0.000000 0.029499 0.000000
# 6 0.000000 0.000000 0.000000 0.012655 0.000000 0.074475
#
#
# Mechanical properties :
#
#
# Convention : Reuss Voigt Hill
#
# Bulk Modulus (GPa) = 22.28556 53.39063 37.83809
# Shear Modulus (GPa) = 18.16691 26.51832 22.34262
#
# Velocity S-wave (km/s) = 3.16947 3.82929 3.51490
# Velocity P-wave (km/s) = 5.07119 7.00528 6.11518
#
# Compressibility (1/GPa) = 0.04487210
#
# Stress axis : x y z
#
# Youngs Moduli (GPa) = 67.88620 17.74366 111.94840
#
# Poissons Ratio (x) = 0.13524 0.50950
# Poissons Ratio (y) = 0.51743 0.60468
# Poissons Ratio (z) = 0.30896 0.09584
#
# Static dielectric constant tensor:
#      x y z
#    x 3.435760 0.000000 0.162710 
#    y 0.000000 2.976040 0.000000 
#    z 0.162710 0.000000 3.834800 
# 
# 
# High freq. dielectric constant tensor:
#      x y z
#    x 1.687740 0.000000 0.008590 
#    y 0.000000 1.666870 0.000000 
#    z 0.008590 0.000000 1.720430 
# 
# From -- ./inp_files/320212.got.cif
#   From: 2010.06.25/outbox.cif.g09.slc.cpg/sg12_161_cif.got.tgz:320212.got - 2010.06.28 00:19:55.
