data_PCOD8079799
_publ_section_title
;
Structure prediction by ZEFSAII (Michael W. Deem and Ramdas Pophale) SiO2 
 PCOD8079799
Probable space group: C 2/M
;
_chemical_formula_sum "Si O2"
_cell_formula_units_Z 64
_cell_length_a 26.886947
_cell_length_b 9.480082
_cell_length_c 17.080093
_cell_angle_alpha 90.000000
_cell_angle_beta 79.669558
_cell_angle_gamma 90.000000
_cell_volume 4282.981271
_symmetry_space_group_name_H-M "C 2/M"
_symmetry_group_IT_number 12
_symmetry_cell_setting 'monoclinic'
loop_
_space_group_symop_operation_xyz
x,y,z
-x,y,-z
-x,-y,-z
x,-y,z
1/2+x,1/2+y,z
1/2-x,1/2+y,-z
1/2-x,1/2-y,-z
1/2+x,1/2-y,z
loop_
_atom_site_type_symbol
_atom_site_label
_atom_site_fract_x
_atom_site_fract_y
_atom_site_fract_z
Si Si1 0.310381 0.662888 0.308284
Si Si2 0.115249 0.341581 0.329781
Si Si3 0.645434 0.337589 0.546598
Si Si4 0.298166 0.158999 0.999791
Si Si5 0.714870 0.834277 0.827625
Si Si6 0.292034 0.158170 0.579687
Si Si7 0.444382 0.665980 0.538147
Si Si8 0.817986 0.664615 0.827374
O O1 0.308261 0.500000 0.281693
O O2 0.355462 0.686938 0.359076
O O3 0.318612 0.762670 0.230990
O O4 0.258768 0.710417 0.364768
O O5 0.093110 0.500000 0.333843
O O6 0.164494 0.332993 0.368712
O O7 0.072063 0.239531 0.376062
O O8 0.133270 0.291731 0.238166
O O9 0.655301 0.500000 0.524311
O O10 0.693549 0.256269 0.497417
O O11 0.592612 0.288378 0.522831
O O12 0.334780 0.186844 0.914436
O O13 0.278653 0.000000 0.002093
O O14 0.250000 0.250000 0.000000
O O15 0.318154 0.188701 0.082502
O O16 0.769473 0.759117 0.818704
O O17 0.722878 0.000000 0.807564
O O18 0.285146 0.000000 0.549473
O O19 0.500000 0.719307 0.500000
O O20 0.443501 0.500000 0.553385
O O21 0.804374 0.500000 0.814029
#
# Coordination Sequence:
#
# PCOD8079799 Si02
#       8
#     8   8   8   8   8   8   8   8
#     4  10  18  28  39  53  78 109 138 164 193 233
#     4   9  16  26  42  62  80 103 135 164 193 234
#     4   9  18  29  42  58  74 100 136 165 195 240
#     4   8  15  25  37  53  75 106 139 167 195 229
#     4  10  18  25  36  57  81 108 142 170 194 227
#     4   9  16  26  38  54  78 104 130 162 197 227
#     4   9  18  32  46  60  81 104 126 162 210 247
#     4   9  15  27  42  55  79 110 137 167 201 232
#
# _framework density 14.942864
#
# number of rings (size 3 to 8) (size 9 to 14) (size 15 to 20)
#    0.000    2.875    1.250    0.750    0.000    2.250 
#    0.000    0.000    0.000    0.000    0.000    0.000 
#    0.000    1.000    0.000   12.500    0.000    0.000 
#
# Total GULP energy -396448.342437 kJ/mol
# GULP energy per Si atom -12389.010701 kJ/mol
# Density = 1.490885 g / cm^3
# Si number density = 14.942864 Si / 1000 Ang^3
#
#
#
# Elastic Constant Matrix: (Units=GPa)
#
#
# Indices 1 2 3 4 5 6 
#
# 1 40.9969 18.5877 37.1087 0.0000 -3.6780 0.0000
# 2 18.5877 50.4133 49.4651 0.0000 2.2948 0.0000
# 3 37.1087 49.4651 134.8539 0.0000 3.2034 0.0000
# 4 0.0000 0.0000 0.0000 24.7362 0.0000 0.8571
# 5 -3.6780 2.2948 3.2034 0.0000 16.4415 0.0000
# 6 0.0000 0.0000 0.0000 0.8571 0.0000 12.6559
#
#
#
# Elastic Compliance Matrix: (Units=1/GPa)
#
#
# Indices 1 2 3 4 5 6 
#
# 1 0.034908 -0.005734 -0.007743 0.000000 0.010118 0.000000
# 2 -0.005734 0.032005 -0.010072 0.000000 -0.003787 0.000000
# 3 -0.007743 -0.010072 0.013310 0.000000 -0.002920 0.000000
# 4 0.000000 0.000000 0.000000 0.040522 0.000000 -0.002744
# 5 0.010118 -0.003787 -0.002920 0.000000 0.064182 0.000000
# 6 0.000000 0.000000 0.000000 -0.002744 0.000000 0.079200
#
#
# Mechanical properties :
#
#
# Convention : Reuss Voigt Hill
#
# Bulk Modulus (GPa) = 30.18828 48.50967 39.34897
# Shear Modulus (GPa) = 15.51510 18.84023 17.17766
#
# Velocity S-wave (km/s) = 3.22575 3.55465 3.39419
# Velocity P-wave (km/s) = 5.84126 7.02718 6.46149
#
# Compressibility (1/GPa) = 0.03312544
#
# Stress axis : x y z
#
# Youngs Moduli (GPa) = 28.64656 31.24520 75.13236
#
# Poissons Ratio (x) = 0.17916 0.58175
# Poissons Ratio (y) = 0.16426 0.75671
# Poissons Ratio (z) = 0.22181 0.31469
#
# Static dielectric constant tensor:
#      x y z
#    x 2.478500 0.000000 0.171220 
#    y 0.000000 2.971660 0.000000 
#    z 0.171220 0.000000 3.457800 
# 
# 
# High freq. dielectric constant tensor:
#      x y z
#    x 1.511690 0.000000 0.013450 
#    y 0.000000 1.577620 0.000000 
#    z 0.013450 0.000000 1.580180 
# 
# From -- ./inp_files/287687.got.cif
#   From: 2010.06.25/outbox.cif.g09.slc.cpg/sg12_144_cif.got.tgz:287687.got - 2010.06.28 00:19:55.
