data_PCOD8079394
_publ_section_title
;
Structure prediction by ZEFSAII (Michael W. Deem and Ramdas Pophale) SiO2 
 PCOD8079394
Probable space group: C 2/M
;
_chemical_formula_sum "Si O2"
_cell_formula_units_Z 60
_cell_length_a 29.088772
_cell_length_b 9.119818
_cell_length_c 12.598062
_cell_angle_alpha 90.000000
_cell_angle_beta 73.763258
_cell_angle_gamma 90.000000
_cell_volume 3208.768349
_symmetry_space_group_name_H-M "C 2/M"
_symmetry_group_IT_number 12
_symmetry_cell_setting 'monoclinic'
loop_
_space_group_symop_operation_xyz
x,y,z
-x,y,-z
-x,-y,-z
x,-y,z
1/2+x,1/2+y,z
1/2-x,1/2+y,-z
1/2-x,1/2-y,-z
1/2+x,1/2-y,z
loop_
_atom_site_type_symbol
_atom_site_label
_atom_site_fract_x
_atom_site_fract_y
_atom_site_fract_z
Si Si1 0.500000 0.203236 0.500000
Si Si2 0.897972 0.331018 0.291534
Si Si3 0.504645 0.826677 0.268518
Si Si4 0.910448 0.170216 0.890318
Si Si5 0.850657 0.829006 0.132642
Si Si6 0.157112 0.829724 0.252970
Si Si7 0.392801 0.156245 0.533324
Si Si8 0.242014 0.673932 0.893206
O O1 0.492235 0.273904 0.623586
O O2 0.449387 0.123111 0.513900
O O3 0.884869 0.500000 0.274767
O O4 0.869560 0.222138 0.233950
O O5 0.883160 0.287433 0.420578
O O6 0.954598 0.305481 0.241149
O O7 0.543601 0.770614 0.160111
O O8 0.512705 0.000000 0.292733
O O9 0.868562 0.222815 0.838155
O O10 0.923798 0.000000 0.865694
O O11 0.892333 0.200934 0.020531
O O12 0.804212 0.735363 0.135033
O O13 0.836809 0.000000 0.144445
O O14 0.130699 0.768321 0.372061
O O15 0.212779 0.786078 0.210908
O O16 0.150969 0.000000 0.268659
O O17 0.367060 0.000000 0.566618
O O18 0.237677 0.500000 0.913672
O O19 0.250000 0.750000 0.000000
#
# Coordination Sequence:
#
# PCOD8079394 Si02
#       8
#     4   8   8   8   8   8   8   8
#     4  10  17  30  53  82 113 146 185 232 277 320
#     4   9  21  39  57  82 116 153 193 238 280 329
#     4  10  19  33  55  82 113 151 194 232 275 335
#     4  10  21  36  53  81 119 149 182 233 285 333
#     4  11  23  41  61  82 113 151 194 237 284 342
#     4  10  21  37  55  84 121 146 176 232 290 338
#     4  10  19  34  58  84 114 149 190 234 278 333
#     4  11  22  39  62  87 116 147 185 236 290 340
#
# _framework density 18.698764000000001
#
# number of rings (size 3 to 8) (size 9 to 14) (size 15 to 20)
#    0.000    1.867    2.667    2.800    0.000    3.733 
#    0.000    6.000    0.000    0.000    0.000    0.000 
#    0.000    0.000    0.000    0.000    0.000    0.000 
#
# Total GULP energy -371643.813493 kJ/mol
# GULP energy per Si atom -12388.127116 kJ/mol
# Density = 1.865620 g / cm^3
# Si number density = 18.698764 Si / 1000 Ang^3
#
#
#
# Elastic Constant Matrix: (Units=GPa)
#
#
# Indices 1 2 3 4 5 6 
#
# 1 95.4384 44.3157 51.5548 0.0000 6.5395 0.0000
# 2 44.3157 49.6055 34.6705 0.0000 -3.6162 0.0000
# 3 51.5548 34.6705 103.0018 0.0000 5.2697 0.0000
# 4 0.0000 0.0000 0.0000 23.9575 0.0000 8.7120
# 5 6.5395 -3.6162 5.2697 0.0000 31.3854 0.0000
# 6 0.0000 0.0000 0.0000 8.7120 0.0000 13.2906
#
#
#
# Elastic Compliance Matrix: (Units=1/GPa)
#
#
# Indices 1 2 3 4 5 6 
#
# 1 0.020618 -0.015401 -0.004867 0.000000 -0.005253 0.000000
# 2 -0.015401 0.038529 -0.005701 0.000000 0.008605 0.000000
# 3 -0.004867 -0.005701 0.014167 0.000000 -0.002021 0.000000
# 4 0.000000 0.000000 0.000000 0.054804 0.000000 -0.035924
# 5 -0.005253 0.008605 -0.002021 0.000000 0.034287 0.000000
# 6 0.000000 0.000000 0.000000 -0.035924 0.000000 0.098789
#
#
# Mechanical properties :
#
#
# Convention : Reuss Voigt Hill
#
# Bulk Modulus (GPa) = 46.77934 56.56975 51.67454
# Shear Modulus (GPa) = 15.61237 21.56034 18.58636
#
# Velocity S-wave (km/s) = 2.89267 3.39932 3.15618
# Velocity P-wave (km/s) = 6.01900 6.76211 6.40134
#
# Compressibility (1/GPa) = 0.02137696
#
# Stress axis : x y z
#
# Youngs Moduli (GPa) = 48.50056 25.95436 70.58615
#
# Poissons Ratio (x) = 0.39972 0.34356
# Poissons Ratio (y) = 0.74694 0.40240
# Poissons Ratio (z) = 0.23607 0.14796
#
# Static dielectric constant tensor:
#      x y z
#    x 3.656700 0.000000 -0.044240 
#    y 0.000000 3.244680 0.000000 
#    z -0.044240 0.000000 3.471200 
# 
# 
# High freq. dielectric constant tensor:
#      x y z
#    x 1.722570 0.000000 -0.002890 
#    y 0.000000 1.710460 0.000000 
#    z -0.002890 0.000000 1.731940 
# 
# From -- ./inp_files/187336.got.cif
#   From: 2010.06.25/outbox.cif.g09.slc.cpg/sg12_94_cif.got.tgz:187336.got - 2010.06.28 00:19:55.
