data_PCOD8079322
_publ_section_title
;
Structure prediction by ZEFSAII (Michael W. Deem and Ramdas Pophale) SiO2 
 PCOD8079322
Probable space group: C 2/M
;
_chemical_formula_sum "Si O2"
_cell_formula_units_Z 56
_cell_length_a 26.533966
_cell_length_b 14.300773
_cell_length_c 24.931539
_cell_angle_alpha 90.000000
_cell_angle_beta 157.967810
_cell_angle_gamma 90.000000
_cell_volume 3548.866067
_symmetry_space_group_name_H-M "C 2/M"
_symmetry_group_IT_number 12
_symmetry_cell_setting 'monoclinic'
loop_
_space_group_symop_operation_xyz
x,y,z
-x,y,-z
-x,-y,-z
x,-y,z
1/2+x,1/2+y,z
1/2-x,1/2+y,-z
1/2-x,1/2-y,-z
1/2+x,1/2-y,z
loop_
_atom_site_type_symbol
_atom_site_label
_atom_site_fract_x
_atom_site_fract_y
_atom_site_fract_z
Si Si1 0.485276 0.200606 0.651984
Si Si2 0.244395 0.890225 0.118290
Si Si3 0.648429 0.610774 0.139205
Si Si4 0.768245 0.606144 0.367152
Si Si5 0.094058 0.898965 0.389955
Si Si6 0.969859 0.847484 0.792177
Si Si7 0.143215 0.679265 0.368868
O O1 0.632874 0.171190 0.781219
O O2 0.379353 0.172777 0.502085
O O3 0.478944 0.313543 0.651592
O O4 0.450575 0.146986 0.673924
O O5 0.212750 0.855013 0.147093
O O6 0.279976 0.000000 0.151879
O O7 0.121317 0.867775 0.958070
O O8 0.634540 0.500000 0.125349
O O9 0.743348 0.642204 0.282011
O O10 0.500000 0.655156 0.000000
O O11 0.822677 0.500000 0.420987
O O12 0.627534 0.608692 0.259624
O O13 0.258831 0.898874 0.559736
O O14 0.056700 0.896722 0.290510
O O15 0.046119 0.000000 0.365640
O O16 0.944355 0.734916 0.761963
O O17 0.250000 0.750000 0.500000
#
# Coordination Sequence:
#
# PCOD8079322 Si02
#       7
#     8   8   8   8   8   8   8
#     4  10  20  32  44  71  99 126 159 200 235 274
#     4  11  21  31  45  71 104 131 154 189 234 281
#     4   9  18  29  44  69  95 124 164 193 218 279
#     4  11  17  28  50  68  94 130 158 188 230 283
#     4  10  18  31  51  72  92 124 167 201 234 277
#     4  10  17  30  49  70  95 130 161 182 230 288
#     4   8  16  30  46  69  91 115 160 202 222 274
#
# _framework density 15.779688999999999
#
# number of rings (size 3 to 8) (size 9 to 14) (size 15 to 20)
#    0.000    2.429    5.714    1.714    0.000    3.429 
#    0.000    2.143    0.000    0.857    0.000    2.000 
#    0.000    2.286    0.000    0.000    0.000    0.000 
#
# Total GULP energy -346969.165361 kJ/mol
# GULP energy per Si atom -12391.755906 kJ/mol
# Density = 1.574377 g / cm^3
# Si number density = 15.779689 Si / 1000 Ang^3
#
#
#
# Elastic Constant Matrix: (Units=GPa)
#
#
# Indices 1 2 3 4 5 6 
#
# 1 76.7716 38.2310 38.7696 0.0001 5.2474 0.0002
# 2 38.2310 80.3910 42.7329 -0.0019 2.0936 -0.0011
# 3 38.7696 42.7329 69.0375 -0.0013 12.3761 -0.0007
# 4 0.0001 -0.0019 -0.0013 18.3278 -0.0009 0.9946
# 5 5.2474 2.0936 12.3761 -0.0009 27.7249 -0.0005
# 6 0.0002 -0.0011 -0.0007 0.9946 -0.0005 19.1742
#
#
#
# Elastic Compliance Matrix: (Units=1/GPa)
#
#
# Indices 1 2 3 4 5 6 
#
# 1 0.019515 -0.005131 -0.007816 -0.000001 0.000183 -0.000001
# 2 -0.005131 0.020315 -0.010427 0.000002 0.004091 0.000001
# 3 -0.007816 -0.010427 0.027090 0.000000 -0.009826 0.000000
# 4 -0.000001 0.000002 0.000000 0.054716 0.000002 -0.002838
# 5 0.000183 0.004091 -0.009826 0.000002 0.040111 0.000001
# 6 -0.000001 0.000001 0.000000 -0.002838 0.000001 0.052301
#
#
# Mechanical properties :
#
#
# Convention : Reuss Voigt Hill
#
# Bulk Modulus (GPa) = 49.57232 51.74079 50.65656
# Shear Modulus (GPa) = 18.69018 20.14315 19.41667
#
# Velocity S-wave (km/s) = 3.44531 3.57672 3.51163
# Velocity P-wave (km/s) = 6.87825 7.06526 6.97238
#
# Compressibility (1/GPa) = 0.02017255
#
# Stress axis : x y z
#
# Youngs Moduli (GPa) = 51.24165 49.22423 36.91426
#
# Poissons Ratio (x) = 0.25255 0.28853
# Poissons Ratio (y) = 0.26291 0.38490
# Poissons Ratio (z) = 0.40052 0.51326
#
# Static dielectric constant tensor:
#      x y z
#    x 3.111930 0.000000 -0.001380 
#    y 0.000000 3.146200 -0.000010 
#    z -0.001380 -0.000010 3.144760 
# 
# 
# High freq. dielectric constant tensor:
#      x y z
#    x 1.593030 0.000000 0.002120 
#    y 0.000000 1.573270 0.000000 
#    z 0.002120 0.000000 1.603920 
# 
# From -- ./inp_files/352088.got.cif
#   From: 2010.06.25/outbox.cif.g09.slc.cpg/sg12_177_cif.got.tgz:352088.got - 2010.06.28 00:19:55.
