data_PCOD8079759
_publ_section_title
;
Structure prediction by ZEFSAII (Michael W. Deem and Ramdas Pophale) SiO2 
 PCOD8079759
Probable space group: C 2/M
;
_chemical_formula_sum "Si O2"
_cell_formula_units_Z 64
_cell_length_a 23.974410
_cell_length_b 21.983553
_cell_length_c 8.859808
_cell_angle_alpha 90.000000
_cell_angle_beta 51.392986
_cell_angle_gamma 90.000000
_cell_volume 3648.951038
_symmetry_space_group_name_H-M "C 2/M"
_symmetry_group_IT_number 12
_symmetry_cell_setting 'monoclinic'
loop_
_space_group_symop_operation_xyz
x,y,z
-x,y,-z
-x,-y,-z
x,-y,z
1/2+x,1/2+y,z
1/2-x,1/2+y,-z
1/2-x,1/2-y,-z
1/2+x,1/2-y,z
loop_
_atom_site_type_symbol
_atom_site_label
_atom_site_fract_x
_atom_site_fract_y
_atom_site_fract_z
Si Si1 0.613376 0.868908 0.106379
Si Si2 0.266767 0.068122 0.922435
Si Si3 0.810067 0.254031 0.579586
Si Si4 0.698509 0.833271 0.677506
Si Si5 0.668548 0.932397 0.504596
Si Si6 0.479157 0.928838 0.364645
Si Si7 0.417593 0.248531 0.663899
Si Si8 0.291409 0.695975 0.018346
O O1 0.660340 0.921150 0.108117
O O2 0.543394 0.901738 0.155401
O O3 0.588858 0.820811 0.273913
O O4 0.651577 0.834419 0.906674
O O5 0.277320 0.066556 0.725664
O O6 0.218016 0.127914 0.036817
O O7 0.236975 0.000000 0.019907
O O8 0.777358 0.188009 0.595158
O O9 0.836294 0.285502 0.381251
O O10 0.877570 0.244138 0.572110
O O11 0.745759 0.298167 0.754299
O O12 0.702412 0.898551 0.590827
O O13 0.595371 0.900348 0.567895
O O14 0.653410 0.000000 0.589350
O O15 0.500000 0.910840 0.500000
O O16 0.472483 0.000000 0.356650
O O17 0.500000 0.268241 0.500000
O O18 0.376392 0.290541 0.859131
O O19 0.250000 0.750000 0.000000
#
# Coordination Sequence:
#
# PCOD8079759 Si02
#       8
#     8   8   8   8   8   8   8   8
#     4  12  20  31  51  83 109 147 191 229 272 325
#     4  11  20  34  59  82 107 144 198 241 275 328
#     4  10  20  39  56  75 109 146 181 229 285 331
#     4  11  22  34  53  76 108 150 179 228 280 325
#     4  10  21  36  52  77 112 153 191 228 272 335
#     4  10  20  33  49  70 109 157 192 223 264 314
#     4  11  22  36  59  84 110 146 190 237 278 338
#     4  10  17  36  58  81 107 142 188 235 279 324
#
# _framework density 17.539287000000002
#
# number of rings (size 3 to 8) (size 9 to 14) (size 15 to 20)
#    0.000    1.375    6.250    1.500    1.750    1.500 
#    0.000    1.250    0.000    0.375    0.000    0.000 
#    0.000    2.000    0.000    0.000    0.000    0.000 
#
# Total GULP energy -396433.486740 kJ/mol
# GULP energy per Si atom -12388.546461 kJ/mol
# Density = 1.749937 g / cm^3
# Si number density = 17.539287 Si / 1000 Ang^3
#
#
#
# Elastic Constant Matrix: (Units=GPa)
#
#
# Indices 1 2 3 4 5 6 
#
# 1 77.2092 32.6117 43.5437 0.0000 1.9945 0.0000
# 2 32.6117 100.6096 29.9436 0.0000 -2.9842 0.0000
# 3 43.5437 29.9436 51.8860 0.0000 -10.4494 0.0000
# 4 0.0000 0.0000 0.0000 24.8064 0.0000 1.8207
# 5 1.9945 -2.9842 -10.4494 0.0000 22.7563 0.0000
# 6 0.0000 0.0000 0.0000 1.8207 0.0000 26.8423
#
#
#
# Elastic Compliance Matrix: (Units=1/GPa)
#
#
# Indices 1 2 3 4 5 6 
#
# 1 0.028871 -0.002053 -0.026013 0.000000 -0.014745 0.000000
# 2 -0.002053 0.012212 -0.005471 0.000000 -0.000731 0.000000
# 3 -0.026013 -0.005471 0.049119 0.000000 0.024117 0.000000
# 4 0.000000 0.000000 0.000000 0.040514 0.000000 -0.002748
# 5 -0.014745 -0.000731 0.024117 0.000000 0.056215 0.000000
# 6 0.000000 0.000000 0.000000 -0.002748 0.000000 0.037441
#
#
# Mechanical properties :
#
#
# Convention : Reuss Voigt Hill
#
# Bulk Modulus (GPa) = 43.24383 49.10031 46.17207
# Shear Modulus (GPa) = 16.71373 23.12138 19.91755
#
# Velocity S-wave (km/s) = 3.09031 3.63473 3.37352
# Velocity P-wave (km/s) = 6.11901 6.75798 6.44641
#
# Compressibility (1/GPa) = 0.02312469
#
# Stress axis : x y z
#
# Youngs Moduli (GPa) = 34.63704 81.88850 20.35892
#
# Poissons Ratio (x) = 0.16815 0.52960
# Poissons Ratio (y) = 0.07112 0.11139
# Poissons Ratio (z) = 0.90103 0.44804
#
# Static dielectric constant tensor:
#      x y z
#    x 3.267800 0.000000 0.007300 
#    y 0.000000 3.405430 0.000000 
#    z 0.007300 0.000000 3.449330 
# 
# 
# High freq. dielectric constant tensor:
#      x y z
#    x 1.652820 0.000000 0.016450 
#    y 0.000000 1.675580 0.000000 
#    z 0.016450 0.000000 1.663350 
# 
# From -- ./inp_files/99650.got.cif
#   From: 2010.06.25/outbox.cif.g09.slc.cpg/sg12_50_cif.got.tgz:99650.got - 2010.06.28 00:19:55.
