data_PCOD8079072
_publ_section_title
;
Structure prediction by ZEFSAII (Michael W. Deem and Ramdas Pophale) SiO2 
 PCOD8079072
Probable space group: C 2/M
;
_chemical_formula_sum "Si O2"
_cell_formula_units_Z 40
_cell_length_a 14.347074
_cell_length_b 12.627134
_cell_length_c 15.039332
_cell_angle_alpha 90.000000
_cell_angle_beta 121.717953
_cell_angle_gamma 90.000000
_cell_volume 2317.638792
_symmetry_space_group_name_H-M "C 2/M"
_symmetry_group_IT_number 12
_symmetry_cell_setting 'monoclinic'
loop_
_space_group_symop_operation_xyz
x,y,z
-x,y,-z
-x,-y,-z
x,-y,z
1/2+x,1/2+y,z
1/2-x,1/2+y,-z
1/2-x,1/2-y,-z
1/2+x,1/2-y,z
loop_
_atom_site_type_symbol
_atom_site_label
_atom_site_fract_x
_atom_site_fract_y
_atom_site_fract_z
Si Si1 0.432054 0.622206 0.721748
Si Si2 0.928338 0.500000 0.829251
Si Si3 0.654509 0.000000 0.011920
Si Si4 0.208630 0.303211 0.283381
Si Si5 0.608276 0.377079 0.503877
Si Si6 0.325343 0.618881 0.175382
O O1 0.412785 0.500000 0.737379
O O2 0.353990 0.691466 0.745228
O O3 0.403816 0.646049 0.605784
O O4 0.558046 0.657859 0.803285
O O5 0.898877 0.500000 0.917359
O O6 0.881687 0.396207 0.758070
O O7 0.062325 0.500000 0.889484
O O8 0.734703 0.104675 0.049976
O O9 0.287823 0.312408 0.407899
O O10 0.280500 0.304249 0.229484
O O11 0.500000 0.336711 0.500000
O O12 0.628020 0.500000 0.534322
O O13 0.343379 0.500000 0.227813
#
# Coordination Sequence:
#
# PCOD8079072 Si02
#       6
#     8   4   4   8   8   8
#     4  10  20  30  47  70  98 128 156 189 234 283
#     4   9  16  28  48  81  90 116 151 211 243 262
#     4   7  14  28  51  70 100 107 154 209 241 268
#     4  11  17  29  50  73  96 117 163 197 233 277
#     4  10  17  28  49  70  91 123 160 198 233 268
#     4   8  15  31  51  69  92 120 157 195 230 275
#
# _framework density 17.258942999999999
#
# number of rings (size 3 to 8) (size 9 to 14) (size 15 to 20)
#    0.600    2.000    4.000    0.600    0.000    0.000 
#    0.000    1.000    2.200    0.600    0.000   11.200 
#    0.000    0.000    0.000    0.000    0.000    0.000 
#
# Total GULP energy -247811.131564 kJ/mol
# GULP energy per Si atom -12390.556578 kJ/mol
# Density = 1.721966 g / cm^3
# Si number density = 17.258943 Si / 1000 Ang^3
#
#
#
# Elastic Constant Matrix: (Units=GPa)
#
#
# Indices 1 2 3 4 5 6 
#
# 1 76.0759 46.6235 22.2953 0.0000 24.1840 0.0000
# 2 46.6235 73.4855 18.1094 0.0000 14.3200 0.0000
# 3 22.2953 18.1094 78.7414 0.0000 39.0008 0.0000
# 4 0.0000 0.0000 0.0000 8.7869 0.0000 6.9268
# 5 24.1840 14.3200 39.0008 0.0000 31.3576 0.0000
# 6 0.0000 0.0000 0.0000 6.9268 0.0000 31.9985
#
#
#
# Elastic Compliance Matrix: (Units=1/GPa)
#
#
# Indices 1 2 3 4 5 6 
#
# 1 0.027451 -0.014621 0.007211 0.000000 -0.023463 0.000000
# 2 -0.014621 0.022726 -0.003989 0.000000 0.005859 0.000000
# 3 0.007211 -0.003989 0.034971 0.000000 -0.047234 0.000000
# 4 0.000000 0.000000 0.000000 0.137222 0.000000 -0.029705
# 5 -0.023463 0.005859 -0.047234 0.000000 0.106057 0.000000
# 6 0.000000 0.000000 0.000000 -0.029705 0.000000 0.037682
#
#
# Mechanical properties :
#
#
# Convention : Reuss Voigt Hill
#
# Bulk Modulus (GPa) = 16.03856 44.70659 30.37257
# Shear Modulus (GPa) = 12.20436 23.84691 18.02563
#
# Velocity S-wave (km/s) = 2.66208 3.72117 3.23526
# Velocity P-wave (km/s) = 4.33151 6.66502 5.62070
#
# Compressibility (1/GPa) = 0.06234974
#
# Stress axis : x y z
#
# Youngs Moduli (GPa) = 36.42881 44.00251 28.59541
#
# Poissons Ratio (x) = 0.64338 -0.20621
# Poissons Ratio (y) = 0.53264 0.11406
# Poissons Ratio (z) = -0.26270 0.17551
#
# Static dielectric constant tensor:
#      x y z
#    x 3.078810 0.000000 0.543680 
#    y 0.000000 2.860480 0.000000 
#    z 0.543680 0.000000 3.419480 
# 
# 
# High freq. dielectric constant tensor:
#      x y z
#    x 1.645350 0.000000 0.036560 
#    y 0.000000 1.629010 0.000000 
#    z 0.036560 0.000000 1.664860 
# 
# From -- ./inp_files/211621.got.cif
#   From: 2010.06.25/outbox.cif.g09.slc.cpg/sg12_106_cif.got.tgz:211621.got - 2010.06.28 00:19:55.
