data_PCOD8079334
_publ_section_title
;
Structure prediction by ZEFSAII (Michael W. Deem and Ramdas Pophale) SiO2 
 PCOD8079334
Probable space group: C 2/M
;
_chemical_formula_sum "Si O2"
_cell_formula_units_Z 64
_cell_length_a 21.895581
_cell_length_b 13.770090
_cell_length_c 10.401956
_cell_angle_alpha 90.000000
_cell_angle_beta 83.788875
_cell_angle_gamma 90.000000
_cell_volume 3117.822837
_symmetry_space_group_name_H-M "C 2/M"
_symmetry_group_IT_number 12
_symmetry_cell_setting 'monoclinic'
loop_
_space_group_symop_operation_xyz
x,y,z
-x,y,-z
-x,-y,-z
x,-y,z
1/2+x,1/2+y,z
1/2-x,1/2+y,-z
1/2-x,1/2-y,-z
1/2+x,1/2-y,z
loop_
_atom_site_type_symbol
_atom_site_label
_atom_site_fract_x
_atom_site_fract_y
_atom_site_fract_z
Si Si1 0.505751 0.769595 0.849376
Si Si2 0.576958 0.389394 0.731731
Si Si3 0.736970 0.112792 0.231801
Si Si4 0.710313 0.889767 0.605471
Si Si5 0.624305 0.890235 0.857784
Si Si6 0.845385 0.890900 0.029788
Si Si7 0.182685 0.815204 0.550918
Si Si8 0.129118 0.294183 0.122380
O O1 0.515586 0.674625 0.757900
O O2 0.563950 0.839321 0.812121
O O3 0.441309 0.816755 0.819986
O O4 0.500000 0.739980 0.000000
O O5 0.557154 0.500000 0.723128
O O6 0.614612 0.366675 0.852900
O O7 0.616281 0.360240 0.596336
O O8 0.774870 0.120951 0.089958
O O9 0.771997 0.164800 0.339270
O O10 0.672135 0.167035 0.226062
O O11 0.726781 0.000000 0.270483
O O12 0.684456 0.879127 0.755086
O O13 0.784300 0.868589 0.578688
O O14 0.678056 0.802176 0.530484
O O15 0.695783 0.000000 0.558013
O O16 0.603888 0.000000 0.880776
O O17 0.645938 0.848871 0.987751
O O18 0.858742 0.000000 0.978804
O O19 0.861686 0.820573 0.907629
#
# Coordination Sequence:
#
# PCOD8079334 Si02
#       8
#     8   8   8   8   8   8   8   8
#     4  10  19  31  45  70 102 136 175 214 251 298
#     4  10  17  30  50  73 103 134 168 213 264 309
#     4  10  20  33  50  72 102 140 172 203 254 314
#     4  10  19  32  56  82 104 131 165 216 268 303
#     4  10  19  32  48  71 102 133 172 214 258 298
#     4   9  17  29  46  68  97 132 165 207 257 302
#     4  10  19  35  55  80 109 130 167 215 259 309
#     4  11  20  32  48  70 105 141 173 204 248 309
#
# _framework density 20.527144
#
# number of rings (size 3 to 8) (size 9 to 14) (size 15 to 20)
#    0.000    2.000    3.750    3.375    0.000    3.500 
#    0.000    1.875    0.000    0.750    0.000    2.625 
#    0.000    3.250    0.000    0.000    0.000    0.000 
#
# Total GULP energy -396521.235911 kJ/mol
# GULP energy per Si atom -12391.288622 kJ/mol
# Density = 2.048042 g / cm^3
# Si number density = 20.527144 Si / 1000 Ang^3
#
#
#
# Elastic Constant Matrix: (Units=GPa)
#
#
# Indices 1 2 3 4 5 6 
#
# 1 64.5786 17.8333 29.1651 0.0000 -14.1544 0.0000
# 2 17.8333 135.6375 28.3583 0.0000 -9.7382 0.0000
# 3 29.1651 28.3583 65.5852 0.0000 -25.1131 0.0000
# 4 0.0000 0.0000 0.0000 10.1288 0.0000 -4.9397
# 5 -14.1544 -9.7382 -25.1131 0.0000 17.7442 0.0000
# 6 0.0000 0.0000 0.0000 -4.9397 0.0000 17.1642
#
#
#
# Elastic Compliance Matrix: (Units=1/GPa)
#
#
# Indices 1 2 3 4 5 6 
#
# 1 0.019899 -0.000910 -0.005607 0.000000 0.007438 0.000000
# 2 -0.000910 0.008157 -0.003681 0.000000 -0.001459 0.000000
# 3 -0.005607 -0.003681 0.036776 0.000000 0.045555 0.000000
# 4 0.000000 0.000000 0.000000 0.114847 0.000000 0.033052
# 5 0.007438 -0.001459 0.045555 0.000000 0.125962 0.000000
# 6 0.000000 0.000000 0.000000 0.033052 0.000000 0.067773
#
#
# Mechanical properties :
#
#
# Convention : Reuss Voigt Hill
#
# Bulk Modulus (GPa) = 22.50462 46.27940 34.39201
# Shear Modulus (GPa) = 12.23623 21.70375 16.96999
#
# Velocity S-wave (km/s) = 2.44416 3.25517 2.87838
# Velocity P-wave (km/s) = 4.35344 6.05992 5.27613
#
# Compressibility (1/GPa) = 0.04443531
#
# Stress axis : x y z
#
# Youngs Moduli (GPa) = 50.25394 122.59277 27.19163
#
# Poissons Ratio (x) = 0.11155 0.15248
# Poissons Ratio (y) = 0.04573 0.10009
# Poissons Ratio (z) = 0.28180 0.45126
#
# Static dielectric constant tensor:
#      x y z
#    x 3.539400 0.000000 -0.533080 
#    y 0.000000 4.008930 0.000000 
#    z -0.533080 0.000000 3.616980 
# 
# 
# High freq. dielectric constant tensor:
#      x y z
#    x 1.760200 0.000000 -0.046250 
#    y 0.000000 1.821970 0.000000 
#    z -0.046250 0.000000 1.777490 
# 
# From -- ./inp_files/233133.got.cif
#   From: 2010.06.25/outbox.cif.g09.slc.cpg/sg12_117_cif.got.tgz:233133.got - 2010.06.28 00:19:55.
