data_PCOD8079892
_publ_section_title
;
Structure prediction by ZEFSAII (Michael W. Deem and Ramdas Pophale) SiO2 
 PCOD8079892
Probable space group: C 2/M
;
_chemical_formula_sum "Si O2"
_cell_formula_units_Z 56
_cell_length_a 27.642694
_cell_length_b 8.912920
_cell_length_c 16.285980
_cell_angle_alpha 90.000000
_cell_angle_beta 64.942691
_cell_angle_gamma 90.000000
_cell_volume 3634.855554
_symmetry_space_group_name_H-M "C 2/M"
_symmetry_group_IT_number 12
_symmetry_cell_setting 'monoclinic'
loop_
_space_group_symop_operation_xyz
x,y,z
-x,y,-z
-x,-y,-z
x,-y,z
1/2+x,1/2+y,z
1/2-x,1/2+y,-z
1/2-x,1/2-y,-z
1/2+x,1/2-y,z
loop_
_atom_site_type_symbol
_atom_site_label
_atom_site_fract_x
_atom_site_fract_y
_atom_site_fract_z
Si Si1 0.754908 0.824360 0.189586
Si Si2 0.443264 0.322159 0.642307
Si Si3 0.696136 0.676445 0.007892
Si Si4 0.438354 0.322840 0.460918
Si Si5 0.645931 0.177846 0.186120
Si Si6 0.830049 0.822861 0.465654
Si Si7 0.739596 0.677513 0.632976
O O1 0.697927 0.760681 0.198275
O O2 0.770039 0.758119 0.268190
O O3 0.746556 0.000000 0.204613
O O4 0.803651 0.791011 0.090834
O O5 0.435743 0.500000 0.659252
O O6 0.427785 0.267978 0.561657
O O7 0.504439 0.269355 0.614818
O O8 0.407339 0.234984 0.732805
O O9 0.696084 0.500000 0.025886
O O10 0.647502 0.754270 0.091977
O O11 0.750000 0.750000 0.000000
O O12 0.440393 0.500000 0.463457
O O13 0.390827 0.266234 0.435470
O O14 0.645075 0.000000 0.180164
O O15 0.793986 0.747281 0.560671
O O16 0.810326 0.774709 0.388905
O O17 0.825681 0.000000 0.481191
O O18 0.746393 0.500000 0.627545
#
# Coordination Sequence:
#
# PCOD8079892 Si02
#       7
#     8   8   8   8   8   8   8
#     4   8  15  26  39  56  79 105 128 154 190 230
#     4   9  16  27  42  57  77 106 136 162 193 232
#     4   9  16  27  41  57  79 105 132 160 194 235
#     4   8  15  27  41  58  79 104 134 165 194 227
#     4  10  18  27  39  58  83 105 130 162 195 234
#     4   9  16  26  40  58  80 104 131 161 189 223
#     4   9  16  26  40  58  80 105 130 156 190 228
#
# _framework density 15.406389000000001
#
# number of rings (size 3 to 8) (size 9 to 14) (size 15 to 20)
#    0.000    3.143    0.000    3.429    0.000    0.000 
#    0.000    5.714    0.000    0.000    0.000    1.000 
#    0.000    8.000    0.000    0.000    0.000    0.000 
#
# Total GULP energy -346913.943642 kJ/mol
# GULP energy per Si atom -12389.783702 kJ/mol
# Density = 1.537132 g / cm^3
# Si number density = 15.406389 Si / 1000 Ang^3
#
#
#
# Elastic Constant Matrix: (Units=GPa)
#
#
# Indices 1 2 3 4 5 6 
#
# 1 99.1216 20.2146 64.1655 0.0000 -0.8892 0.0000
# 2 20.2146 39.2750 36.5617 0.0000 -1.2352 0.0000
# 3 64.1655 36.5617 152.5367 0.0000 0.9524 0.0000
# 4 0.0000 0.0000 0.0000 23.6274 0.0000 -4.3228
# 5 -0.8892 -1.2352 0.9524 0.0000 22.8041 0.0000
# 6 0.0000 0.0000 0.0000 -4.3228 0.0000 12.9517
#
#
#
# Elastic Compliance Matrix: (Units=1/GPa)
#
#
# Indices 1 2 3 4 5 6 
#
# 1 0.014022 -0.002191 -0.005378 0.000000 0.000653 0.000000
# 2 -0.002191 0.033218 -0.007053 0.000000 0.002008 0.000000
# 3 -0.005378 -0.007053 0.010515 0.000000 -0.001031 0.000000
# 4 0.000000 0.000000 0.000000 0.045076 0.000000 0.015045
# 5 0.000653 0.002008 -0.001031 0.000000 0.044029 0.000000
# 6 0.000000 0.000000 0.000000 0.015045 0.000000 0.082231
#
#
# Mechanical properties :
#
#
# Convention : Reuss Voigt Hill
#
# Bulk Modulus (GPa) = 35.07215 59.20187 47.13701
# Shear Modulus (GPa) = 18.66792 23.20939 20.93866
#
# Velocity S-wave (km/s) = 3.48472 3.88555 3.69058
# Velocity P-wave (km/s) = 6.24541 7.65769 6.98732
#
# Compressibility (1/GPa) = 0.02851265
#
# Stress axis : x y z
#
# Youngs Moduli (GPa) = 71.31458 30.10416 95.10294
#
# Poissons Ratio (x) = 0.06595 0.51143
# Poissons Ratio (y) = 0.15622 0.67077
# Poissons Ratio (z) = 0.38350 0.21233
#
# Static dielectric constant tensor:
#      x y z
#    x 3.145490 0.000000 0.119260 
#    y 0.000000 2.794350 0.000000 
#    z 0.119260 0.000000 3.363010 
# 
# 
# High freq. dielectric constant tensor:
#      x y z
#    x 1.561330 0.000000 0.002940 
#    y 0.000000 1.574290 0.000000 
#    z 0.002940 0.000000 1.592770 
# 
# From -- ./inp_files/291445.got.cif
#   From: 2010.06.25/outbox.cif.g09.slc.cpg/sg12_146_cif.got.tgz:291445.got - 2010.06.28 00:19:55.
