data_PCOD8079348
_publ_section_title
;
Structure prediction by ZEFSAII (Michael W. Deem and Ramdas Pophale) SiO2 
 PCOD8079348
Probable space group: C 2/M
;
_chemical_formula_sum "Si O2"
_cell_formula_units_Z 40
_cell_length_a 18.879970
_cell_length_b 21.200612
_cell_length_c 9.183082
_cell_angle_alpha 90.000000
_cell_angle_beta 141.805372
_cell_angle_gamma 90.000000
_cell_volume 2272.802965
_symmetry_space_group_name_H-M "C 2/M"
_symmetry_group_IT_number 12
_symmetry_cell_setting 'monoclinic'
loop_
_space_group_symop_operation_xyz
x,y,z
-x,y,-z
-x,-y,-z
x,-y,z
1/2+x,1/2+y,z
1/2-x,1/2+y,-z
1/2-x,1/2-y,-z
1/2+x,1/2-y,z
loop_
_atom_site_type_symbol
_atom_site_label
_atom_site_fract_x
_atom_site_fract_y
_atom_site_fract_z
Si Si1 0.753659 0.843132 0.654635
Si Si2 0.722545 0.776636 0.112582
Si Si3 0.390971 0.330054 0.589988
Si Si4 0.014877 0.305154 0.190871
Si Si5 0.438751 0.570594 0.056298
O O1 0.792918 0.777961 0.792004
O O2 0.795637 0.845821 0.556445
O O3 0.614990 0.847145 0.427950
O O4 0.810093 0.901109 0.834770
O O5 0.827641 0.820897 0.332949
O O6 0.750000 0.750000 0.000000
O O7 0.604639 0.816721 0.916944
O O8 0.457320 0.268587 0.751298
O O9 0.482693 0.386028 0.712930
O O10 0.000000 0.325476 0.000000
O O11 0.429961 0.500000 0.106028
O O12 0.500000 0.571152 0.000000
#
# Coordination Sequence:
#
# PCOD8079348 Si02
#       5
#     8   8   8   8   8
#     4  10  18  30  50  72  99 135 167 203 254 308
#     4  11  21  30  47  77 106 131 163 213 258 307
#     4  10  17  30  51  72 100 134 168 202 254 309
#     4  11  16  30  51  72 100 134 165 201 260 316
#     4   9  17  31  52  77 101 131 177 219 248 293
#
# _framework density 17.599413999999999
#
# number of rings (size 3 to 8) (size 9 to 14) (size 15 to 20)
#    0.000    1.800    6.000    1.800    0.000    3.200 
#    0.000    0.000    0.000    4.200    0.000    1.400 
#    0.000    0.000    0.000    0.000    0.000    0.000 
#
# Total GULP energy -247920.201629 kJ/mol
# GULP energy per Si atom -12396.010081 kJ/mol
# Density = 1.755936 g / cm^3
# Si number density = 17.599414 Si / 1000 Ang^3
#
#
#
# Elastic Constant Matrix: (Units=GPa)
#
#
# Indices 1 2 3 4 5 6 
#
# 1 64.3446 12.3736 56.8876 0.0000 5.9860 0.0000
# 2 12.3736 92.1153 58.8754 0.0000 11.5205 0.0000
# 3 56.8876 58.8754 159.2619 0.0000 22.1539 0.0000
# 4 0.0000 0.0000 0.0000 25.1382 0.0000 4.2940
# 5 5.9860 11.5205 22.1539 0.0000 25.3560 0.0000
# 6 0.0000 0.0000 0.0000 4.2940 0.0000 10.0808
#
#
#
# Elastic Compliance Matrix: (Units=1/GPa)
#
#
# Indices 1 2 3 4 5 6 
#
# 1 0.023334 0.002795 -0.009591 0.000000 0.001601 0.000000
# 2 0.002795 0.014651 -0.006143 0.000000 -0.001949 0.000000
# 3 -0.009591 -0.006143 0.012832 0.000000 -0.006156 0.000000
# 4 0.000000 0.000000 0.000000 0.042902 0.000000 -0.018274
# 5 0.001601 -0.001949 -0.006156 0.000000 0.045325 0.000000
# 6 0.000000 0.000000 0.000000 -0.018274 0.000000 0.106982
#
#
# Mechanical properties :
#
#
# Convention : Reuss Voigt Hill
#
# Bulk Modulus (GPa) = 40.09742 63.55500 51.82621
# Shear Modulus (GPa) = 17.84330 24.62069 21.23200
#
# Velocity S-wave (km/s) = 3.18757 3.74431 3.47710
# Velocity P-wave (km/s) = 6.03161 7.40834 6.75514
#
# Compressibility (1/GPa) = 0.02493926
#
# Stress axis : x y z
#
# Youngs Moduli (GPa) = 42.85532 68.25572 77.92840
#
# Poissons Ratio (x) = -0.19080 0.74741
# Poissons Ratio (y) = -0.11980 0.47875
# Poissons Ratio (z) = 0.41103 0.41933
#
# Static dielectric constant tensor:
#      x y z
#    x 2.974420 0.000000 0.250200 
#    y 0.000000 3.114940 0.000000 
#    z 0.250200 0.000000 3.617200 
# 
# 
# High freq. dielectric constant tensor:
#      x y z
#    x 1.650650 0.000000 0.017240 
#    y 0.000000 1.627170 0.000000 
#    z 0.017240 0.000000 1.700410 
# 
# From -- ./inp_files/48477.got.cif
#   From: 2010.06.25/outbox.cif.g09.slc.cpg/sg12_25_cif.got.tgz:48477.got - 2010.06.28 00:19:55.
