data_PCOD8079737
_publ_section_title
;
Structure prediction by ZEFSAII (Michael W. Deem and Ramdas Pophale) SiO2 
 PCOD8079737
Probable space group: C 2/M
;
_chemical_formula_sum "Si O2"
_cell_formula_units_Z 64
_cell_length_a 15.963694
_cell_length_b 17.451927
_cell_length_c 25.331746
_cell_angle_alpha 90.000000
_cell_angle_beta 150.438964
_cell_angle_gamma 90.000000
_cell_volume 3481.748824
_symmetry_space_group_name_H-M "C 2/M"
_symmetry_group_IT_number 12
_symmetry_cell_setting 'monoclinic'
loop_
_space_group_symop_operation_xyz
x,y,z
-x,y,-z
-x,-y,-z
x,-y,z
1/2+x,1/2+y,z
1/2-x,1/2+y,-z
1/2-x,1/2-y,-z
1/2+x,1/2-y,z
loop_
_atom_site_type_symbol
_atom_site_label
_atom_site_fract_x
_atom_site_fract_y
_atom_site_fract_z
Si Si1 0.776191 0.673258 0.585610
Si Si2 0.333931 0.591429 0.575429
Si Si3 0.959239 0.413769 0.209047
Si Si4 0.932896 0.214782 0.256379
Si Si5 0.093845 0.729214 0.877812
Si Si6 0.051146 0.314108 0.473071
Si Si7 0.153489 0.913599 0.120548
Si Si8 0.721158 0.720704 0.227052
O O1 0.670257 0.621683 0.486817
O O2 0.853963 0.616210 0.672020
O O3 0.654534 0.736827 0.544233
O O4 0.931621 0.723097 0.645749
O O5 0.350966 0.500000 0.587085
O O6 0.493978 0.629256 0.693821
O O7 0.157007 0.619355 0.502792
O O8 0.971943 0.500000 0.195033
O O9 0.889604 0.361670 0.123485
O O10 0.833577 0.406687 0.189938
O O11 0.902799 0.226737 0.177038
O O12 0.760551 0.227836 0.195949
O O13 0.919441 0.741747 0.813036
O O14 0.250000 0.750000 0.000000
O O15 0.000000 0.352538 0.500000
O O16 0.890360 0.289150 0.352186
O O17 0.153049 0.862279 0.172356
O O18 0.118467 0.000000 0.119990
O O19 0.000000 0.884570 0.000000
#
# Coordination Sequence:
#
# PCOD8079737 Si02
#       8
#     8   8   8   8   8   8   8   8
#     4  10  17  35  57  82 111 147 195 234 284 343
#     4  11  20  34  56  84 121 157 187 230 285 349
#     4  10  19  36  58  85 118 147 188 252 300 335
#     4  10  20  39  56  84 116 153 205 234 281 351
#     4  11  24  39  60  89 113 154 205 241 297 355
#     4  11  21  35  56  84 117 153 196 237 282 350
#     4  10  20  34  57  89 116 142 187 252 310 341
#     4  12  20  36  63  82 118 158 194 240 286 351
#
# _framework density 18.381568000000001
#
# number of rings (size 3 to 8) (size 9 to 14) (size 15 to 20)
#    0.000    1.375    5.000    4.125    0.000    1.750 
#    0.000    3.125    0.000    1.500    0.000    1.750 
#    0.000    0.000    0.000    0.000    0.000    0.000 
#
# Total GULP energy -396677.186249 kJ/mol
# GULP energy per Si atom -12396.162070 kJ/mol
# Density = 1.833973 g / cm^3
# Si number density = 18.381568 Si / 1000 Ang^3
#
#
#
# Elastic Constant Matrix: (Units=GPa)
#
#
# Indices 1 2 3 4 5 6 
#
# 1 81.2983 23.9549 16.5683 0.0005 -7.9440 0.0001
# 2 23.9549 133.8938 38.7525 0.0025 -13.7990 0.0003
# 3 16.5683 38.7525 91.6348 0.0005 -14.1567 -0.0002
# 4 0.0005 0.0025 0.0005 25.5207 -0.0002 -3.6854
# 5 -7.9440 -13.7990 -14.1567 -0.0002 21.1639 0.0000
# 6 0.0001 0.0003 -0.0002 -3.6854 0.0000 19.4616
#
#
#
# Elastic Compliance Matrix: (Units=1/GPa)
#
#
# Indices 1 2 3 4 5 6 
#
# 1 0.013355 -0.001721 -0.001211 0.000000 0.003081 0.000000
# 2 -0.001721 0.008972 -0.002988 -0.000001 0.003205 0.000000
# 3 -0.001211 -0.002988 0.013410 0.000000 0.006568 0.000000
# 4 0.000000 -0.000001 0.000000 0.040285 0.000000 0.007629
# 5 0.003081 0.003205 0.006568 0.000000 0.054889 0.000000
# 6 0.000000 0.000000 0.000000 0.007629 0.000000 0.052828
#
#
# Mechanical properties :
#
#
# Convention : Reuss Voigt Hill
#
# Bulk Modulus (GPa) = 41.84635 51.70869 46.77752
# Shear Modulus (GPa) = 24.56455 28.39932 26.48194
#
# Velocity S-wave (km/s) = 3.65960 3.93490 3.79975
# Velocity P-wave (km/s) = 6.37744 6.98830 6.68985
#
# Compressibility (1/GPa) = 0.02389695
#
# Stress axis : x y z
#
# Youngs Moduli (GPa) = 74.87602 111.46272 74.57151
#
# Poissons Ratio (x) = 0.19188 0.09029
# Poissons Ratio (y) = 0.12890 0.22280
# Poissons Ratio (z) = 0.09066 0.33302
#
# Static dielectric constant tensor:
#      x y z
#    x 3.597070 0.000000 0.209040 
#    y 0.000000 3.426270 0.000000 
#    z 0.209040 0.000000 3.550220 
# 
# 
# High freq. dielectric constant tensor:
#      x y z
#    x 1.701610 0.000000 -0.000510 
#    y 0.000000 1.700560 0.000000 
#    z -0.000510 0.000000 1.714150 
# 
# From -- ./inp_files/340887.got.cif
#   From: 2010.06.25/outbox.cif.g09.slc.cpg/sg12_171_cif.got.tgz:340887.got - 2010.06.28 00:19:55.
