data_PCOD8079895
_publ_section_title
;
Structure prediction by ZEFSAII (Michael W. Deem and Ramdas Pophale) SiO2 
 PCOD8079895
Probable space group: C 2/M
;
_chemical_formula_sum "Si O2"
_cell_formula_units_Z 56
_cell_length_a 25.586224
_cell_length_b 9.572599
_cell_length_c 19.169236
_cell_angle_alpha 90.000000
_cell_angle_beta 47.596113
_cell_angle_gamma 90.000000
_cell_volume 3466.875125
_symmetry_space_group_name_H-M "C 2/M"
_symmetry_group_IT_number 12
_symmetry_cell_setting 'monoclinic'
loop_
_space_group_symop_operation_xyz
x,y,z
-x,y,-z
-x,-y,-z
x,-y,z
1/2+x,1/2+y,z
1/2-x,1/2+y,-z
1/2-x,1/2-y,-z
1/2+x,1/2-y,z
loop_
_atom_site_type_symbol
_atom_site_label
_atom_site_fract_x
_atom_site_fract_y
_atom_site_fract_z
Si Si1 0.145655 0.162732 0.308064
Si Si2 0.686602 0.848040 0.040162
Si Si3 0.936721 0.843162 0.849894
Si Si4 0.804110 0.347240 0.130162
Si Si5 0.008081 0.842842 0.343468
Si Si6 0.435800 0.662502 0.010616
Si Si7 0.069119 0.657902 0.484756
O O1 0.224223 0.209525 0.212990
O O2 0.087948 0.191672 0.299075
O O3 0.129715 0.255578 0.390628
O O4 0.144715 0.000000 0.329764
O O5 0.681922 0.868676 0.962916
O O6 0.693476 0.000000 0.070751
O O7 0.750000 0.750000 0.000000
O O8 0.617665 0.770495 0.129797
O O9 0.997812 0.833469 0.735942
O O10 0.903613 0.000000 0.878077
O O11 0.959395 0.808766 0.908891
O O12 0.813318 0.500000 0.158360
O O13 0.864365 0.239535 0.101262
O O14 0.950350 0.735745 0.425670
O O15 0.988588 0.000000 0.385588
O O16 0.421530 0.500000 0.036385
O O17 0.500000 0.718159 0.000000
O O18 0.095219 0.500000 0.477033
O O19 0.000000 0.656002 0.500000
#
# Coordination Sequence:
#
# PCOD8079895 Si02
#       7
#     8   8   8   8   8   8   8
#     4   9  16  27  42  60  85 116 148 177 206 245
#     4  10  18  27  39  58  86 116 144 173 207 248
#     4   9  17  29  44  62  84 112 146 178 211 254
#     4   9  18  30  44  63  85 112 147 181 212 253
#     4   9  16  27  43  61  85 118 149 175 205 245
#     4   9  18  32  48  66  88 112 140 178 223 267
#     4   9  17  27  39  59  87 116 146 177 208 244
#
# _framework density 16.152875000000002
#
# number of rings (size 3 to 8) (size 9 to 14) (size 15 to 20)
#    0.000    2.857    0.000    1.714    0.000    6.000 
#    0.000    2.857    0.000    0.000    0.000    1.000 
#    0.000    0.000    0.000    0.000    0.000    0.000 
#
# Total GULP energy -346899.175090 kJ/mol
# GULP energy per Si atom -12389.256253 kJ/mol
# Density = 1.611611 g / cm^3
# Si number density = 16.152875 Si / 1000 Ang^3
#
#
#
# Elastic Constant Matrix: (Units=GPa)
#
#
# Indices 1 2 3 4 5 6 
#
# 1 44.2470 23.9051 14.8550 -0.0010 1.4892 0.0012
# 2 23.9051 87.0701 33.5379 -0.0026 2.8400 0.0022
# 3 14.8550 33.5379 86.7310 -0.0010 2.1630 0.0014
# 4 -0.0010 -0.0026 -0.0010 25.0907 0.0014 -5.1691
# 5 1.4892 2.8400 2.1630 0.0014 15.2706 -0.0015
# 6 0.0012 0.0022 0.0014 -5.1691 -0.0015 17.2684
#
#
#
# Elastic Compliance Matrix: (Units=1/GPa)
#
#
# Indices 1 2 3 4 5 6 
#
# 1 0.026863 -0.006554 -0.002039 0.000000 -0.001112 -0.000001
# 2 -0.006554 0.015142 -0.004695 0.000001 -0.001512 -0.000001
# 3 -0.002039 -0.004695 0.013716 0.000000 -0.000871 0.000000
# 4 0.000000 0.000001 0.000000 0.042475 -0.000003 0.012714
# 5 -0.001112 -0.001512 -0.000871 -0.000003 0.065998 0.000005
# 6 -0.000001 -0.000001 0.000000 0.012714 0.000005 0.061715
#
#
# Mechanical properties :
#
#
# Convention : Reuss Voigt Hill
#
# Bulk Modulus (GPa) = 34.30998 40.29381 37.30189
# Shear Modulus (GPa) = 19.06937 21.24261 20.15599
#
# Velocity S-wave (km/s) = 3.43965 3.63036 3.53629
# Velocity P-wave (km/s) = 6.08784 6.52473 6.31007
#
# Compressibility (1/GPa) = 0.02914604
#
# Stress axis : x y z
#
# Youngs Moduli (GPa) = 37.22583 66.04122 72.90535
#
# Poissons Ratio (x) = 0.43280 0.14866
# Poissons Ratio (y) = 0.24396 0.34230
# Poissons Ratio (z) = 0.07591 0.31007
#
# Static dielectric constant tensor:
#      x y z
#    x 2.852540 0.000000 0.018110 
#    y 0.000000 3.560830 0.000000 
#    z 0.018110 0.000000 3.037990 
# 
# 
# High freq. dielectric constant tensor:
#      x y z
#    x 1.564070 0.000000 0.001730 
#    y 0.000000 1.633640 0.000000 
#    z 0.001730 0.000000 1.616220 
# 
# From -- ./inp_files/291441.got.cif
#   From: 2010.06.25/outbox.cif.g09.slc.cpg/sg12_146_cif.got.tgz:291441.got - 2010.06.28 00:19:55.
