data_PCOD8079969
_publ_section_title
;
Structure prediction by ZEFSAII (Michael W. Deem and Ramdas Pophale) SiO2 
 PCOD8079969
Probable space group: C 2/M
;
_chemical_formula_sum "Si O2"
_cell_formula_units_Z 48
_cell_length_a 24.730555
_cell_length_b 9.178225
_cell_length_c 21.624440
_cell_angle_alpha 90.000000
_cell_angle_beta 142.653678
_cell_angle_gamma 90.000000
_cell_volume 2977.571926
_symmetry_space_group_name_H-M "C 2/M"
_symmetry_group_IT_number 12
_symmetry_cell_setting 'monoclinic'
loop_
_space_group_symop_operation_xyz
x,y,z
-x,y,-z
-x,-y,-z
x,-y,z
1/2+x,1/2+y,z
1/2-x,1/2+y,-z
1/2-x,1/2-y,-z
1/2+x,1/2-y,z
loop_
_atom_site_type_symbol
_atom_site_label
_atom_site_fract_x
_atom_site_fract_y
_atom_site_fract_z
Si Si1 0.029795 0.839304 0.956451
Si Si2 0.209763 0.172276 0.172952
Si Si3 0.383278 0.328212 0.335869
Si Si4 0.733616 0.331358 0.548209
Si Si5 0.578107 0.328267 0.491300
Si Si6 0.366284 0.168655 0.778203
O O1 0.967948 0.726163 0.863038
O O2 0.018879 0.000000 0.916618
O O3 0.133863 0.791800 0.052397
O O4 0.000000 0.845124 0.000000
O O5 0.301957 0.239731 0.231149
O O6 0.186785 0.244459 0.217719
O O7 0.217980 0.000000 0.190505
O O8 0.363422 0.500000 0.314674
O O9 0.474958 0.289270 0.382833
O O10 0.393662 0.270731 0.415561
O O11 0.719766 0.500000 0.520336
O O12 0.750000 0.250000 0.500000
O O13 0.644292 0.265226 0.499256
O O14 0.818012 0.307075 0.669257
O O15 0.590468 0.500000 0.505773
O O16 0.368029 0.000000 0.798980
#
# Coordination Sequence:
#
# PCOD8079969 Si02
#       6
#     8   8   8   8   8   8
#     4   8  16  28  40  59  90 121 144 174 224 275
#     4  10  18  27  41  65  96 122 143 176 225 275
#     4   9  15  27  48  66  86 119 150 182 221 264
#     4  10  20  33  47  66  90 119 154 187 221 262
#     4   8  15  29  46  64  88 117 150 185 223 263
#     4  10  18  29  45  63  86 117 155 191 217 256
#
# _framework density 16.120518000000001
#
# number of rings (size 3 to 8) (size 9 to 14) (size 15 to 20)
#    0.000    2.833    1.667    3.000    0.000    5.000 
#    0.000    2.500    0.000    0.000    0.000    1.167 
#    0.000    0.000    0.000    0.000    0.000    0.000 
#
# Total GULP energy -297433.046531 kJ/mol
# GULP energy per Si atom -12393.043605 kJ/mol
# Density = 1.608383 g / cm^3
# Si number density = 16.120518 Si / 1000 Ang^3
#
#
#
# Elastic Constant Matrix: (Units=GPa)
#
#
# Indices 1 2 3 4 5 6 
#
# 1 87.7727 35.2104 54.4438 0.0000 17.0295 0.0000
# 2 35.2104 74.7708 56.2443 0.0000 12.4415 0.0000
# 3 54.4438 56.2443 105.1203 0.0000 32.5806 0.0000
# 4 0.0000 0.0000 0.0000 24.1796 0.0000 0.8383
# 5 17.0295 12.4415 32.5806 0.0000 28.9529 0.0000
# 6 0.0000 0.0000 0.0000 0.8383 0.0000 18.5366
#
#
#
# Elastic Compliance Matrix: (Units=1/GPa)
#
#
# Indices 1 2 3 4 5 6 
#
# 1 0.017033 -0.002405 -0.007294 0.000000 -0.000777 0.000000
# 2 -0.002405 0.023404 -0.013203 0.000000 0.006215 0.000000
# 3 -0.007294 -0.013203 0.026514 0.000000 -0.019872 0.000000
# 4 0.000000 0.000000 0.000000 0.041422 0.000000 -0.001873
# 5 -0.000777 0.006215 -0.019872 0.000000 0.054688 0.000000
# 6 0.000000 0.000000 0.000000 -0.001873 0.000000 0.054032
#
#
# Mechanical properties :
#
#
# Convention : Reuss Voigt Hill
#
# Bulk Modulus (GPa) = 47.28754 62.16232 54.72493
# Shear Modulus (GPa) = 18.52223 22.45152 20.48688
#
# Velocity S-wave (km/s) = 3.39334 3.73598 3.56878
# Velocity P-wave (km/s) = 6.68958 7.56669 7.14161
#
# Compressibility (1/GPa) = 0.02114722
#
# Stress axis : x y z
#
# Youngs Moduli (GPa) = 58.70962 42.72751 37.71578
#
# Poissons Ratio (x) = 0.10275 0.27511
# Poissons Ratio (y) = 0.14119 0.49796
# Poissons Ratio (z) = 0.42824 0.56413
#
# Static dielectric constant tensor:
#      x y z
#    x 2.958850 0.000000 0.479480 
#    y 0.000000 2.969640 0.000000 
#    z 0.479480 0.000000 3.295770 
# 
# 
# High freq. dielectric constant tensor:
#      x y z
#    x 1.577960 0.000000 0.038250 
#    y 0.000000 1.609970 0.000000 
#    z 0.038250 0.000000 1.618010 
# 
# From -- ./inp_files/323504.got.cif
#   From: 2010.06.25/outbox.cif.g09.slc.cpg/sg12_162_cif.got.tgz:323504.got - 2010.06.28 00:19:55.
