data_PCOD8079522
_publ_section_title
;
Structure prediction by ZEFSAII (Michael W. Deem and Ramdas Pophale) SiO2 
 PCOD8079522
Probable space group: C 2/M
;
_chemical_formula_sum "Si O2"
_cell_formula_units_Z 56
_cell_length_a 15.959737
_cell_length_b 14.646897
_cell_length_c 19.039580
_cell_angle_alpha 90.000000
_cell_angle_beta 48.476737
_cell_angle_gamma 90.000000
_cell_volume 3332.182631
_symmetry_space_group_name_H-M "C 2/M"
_symmetry_group_IT_number 12
_symmetry_cell_setting 'monoclinic'
loop_
_space_group_symop_operation_xyz
x,y,z
-x,y,-z
-x,-y,-z
x,-y,z
1/2+x,1/2+y,z
1/2-x,1/2+y,-z
1/2-x,1/2-y,-z
1/2+x,1/2-y,z
loop_
_atom_site_type_symbol
_atom_site_label
_atom_site_fract_x
_atom_site_fract_y
_atom_site_fract_z
Si Si1 0.319398 0.602928 0.239529
Si Si2 0.071120 0.605993 0.397426
Si Si3 0.206048 0.147198 0.899194
Si Si4 0.035605 0.394454 0.261764
Si Si5 0.906431 0.673704 0.001080
Si Si6 0.814237 0.900382 0.932026
Si Si7 0.001942 0.236712 0.184395
O O1 0.330159 0.500000 0.261968
O O2 0.196284 0.646169 0.321758
O O3 0.346582 0.600296 0.140735
O O4 0.402137 0.664726 0.238346
O O5 0.085931 0.500000 0.405795
O O6 0.006255 0.619549 0.359979
O O7 0.000000 0.652923 0.500000
O O8 0.337562 0.131342 0.824683
O O9 0.168331 0.252411 0.915846
O O10 0.164813 0.104785 0.995683
O O11 0.010779 0.500000 0.253016
O O12 0.966375 0.318895 0.256724
O O13 0.981310 0.720388 0.900608
O O14 0.817513 0.605064 0.015003
O O15 0.000000 0.626493 0.000000
O O16 0.885232 0.819268 0.855747
O O17 0.856938 0.000000 0.883621
#
# Coordination Sequence:
#
# PCOD8079522 Si02
#       7
#     8   8   8   8   8   8   8
#     4  10  19  30  50  75  99 125 156 199 252 293
#     4   8  16  32  54  78  98 117 150 199 251 300
#     4  10  17  32  47  67  91 122 167 206 244 281
#     4  10  18  31  53  71  91 129 162 193 245 296
#     4  11  20  32  45  63  96 132 170 207 239 266
#     4  11  21  32  47  65  95 135 173 204 240 281
#     4  11  20  32  46  71 102 127 163 209 237 284
#
# _framework density 16.805802
#
# number of rings (size 3 to 8) (size 9 to 14) (size 15 to 20)
#    0.000    1.857    4.286    3.429    0.000    0.286 
#    0.000    2.857    0.000    0.000    0.000    0.000 
#    0.000    2.857    0.000    0.000    0.000    0.000 
#
# Total GULP energy -346897.632658 kJ/mol
# GULP energy per Si atom -12389.201166 kJ/mol
# Density = 1.676755 g / cm^3
# Si number density = 16.805802 Si / 1000 Ang^3
#
#
#
# Elastic Constant Matrix: (Units=GPa)
#
#
# Indices 1 2 3 4 5 6 
#
# 1 98.6652 40.6544 25.3125 0.0000 3.4452 0.0000
# 2 40.6544 86.1446 34.8187 0.0000 9.2142 0.0000
# 3 25.3125 34.8187 71.2862 0.0000 6.7704 0.0000
# 4 0.0000 0.0000 0.0000 11.1844 0.0000 -0.3237
# 5 3.4452 9.2142 6.7704 0.0000 11.9124 0.0000
# 6 0.0000 0.0000 0.0000 -0.3237 0.0000 22.4443
#
#
#
# Elastic Compliance Matrix: (Units=1/GPa)
#
#
# Indices 1 2 3 4 5 6 
#
# 1 0.012833 -0.005391 -0.002079 0.000000 0.001640 0.000000
# 2 -0.005391 0.017407 -0.005769 0.000000 -0.008627 0.000000
# 3 -0.002079 -0.005769 0.018079 0.000000 -0.005212 0.000000
# 4 0.000000 0.000000 0.000000 0.089448 0.000000 0.001290
# 5 0.001640 -0.008627 -0.005212 0.000000 0.093106 0.000000
# 6 0.000000 0.000000 0.000000 0.001290 0.000000 0.044573
#
#
# Mechanical properties :
#
#
# Convention : Reuss Voigt Hill
#
# Bulk Modulus (GPa) = 45.78639 50.85190 48.31915
# Shear Modulus (GPa) = 16.17052 19.46224 17.81638
#
# Velocity S-wave (km/s) = 3.10530 3.40673 3.25950
# Velocity P-wave (km/s) = 6.33725 6.76747 6.55589
#
# Compressibility (1/GPa) = 0.02184055
#
# Stress axis : x y z
#
# Youngs Moduli (GPa) = 77.92472 57.44808 55.31342
#
# Poissons Ratio (x) = 0.30972 0.11501
# Poissons Ratio (y) = 0.42012 0.31908
# Poissons Ratio (z) = 0.16202 0.33139
#
# Static dielectric constant tensor:
#      x y z
#    x 3.186800 0.000000 0.071690 
#    y 0.000000 3.122630 0.000000 
#    z 0.071690 0.000000 3.176560 
# 
# 
# High freq. dielectric constant tensor:
#      x y z
#    x 1.640500 0.000000 0.004890 
#    y 0.000000 1.633210 0.000000 
#    z 0.004890 0.000000 1.612080 
# 
# From -- ./inp_files/214197.got.cif
#   From: 2010.06.25/outbox.cif.g09.slc.cpg/sg12_108_cif.got.tgz:214197.got - 2010.06.28 00:19:55.
