data_PCOD8079659
_publ_section_title
;
Structure prediction by ZEFSAII (Michael W. Deem and Ramdas Pophale) SiO2 
 PCOD8079659
Probable space group: C 2/M
;
_chemical_formula_sum "Si O2"
_cell_formula_units_Z 48
_cell_length_a 12.180511
_cell_length_b 21.375061
_cell_length_c 9.824738
_cell_angle_alpha 90.000000
_cell_angle_beta 104.310737
_cell_angle_gamma 90.000000
_cell_volume 2478.585607
_symmetry_space_group_name_H-M "C 2/M"
_symmetry_group_IT_number 12
_symmetry_cell_setting 'monoclinic'
loop_
_space_group_symop_operation_xyz
x,y,z
-x,y,-z
-x,-y,-z
x,-y,z
1/2+x,1/2+y,z
1/2-x,1/2+y,-z
1/2-x,1/2-y,-z
1/2+x,1/2-y,z
loop_
_atom_site_type_symbol
_atom_site_label
_atom_site_fract_x
_atom_site_fract_y
_atom_site_fract_z
Si Si1 0.362783 0.000000 0.123084
Si Si2 0.951722 0.072443 0.335514
Si Si3 0.280092 0.126617 0.796135
Si Si4 0.520114 0.211129 0.165518
Si Si5 0.193258 0.633666 0.871553
Si Si6 0.127863 0.500000 0.175900
Si Si7 0.435392 0.650855 0.842872
O O1 0.323295 0.062607 0.188850
O O2 0.494995 0.000000 0.139969
O O3 0.313863 0.000000 0.955633
O O4 0.851096 0.123615 0.287050
O O5 0.000000 0.078046 0.500000
O O6 0.048150 0.094553 0.259075
O O7 0.916181 0.000000 0.293391
O O8 0.356760 0.182220 0.755670
O O9 0.330485 0.063667 0.742860
O O10 0.290129 0.132020 0.961491
O O11 0.415214 0.175447 0.205865
O O12 0.517255 0.284014 0.204238
O O13 0.500000 0.202462 0.000000
O O14 0.303068 0.661991 0.832990
O O15 0.500000 0.631590 0.000000
#
# Coordination Sequence:
#
# PCOD8079659 Si02
#       7
#     4   8   8   8   8   4   8
#     4   9  16  26  46  82 120 138 177 232 284 327
#     4  11  25  42  58  79 113 155 191 226 277 341
#     4  10  17  33  56  82 113 149 190 226 276 335
#     4   9  20  32  55  88 119 147 180 231 285 335
#     4  10  19  31  53  88 119 142 179 236 284 326
#     4   9  14  26  48  81 110 149 181 222 283 328
#     4  11  23  36  58  86 116 149 184 231 283 331
#
# _framework density 19.365884000000001
#
# number of rings (size 3 to 8) (size 9 to 14) (size 15 to 20)
#    0.000    2.000    4.167    0.000    3.500    2.333 
#    0.000    0.833    0.000    0.000    0.000    3.500 
#    0.000    0.000    0.000    0.000    0.000    0.000 
#
# Total GULP energy -297381.014876 kJ/mol
# GULP energy per Si atom -12390.875620 kJ/mol
# Density = 1.932181 g / cm^3
# Si number density = 19.365884 Si / 1000 Ang^3
#
#
#
# Elastic Constant Matrix: (Units=GPa)
#
#
# Indices 1 2 3 4 5 6 
#
# 1 116.5039 42.4271 22.3579 0.0000 3.4273 0.0000
# 2 42.4271 106.3116 35.1447 0.0000 -2.1817 0.0000
# 3 22.3579 35.1447 37.9083 0.0000 -3.0523 0.0000
# 4 0.0000 0.0000 0.0000 17.1049 0.0000 -7.0184
# 5 3.4273 -2.1817 -3.0523 0.0000 13.0794 0.0000
# 6 0.0000 0.0000 0.0000 -7.0184 0.0000 30.2277
#
#
#
# Elastic Compliance Matrix: (Units=1/GPa)
#
#
# Indices 1 2 3 4 5 6 
#
# 1 0.010531 -0.003063 -0.003704 0.000000 -0.004135 0.000000
# 2 -0.003063 0.014460 -0.011558 0.000000 0.000517 0.000000
# 3 -0.003704 -0.011558 0.039953 0.000000 0.008367 0.000000
# 4 0.000000 0.000000 0.000000 0.064619 0.000000 0.015003
# 5 -0.004135 0.000517 0.008367 0.000000 0.079578 0.000000
# 6 0.000000 0.000000 0.000000 0.015003 0.000000 0.036566
#
#
# Mechanical properties :
#
#
# Convention : Reuss Voigt Hill
#
# Bulk Modulus (GPa) = 35.34308 51.17591 43.25949
# Shear Modulus (GPa) = 17.13565 22.80203 19.96884
#
# Velocity S-wave (km/s) = 2.97785 3.43510 3.21461
# Velocity P-wave (km/s) = 5.48755 6.49741 6.01372
#
# Compressibility (1/GPa) = 0.02829408
#
# Stress axis : x y z
#
# Youngs Moduli (GPa) = 94.95368 69.15558 25.02938
#
# Poissons Ratio (x) = 0.21183 0.09272
# Poissons Ratio (y) = 0.29086 0.28928
# Poissons Ratio (z) = 0.35175 0.79928
#
# Static dielectric constant tensor:
#      x y z
#    x 3.659130 0.000000 0.127440 
#    y 0.000000 3.927670 0.000000 
#    z 0.127440 0.000000 2.857200 
# 
# 
# High freq. dielectric constant tensor:
#      x y z
#    x 1.766670 0.000000 0.012870 
#    y 0.000000 1.768210 0.000000 
#    z 0.012870 0.000000 1.670000 
# 
# From -- ./inp_files/132628.got.cif
#   From: 2010.06.25/outbox.cif.g09.slc.cpg/sg12_67_cif.got.tgz:132628.got - 2010.06.28 00:19:55.
