data_PCOD8079090
_publ_section_title
;
Structure prediction by ZEFSAII (Michael W. Deem and Ramdas Pophale) SiO2 
 PCOD8079090
Probable space group: C 2/M
;
_chemical_formula_sum "Si O2"
_cell_formula_units_Z 56
_cell_length_a 9.004746
_cell_length_b 30.456682
_cell_length_c 15.281731
_cell_angle_alpha 90.000000
_cell_angle_beta 131.108663
_cell_angle_gamma 90.000000
_cell_volume 3157.832627
_symmetry_space_group_name_H-M "C 2/M"
_symmetry_group_IT_number 12
_symmetry_cell_setting 'monoclinic'
loop_
_space_group_symop_operation_xyz
x,y,z
-x,y,-z
-x,-y,-z
x,-y,z
1/2+x,1/2+y,z
1/2-x,1/2+y,-z
1/2-x,1/2-y,-z
1/2+x,1/2-y,z
loop_
_atom_site_type_symbol
_atom_site_label
_atom_site_fract_x
_atom_site_fract_y
_atom_site_fract_z
Si Si1 0.224361 0.884497 0.089900
Si Si2 0.500000 0.756103 0.000000
Si Si3 0.352228 0.689948 0.076300
Si Si4 0.022301 0.050005 0.715019
Si Si5 0.305657 0.950550 0.547871
Si Si6 0.160315 0.871367 0.259741
Si Si7 0.078664 0.550392 0.213561
Si Si8 0.000000 0.614219 0.500000
O O1 0.264622 0.870445 0.205379
O O2 0.385227 0.920182 0.122518
O O3 0.242812 0.842083 0.034040
O O4 0.000000 0.903532 0.000000
O O5 0.509440 0.726052 0.917160
O O6 0.309465 0.787170 0.925513
O O7 0.484448 0.663360 0.195905
O O8 0.254008 0.061405 0.793679
O O9 0.910242 0.056647 0.578428
O O10 0.927327 0.080485 0.752746
O O11 0.997794 0.000000 0.737856
O O12 0.308138 0.940931 0.651663
O O13 0.460308 0.917049 0.566853
O O14 0.379408 0.000000 0.557890
O O15 0.316103 0.856698 0.395599
O O16 0.009269 0.500000 0.179171
#
# Coordination Sequence:
#
# PCOD8079090 Si02
#       8
#     8   4   8   8   8   8   8   4
#     4  10  20  36  51  74 108 135 176 217 253 300
#     4  10  20  38  66  84  98 124 168 208 268 304
#     4  10  21  38  59  87 100 128 164 216 255 314
#     4   9  19  31  47  73 105 144 184 220 253 294
#     4   9  16  27  45  69  99 137 191 228 249 284
#     4  10  19  34  52  79 110 136 174 214 255 304
#     4  10  19  31  48  70 104 148 183 219 259 292
#     4  10  17  28  50  76 104 144 166 210 266 304
#
# _framework density 17.733682000000002
#
# number of rings (size 3 to 8) (size 9 to 14) (size 15 to 20)
#    0.000    2.286    3.571    0.643    2.000    3.143 
#    0.000    2.143    0.000    7.714    0.000    0.000 
#    0.000    0.000    0.000    0.000    0.000    0.000 
#
# Total GULP energy -347023.596360 kJ/mol
# GULP energy per Si atom -12393.699870 kJ/mol
# Density = 1.769332 g / cm^3
# Si number density = 17.733682 Si / 1000 Ang^3
#
#
#
# Elastic Constant Matrix: (Units=GPa)
#
#
# Indices 1 2 3 4 5 6 
#
# 1 81.7704 45.5606 32.4836 0.0000 12.6213 0.0000
# 2 45.5606 91.4120 51.3299 0.0000 12.0440 0.0000
# 3 32.4836 51.3299 88.4198 0.0000 9.5372 0.0000
# 4 0.0000 0.0000 0.0000 7.2721 0.0000 8.6484
# 5 12.6213 12.0440 9.5372 0.0000 22.7343 0.0000
# 6 0.0000 0.0000 0.0000 8.6484 0.0000 25.0940
#
#
#
# Elastic Compliance Matrix: (Units=1/GPa)
#
#
# Indices 1 2 3 4 5 6 
#
# 1 0.017738 -0.007126 -0.001806 0.000000 -0.005314 0.000000
# 2 -0.007126 0.019624 -0.008462 0.000000 -0.002890 0.000000
# 3 -0.001806 -0.008462 0.017066 0.000000 -0.001674 0.000000
# 4 0.000000 0.000000 0.000000 0.233018 0.000000 -0.080307
# 5 -0.005314 -0.002890 -0.001674 0.000000 0.049170 0.000000
# 6 0.000000 0.000000 0.000000 -0.080307 0.000000 0.067527
#
#
# Mechanical properties :
#
#
# Convention : Reuss Voigt Hill
#
# Bulk Modulus (GPa) = 50.92117 57.81669 54.36893
# Shear Modulus (GPa) = 11.22388 19.83529 15.52959
#
# Velocity S-wave (km/s) = 2.51851 3.34804 2.96245
# Velocity P-wave (km/s) = 6.10196 6.90068 6.51357
#
# Compressibility (1/GPa) = 0.01963820
#
# Stress axis : x y z
#
# Youngs Moduli (GPa) = 56.37692 50.95849 58.59461
#
# Poissons Ratio (x) = 0.36314 0.10584
# Poissons Ratio (y) = 0.40175 0.49585
# Poissons Ratio (z) = 0.10184 0.43123
#
# Static dielectric constant tensor:
#      x y z
#    x 3.359270 0.000000 0.098150 
#    y 0.000000 3.218940 0.000000 
#    z 0.098150 0.000000 3.246740 
# 
# 
# High freq. dielectric constant tensor:
#      x y z
#    x 1.689570 0.000000 0.007570 
#    y 0.000000 1.661460 0.000000 
#    z 0.007570 0.000000 1.675210 
# 
# From -- ./inp_files/201024.got.cif
#   From: 2010.06.25/outbox.cif.g09.slc.cpg/sg12_101_cif.got.tgz:201024.got - 2010.06.28 00:19:55.
