data_PCOD8079789
_publ_section_title
;
Structure prediction by ZEFSAII (Michael W. Deem and Ramdas Pophale) SiO2 
 PCOD8079789
Probable space group: C 2/M
;
_chemical_formula_sum "Si O2"
_cell_formula_units_Z 40
_cell_length_a 18.279812
_cell_length_b 13.988568
_cell_length_c 18.908820
_cell_angle_alpha 90.000000
_cell_angle_beta 23.161161
_cell_angle_gamma 90.000000
_cell_volume 1901.752865
_symmetry_space_group_name_H-M "C 2/M"
_symmetry_group_IT_number 12
_symmetry_cell_setting 'monoclinic'
loop_
_space_group_symop_operation_xyz
x,y,z
-x,y,-z
-x,-y,-z
x,-y,z
1/2+x,1/2+y,z
1/2-x,1/2+y,-z
1/2-x,1/2-y,-z
1/2+x,1/2-y,z
loop_
_atom_site_type_symbol
_atom_site_label
_atom_site_fract_x
_atom_site_fract_y
_atom_site_fract_z
Si Si1 0.298420 0.646548 0.983484
Si Si2 0.174492 0.215876 0.461481
Si Si3 0.397339 0.106952 0.382919
Si Si4 0.321809 0.606340 0.809522
Si Si5 0.495685 0.745760 0.083468
O O1 0.382484 0.595790 0.838822
O O2 0.447464 0.658452 0.914481
O O3 0.250000 0.750000 0.000000
O O4 0.116911 0.594030 0.173868
O O5 0.304103 0.155540 0.398405
O O6 0.137448 0.324377 0.519650
O O7 0.285202 0.221642 0.289069
O O8 0.979514 0.161832 0.625133
O O9 0.317371 0.000000 0.467662
O O10 0.298132 0.500000 0.799114
O O11 0.128795 0.662296 0.973092
O O12 0.500000 0.706491 0.000000
#
# Coordination Sequence:
#
# PCOD8079789 Si02
#       5
#     8   8   8   8   8
#     4  10  17  38  61  87 119 160 200 249 299 347
#     4  11  21  38  62  91 125 155 204 249 309 358
#     4  11  20  35  65  95 121 153 200 262 308 352
#     4  11  22  39  65  96 122 156 206 254 302 361
#     4  11  24  41  60  86 127 170 199 247 305 364
#
# _framework density 21.033227
#
# number of rings (size 3 to 8) (size 9 to 14) (size 15 to 20)
#    0.000    1.200    8.000    2.400    0.000    2.000 
#    0.000    2.000    0.000    6.600    0.000    0.000 
#    0.000    0.000    0.000    0.000    0.000    0.000 
#
# Total GULP energy -247903.060446 kJ/mol
# GULP energy per Si atom -12395.153022 kJ/mol
# Density = 2.098535 g / cm^3
# Si number density = 21.033227 Si / 1000 Ang^3
#
#
#
# Elastic Constant Matrix: (Units=GPa)
#
#
# Indices 1 2 3 4 5 6 
#
# 1 60.3072 -3.6574 12.3280 0.0038 11.4686 -0.0003
# 2 -3.6574 101.9507 18.0303 -0.0187 -3.3766 0.0041
# 3 12.3280 18.0303 147.7873 -0.0376 12.5958 0.0101
# 4 0.0038 -0.0187 -0.0376 13.0971 0.0159 -5.3964
# 5 11.4686 -3.3766 12.5958 0.0159 21.1103 -0.0016
# 6 -0.0003 0.0041 0.0101 -5.3964 -0.0016 10.3832
#
#
#
# Elastic Compliance Matrix: (Units=1/GPa)
#
#
# Indices 1 2 3 4 5 6 
#
# 1 0.018590 0.000492 -0.000797 0.000006 -0.009545 0.000003
# 2 0.000492 0.010161 -0.001471 0.000008 0.002236 0.000002
# 3 -0.000797 -0.001471 0.007370 0.000027 -0.004200 0.000007
# 4 0.000006 0.000008 0.000027 0.097159 -0.000087 0.050495
# 5 -0.009545 0.002236 -0.004200 -0.000087 0.055419 -0.000034
# 6 0.000003 0.000002 0.000007 0.050495 -0.000034 0.122553
#
#
# Mechanical properties :
#
#
# Convention : Reuss Voigt Hill
#
# Bulk Modulus (GPa) = 30.70554 40.38302 35.54428
# Shear Modulus (GPa) = 15.35340 27.80773 21.58057
#
# Velocity S-wave (km/s) = 2.70471 3.63999 3.20663
# Velocity P-wave (km/s) = 4.93804 6.07515 5.53586
#
# Compressibility (1/GPa) = 0.03256741
#
# Stress axis : x y z
#
# Youngs Moduli (GPa) = 53.79327 98.41994 135.67727
#
# Poissons Ratio (x) = -0.04840 0.10816
# Poissons Ratio (y) = -0.02645 0.19961
# Poissons Ratio (z) = 0.04288 0.14479
#
# Static dielectric constant tensor:
#      x y z
#    x 4.085460 -0.000140 -0.029300 
#    y -0.000140 3.856330 0.000230 
#    z -0.029300 0.000230 4.693450 
# 
# 
# High freq. dielectric constant tensor:
#      x y z
#    x 1.779880 0.000000 0.000040 
#    y 0.000000 1.812790 0.000010 
#    z 0.000040 0.000010 1.840540 
# 
# From -- ./inp_files/322060.got.cif
#   From: 2010.06.25/outbox.cif.g09.slc.cpg/sg12_162_cif.got.tgz:322060.got - 2010.06.28 00:19:55.
