data_PCOD8079094
_publ_section_title
;
Structure prediction by ZEFSAII (Michael W. Deem and Ramdas Pophale) SiO2 
 PCOD8079094
Probable space group: C 2/M
;
_chemical_formula_sum "Si O2"
_cell_formula_units_Z 64
_cell_length_a 26.027068
_cell_length_b 15.380772
_cell_length_c 9.014065
_cell_angle_alpha 90.000000
_cell_angle_beta 67.908191
_cell_angle_gamma 90.000000
_cell_volume 3343.552265
_symmetry_space_group_name_H-M "C 2/M"
_symmetry_group_IT_number 12
_symmetry_cell_setting 'monoclinic'
loop_
_space_group_symop_operation_xyz
x,y,z
-x,y,-z
-x,-y,-z
x,-y,z
1/2+x,1/2+y,z
1/2-x,1/2+y,-z
1/2-x,1/2-y,-z
1/2+x,1/2-y,z
loop_
_atom_site_type_symbol
_atom_site_label
_atom_site_fract_x
_atom_site_fract_y
_atom_site_fract_z
Si Si1 0.369676 0.599275 0.590354
Si Si2 0.593728 0.258963 0.863369
Si Si3 0.455848 0.903786 0.210165
Si Si4 0.576969 0.675208 0.197267
Si Si5 0.632653 0.903862 0.437139
Si Si6 0.036083 0.096755 0.740689
Si Si7 0.543183 0.144364 0.328784
Si Si8 0.812909 0.247012 0.478939
O O1 0.348439 0.500000 0.607090
O O2 0.375892 0.629495 0.754177
O O3 0.429706 0.610768 0.448270
O O4 0.324491 0.658386 0.555919
O O5 0.559429 0.168256 0.896391
O O6 0.554494 0.333773 0.841671
O O7 0.650541 0.249897 0.710196
O O8 0.606683 0.284862 0.018790
O O9 0.415268 0.889824 0.391230
O O10 0.519293 0.891641 0.198720
O O11 0.449977 0.000000 0.145887
O O12 0.529386 0.605159 0.214998
O O13 0.547645 0.751905 0.320336
O O14 0.603985 0.893796 0.305827
O O15 0.677498 0.829293 0.421700
O O16 0.659917 0.000000 0.419159
O O17 0.047681 0.000000 0.790412
O O18 0.500000 0.114932 0.500000
O O19 0.750000 0.250000 0.500000
#
# Coordination Sequence:
#
# PCOD8079094 Si02
#       8
#     8   8   8   8   8   8   8   8
#     4  10  21  37  58  84 110 144 189 226 265 326
#     4  10  22  35  51  81 113 142 185 222 269 324
#     4   9  17  31  50  74 109 148 178 211 257 314
#     4  12  20  31  52  80 116 150 172 213 266 322
#     4   9  17  31  54  80 102 132 179 223 265 316
#     4  10  20  34  54  80 115 154 187 215 254 319
#     4  10  17  28  50  77 107 143 178 212 253 313
#     4  10  21  40  61  80 100 137 182 238 281 319
#
# _framework density 19.141317999999998
#
# number of rings (size 3 to 8) (size 9 to 14) (size 15 to 20)
#    0.000    2.000    2.500    2.250    0.000    4.500 
#    0.000    2.500    0.000    0.000    0.000    0.000 
#    0.000    0.000    0.000    0.000    0.000    0.000 
#
# Total GULP energy -396683.408289 kJ/mol
# GULP energy per Si atom -12396.356509 kJ/mol
# Density = 1.909775 g / cm^3
# Si number density = 19.141318 Si / 1000 Ang^3
#
#
#
# Elastic Constant Matrix: (Units=GPa)
#
#
# Indices 1 2 3 4 5 6 
#
# 1 121.5709 57.6256 39.2858 0.0000 14.7745 0.0000
# 2 57.6256 165.2630 37.1760 0.0000 17.9457 0.0000
# 3 39.2858 37.1760 77.1403 0.0000 17.4001 0.0000
# 4 0.0000 0.0000 0.0000 7.2045 0.0000 -1.3915
# 5 14.7745 17.9457 17.4001 0.0000 14.9266 0.0000
# 6 0.0000 0.0000 0.0000 -1.3915 0.0000 15.0696
#
#
#
# Elastic Compliance Matrix: (Units=1/GPa)
#
#
# Indices 1 2 3 4 5 6 
#
# 1 0.011076 -0.002673 -0.003534 0.000000 -0.003630 0.000000
# 2 -0.002673 0.007837 -0.001204 0.000000 -0.005374 0.000000
# 3 -0.003534 -0.001204 0.019303 0.000000 -0.017557 0.000000
# 4 0.000000 0.000000 0.000000 0.141322 0.000000 0.013050
# 5 -0.003630 -0.005374 -0.017557 0.000000 0.097515 0.000000
# 6 0.000000 0.000000 0.000000 0.013050 0.000000 0.067564
#
#
# Mechanical properties :
#
#
# Convention : Reuss Voigt Hill
#
# Bulk Modulus (GPa) = 42.74234 70.23879 56.49056
# Shear Modulus (GPa) = 13.61522 22.76594 18.19058
#
# Velocity S-wave (km/s) = 2.66991 3.45245 3.08609
# Velocity P-wave (km/s) = 5.64650 7.25721 6.50192
#
# Compressibility (1/GPa) = 0.02339601
#
# Stress axis : x y z
#
# Youngs Moduli (GPa) = 90.28785 127.59559 51.80442
#
# Poissons Ratio (x) = 0.34105 0.18306
# Poissons Ratio (y) = 0.24133 0.06235
# Poissons Ratio (z) = 0.31904 0.15358
#
# Static dielectric constant tensor:
#      x y z
#    x 3.123340 0.000000 0.248240 
#    y 0.000000 3.738260 0.000000 
#    z 0.248240 0.000000 3.403920 
# 
# 
# High freq. dielectric constant tensor:
#      x y z
#    x 1.697430 0.000000 0.025480 
#    y 0.000000 1.764020 0.000000 
#    z 0.025480 0.000000 1.728350 
# 
# From -- ./inp_files/104599.got.cif
#   From: 2010.06.25/outbox.cif.g09.slc.cpg/sg12_53_cif.got.tgz:104599.got - 2010.06.28 00:19:55.
