data_PCOD8079311
_publ_section_title
;
Structure prediction by ZEFSAII (Michael W. Deem and Ramdas Pophale) SiO2 
 PCOD8079311
Probable space group: C 2/M
;
_chemical_formula_sum "Si O2"
_cell_formula_units_Z 64
_cell_length_a 10.112919
_cell_length_b 18.626081
_cell_length_c 24.502976
_cell_angle_alpha 90.000000
_cell_angle_beta 127.293441
_cell_angle_gamma 90.000000
_cell_volume 3671.811906
_symmetry_space_group_name_H-M "C 2/M"
_symmetry_group_IT_number 12
_symmetry_cell_setting 'monoclinic'
loop_
_space_group_symop_operation_xyz
x,y,z
-x,y,-z
-x,-y,-z
x,-y,z
1/2+x,1/2+y,z
1/2-x,1/2+y,-z
1/2-x,1/2-y,-z
1/2+x,1/2-y,z
loop_
_atom_site_type_symbol
_atom_site_label
_atom_site_fract_x
_atom_site_fract_y
_atom_site_fract_z
Si Si1 0.953187 0.668958 0.306120
Si Si2 0.478216 0.417123 0.581832
Si Si3 0.556220 0.835027 0.213899
Si Si4 0.573359 0.661092 0.710000
Si Si5 0.738600 0.183302 0.926552
Si Si6 0.042197 0.182609 0.924866
Si Si7 0.420823 0.664011 0.783425
Si Si8 0.769185 0.583728 0.573365
O O1 0.954487 0.754793 0.306631
O O2 0.768911 0.639935 0.269976
O O3 0.017959 0.638562 0.264998
O O4 0.070107 0.634927 0.381996
O O5 0.494153 0.500000 0.599741
O O6 0.467429 0.375267 0.635822
O O7 0.310652 0.402011 0.505863
O O8 0.637720 0.392671 0.586739
O O9 0.735853 0.864870 0.242936
O O10 0.408503 0.864824 0.137282
O O11 0.558893 0.749377 0.210134
O O12 0.513086 0.633103 0.753713
O O13 0.648789 0.250861 0.930739
O O14 0.869392 0.206903 0.911429
O O15 0.840910 0.142248 0.000659
O O16 0.996624 0.134339 0.860084
O O17 0.817537 0.500000 0.591819
#
# Coordination Sequence:
#
# PCOD8079311 Si02
#       8
#     8   8   8   8   8   8   8   8
#     4  10  17  30  48  70  98 124 160 194 236 284
#     4   9  18  34  53  73  95 123 160 199 239 280
#     4   9  16  27  42  64  91 127 162 195 233 274
#     4  10  19  30  48  70  97 129 157 196 239 285
#     4   9  16  24  37  57  89 128 163 195 233 283
#     4   9  16  25  36  57  89 129 163 192 235 284
#     4   9  18  27  40  65  95 126 155 193 240 282
#     4   9  18  33  54  74  94 122 159 202 238 279
#
# _framework density 17.430087
#
# number of rings (size 3 to 8) (size 9 to 14) (size 15 to 20)
#    0.000    2.750    2.500    0.750    5.250    0.500 
#    0.000    1.250    0.000    1.500    0.000    0.000 
#    0.000    6.000    0.000    0.000    0.000    0.000 
#
# Total GULP energy -396428.538085 kJ/mol
# GULP energy per Si atom -12388.391815 kJ/mol
# Density = 1.739042 g / cm^3
# Si number density = 17.430087 Si / 1000 Ang^3
#
#
#
# Elastic Constant Matrix: (Units=GPa)
#
#
# Indices 1 2 3 4 5 6 
#
# 1 125.9520 18.8595 71.5550 0.0000 -1.2799 0.0000
# 2 18.8595 18.0116 30.7021 0.0000 3.1523 0.0000
# 3 71.5550 30.7021 164.7814 0.0000 4.1986 0.0000
# 4 0.0000 0.0000 0.0000 2.1947 0.0000 -1.4722
# 5 -1.2799 3.1523 4.1986 0.0000 35.0306 0.0000
# 6 0.0000 0.0000 0.0000 -1.4722 0.0000 9.6382
#
#
#
# Elastic Compliance Matrix: (Units=1/GPa)
#
#
# Indices 1 2 3 4 5 6 
#
# 1 0.010883 -0.005148 -0.003800 0.000000 0.001316 0.000000
# 2 -0.005148 0.084873 -0.013420 0.000000 -0.006217 0.000000
# 3 -0.003800 -0.013420 0.010223 0.000000 -0.000157 0.000000
# 4 0.000000 0.000000 0.000000 0.507669 0.000000 0.077547
# 5 0.001316 -0.006217 -0.000157 0.000000 0.029173 0.000000
# 6 0.000000 0.000000 0.000000 0.077547 0.000000 0.115599
#
#
# Mechanical properties :
#
#
# Convention : Reuss Voigt Hill
#
# Bulk Modulus (GPa) = 16.32827 61.21979 38.77403
# Shear Modulus (GPa) = 6.07113 21.88125 13.97619
#
# Velocity S-wave (km/s) = 1.86834 3.54697 2.83476
# Velocity P-wave (km/s) = 3.74733 7.20930 5.74528
#
# Compressibility (1/GPa) = 0.06124347
#
# Stress axis : x y z
#
# Youngs Moduli (GPa) = 91.88985 11.78232 97.81710
#
# Poissons Ratio (x) = 0.06065 0.37171
# Poissons Ratio (y) = 0.47303 1.31268
# Poissons Ratio (z) = 0.34919 0.15812
#
# Static dielectric constant tensor:
#      x y z
#    x 3.397290 0.000000 0.058060 
#    y 0.000000 2.547050 0.000000 
#    z 0.058060 0.000000 3.826180 
# 
# 
# High freq. dielectric constant tensor:
#      x y z
#    x 1.679160 0.000000 0.004500 
#    y 0.000000 1.592060 0.000000 
#    z 0.004500 0.000000 1.701240 
# 
# From -- ./inp_files/302132.got.cif
#   From: 2010.06.25/outbox.cif.g09.slc.cpg/sg12_152_cif.got.tgz:302132.got - 2010.06.28 00:19:55.
