data_PCOD8079145
_publ_section_title
;
Structure prediction by ZEFSAII (Michael W. Deem and Ramdas Pophale) SiO2 
 PCOD8079145
Probable space group: C 2/M
;
_chemical_formula_sum "Si O2"
_cell_formula_units_Z 64
_cell_length_a 18.285294
_cell_length_b 23.417538
_cell_length_c 11.796031
_cell_angle_alpha 90.000000
_cell_angle_beta 130.003913
_cell_angle_gamma 90.000000
_cell_volume 3869.084044
_symmetry_space_group_name_H-M "C 2/M"
_symmetry_group_IT_number 12
_symmetry_cell_setting 'monoclinic'
loop_
_space_group_symop_operation_xyz
x,y,z
-x,y,-z
-x,-y,-z
x,-y,z
1/2+x,1/2+y,z
1/2-x,1/2+y,-z
1/2-x,1/2-y,-z
1/2+x,1/2-y,z
loop_
_atom_site_type_symbol
_atom_site_label
_atom_site_fract_x
_atom_site_fract_y
_atom_site_fract_z
Si Si1 0.601278 0.242425 0.366364
Si Si2 0.289820 0.228732 0.867180
Si Si3 0.727841 0.315678 0.345402
Si Si4 0.932478 0.562221 0.691326
Si Si5 0.092822 0.654502 0.164345
Si Si6 0.607801 0.760609 0.797664
Si Si7 0.924491 0.617956 0.324652
Si Si8 0.284504 0.937270 0.344460
O O1 0.660651 0.298103 0.385241
O O2 0.663328 0.202724 0.513611
O O3 0.569917 0.205658 0.227294
O O4 0.501733 0.261003 0.326789
O O5 0.302501 0.283194 0.798110
O O6 0.318106 0.171381 0.826930
O O7 0.181118 0.219849 0.802079
O O8 0.362980 0.239316 0.041979
O O9 0.716701 0.383761 0.311666
O O10 0.959178 0.500000 0.766372
O O11 0.881530 0.597771 0.740273
O O12 0.861258 0.555593 0.517792
O O13 0.028528 0.592215 0.741763
O O14 0.000000 0.641367 0.000000
O O15 0.622340 0.822553 0.757232
O O16 0.839214 0.576910 0.281772
O O17 0.000000 0.627730 0.500000
O O18 0.232370 0.000000 0.279216
#
# Coordination Sequence:
#
# PCOD8079145 Si02
#       8
#     8   8   8   8   8   8   8   8
#     4  10  19  31  51  69 102 129 161 197 249 293
#     4  10  22  30  48  72 100 127 166 198 246 300
#     4  10  19  32  48  76  96 128 165 205 244 295
#     4  10  19  29  45  67  95 131 167 196 235 290
#     4  11  18  32  47  67  99 131 159 201 243 286
#     4  11  19  33  47  72 100 133 158 196 250 295
#     4  10  17  29  46  70 100 130 161 194 238 298
#     4  10  18  30  46  68  98 130 163 203 244 284
#
# _framework density 16.541383
#
# number of rings (size 3 to 8) (size 9 to 14) (size 15 to 20)
#    0.000    1.750    5.000    1.125    0.000    1.750 
#    0.000    0.000    0.000    0.000    0.000    2.625 
#    0.000    2.000    0.000    0.000    0.000    0.125 
#
# Total GULP energy -396602.190103 kJ/mol
# GULP energy per Si atom -12393.818441 kJ/mol
# Density = 1.650373 g / cm^3
# Si number density = 16.541383 Si / 1000 Ang^3
#
#
#
# Elastic Constant Matrix: (Units=GPa)
#
#
# Indices 1 2 3 4 5 6 
#
# 1 97.7850 62.0959 24.2719 0.0000 2.9505 0.0000
# 2 62.0959 102.1775 22.5989 0.0000 -3.9824 0.0000
# 3 24.2719 22.5989 43.7634 0.0000 -0.6503 0.0000
# 4 0.0000 0.0000 0.0000 73.5748 0.0000 -22.6481
# 5 2.9505 -3.9824 -0.6503 0.0000 24.0986 0.0000
# 6 0.0000 0.0000 0.0000 -22.6481 0.0000 29.3244
#
#
#
# Elastic Compliance Matrix: (Units=1/GPa)
#
#
# Indices 1 2 3 4 5 6 
#
# 1 0.017855 -0.009937 -0.004830 0.000000 -0.003959 0.000000
# 2 -0.009937 0.016647 -0.003027 0.000000 0.003886 0.000000
# 3 -0.004830 -0.003027 0.027105 0.000000 0.000823 0.000000
# 4 0.000000 0.000000 0.000000 0.017831 0.000000 0.013771
# 5 -0.003959 0.003886 0.000823 0.000000 0.042645 0.000000
# 6 0.000000 0.000000 0.000000 0.013771 0.000000 0.044737
#
#
# Mechanical properties :
#
#
# Convention : Reuss Voigt Hill
#
# Bulk Modulus (GPa) = 38.43562 51.29548 44.86555
# Shear Modulus (GPa) = 23.68756 34.38350 29.03553
#
# Velocity S-wave (km/s) = 3.78831 4.56415 4.19421
# Velocity P-wave (km/s) = 6.51318 7.67157 7.11599
#
# Compressibility (1/GPa) = 0.02601753
#
# Stress axis : x y z
#
# Youngs Moduli (GPa) = 56.00633 60.07142 36.89419
#
# Poissons Ratio (x) = 0.59693 0.17821
# Poissons Ratio (y) = 0.55653 0.11169
# Poissons Ratio (z) = 0.27052 0.18185
#
# Static dielectric constant tensor:
#      x y z
#    x 3.276440 0.000000 -0.151290 
#    y 0.000000 3.245130 0.000000 
#    z -0.151290 0.000000 3.003940 
# 
# 
# High freq. dielectric constant tensor:
#      x y z
#    x 1.633250 0.000000 -0.020780 
#    y 0.000000 1.614200 0.000000 
#    z -0.020780 0.000000 1.621880 
# 
# From -- ./inp_files/160306.got.cif
#   From: 2010.06.25/outbox.cif.g09.slc.cpg/sg12_81_cif.got.tgz:160306.got - 2010.06.28 00:19:55.
