data_PCOD8079505
_publ_section_title
;
Structure prediction by ZEFSAII (Michael W. Deem and Ramdas Pophale) SiO2 
 PCOD8079505
Probable space group: C 2/M
;
_chemical_formula_sum "Si O2"
_cell_formula_units_Z 40
_cell_length_a 19.088782
_cell_length_b 11.503581
_cell_length_c 9.542200
_cell_angle_alpha 90.000000
_cell_angle_beta 109.437693
_cell_angle_gamma 90.000000
_cell_volume 1975.937909
_symmetry_space_group_name_H-M "C 2/M"
_symmetry_group_IT_number 12
_symmetry_cell_setting 'monoclinic'
loop_
_space_group_symop_operation_xyz
x,y,z
-x,y,-z
-x,-y,-z
x,-y,z
1/2+x,1/2+y,z
1/2-x,1/2+y,-z
1/2-x,1/2-y,-z
1/2+x,1/2-y,z
loop_
_atom_site_type_symbol
_atom_site_label
_atom_site_fract_x
_atom_site_fract_y
_atom_site_fract_z
Si Si1 0.806909 0.371939 0.408510
Si Si2 0.664318 0.784052 0.281384
Si Si3 0.753088 0.370180 0.911439
Si Si4 0.892604 0.818381 0.340789
Si Si5 0.046313 0.130038 0.320358
O O1 0.796593 0.500000 0.344542
O O2 0.729039 0.309659 0.339078
O O3 0.832680 0.372839 0.587084
O O4 0.870269 0.315156 0.353035
O O5 0.676079 0.854458 0.145163
O O6 0.586577 0.713489 0.234363
O O7 0.763046 0.500000 0.992203
O O8 0.676751 0.383984 0.774431
O O9 0.750000 0.250000 0.000000
O O10 0.909689 0.875921 0.502813
O O11 0.963131 0.822424 0.286085
O O12 0.042904 0.000000 0.256421
#
# Coordination Sequence:
#
# PCOD8079505 Si02
#       5
#     8   8   8   8   8
#     4   9  16  29  50  76 108 139 169 213 266 323
#     4   9  19  31  50  78 103 133 176 219 267 314
#     4  11  23  39  57  76 105 146 188 225 260 309
#     4   9  19  33  53  83 110 137 173 214 268 321
#     4  10  17  31  57  84 110 133 163 218 277 325
#
# _framework density 20.243552000000001
#
# number of rings (size 3 to 8) (size 9 to 14) (size 15 to 20)
#    0.000    2.400    0.000    4.800    0.000    4.000 
#    0.000   10.000    0.000    3.600    0.000    0.000 
#    0.000    0.000    0.000    0.000    0.000    0.000 
#
# Total GULP energy -247767.613908 kJ/mol
# GULP energy per Si atom -12388.380695 kJ/mol
# Density = 2.019748 g / cm^3
# Si number density = 20.243552 Si / 1000 Ang^3
#
#
#
# Elastic Constant Matrix: (Units=GPa)
#
#
# Indices 1 2 3 4 5 6 
#
# 1 128.2394 36.9239 16.2358 0.0000 -16.2982 0.0000
# 2 36.9239 153.3738 19.4583 0.0000 -11.0107 0.0000
# 3 16.2358 19.4583 36.8106 0.0000 -10.3677 0.0000
# 4 0.0000 0.0000 0.0000 14.5564 0.0000 -3.9557
# 5 -16.2982 -11.0107 -10.3677 0.0000 18.9821 0.0000
# 6 0.0000 0.0000 0.0000 -3.9557 0.0000 14.7507
#
#
#
# Elastic Compliance Matrix: (Units=1/GPa)
#
#
# Indices 1 2 3 4 5 6 
#
# 1 0.009231 -0.001589 -0.001488 0.000000 0.006191 0.000000
# 2 -0.001589 0.007357 -0.002801 0.000000 0.001373 0.000000
# 3 -0.001488 -0.002801 0.033664 0.000000 0.015485 0.000000
# 4 0.000000 0.000000 0.000000 0.074098 0.000000 0.019871
# 5 0.006191 0.001373 0.015485 0.000000 0.067251 0.000000
# 6 0.000000 0.000000 0.000000 0.019871 0.000000 0.073122
#
#
# Mechanical properties :
#
#
# Convention : Reuss Voigt Hill
#
# Bulk Modulus (GPa) = 25.97683 51.51774 38.74729
# Shear Modulus (GPa) = 17.28252 26.04491 21.66371
#
# Velocity S-wave (km/s) = 2.92503 3.59078 3.27487
# Velocity P-wave (km/s) = 4.92623 6.53420 5.78635
#
# Compressibility (1/GPa) = 0.03849584
#
# Stress axis : x y z
#
# Youngs Moduli (GPa) = 108.33487 135.93411 29.70521
#
# Poissons Ratio (x) = 0.21600 0.04419
# Poissons Ratio (y) = 0.17215 0.08321
# Poissons Ratio (z) = 0.16115 0.38077
#
# Static dielectric constant tensor:
#      x y z
#    x 3.879580 0.000000 -0.199640 
#    y 0.000000 3.743710 0.000000 
#    z -0.199640 0.000000 3.394860 
# 
# 
# High freq. dielectric constant tensor:
#      x y z
#    x 1.786900 0.000000 -0.015030 
#    y 0.000000 1.795110 0.000000 
#    z -0.015030 0.000000 1.745520 
# 
# From -- ./inp_files/83646.got.cif
#   From: 2010.06.25/outbox.cif.g09.slc.cpg/sg12_42_cif.got.tgz:83646.got - 2010.06.28 00:19:55.
