data_PCOD8079454
_publ_section_title
;
Structure prediction by ZEFSAII (Michael W. Deem and Ramdas Pophale) SiO2 
 PCOD8079454
Probable space group: C 2/M
;
_chemical_formula_sum "Si O2"
_cell_formula_units_Z 64
_cell_length_a 25.255848
_cell_length_b 8.961462
_cell_length_c 17.799247
_cell_angle_alpha 90.000000
_cell_angle_beta 102.651287
_cell_angle_gamma 90.000000
_cell_volume 3930.684186
_symmetry_space_group_name_H-M "C 2/M"
_symmetry_group_IT_number 12
_symmetry_cell_setting 'monoclinic'
loop_
_space_group_symop_operation_xyz
x,y,z
-x,y,-z
-x,-y,-z
x,-y,z
1/2+x,1/2+y,z
1/2-x,1/2+y,-z
1/2-x,1/2-y,-z
1/2+x,1/2-y,z
loop_
_atom_site_type_symbol
_atom_site_label
_atom_site_fract_x
_atom_site_fract_y
_atom_site_fract_z
Si Si1 0.513718 0.675198 0.918712
Si Si2 0.096985 0.823555 0.186614
Si Si3 0.660105 0.323457 0.348452
Si Si4 0.278292 0.825100 0.335492
Si Si5 0.678560 0.677577 0.085134
Si Si6 0.295026 0.176746 0.177588
Si Si7 0.307231 0.175150 0.502527
Si Si8 0.626380 0.823177 0.926097
O O1 0.525635 0.500000 0.914848
O O2 0.463879 0.728907 0.850988
O O3 0.565285 0.765269 0.906485
O O4 0.500000 0.716384 0.000000
O O5 0.113868 0.770160 0.275429
O O6 0.138714 0.760954 0.137734
O O7 0.100764 0.000000 0.183520
O O8 0.659608 0.500000 0.360078
O O9 0.717835 0.264871 0.334623
O O10 0.648933 0.247094 0.426553
O O11 0.300520 0.755874 0.264121
O O12 0.319743 0.791499 0.417870
O O13 0.271654 0.000000 0.321902
O O14 0.674159 0.500000 0.075087
O O15 0.738993 0.732417 0.123184
O O16 0.661638 0.752353 0.002653
O O17 0.345966 0.228922 0.143564
O O18 0.293377 0.000000 0.180895
O O19 0.250000 0.250000 0.500000
O O20 0.303399 0.000000 0.516239
O O21 0.626687 0.000000 0.935443
#
# Coordination Sequence:
#
# PCOD8079454 Si02
#       8
#     8   8   8   8   8   8   8   8
#     4  10  19  34  53  67  82 116 164 199 222 266
#     4   9  16  28  50  72  84 112 160 194 219 261
#     4   9  15  26  45  67  91 114 144 186 228 268
#     4   8  13  24  43  64  87 118 150 176 209 263
#     4  10  17  31  52  67  86 121 163 192 214 266
#     4   9  17  29  47  68  91 122 158 189 220 269
#     4   9  16  25  41  64  91 121 150 179 217 266
#     4  11  22  32  44  68  97 121 148 191 244 274
#
# _framework density 16.282153000000001
#
# number of rings (size 3 to 8) (size 9 to 14) (size 15 to 20)
#    0.000    2.625    2.500    1.875    0.000    0.250 
#    0.000    1.875    0.000    7.500    0.000    0.875 
#    0.000    7.000    0.000    0.000    0.000    0.000 
#
# Total GULP energy -396547.189076 kJ/mol
# GULP energy per Si atom -12392.099659 kJ/mol
# Density = 1.624509 g / cm^3
# Si number density = 16.282153 Si / 1000 Ang^3
#
#
#
# Elastic Constant Matrix: (Units=GPa)
#
#
# Indices 1 2 3 4 5 6 
#
# 1 90.9135 24.3698 71.5530 0.0000 -2.4988 0.0000
# 2 24.3698 37.6636 38.5841 0.0000 0.6077 0.0000
# 3 71.5530 38.5841 168.0005 0.0000 14.6863 0.0000
# 4 0.0000 0.0000 0.0000 22.2997 0.0000 3.0926
# 5 -2.4988 0.6077 14.6863 0.0000 20.1911 0.0000
# 6 0.0000 0.0000 0.0000 3.0926 0.0000 16.7019
#
#
#
# Elastic Compliance Matrix: (Units=1/GPa)
#
#
# Indices 1 2 3 4 5 6 
#
# 1 0.018240 -0.004275 -0.007470 0.000000 0.007819 0.000000
# 2 -0.004275 0.036216 -0.006787 0.000000 0.003317 0.000000
# 3 -0.007470 -0.006787 0.011486 0.000000 -0.009075 0.000000
# 4 0.000000 0.000000 0.000000 0.046025 0.000000 -0.008522
# 5 0.007819 0.003317 -0.009075 0.000000 0.056995 0.000000
# 6 0.000000 0.000000 0.000000 -0.008522 0.000000 0.061451
#
#
# Mechanical properties :
#
#
# Convention : Reuss Voigt Hill
#
# Bulk Modulus (GPa) = 34.62899 62.84350 48.73625
# Shear Modulus (GPa) = 18.04374 22.64325 20.34349
#
# Velocity S-wave (km/s) = 3.33256 3.73323 3.53857
# Velocity P-wave (km/s) = 6.01017 7.56723 6.83320
#
# Compressibility (1/GPa) = 0.02887754
#
# Stress axis : x y z
#
# Youngs Moduli (GPa) = 54.82531 27.61190 87.06265
#
# Poissons Ratio (x) = 0.11805 0.65037
# Poissons Ratio (y) = 0.23439 0.59088
# Poissons Ratio (z) = 0.40955 0.18740
#
# Static dielectric constant tensor:
#      x y z
#    x 2.963970 0.000000 0.092390 
#    y 0.000000 2.824710 0.000000 
#    z 0.092390 0.000000 3.684150 
# 
# 
# High freq. dielectric constant tensor:
#      x y z
#    x 1.590960 0.000000 0.009960 
#    y 0.000000 1.596190 0.000000 
#    z 0.009960 0.000000 1.640910 
# 
# From -- ./inp_files/287648.got.cif
#   From: 2010.06.25/outbox.cif.g09.slc.cpg/sg12_144_cif.got.tgz:287648.got - 2010.06.28 00:19:55.
