data_PCOD8079376
_publ_section_title
;
Structure prediction by ZEFSAII (Michael W. Deem and Ramdas Pophale) SiO2 
 PCOD8079376
Probable space group: C 2/M
;
_chemical_formula_sum "Si O2"
_cell_formula_units_Z 40
_cell_length_a 25.499807
_cell_length_b 8.520373
_cell_length_c 14.381365
_cell_angle_alpha 90.000000
_cell_angle_beta 44.425274
_cell_angle_gamma 90.000000
_cell_volume 2187.158572
_symmetry_space_group_name_H-M "C 2/M"
_symmetry_group_IT_number 12
_symmetry_cell_setting 'monoclinic'
loop_
_space_group_symop_operation_xyz
x,y,z
-x,y,-z
-x,-y,-z
x,-y,z
1/2+x,1/2+y,z
1/2-x,1/2+y,-z
1/2-x,1/2-y,-z
1/2+x,1/2-y,z
loop_
_atom_site_type_symbol
_atom_site_label
_atom_site_fract_x
_atom_site_fract_y
_atom_site_fract_z
Si Si1 0.465046 0.314058 0.138622
Si Si2 0.317434 0.184831 0.853462
Si Si3 0.704197 0.686626 0.644115
Si Si4 0.097178 0.184680 0.097913
Si Si5 0.268455 0.184782 0.193219
O O1 0.464353 0.500000 0.130616
O O2 0.381000 0.251586 0.259022
O O3 0.516295 0.262616 0.161092
O O4 0.500000 0.241567 0.000000
O O5 0.392723 0.233740 0.813635
O O6 0.308041 0.263855 0.763867
O O7 0.313120 0.000000 0.848112
O O8 0.250000 0.250000 0.000000
O O9 0.708133 0.500000 0.644299
O O10 0.750000 0.750000 0.500000
O O11 0.740658 0.759524 0.689953
O O12 0.102452 0.000000 0.105409
O O13 0.159823 0.232910 0.943754
O O14 0.279135 0.000000 0.173501
#
# Coordination Sequence:
#
# PCOD8079376 Si02
#       5
#     8   8   8   8   8
#     4   9  17  32  55  79 105 141 177 215 263 317
#     4  10  18  29  46  73 106 139 172 216 267 314
#     4  11  22  38  56  78 108 143 181 217 263 317
#     4  10  17  30  52  78 106 138 175 218 264 313
#     4  11  20  32  50  76 106 140 178 219 264 312
#
# _framework density 18.288568999999999
#
# number of rings (size 3 to 8) (size 9 to 14) (size 15 to 20)
#    0.000    1.800    2.000    7.200    0.000    0.000 
#    0.000    5.000    0.000    1.200    0.000    8.400 
#    0.000    0.000    0.000    0.000    0.000    0.000 
#
# Total GULP energy -247941.478756 kJ/mol
# GULP energy per Si atom -12397.073938 kJ/mol
# Density = 1.824694 g / cm^3
# Si number density = 18.288569 Si / 1000 Ang^3
#
#
#
# Elastic Constant Matrix: (Units=GPa)
#
#
# Indices 1 2 3 4 5 6 
#
# 1 169.1002 35.3486 67.3491 0.0000 26.8394 0.0000
# 2 35.3486 65.3681 4.4877 0.0009 6.9928 -0.0008
# 3 67.3491 4.4877 80.6000 0.0003 8.8384 -0.0002
# 4 0.0000 0.0009 0.0003 23.5884 -0.0001 7.6378
# 5 26.8394 6.9928 8.8384 -0.0001 28.8580 0.0000
# 6 0.0000 -0.0008 -0.0002 7.6378 0.0000 28.6706
#
#
#
# Elastic Compliance Matrix: (Units=1/GPa)
#
#
# Indices 1 2 3 4 5 6 
#
# 1 0.011398 -0.004850 -0.008506 0.000000 -0.006820 0.000000
# 2 -0.004850 0.017786 0.003146 -0.000001 -0.000763 0.000001
# 3 -0.008506 0.003146 0.019200 0.000000 0.001268 0.000000
# 4 0.000000 -0.000001 0.000000 0.046396 0.000000 -0.012360
# 5 -0.006820 -0.000763 0.001268 0.000000 0.040792 0.000000
# 6 0.000000 0.000001 0.000000 -0.012360 0.000000 0.038171
#
#
# Mechanical properties :
#
#
# Convention : Reuss Voigt Hill
#
# Bulk Modulus (GPa) = 35.75992 58.82655 47.29324
# Shear Modulus (GPa) = 24.57187 30.08226 27.32706
#
# Velocity S-wave (km/s) = 3.66944 4.06010 3.86970
# Velocity P-wave (km/s) = 6.12770 7.36307 6.77360
#
# Compressibility (1/GPa) = 0.02796427
#
# Stress axis : x y z
#
# Youngs Moduli (GPa) = 87.73701 56.22321 52.08257
#
# Poissons Ratio (x) = 0.27268 0.44301
# Poissons Ratio (y) = 0.42552 -0.16385
# Poissons Ratio (z) = 0.74629 -0.17687
#
# Static dielectric constant tensor:
#      x y z
#    x 4.235120 0.000000 0.355170 
#    y 0.000000 3.316650 0.000000 
#    z 0.355170 0.000000 3.043360 
# 
# 
# High freq. dielectric constant tensor:
#      x y z
#    x 1.731250 0.000000 0.026770 
#    y 0.000000 1.709940 0.000000 
#    z 0.026770 0.000000 1.656930 
# 
# From -- ./inp_files/179658.got.cif
#   From: 2010.06.25/outbox.cif.g09.slc.cpg/sg12_90_cif.got.tgz:179658.got - 2010.06.28 00:19:55.
