data_PCOD8079186
_publ_section_title
;
Structure prediction by ZEFSAII (Michael W. Deem and Ramdas Pophale) SiO2 
 PCOD8079186
Probable space group: C 2/M
;
_chemical_formula_sum "Si O2"
_cell_formula_units_Z 56
_cell_length_a 26.022670
_cell_length_b 8.790739
_cell_length_c 19.522248
_cell_angle_alpha 90.000000
_cell_angle_beta 132.154413
_cell_angle_gamma 90.000000
_cell_volume 3310.730299
_symmetry_space_group_name_H-M "C 2/M"
_symmetry_group_IT_number 12
_symmetry_cell_setting 'monoclinic'
loop_
_space_group_symop_operation_xyz
x,y,z
-x,y,-z
-x,-y,-z
x,-y,z
1/2+x,1/2+y,z
1/2-x,1/2+y,-z
1/2-x,1/2-y,-z
1/2+x,1/2-y,z
loop_
_atom_site_type_symbol
_atom_site_label
_atom_site_fract_x
_atom_site_fract_y
_atom_site_fract_z
Si Si1 0.890086 0.681019 0.899899
Si Si2 0.000047 0.680418 0.106726
Si Si3 0.263229 0.319898 0.215164
Si Si4 0.804763 0.180558 0.100879
Si Si5 0.453661 0.819109 0.210952
Si Si6 0.506654 0.179530 0.401175
Si Si7 0.388297 0.819995 0.396019
O O1 0.887006 0.500000 0.899174
O O2 0.812739 0.748089 0.835589
O O3 0.928007 0.736691 0.863694
O O4 0.934535 0.741221 0.004405
O O5 0.998491 0.500000 0.103738
O O6 0.993879 0.738314 0.179178
O O7 0.262600 0.500000 0.217527
O O8 0.286459 0.262637 0.161015
O O9 0.314492 0.258880 0.319613
O O10 0.879991 0.239042 0.147815
O O11 0.801900 0.000000 0.093293
O O12 0.750000 0.250000 0.000000
O O13 0.501243 0.766447 0.317693
O O14 0.441671 0.000000 0.200159
O O15 0.578598 0.232690 0.501213
O O16 0.440058 0.240746 0.383117
O O17 0.503892 0.000000 0.404464
O O18 0.377885 0.000000 0.383308
#
# Coordination Sequence:
#
# PCOD8079186 Si02
#       7
#     8   8   8   8   8   8   8
#     4   8  14  26  42  64  91 115 145 186 223 259
#     4   8  14  25  45  67  86 114 150 185 222 260
#     4  10  19  30  45  67  93 118 148 187 225 263
#     4  11  22  32  43  65  95 124 149 177 220 271
#     4  10  17  29  49  70  89 114 149 189 227 264
#     4   8  15  27  45  66  89 116 149 185 220 264
#     4   9  16  29  46  64  88 120 151 182 221 268
#
# _framework density 16.914698000000001
#
# number of rings (size 3 to 8) (size 9 to 14) (size 15 to 20)
#    0.000    2.857    1.429    3.000    0.000    2.857 
#    0.000    2.143    0.000    1.714    0.000    3.000 
#    0.000    0.000    0.000    0.000    0.000    0.000 
#
# Total GULP energy -347010.495673 kJ/mol
# GULP energy per Si atom -12393.231988 kJ/mol
# Density = 1.687620 g / cm^3
# Si number density = 16.914698 Si / 1000 Ang^3
#
#
#
# Elastic Constant Matrix: (Units=GPa)
#
#
# Indices 1 2 3 4 5 6 
#
# 1 124.4024 15.0638 75.8977 0.0000 -9.4040 0.0000
# 2 15.0638 17.7517 17.8779 0.0000 -1.9946 0.0000
# 3 75.8977 17.8779 145.5740 0.0000 -8.4559 0.0000
# 4 0.0000 0.0000 0.0000 23.3538 0.0000 4.8226
# 5 -9.4040 -1.9946 -8.4559 0.0000 27.2639 0.0000
# 6 0.0000 0.0000 0.0000 4.8226 0.0000 13.6730
#
#
#
# Elastic Compliance Matrix: (Units=1/GPa)
#
#
# Indices 1 2 3 4 5 6 
#
# 1 0.012209 -0.004377 -0.005705 0.000000 0.002122 0.000000
# 2 -0.004377 0.065994 -0.005733 0.000000 0.001540 0.000000
# 3 -0.005705 -0.005733 0.010600 0.000000 0.000900 0.000000
# 4 0.000000 0.000000 0.000000 0.046183 0.000000 -0.016289
# 5 0.002122 0.001540 0.000900 0.000000 0.037802 0.000000
# 6 0.000000 0.000000 0.000000 -0.016289 0.000000 0.078882
#
#
# Mechanical properties :
#
#
# Convention : Reuss Voigt Hill
#
# Bulk Modulus (GPa) = 17.49063 56.15630 36.82347
# Shear Modulus (GPa) = 16.53665 24.78406 20.66036
#
# Velocity S-wave (km/s) = 3.13013 3.83200 3.49871
# Velocity P-wave (km/s) = 4.84010 7.26985 6.17565
#
# Compressibility (1/GPa) = 0.05717348
#
# Stress axis : x y z
#
# Youngs Moduli (GPa) = 81.90490 15.15290 94.33917
#
# Poissons Ratio (x) = 0.06632 0.53818
# Poissons Ratio (y) = 0.35849 0.54087
# Poissons Ratio (z) = 0.46725 0.08688
#
# Static dielectric constant tensor:
#      x y z
#    x 3.384460 0.000000 -0.188520 
#    y 0.000000 2.738440 0.000000 
#    z -0.188520 0.000000 2.899370 
# 
# 
# High freq. dielectric constant tensor:
#      x y z
#    x 1.639910 0.000000 -0.002700 
#    y 0.000000 1.610070 0.000000 
#    z -0.002700 0.000000 1.658100 
# 
# From -- ./inp_files/291845.got.cif
#   From: 2010.06.25/outbox.cif.g09.slc.cpg/sg12_146_cif.got.tgz:291845.got - 2010.06.28 00:19:55.
