data_PCOD8079958
_publ_section_title
;
Structure prediction by ZEFSAII (Michael W. Deem and Ramdas Pophale) SiO2 
 PCOD8079958
Probable space group: C 2/M
;
_chemical_formula_sum "Si O2"
_cell_formula_units_Z 64
_cell_length_a 27.841832
_cell_length_b 14.740070
_cell_length_c 9.832379
_cell_angle_alpha 90.000000
_cell_angle_beta 99.481000
_cell_angle_gamma 90.000000
_cell_volume 3979.996901
_symmetry_space_group_name_H-M "C 2/M"
_symmetry_group_IT_number 12
_symmetry_cell_setting 'monoclinic'
loop_
_space_group_symop_operation_xyz
x,y,z
-x,y,-z
-x,-y,-z
x,-y,z
1/2+x,1/2+y,z
1/2-x,1/2+y,-z
1/2-x,1/2-y,-z
1/2+x,1/2-y,z
loop_
_atom_site_type_symbol
_atom_site_label
_atom_site_fract_x
_atom_site_fract_y
_atom_site_fract_z
Si Si1 0.778451 0.396590 0.059828
Si Si2 0.815479 0.098285 0.458037
Si Si3 0.253468 0.659339 0.671921
Si Si4 0.383694 0.106548 0.217118
Si Si5 0.374009 0.898143 0.730187
Si Si6 0.854011 0.293940 0.456711
Si Si7 0.730230 0.145709 0.235616
Si Si8 0.553916 0.107407 0.005159
O O1 0.775252 0.500000 0.011087
O O2 0.744790 0.382144 0.176138
O O3 0.833429 0.368938 0.119472
O O4 0.760161 0.338472 0.921320
O O5 0.787767 0.102419 0.589472
O O6 0.851742 0.183755 0.454668
O O7 0.776181 0.093490 0.318677
O O8 0.843093 0.000000 0.467946
O O9 0.198949 0.660367 0.586376
O O10 0.274670 0.760214 0.685796
O O11 0.388792 0.170045 0.352078
O O12 0.385287 0.000000 0.258389
O O13 0.426980 0.134589 0.135390
O O14 0.377418 0.829288 0.606481
O O15 0.320039 0.907212 0.767557
O O16 0.410249 0.856512 0.860346
O O17 0.389630 0.000000 0.692657
O O18 0.553055 0.000000 0.016437
O O19 0.500000 0.148854 0.000000
#
# Coordination Sequence:
#
# PCOD8079958 Si02
#       8
#     8   8   8   8   8   8   8   8
#     4  10  18  27  41  62  86 121 160 186 216 258
#     4  11  20  31  44  61  92 126 158 197 231 253
#     4  10  19  30  41  61  90 122 157 197 227 249
#     4   9  17  29  46  66  92 122 148 181 220 265
#     4  11  18  28  48  68  90 121 152 183 216 267
#     4  10  19  31  43  66  90 121 161 188 221 262
#     4  11  18  29  42  63  88 122 162 192 216 259
#     4   9  18  32  49  71  96 119 143 176 225 277
#
# _framework density 16.080414999999999
#
# number of rings (size 3 to 8) (size 9 to 14) (size 15 to 20)
#    0.000    1.875    3.750    3.000    0.000    1.000 
#    0.000    0.625    0.000    3.000    0.000    0.000 
#    0.000    3.000    0.000    0.000    0.000    0.000 
#
# Total GULP energy -396717.741651 kJ/mol
# GULP energy per Si atom -12397.429427 kJ/mol
# Density = 1.604382 g / cm^3
# Si number density = 16.080415 Si / 1000 Ang^3
#
#
#
# Elastic Constant Matrix: (Units=GPa)
#
#
# Indices 1 2 3 4 5 6 
#
# 1 58.8929 20.5957 37.1932 0.0000 -10.2956 0.0000
# 2 20.5957 75.1617 36.0314 0.0000 -4.9968 0.0000
# 3 37.1932 36.0314 115.6441 0.0000 -15.4540 0.0000
# 4 0.0000 0.0000 0.0000 17.3666 0.0000 -2.6851
# 5 -10.2956 -4.9968 -15.4540 0.0000 20.5994 0.0000
# 6 0.0000 0.0000 0.0000 -2.6851 0.0000 11.7723
#
#
#
# Elastic Compliance Matrix: (Units=1/GPa)
#
#
# Indices 1 2 3 4 5 6 
#
# 1 0.022652 -0.003173 -0.005431 0.000000 0.006477 0.000000
# 2 -0.003173 0.016086 -0.004092 0.000000 -0.000754 0.000000
# 3 -0.005431 -0.004092 0.012419 0.000000 0.005610 0.000000
# 4 0.000000 0.000000 0.000000 0.059687 0.000000 0.013614
# 5 0.006477 -0.000754 0.005610 0.000000 0.055808 0.000000
# 6 0.000000 0.000000 0.000000 0.013614 0.000000 0.088050
#
#
# Mechanical properties :
#
#
# Convention : Reuss Voigt Hill
#
# Bulk Modulus (GPa) = 38.81389 48.59325 43.70357
# Shear Modulus (GPa) = 17.32016 20.33956 18.82986
#
# Velocity S-wave (km/s) = 3.28548 3.56035 3.42567
# Velocity P-wave (km/s) = 6.21146 6.86921 6.54860
#
# Compressibility (1/GPa) = 0.02576398
#
# Stress axis : x y z
#
# Youngs Moduli (GPa) = 44.14653 62.16718 80.52447
#
# Poissons Ratio (x) = 0.19724 0.43734
# Poissons Ratio (y) = 0.14007 0.32952
# Poissons Ratio (z) = 0.23976 0.25440
#
# Static dielectric constant tensor:
#      x y z
#    x 2.784230 0.000000 -0.114940 
#    y 0.000000 2.934710 0.000000 
#    z -0.114940 0.000000 3.227460 
# 
# 
# High freq. dielectric constant tensor:
#      x y z
#    x 1.561700 0.000000 -0.014710 
#    y 0.000000 1.599320 0.000000 
#    z -0.014710 0.000000 1.637650 
# 
# From -- ./inp_files/104641.got.cif
#   From: 2010.06.25/outbox.cif.g09.slc.cpg/sg12_53_cif.got.tgz:104641.got - 2010.06.28 00:19:55.
