data_PCOD8079967
_publ_section_title
;
Structure prediction by ZEFSAII (Michael W. Deem and Ramdas Pophale) SiO2 
 PCOD8079967
Probable space group: C 2/M
;
_chemical_formula_sum "Si O2"
_cell_formula_units_Z 56
_cell_length_a 19.904144
_cell_length_b 9.087320
_cell_length_c 20.553282
_cell_angle_alpha 90.000000
_cell_angle_beta 61.628377
_cell_angle_gamma 90.000000
_cell_volume 3271.040656
_symmetry_space_group_name_H-M "C 2/M"
_symmetry_group_IT_number 12
_symmetry_cell_setting 'monoclinic'
loop_
_space_group_symop_operation_xyz
x,y,z
-x,y,-z
-x,-y,-z
x,-y,z
1/2+x,1/2+y,z
1/2-x,1/2+y,-z
1/2-x,1/2-y,-z
1/2+x,1/2-y,z
loop_
_atom_site_type_symbol
_atom_site_label
_atom_site_fract_x
_atom_site_fract_y
_atom_site_fract_z
Si Si1 0.616208 0.325226 0.419485
Si Si2 0.926325 0.824313 0.292219
Si Si3 0.649462 0.837630 0.861804
Si Si4 0.507263 0.835057 0.143985
Si Si5 0.031617 0.174600 0.584170
Si Si6 0.280738 0.825126 0.300880
Si Si7 0.920639 0.164858 0.998215
O O1 0.618688 0.500000 0.415660
O O2 0.552322 0.267087 0.398044
O O3 0.594100 0.271272 0.502349
O O4 0.699095 0.263885 0.361915
O O5 0.992341 0.761657 0.214984
O O6 0.946147 0.766557 0.355238
O O7 0.843726 0.760363 0.313299
O O8 0.924844 0.000000 0.286977
O O9 0.568827 0.841566 0.863017
O O10 0.711679 0.786739 0.779574
O O11 0.669280 0.000000 0.879345
O O12 0.646334 0.728594 0.924693
O O13 0.573621 0.760034 0.070330
O O14 0.532989 0.000000 0.151582
O O15 0.030310 0.000000 0.585064
O O16 0.291962 0.000000 0.306366
O O17 0.897720 0.000000 0.989368
O O18 0.000000 0.167643 0.000000
#
# Coordination Sequence:
#
# PCOD8079967 Si02
#       7
#     8   8   8   8   8   8   8
#     4   8  14  28  47  65  86 114 151 186 216 257
#     4  10  18  27  41  65  94 117 142 181 226 264
#     4   8  14  23  34  53  81 111 142 174 210 254
#     4   9  16  26  39  56  82 116 148 177 212 257
#     4   8  15  27  45  67  88 113 147 187 222 255
#     4   9  17  28  44  65  89 118 149 181 217 260
#     4   9  15  22  35  56  81 111 143 175 214 256
#
# _framework density 17.119934000000001
#
# number of rings (size 3 to 8) (size 9 to 14) (size 15 to 20)
#    0.000    3.286    0.000    3.000    0.000    5.714 
#    0.000    0.000    0.000    2.571    0.000    6.000 
#    0.000    0.000    0.000    0.000    0.000    0.000 
#
# Total GULP energy -347009.574252 kJ/mol
# GULP energy per Si atom -12393.199080 kJ/mol
# Density = 1.708097 g / cm^3
# Si number density = 17.119934 Si / 1000 Ang^3
#
#
#
# Elastic Constant Matrix: (Units=GPa)
#
#
# Indices 1 2 3 4 5 6 
#
# 1 52.1841 29.7430 65.6385 0.0000 1.4079 -0.0002
# 2 29.7430 76.4194 57.3511 -0.0001 -1.0083 -0.0011
# 3 65.6385 57.3511 169.8725 0.0000 -4.2953 0.0000
# 4 0.0000 -0.0001 0.0000 22.6055 0.0000 -0.6536
# 5 1.4079 -1.0083 -4.2953 0.0000 4.6458 -0.0001
# 6 -0.0002 -0.0011 0.0000 -0.6536 -0.0001 9.4034
#
#
#
# Elastic Compliance Matrix: (Units=1/GPa)
#
#
# Indices 1 2 3 4 5 6 
#
# 1 0.041987 -0.005364 -0.015117 0.000000 -0.027865 0.000000
# 2 -0.005364 0.018225 -0.004033 0.000000 0.001852 0.000002
# 3 -0.015117 -0.004033 0.013499 0.000000 0.016187 -0.000001
# 4 0.000000 0.000000 0.000000 0.044326 0.000000 0.003081
# 5 -0.027865 0.001852 0.016187 0.000000 0.239059 0.000001
# 6 0.000000 0.000002 -0.000001 0.003081 0.000001 0.106558
#
#
# Mechanical properties :
#
#
# Convention : Reuss Voigt Hill
#
# Bulk Modulus (GPa) = 40.51658 67.10460 53.81059
# Shear Modulus (GPa) = 9.59857 17.04718 13.32287
#
# Velocity S-wave (km/s) = 2.37041 3.15897 2.79266
# Velocity P-wave (km/s) = 5.58654 7.25171 6.47290
#
# Compressibility (1/GPa) = 0.02468125
#
# Stress axis : x y z
#
# Youngs Moduli (GPa) = 23.81692 54.87007 74.07903
#
# Poissons Ratio (x) = 0.29433 1.11987
# Poissons Ratio (y) = 0.12776 0.29879
# Poissons Ratio (z) = 0.36005 0.22132
#
# Static dielectric constant tensor:
#      x y z
#    x 2.867210 0.000000 -0.103280 
#    y 0.000000 3.063540 0.000000 
#    z -0.103280 0.000000 3.609520 
# 
# 
# High freq. dielectric constant tensor:
#      x y z
#    x 1.603530 0.000000 -0.007800 
#    y 0.000000 1.640740 0.000000 
#    z -0.007800 0.000000 1.678420 
# 
# From -- ./inp_files/287409.got.cif
#   From: 2010.06.25/outbox.cif.g09.slc.cpg/sg12_144_cif.got.tgz:287409.got - 2010.06.28 00:19:55.
