data_PCOD8079328
_publ_section_title
;
Structure prediction by ZEFSAII (Michael W. Deem and Ramdas Pophale) SiO2 
 PCOD8079328
Probable space group: C 2/M
;
_chemical_formula_sum "Si O2"
_cell_formula_units_Z 60
_cell_length_a 21.660006
_cell_length_b 24.998412
_cell_length_c 9.322623
_cell_angle_alpha 90.000000
_cell_angle_beta 37.646716
_cell_angle_gamma 90.000000
_cell_volume 3083.200101
_symmetry_space_group_name_H-M "C 2/M"
_symmetry_group_IT_number 12
_symmetry_cell_setting 'monoclinic'
loop_
_space_group_symop_operation_xyz
x,y,z
-x,y,-z
-x,-y,-z
x,-y,z
1/2+x,1/2+y,z
1/2-x,1/2+y,-z
1/2-x,1/2-y,-z
1/2+x,1/2-y,z
loop_
_atom_site_type_symbol
_atom_site_label
_atom_site_fract_x
_atom_site_fract_y
_atom_site_fract_z
Si Si1 0.186752 0.135297 0.976432
Si Si2 0.619767 0.341400 0.792362
Si Si3 0.382987 0.220137 0.232279
Si Si4 0.603852 0.183003 0.475305
Si Si5 0.709409 0.061035 0.014530
Si Si6 0.155718 0.218910 0.237272
Si Si7 0.250494 0.145395 0.295933
Si Si8 0.500000 0.100336 0.500000
O O1 0.147575 0.127911 0.888051
O O2 0.298011 0.160030 0.783603
O O3 0.201783 0.080131 0.037806
O O4 0.112418 0.177747 0.195940
O O5 0.665201 0.280074 0.699361
O O6 0.676245 0.373573 0.561886
O O7 0.500000 0.343576 0.000000
O O8 0.365115 0.193018 0.418511
O O9 0.345967 0.178892 0.180008
O O10 0.500000 0.230233 0.000000
O O11 0.574049 0.238524 0.448690
O O12 0.515885 0.139346 0.610399
O O13 0.597442 0.064067 0.290175
O O14 0.733097 0.000000 0.933168
O O15 0.711725 0.094034 0.861565
O O16 0.186558 0.184428 0.316408
O O17 0.250000 0.250000 0.000000
#
# Coordination Sequence:
#
# PCOD8079328 Si02
#       8
#     8   8   8   8   8   8   8   4
#     4   9  19  35  55  78 109 150 193 242 288 338
#     4  11  22  35  57  87 121 156 191 239 300 357
#     4  11  20  29  52  85 125 161 188 220 286 366
#     4  10  17  30  49  80 117 160 185 218 277 346
#     4  10  22  41  64  83 109 155 202 251 302 339
#     4   9  17  29  50  74 109 156 191 226 274 334
#     4  11  20  37  57  81 120 157 198 248 285 342
#     4  10  21  34  58  90 124 150 195 238 276 364
#
# _framework density 19.4603
#
# number of rings (size 3 to 8) (size 9 to 14) (size 15 to 20)
#    0.000    1.867    2.667    3.800    0.000    2.133 
#    0.000    2.667    0.000    3.600    0.000    0.000 
#    0.000    0.000    0.000    0.000    0.000    0.000 
#
# Total GULP energy -371745.064480 kJ/mol
# GULP energy per Si atom -12391.502149 kJ/mol
# Density = 1.941601 g / cm^3
# Si number density = 19.460300 Si / 1000 Ang^3
#
#
#
# Elastic Constant Matrix: (Units=GPa)
#
#
# Indices 1 2 3 4 5 6 
#
# 1 87.6533 33.5638 24.2205 0.0000 23.1832 0.0000
# 2 33.5638 105.1314 29.3672 0.0000 11.3526 0.0000
# 3 24.2205 29.3672 57.0027 0.0000 22.8484 0.0000
# 4 0.0000 0.0000 0.0000 20.4925 0.0000 1.3845
# 5 23.1832 11.3526 22.8484 0.0000 29.4228 0.0000
# 6 0.0000 0.0000 0.0000 1.3845 0.0000 20.7926
#
#
#
# Elastic Compliance Matrix: (Units=1/GPa)
#
#
# Indices 1 2 3 4 5 6 
#
# 1 0.015790 -0.003749 -0.000538 0.000000 -0.010577 0.000000
# 2 -0.003749 0.012002 -0.005689 0.000000 0.002741 0.000000
# 3 -0.000538 -0.005689 0.028535 0.000000 -0.019539 0.000000
# 4 0.000000 0.000000 0.000000 0.049019 0.000000 -0.003264
# 5 -0.010577 0.002741 -0.019539 0.000000 0.056438 0.000000
# 6 0.000000 0.000000 0.000000 -0.003264 0.000000 0.048311
#
#
# Mechanical properties :
#
#
# Convention : Reuss Voigt Hill
#
# Bulk Modulus (GPa) = 27.49140 47.12114 37.30627
# Shear Modulus (GPa) = 20.64653 24.98397 22.81525
#
# Velocity S-wave (km/s) = 3.26077 3.58696 3.42775
# Velocity P-wave (km/s) = 5.32300 6.43596 5.90576
#
# Compressibility (1/GPa) = 0.03637501
#
# Stress axis : x y z
#
# Youngs Moduli (GPa) = 63.33006 83.32050 35.04504
#
# Poissons Ratio (x) = 0.31233 0.01887
# Poissons Ratio (y) = 0.23740 0.19937
# Poissons Ratio (z) = 0.03410 0.47401
#
# Static dielectric constant tensor:
#      x y z
#    x 3.577290 0.000000 0.952470 
#    y 0.000000 3.334240 0.000000 
#    z 0.952470 0.000000 8.782490 
# 
# 
# High freq. dielectric constant tensor:
#      x y z
#    x 1.757890 0.000000 0.011390 
#    y 0.000000 1.716440 0.000000 
#    z 0.011390 0.000000 1.760400 
# 
# From -- ./inp_files/99987.got.cif
#   From: 2010.06.25/outbox.cif.g09.slc.cpg/sg12_50_cif.got.tgz:99987.got - 2010.06.28 00:19:55.
