data_PCOD8079089
_publ_section_title
;
Structure prediction by ZEFSAII (Michael W. Deem and Ramdas Pophale) SiO2 
 PCOD8079089
Probable space group: C 2/M
;
_chemical_formula_sum "Si O2"
_cell_formula_units_Z 40
_cell_length_a 24.746524
_cell_length_b 8.703293
_cell_length_c 21.015365
_cell_angle_alpha 90.000000
_cell_angle_beta 30.733799
_cell_angle_gamma 90.000000
_cell_volume 2313.120137
_symmetry_space_group_name_H-M "C 2/M"
_symmetry_group_IT_number 12
_symmetry_cell_setting 'monoclinic'
loop_
_space_group_symop_operation_xyz
x,y,z
-x,y,-z
-x,-y,-z
x,-y,z
1/2+x,1/2+y,z
1/2-x,1/2+y,-z
1/2-x,1/2-y,-z
1/2+x,1/2-y,z
loop_
_atom_site_type_symbol
_atom_site_label
_atom_site_fract_x
_atom_site_fract_y
_atom_site_fract_z
Si Si1 0.238208 0.320183 0.443137
Si Si2 0.075718 0.181863 0.515697
Si Si3 0.583955 0.319937 0.835727
Si Si4 0.624513 0.819411 0.929870
Si Si5 0.856169 0.181228 0.690178
O O1 0.229994 0.500000 0.458600
O O2 0.250000 0.250000 0.500000
O O3 0.130813 0.260920 0.519715
O O4 0.340594 0.272134 0.298436
O O5 0.128101 0.245682 0.397418
O O6 0.951581 0.232495 0.640142
O O7 0.088151 0.000000 0.510421
O O8 0.591815 0.500000 0.843811
O O9 0.616172 0.219860 0.863843
O O10 0.462549 0.274637 0.941292
O O11 0.742260 0.768030 0.833496
O O12 0.606327 0.000000 0.958007
O O13 0.861227 0.000000 0.677262
#
# Coordination Sequence:
#
# PCOD8079089 Si02
#       5
#     8   8   8   8   8
#     4  11  23  36  51  71  98 133 171 208 246 290
#     4   9  16  31  51  72 101 131 162 200 243 294
#     4  10  20  32  45  69 102 131 161 201 251 291
#     4  10  17  28  50  76 100 129 163 197 237 294
#     4   8  15  27  49  77 102 129 158 196 246 294
#
# _framework density 17.292659
#
# number of rings (size 3 to 8) (size 9 to 14) (size 15 to 20)
#    0.000    2.400    2.000    4.200    0.000    2.400 
#    0.000    4.000    0.000    1.200    0.000    0.000 
#    0.000    0.000    0.000    0.000    0.000    0.000 
#
# Total GULP energy -247887.474216 kJ/mol
# GULP energy per Si atom -12394.373711 kJ/mol
# Density = 1.725330 g / cm^3
# Si number density = 17.292659 Si / 1000 Ang^3
#
#
#
# Elastic Constant Matrix: (Units=GPa)
#
#
# Indices 1 2 3 4 5 6 
#
# 1 121.5062 25.4351 63.2562 -0.0007 -16.3567 0.0003
# 2 25.4351 43.0071 28.4022 0.0003 -3.1122 -0.0004
# 3 63.2562 28.4022 108.5046 0.0044 -23.2391 -0.0031
# 4 -0.0007 0.0003 0.0044 25.6488 -0.0012 -1.6234
# 5 -16.3567 -3.1122 -23.2391 -0.0012 32.1716 0.0008
# 6 0.0003 -0.0004 -0.0031 -1.6234 0.0008 22.1027
#
#
#
# Elastic Compliance Matrix: (Units=1/GPa)
#
#
# Indices 1 2 3 4 5 6 
#
# 1 0.012203 -0.003180 -0.005938 0.000001 0.001608 -0.000001
# 2 -0.003180 0.029199 -0.006543 0.000001 -0.003518 0.000000
# 3 -0.005938 -0.006543 0.016099 -0.000002 0.007977 0.000002
# 4 0.000001 0.000001 -0.000002 0.039170 0.000000 0.002877
# 5 0.001608 -0.003518 0.007977 0.000000 0.037323 0.000000
# 6 -0.000001 0.000000 0.000002 0.002877 0.000000 0.045455
#
#
# Mechanical properties :
#
#
# Convention : Reuss Voigt Hill
#
# Bulk Modulus (GPa) = 38.19618 56.35612 47.27615
# Shear Modulus (GPa) = 22.77945 26.37956 24.57950
#
# Velocity S-wave (km/s) = 3.63339 3.90997 3.77421
# Velocity P-wave (km/s) = 6.30381 7.28315 6.81110
#
# Compressibility (1/GPa) = 0.02618063
#
# Stress axis : x y z
#
# Youngs Moduli (GPa) = 81.94591 34.24790 62.11577
#
# Poissons Ratio (x) = 0.10889 0.36882
# Poissons Ratio (y) = 0.26055 0.40642
# Poissons Ratio (z) = 0.48656 0.22408
#
# Static dielectric constant tensor:
#      x y z
#    x 3.149280 0.000000 -0.594040 
#    y 0.000000 3.072760 0.000000 
#    z -0.594040 0.000000 3.646970 
# 
# 
# High freq. dielectric constant tensor:
#      x y z
#    x 1.641890 0.000000 -0.035270 
#    y 0.000000 1.658610 0.000000 
#    z -0.035270 0.000000 1.664890 
# 
# From -- ./inp_files/236928.got.cif
#   From: 2010.06.25/outbox.cif.g09.slc.cpg/sg12_119_cif.got.tgz:236928.got - 2010.06.28 00:19:55.
