data_PCOD8079663
_publ_section_title
;
Structure prediction by ZEFSAII (Michael W. Deem and Ramdas Pophale) SiO2 
 PCOD8079663
Probable space group: C 2/M
;
_chemical_formula_sum "Si O2"
_cell_formula_units_Z 48
_cell_length_a 11.450730
_cell_length_b 22.669325
_cell_length_c 9.686036
_cell_angle_alpha 90.000000
_cell_angle_beta 79.158763
_cell_angle_gamma 90.000000
_cell_volume 2469.429356
_symmetry_space_group_name_H-M "C 2/M"
_symmetry_group_IT_number 12
_symmetry_cell_setting 'monoclinic'
loop_
_space_group_symop_operation_xyz
x,y,z
-x,y,-z
-x,-y,-z
x,-y,z
1/2+x,1/2+y,z
1/2-x,1/2+y,-z
1/2-x,1/2-y,-z
1/2+x,1/2-y,z
loop_
_atom_site_type_symbol
_atom_site_label
_atom_site_fract_x
_atom_site_fract_y
_atom_site_fract_z
Si Si1 0.503403 0.932892 0.334703
Si Si2 0.041237 0.163807 0.835176
Si Si3 0.456351 0.566687 0.656654
Si Si4 0.793251 0.647885 0.681918
Si Si5 0.407758 0.271765 0.639540
Si Si6 0.238239 0.624885 0.619349
O O1 0.500000 0.934650 0.500000
O O2 0.626683 0.901919 0.259255
O O3 0.396434 0.890508 0.305616
O O4 0.495684 0.000000 0.277704
O O5 0.009135 0.101588 0.773447
O O6 0.975359 0.216751 0.769113
O O7 0.184449 0.169059 0.801442
O O8 0.000000 0.165469 0.000000
O O9 0.500000 0.592540 0.500000
O O10 0.496042 0.500000 0.669422
O O11 0.314269 0.574315 0.679677
O O12 0.876309 0.703726 0.630495
O O13 0.745253 0.620801 0.549507
O O14 0.500000 0.290139 0.500000
O O15 0.286685 0.310903 0.657451
#
# Coordination Sequence:
#
# PCOD8079663 Si02
#       6
#     8   8   8   8   8   8
#     4   9  19  31  50  85 119 148 180 230 298 351
#     4  11  24  40  55  82 120 155 195 240 293 355
#     4  10  19  35  61  86 110 148 193 242 291 337
#     4  11  21  34  58  83 117 152 191 244 292 347
#     4  11  21  36  62  87 112 149 198 246 297 343
#     4  10  17  33  56  89 115 142 180 245 291 346
#
# _framework density 19.43769
#
# number of rings (size 3 to 8) (size 9 to 14) (size 15 to 20)
#    0.000    1.667    3.333    3.500    2.333    2.333 
#    0.000    0.000    0.000    0.000    0.000    5.833 
#    0.000    0.000    0.000    0.000    0.000    0.000 
#
# Total GULP energy -297490.915657 kJ/mol
# GULP energy per Si atom -12395.454819 kJ/mol
# Density = 1.939345 g / cm^3
# Si number density = 19.437690 Si / 1000 Ang^3
#
#
#
# Elastic Constant Matrix: (Units=GPa)
#
#
# Indices 1 2 3 4 5 6 
#
# 1 119.6466 36.3179 28.5381 0.0000 -9.2332 0.0000
# 2 36.3179 99.4523 13.3906 0.0000 1.8217 0.0000
# 3 28.5381 13.3906 85.6060 0.0000 5.8188 0.0000
# 4 0.0000 0.0000 0.0000 5.9133 0.0000 -1.2803
# 5 -9.2332 1.8217 5.8188 0.0000 18.9456 0.0000
# 6 0.0000 0.0000 0.0000 -1.2803 0.0000 20.6740
#
#
#
# Elastic Compliance Matrix: (Units=1/GPa)
#
#
# Indices 1 2 3 4 5 6 
#
# 1 0.010798 -0.003595 -0.003491 0.000000 0.006680 0.000000
# 2 -0.003595 0.011473 -0.000411 0.000000 -0.002729 0.000000
# 3 -0.003491 -0.000411 0.013300 0.000000 -0.005747 0.000000
# 4 0.000000 0.000000 0.000000 0.171410 0.000000 0.010615
# 5 0.006680 -0.002729 -0.005747 0.000000 0.058066 0.000000
# 6 0.000000 0.000000 0.000000 0.010615 0.000000 0.049027
#
#
# Mechanical properties :
#
#
# Convention : Reuss Voigt Hill
#
# Bulk Modulus (GPa) = 48.59868 51.24423 49.92146
# Shear Modulus (GPa) = 14.88419 24.20379 19.54399
#
# Velocity S-wave (km/s) = 2.77020 3.53257 3.17435
# Velocity P-wave (km/s) = 5.94042 6.56196 6.25891
#
# Compressibility (1/GPa) = 0.02057669
#
# Stress axis : x y z
#
# Youngs Moduli (GPa) = 92.61386 87.15895 75.18729
#
# Poissons Ratio (x) = 0.31336 0.26249
# Poissons Ratio (y) = 0.33298 0.03087
# Poissons Ratio (z) = 0.32333 0.03579
#
# Static dielectric constant tensor:
#      x y z
#    x 3.857620 0.000000 -0.013940 
#    y 0.000000 3.516420 0.000000 
#    z -0.013940 0.000000 2.950890 
# 
# 
# High freq. dielectric constant tensor:
#      x y z
#    x 1.778740 0.000000 -0.001270 
#    y 0.000000 1.762170 0.000000 
#    z -0.001270 0.000000 1.688700 
# 
# From -- ./inp_files/50816.got.cif
#   From: 2010.06.25/outbox.cif.g09.slc.cpg/sg12_26_cif.got.tgz:50816.got - 2010.06.28 00:19:55.
