data_PCOD8079366
_publ_section_title
;
Structure prediction by ZEFSAII (Michael W. Deem and Ramdas Pophale) SiO2 
 PCOD8079366
Probable space group: C 2/M
;
_chemical_formula_sum "Si O2"
_cell_formula_units_Z 64
_cell_length_a 20.762635
_cell_length_b 8.859663
_cell_length_c 20.527325
_cell_angle_alpha 90.000000
_cell_angle_beta 107.003286
_cell_angle_gamma 90.000000
_cell_volume 3610.943809
_symmetry_space_group_name_H-M "C 2/M"
_symmetry_group_IT_number 12
_symmetry_cell_setting 'monoclinic'
loop_
_space_group_symop_operation_xyz
x,y,z
-x,y,-z
-x,-y,-z
x,-y,z
1/2+x,1/2+y,z
1/2-x,1/2+y,-z
1/2-x,1/2-y,-z
1/2+x,1/2-y,z
loop_
_atom_site_type_symbol
_atom_site_label
_atom_site_fract_x
_atom_site_fract_y
_atom_site_fract_z
Si Si1 0.041911 0.320193 0.361013
Si Si2 0.605605 0.819552 0.650892
Si Si3 0.936108 0.679066 0.775949
Si Si4 0.418688 0.821825 0.136338
Si Si5 0.841485 0.821416 0.852156
Si Si6 0.309833 0.820280 0.205163
Si Si7 0.076841 0.323483 0.010024
Si Si8 0.578357 0.166334 0.506175
O O1 0.041002 0.500000 0.367212
O O2 0.075420 0.271924 0.302694
O O3 0.083659 0.252915 0.436205
O O4 0.964867 0.261917 0.339398
O O5 0.665095 0.763954 0.716160
O O6 0.614915 0.753198 0.579342
O O7 0.604182 0.000000 0.645926
O O8 0.932245 0.500000 0.784288
O O9 0.877804 0.754791 0.800055
O O10 0.008391 0.742011 0.821312
O O11 0.359638 0.754004 0.164260
O O12 0.421563 0.000000 0.146174
O O13 0.403006 0.778308 0.057265
O O14 0.765072 0.759390 0.829260
O O15 0.875309 0.769997 0.928889
O O16 0.843614 0.000000 0.848314
O O17 0.311469 0.000000 0.202767
O O18 0.087028 0.500000 0.027235
O O19 0.000000 0.276984 0.000000
O O20 0.500000 0.153964 0.500000
O O21 0.610032 0.000000 0.508680
#
# Coordination Sequence:
#
# PCOD8079366 Si02
#       8
#     8   8   8   8   8   8   8   8
#     4   8  12  19  38  68  93 114 150 198 236 264
#     4   8  11  19  37  61  93 125 149 182 231 278
#     4  10  17  30  52  72  91 122 162 197 230 270
#     4   9  16  29  51  72  88 115 159 196 221 269
#     4  11  23  34  46  69 100 126 152 189 235 283
#     4   9  17  29  44  66  95 128 158 185 226 281
#     4  10  19  34  55  74  90 116 156 195 232 277
#     4   7  10  15  28  59  97 120 138 182 242 275
#
# _framework density 17.723897000000001
#
# number of rings (size 3 to 8) (size 9 to 14) (size 15 to 20)
#    0.000    3.000    2.500    1.875    0.000    0.750 
#    0.000    0.000    0.000    3.000    0.000    0.000 
#    0.000    5.500    0.000    0.000    0.000    0.125 
#
# Total GULP energy -396431.542600 kJ/mol
# GULP energy per Si atom -12388.485706 kJ/mol
# Density = 1.768356 g / cm^3
# Si number density = 17.723897 Si / 1000 Ang^3
#
#
#
# Elastic Constant Matrix: (Units=GPa)
#
#
# Indices 1 2 3 4 5 6 
#
# 1 114.5367 18.0625 74.2497 0.0000 -2.7033 0.0000
# 2 18.0625 16.9906 19.6405 0.0000 -0.4075 0.0000
# 3 74.2497 19.6405 169.5453 0.0000 -5.9404 0.0000
# 4 0.0000 0.0000 0.0000 9.6570 0.0000 -1.0375
# 5 -2.7033 -0.4075 -5.9404 0.0000 22.4906 0.0000
# 6 0.0000 0.0000 0.0000 -1.0375 0.0000 12.0572
#
#
#
# Elastic Compliance Matrix: (Units=1/GPa)
#
#
# Indices 1 2 3 4 5 6 
#
# 1 0.013169 -0.008470 -0.004780 0.000000 0.000167 0.000000
# 2 -0.008470 0.073420 -0.004829 0.000000 -0.000964 0.000000
# 3 -0.004780 -0.004829 0.008607 0.000000 0.001611 0.000000
# 4 0.000000 0.000000 0.000000 0.104518 0.000000 0.008994
# 5 0.000167 -0.000964 0.001611 0.000000 0.044891 0.000000
# 6 0.000000 0.000000 0.000000 0.008994 0.000000 0.083712
#
#
# Mechanical properties :
#
#
# Convention : Reuss Voigt Hill
#
# Bulk Modulus (GPa) = 16.93852 58.33089 37.63471
# Shear Modulus (GPa) = 13.01550 21.44897 17.23224
#
# Velocity S-wave (km/s) = 2.71282 3.48253 3.12149
# Velocity P-wave (km/s) = 4.40343 7.01092 5.85419
#
# Compressibility (1/GPa) = 0.05903704
#
# Stress axis : x y z
#
# Youngs Moduli (GPa) = 75.93360 13.62019 116.17805
#
# Poissons Ratio (x) = 0.11537 0.55536
# Poissons Ratio (y) = 0.64319 0.56108
# Poissons Ratio (z) = 0.36298 0.06578
#
# Static dielectric constant tensor:
#      x y z
#    x 3.182140 0.000000 -0.044390 
#    y 0.000000 2.637380 0.000000 
#    z -0.044390 0.000000 3.862000 
# 
# 
# High freq. dielectric constant tensor:
#      x y z
#    x 1.654860 0.000000 -0.005400 
#    y 0.000000 1.614960 0.000000 
#    z -0.005400 0.000000 1.716170 
# 
# From -- ./inp_files/319227.got.cif
#   From: 2010.06.25/outbox.cif.g09.slc.cpg/sg12_160_cif.got.tgz:319227.got - 2010.06.28 00:19:55.
