data_PCOD8079167
_publ_section_title
;
Structure prediction by ZEFSAII (Michael W. Deem and Ramdas Pophale) SiO2 
 PCOD8079167
Probable space group: C 2/M
;
_chemical_formula_sum "Si O2"
_cell_formula_units_Z 64
_cell_length_a 26.865402
_cell_length_b 12.436890
_cell_length_c 11.926478
_cell_angle_alpha 90.000000
_cell_angle_beta 96.943459
_cell_angle_gamma 90.000000
_cell_volume 3955.673751
_symmetry_space_group_name_H-M "C 2/M"
_symmetry_group_IT_number 12
_symmetry_cell_setting 'monoclinic'
loop_
_space_group_symop_operation_xyz
x,y,z
-x,y,-z
-x,-y,-z
x,-y,z
1/2+x,1/2+y,z
1/2-x,1/2+y,-z
1/2-x,1/2-y,-z
1/2+x,1/2-y,z
loop_
_atom_site_type_symbol
_atom_site_label
_atom_site_fract_x
_atom_site_fract_y
_atom_site_fract_z
Si Si1 0.162514 0.756302 0.673628
Si Si2 0.303316 0.226703 0.909655
Si Si3 0.137472 0.627380 0.266988
Si Si4 0.566886 0.127790 0.625003
Si Si5 0.257359 0.380007 0.723920
Si Si6 0.700856 0.624228 0.895386
Si Si7 0.457510 0.126241 0.631072
Si Si8 0.305970 0.726467 0.551122
O O1 0.110527 0.698762 0.693886
O O2 0.203619 0.663188 0.670037
O O3 0.178723 0.847310 0.766547
O O4 0.160032 0.807576 0.546683
O O5 0.349025 0.177305 0.850565
O O6 0.273612 0.319011 0.838453
O O7 0.261535 0.134382 0.920044
O O8 0.323842 0.287199 0.026663
O O9 0.144021 0.500000 0.264180
O O10 0.080053 0.662129 0.279628
O O11 0.172905 0.669803 0.376274
O O12 0.514514 0.164938 0.669407
O O13 0.563918 0.164205 0.494433
O O14 0.577338 0.000000 0.642425
O O15 0.250289 0.500000 0.760258
O O16 0.300495 0.370316 0.639666
O O17 0.686496 0.500000 0.918191
O O18 0.460331 0.000000 0.622818
O O19 0.250000 0.750000 0.500000
#
# Coordination Sequence:
#
# PCOD8079167 Si02
#       8
#     8   8   8   8   8   8   8   8
#     4  10  18  28  44  67  92 124 156 180 225 281
#     4   9  19  32  48  68  87 118 162 192 225 272
#     4  10  17  29  48  68  94 124 151 186 227 272
#     4   9  15  26  43  70 101 122 148 182 221 278
#     4   9  17  28  42  62  90 121 149 186 226 265
#     4  10  20  34  48  65  92 123 157 198 231 265
#     4   8  15  25  44  70  95 125 150 177 227 277
#     4   9  18  26  36  63  94 120 152 177 213 272
#
# _framework density 16.179292
#
# number of rings (size 3 to 8) (size 9 to 14) (size 15 to 20)
#    0.000    2.750    1.250    2.625    0.000    2.500 
#    0.000    1.875    0.000    0.750    0.000    9.625 
#    0.000    0.000    0.000    0.000    0.000    0.000 
#
# Total GULP energy -396418.123740 kJ/mol
# GULP energy per Si atom -12388.066367 kJ/mol
# Density = 1.614247 g / cm^3
# Si number density = 16.179292 Si / 1000 Ang^3
#
#
#
# Elastic Constant Matrix: (Units=GPa)
#
#
# Indices 1 2 3 4 5 6 
#
# 1 98.1058 32.4037 28.7460 0.0000 -15.8472 0.0000
# 2 32.4037 65.2533 22.1922 0.0000 -3.0784 0.0000
# 3 28.7460 22.1922 69.5675 0.0000 -16.9335 0.0000
# 4 0.0000 0.0000 0.0000 13.5808 0.0000 -0.6399
# 5 -15.8472 -3.0784 -16.9335 0.0000 22.0293 0.0000
# 6 0.0000 0.0000 0.0000 -0.6399 0.0000 18.3596
#
#
#
# Elastic Compliance Matrix: (Units=1/GPa)
#
#
# Indices 1 2 3 4 5 6 
#
# 1 0.013970 -0.005886 -0.002029 0.000000 0.007668 0.000000
# 2 -0.005886 0.019759 -0.005203 0.000000 -0.005472 0.000000
# 3 -0.002029 -0.005203 0.020102 0.000000 0.013265 0.000000
# 4 0.000000 0.000000 0.000000 0.073754 0.000000 0.002571
# 5 0.007668 -0.005472 0.013265 0.000000 0.060342 0.000000
# 6 0.000000 0.000000 0.000000 0.002571 0.000000 0.054557
#
#
# Mechanical properties :
#
#
# Convention : Reuss Voigt Hill
#
# Bulk Modulus (GPa) = 36.23758 44.40115 40.31937
# Shear Modulus (GPa) = 17.99096 20.76627 19.37861
#
# Velocity S-wave (km/s) = 3.33825 3.58650 3.46460
# Velocity P-wave (km/s) = 6.10775 6.68232 6.40149
#
# Compressibility (1/GPa) = 0.02759566
#
# Stress axis : x y z
#
# Youngs Moduli (GPa) = 71.58170 50.60980 49.74748
#
# Poissons Ratio (x) = 0.29787 0.10092
# Poissons Ratio (y) = 0.42130 0.25885
# Poissons Ratio (z) = 0.14521 0.26333
#
# Static dielectric constant tensor:
#      x y z
#    x 3.306770 0.000000 -0.316670 
#    y 0.000000 2.860460 0.000000 
#    z -0.316670 0.000000 3.176380 
# 
# 
# High freq. dielectric constant tensor:
#      x y z
#    x 1.604990 0.000000 -0.017080 
#    y 0.000000 1.594490 0.000000 
#    z -0.017080 0.000000 1.614720 
# 
# From -- ./inp_files/182150.got.cif
#   From: 2010.06.25/outbox.cif.g09.slc.cpg/sg12_92_cif.got.tgz:182150.got - 2010.06.28 00:19:55.
