data_PCOD8079452
_publ_section_title
;
Structure prediction by ZEFSAII (Michael W. Deem and Ramdas Pophale) SiO2 
 PCOD8079452
Probable space group: C 2/M
;
_chemical_formula_sum "Si O2"
_cell_formula_units_Z 56
_cell_length_a 12.792840
_cell_length_b 24.261779
_cell_length_c 12.619725
_cell_angle_alpha 90.000000
_cell_angle_beta 50.164773
_cell_angle_gamma 90.000000
_cell_volume 3007.726989
_symmetry_space_group_name_H-M "C 2/M"
_symmetry_group_IT_number 12
_symmetry_cell_setting 'monoclinic'
loop_
_space_group_symop_operation_xyz
x,y,z
-x,y,-z
-x,-y,-z
x,-y,z
1/2+x,1/2+y,z
1/2-x,1/2+y,-z
1/2-x,1/2-y,-z
1/2+x,1/2-y,z
loop_
_atom_site_type_symbol
_atom_site_label
_atom_site_fract_x
_atom_site_fract_y
_atom_site_fract_z
Si Si1 0.661582 0.365993 0.387325
Si Si2 0.858461 0.707605 0.968360
Si Si3 0.136028 0.856731 0.786015
Si Si4 0.165179 0.061917 0.579168
Si Si5 0.670375 0.378064 0.999089
Si Si6 0.844603 0.730947 0.222675
Si Si7 0.349359 0.558629 0.791805
O O1 0.500000 0.356369 0.500000
O O2 0.720674 0.407108 0.438642
O O3 0.732009 0.306285 0.354806
O O4 0.708122 0.392085 0.243905
O O5 0.006887 0.720309 0.822545
O O6 0.750000 0.750000 0.000000
O O7 0.806080 0.650175 0.955790
O O8 0.857670 0.710720 0.094602
O O9 0.195167 0.897722 0.658953
O O10 0.199677 0.795237 0.738008
O O11 0.972906 0.846688 0.883890
O O12 0.179291 0.886832 0.867498
O O13 0.007040 0.054159 0.662515
O O14 0.230221 0.000000 0.551216
O O15 0.666918 0.433707 0.070715
O O16 0.279939 0.500000 0.807664
#
# Coordination Sequence:
#
# PCOD8079452 Si02
#       7
#     8   8   8   8   8   8   8
#     4  10  20  34  53  76 110 142 178 223 267 315
#     4  11  18  32  54  77 113 144 167 210 270 332
#     4  10  19  30  51  81 107 137 175 214 271 324
#     4   9  19  34  51  72 103 142 183 226 265 307
#     4  10  17  31  51  78 110 138 168 218 270 318
#     4  11  21  31  53  84 109 140 176 214 272 328
#     4   9  17  30  52  78 103 138 182 224 269 312
#
# _framework density 18.618711000000001
#
# number of rings (size 3 to 8) (size 9 to 14) (size 15 to 20)
#    0.000    2.000    4.286    1.286    0.000    2.857 
#    0.000    2.857    0.000    2.571    0.000    1.000 
#    0.000    0.000    0.000    0.000    0.000    0.000 
#
# Total GULP energy -346869.055213 kJ/mol
# GULP energy per Si atom -12388.180543 kJ/mol
# Density = 1.857633 g / cm^3
# Si number density = 18.618711 Si / 1000 Ang^3
#
#
#
# Elastic Constant Matrix: (Units=GPa)
#
#
# Indices 1 2 3 4 5 6 
#
# 1 70.3150 32.8972 36.4098 0.0000 10.6182 0.0000
# 2 32.8972 124.4578 56.3415 0.0000 10.0104 0.0000
# 3 36.4098 56.3415 72.1964 0.0000 19.3295 0.0000
# 4 0.0000 0.0000 0.0000 11.3169 0.0000 8.6842
# 5 10.6182 10.0104 19.3295 0.0000 26.6801 0.0000
# 6 0.0000 0.0000 0.0000 8.6842 0.0000 24.8583
#
#
#
# Elastic Compliance Matrix: (Units=1/GPa)
#
#
# Indices 1 2 3 4 5 6 
#
# 1 0.019365 -0.001145 -0.008590 0.000000 -0.001054 0.000000
# 2 -0.001145 0.012679 -0.010131 0.000000 0.003038 0.000000
# 3 -0.008590 -0.010131 0.029969 0.000000 -0.014493 0.000000
# 4 0.000000 0.000000 0.000000 0.120728 0.000000 -0.042176
# 5 -0.001054 0.003038 -0.014493 0.000000 0.047260 0.000000
# 6 0.000000 0.000000 0.000000 -0.042176 0.000000 0.054962
#
#
# Mechanical properties :
#
#
# Convention : Reuss Voigt Hill
#
# Bulk Modulus (GPa) = 44.88058 57.58516 51.23287
# Shear Modulus (GPa) = 15.05468 21.99244 18.52356
#
# Velocity S-wave (km/s) = 2.84664 3.44059 3.15761
# Velocity P-wave (km/s) = 5.91286 6.83954 6.39301
#
# Compressibility (1/GPa) = 0.02228135
#
# Stress axis : x y z
#
# Youngs Moduli (GPa) = 51.64050 78.86870 33.36733
#
# Poissons Ratio (x) = 0.09031 0.28663
# Poissons Ratio (y) = 0.05913 0.33804
# Poissons Ratio (z) = 0.44360 0.79900
#
# Static dielectric constant tensor:
#      x y z
#    x 3.337500 0.000000 0.196910 
#    y 0.000000 7.114870 0.000000 
#    z 0.196910 0.000000 3.225630 
# 
# 
# High freq. dielectric constant tensor:
#      x y z
#    x 1.699500 0.000000 0.028840 
#    y 0.000000 1.724370 0.000000 
#    z 0.028840 0.000000 1.694320 
# 
# From -- ./inp_files/135276.got.cif
#   From: 2010.06.25/outbox.cif.g09.slc.cpg/sg12_68_cif.got.tgz:135276.got - 2010.06.28 00:19:55.
