data_PCOD8079310
_publ_section_title
;
Structure prediction by ZEFSAII (Michael W. Deem and Ramdas Pophale) SiO2 
 PCOD8079310
Probable space group: C 2/M
;
_chemical_formula_sum "Si O2"
_cell_formula_units_Z 56
_cell_length_a 31.511234
_cell_length_b 20.859892
_cell_length_c 9.603886
_cell_angle_alpha 90.000000
_cell_angle_beta 149.104572
_cell_angle_gamma 90.000000
_cell_volume 3241.469118
_symmetry_space_group_name_H-M "C 2/M"
_symmetry_group_IT_number 12
_symmetry_cell_setting 'monoclinic'
loop_
_space_group_symop_operation_xyz
x,y,z
-x,y,-z
-x,-y,-z
x,-y,z
1/2+x,1/2+y,z
1/2-x,1/2+y,-z
1/2-x,1/2-y,-z
1/2+x,1/2-y,z
loop_
_atom_site_type_symbol
_atom_site_label
_atom_site_fract_x
_atom_site_fract_y
_atom_site_fract_z
Si Si1 0.111604 0.000000 0.436922
Si Si2 0.925864 0.261310 0.030393
Si Si3 0.837341 0.706474 0.030151
Si Si4 0.153371 0.127737 0.194109
Si Si5 0.614362 0.243914 0.533452
Si Si6 0.709514 0.194676 0.567578
Si Si7 0.930920 0.000000 0.007204
Si Si8 0.690430 0.629420 0.622672
O O1 0.089126 0.000000 0.211936
O O2 0.164653 0.063114 0.623125
O O3 0.029888 0.000000 0.302514
O O4 0.915865 0.300686 0.148755
O O5 0.018653 0.271214 0.239577
O O6 0.909630 0.185999 0.011299
O O7 0.864568 0.290487 0.745189
O O8 0.862347 0.744105 0.239047
O O9 0.772102 0.745473 0.749759
O O10 0.788542 0.640871 0.929828
O O11 0.236630 0.133842 0.332821
O O12 0.107088 0.062146 0.023319
O O13 0.177780 0.125678 0.423016
O O14 0.667723 0.188711 0.603350
O O15 0.634673 0.313610 0.528655
#
# Coordination Sequence:
#
# PCOD8079310 Si02
#       8
#     4   8   8   8   8   8   4   8
#     4   9  18  28  46  73  98 128 161 200 229 281
#     4  11  18  31  49  73  98 129 159 203 245 286
#     4  10  19  33  46  70 101 132 158 199 247 294
#     4  10  17  30  48  69 100 133 158 197 237 290
#     4  11  21  28  49  75 101 126 160 204 249 284
#     4  10  18  31  49  68  95 131 164 194 241 294
#     4   9  18  28  44  75 102 122 161 200 239 271
#     4  10  17  31  47  69 101 130 162 194 238 288
#
# _framework density 17.276116999999999
#
# number of rings (size 3 to 8) (size 9 to 14) (size 15 to 20)
#    0.000    1.857    4.286    4.286    0.000    1.143 
#    0.000    0.000    0.000    7.714    0.000   20.000 
#    0.000    0.000    0.000    0.000    0.000    0.000 
#
# Total GULP energy -346980.903874 kJ/mol
# GULP energy per Si atom -12392.175138 kJ/mol
# Density = 1.723680 g / cm^3
# Si number density = 17.276117 Si / 1000 Ang^3
#
#
#
# Elastic Constant Matrix: (Units=GPa)
#
#
# Indices 1 2 3 4 5 6 
#
# 1 97.3367 38.5144 24.2920 0.0000 16.0865 0.0000
# 2 38.5144 84.6222 30.5791 0.0000 21.1869 0.0000
# 3 24.2920 30.5791 46.4265 0.0000 10.0741 0.0000
# 4 0.0000 0.0000 0.0000 17.0157 0.0000 8.8281
# 5 16.0865 21.1869 10.0741 0.0000 33.8646 0.0000
# 6 0.0000 0.0000 0.0000 8.8281 0.0000 21.8902
#
#
#
# Elastic Compliance Matrix: (Units=1/GPa)
#
#
# Indices 1 2 3 4 5 6 
#
# 1 0.013226 -0.004015 -0.003696 0.000000 -0.002671 0.000000
# 2 -0.004015 0.018521 -0.008549 0.000000 -0.007137 0.000000
# 3 -0.003696 -0.008549 0.029465 0.000000 -0.001661 0.000000
# 4 0.000000 0.000000 0.000000 0.074320 0.000000 -0.029972
# 5 -0.002671 -0.007137 -0.001661 0.000000 0.035757 0.000000
# 6 0.000000 0.000000 0.000000 -0.029972 0.000000 0.057770
#
#
# Mechanical properties :
#
#
# Convention : Reuss Voigt Hill
#
# Bulk Modulus (GPa) = 34.85486 46.12848 40.49167
# Shear Modulus (GPa) = 18.44036 23.55409 20.99722
#
# Velocity S-wave (km/s) = 3.27064 3.69642 3.49003
# Velocity P-wave (km/s) = 5.87212 6.70647 6.30311
#
# Compressibility (1/GPa) = 0.02869040
#
# Stress axis : x y z
#
# Youngs Moduli (GPa) = 75.60697 53.99282 33.93874
#
# Poissons Ratio (x) = 0.21680 0.12544
# Poissons Ratio (y) = 0.30359 0.29016
# Poissons Ratio (z) = 0.27945 0.46161
#
# Static dielectric constant tensor:
#      x y z
#    x 3.623990 0.000000 0.273910 
#    y 0.000000 3.161660 0.000000 
#    z 0.273910 0.000000 3.120330 
# 
# 
# High freq. dielectric constant tensor:
#      x y z
#    x 1.682090 0.000000 0.011800 
#    y 0.000000 1.619480 0.000000 
#    z 0.011800 0.000000 1.655380 
# 
# From -- ./inp_files/113435.got.cif
#   From: 2010.06.25/outbox.cif.g09.slc.cpg/sg12_57_cif.got.tgz:113435.got - 2010.06.28 00:19:55.
