data_PCOD8079714
_publ_section_title
;
Structure prediction by ZEFSAII (Michael W. Deem and Ramdas Pophale) SiO2 
 PCOD8079714
Probable space group: C 2/M
;
_chemical_formula_sum "Si O2"
_cell_formula_units_Z 52
_cell_length_a 32.760931
_cell_length_b 14.039656
_cell_length_c 9.226481
_cell_angle_alpha 90.000000
_cell_angle_beta 39.195330
_cell_angle_gamma 90.000000
_cell_volume 2681.900132
_symmetry_space_group_name_H-M "C 2/M"
_symmetry_group_IT_number 12
_symmetry_cell_setting 'monoclinic'
loop_
_space_group_symop_operation_xyz
x,y,z
-x,y,-z
-x,-y,-z
x,-y,z
1/2+x,1/2+y,z
1/2-x,1/2+y,-z
1/2-x,1/2-y,-z
1/2+x,1/2-y,z
loop_
_atom_site_type_symbol
_atom_site_label
_atom_site_fract_x
_atom_site_fract_y
_atom_site_fract_z
Si Si1 0.349864 0.111261 0.524938
Si Si2 0.500000 0.656649 0.500000
Si Si3 0.560361 0.210476 0.938943
Si Si4 0.198901 0.891786 0.944833
Si Si5 0.096650 0.896475 0.995277
Si Si6 0.438729 0.105106 0.772762
Si Si7 0.115200 0.266313 0.296137
O O1 0.381466 0.151257 0.292041
O O2 0.274055 0.127937 0.720135
O O3 0.378024 0.171525 0.579757
O O4 0.367314 0.000000 0.498706
O O5 0.543770 0.720470 0.487124
O O6 0.454893 0.596670 0.730826
O O7 0.582962 0.317811 0.912026
O O8 0.500000 0.215707 0.000000
O O9 0.539302 0.156500 0.141502
O O10 0.165944 0.876418 0.878675
O O11 0.186543 0.000000 0.035372
O O12 0.169740 0.816020 0.139775
O O13 0.096384 0.000000 0.918833
O O14 0.500000 0.099171 0.500000
O O15 0.380631 0.164448 0.856518
O O16 0.412293 0.000000 0.880438
#
# Coordination Sequence:
#
# PCOD8079714 Si02
#       7
#     8   4   8   8   8   8   8
#     4  11  24  39  58  86 120 157 194 237 292 347
#     4  10  17  34  59  88 114 146 191 234 293 342
#     4  12  24  39  57  86 120 153 191 240 297 351
#     4   9  20  39  63  86 113 153 199 241 289 346
#     4  10  20  37  60  85 115 151 193 239 290 345
#     4  11  21  36  57  83 117 155 194 237 284 340
#     4  11  19  38  60  89 115 152 194 243 286 339
#
# _framework density 19.389237999999999
#
# number of rings (size 3 to 8) (size 9 to 14) (size 15 to 20)
#    0.000    1.385    3.846    3.462    0.000    4.000 
#    0.000    0.769    0.000    0.923    0.000    0.000 
#    0.000    0.000    0.000    0.000    0.000    0.000 
#
# Total GULP energy -322331.762218 kJ/mol
# GULP energy per Si atom -12397.375470 kJ/mol
# Density = 1.934511 g / cm^3
# Si number density = 19.389238 Si / 1000 Ang^3
#
#
#
# Elastic Constant Matrix: (Units=GPa)
#
#
# Indices 1 2 3 4 5 6 
#
# 1 100.8444 48.6102 49.9465 0.0000 0.3435 0.0000
# 2 48.6102 149.8612 47.9348 0.0000 4.3581 0.0000
# 3 49.9465 47.9348 81.0200 0.0000 -4.5236 0.0000
# 4 0.0000 0.0000 0.0000 16.1286 0.0000 7.0827
# 5 0.3435 4.3581 -4.5236 0.0000 31.2977 0.0000
# 6 0.0000 0.0000 0.0000 7.0827 0.0000 8.3427
#
#
#
# Elastic Compliance Matrix: (Units=1/GPa)
#
#
# Indices 1 2 3 4 5 6 
#
# 1 0.014941 -0.002287 -0.007913 0.000000 -0.000989 0.000000
# 2 -0.002287 0.008690 -0.003829 0.000000 -0.001738 0.000000
# 3 -0.007913 -0.003829 0.019680 0.000000 0.003464 0.000000
# 4 0.000000 0.000000 0.000000 0.098858 0.000000 -0.083927
# 5 -0.000989 -0.001738 0.003464 0.000000 0.032705 0.000000
# 6 0.000000 0.000000 0.000000 -0.083927 0.000000 0.191117
#
#
# Mechanical properties :
#
#
# Convention : Reuss Voigt Hill
#
# Bulk Modulus (GPa) = 65.55851 69.41206 67.48528
# Shear Modulus (GPa) = 12.52722 23.50274 18.01498
#
# Velocity S-wave (km/s) = 2.54459 3.48538 3.05146
# Velocity P-wave (km/s) = 6.52062 7.21624 6.87723
#
# Compressibility (1/GPa) = 0.01525355
#
# Stress axis : x y z
#
# Youngs Moduli (GPa) = 66.92964 115.07859 50.81429
#
# Poissons Ratio (x) = 0.26313 0.40210
# Poissons Ratio (y) = 0.15304 0.19455
# Poissons Ratio (z) = 0.52963 0.44060
#
# Static dielectric constant tensor:
#      x y z
#    x 3.575940 0.000000 0.012820 
#    y 0.000000 3.962280 0.000000 
#    z 0.012820 0.000000 3.509990 
# 
# 
# High freq. dielectric constant tensor:
#      x y z
#    x 1.750200 0.000000 -0.010270 
#    y 0.000000 1.778520 0.000000 
#    z -0.010270 0.000000 1.731610 
# 
# From -- ./inp_files/111907.got.cif
#   From: 2010.06.25/outbox.cif.g09.slc.cpg/sg12_56_cif.got.tgz:111907.got - 2010.06.28 00:19:55.
