data_PCOD8079724
_publ_section_title
;
Structure prediction by ZEFSAII (Michael W. Deem and Ramdas Pophale) SiO2 
 PCOD8079724
Probable space group: C 2/M
;
_chemical_formula_sum "Si O2"
_cell_formula_units_Z 36
_cell_length_a 24.208359
_cell_length_b 13.844331
_cell_length_c 20.173794
_cell_angle_alpha 90.000000
_cell_angle_beta 16.702860
_cell_angle_gamma 90.000000
_cell_volume 1943.230235
_symmetry_space_group_name_H-M "C 2/M"
_symmetry_group_IT_number 12
_symmetry_cell_setting 'monoclinic'
loop_
_space_group_symop_operation_xyz
x,y,z
-x,y,-z
-x,-y,-z
x,-y,z
1/2+x,1/2+y,z
1/2-x,1/2+y,-z
1/2-x,1/2-y,-z
1/2+x,1/2-y,z
loop_
_atom_site_type_symbol
_atom_site_label
_atom_site_fract_x
_atom_site_fract_y
_atom_site_fract_z
Si Si1 0.132802 0.791296 0.037065
Si Si2 0.996782 0.000000 0.196995
Si Si3 0.687553 0.000000 0.654475
Si Si4 0.087571 0.500000 0.626213
Si Si5 0.910969 0.298104 0.174059
Si Si6 0.521350 0.792805 0.656808
O O1 0.071452 0.735941 0.041595
O O2 0.986128 0.762768 0.264432
O O3 0.349102 0.758662 0.806747
O O4 0.125483 0.906343 0.035411
O O5 0.908460 0.000000 0.373567
O O6 0.818438 0.000000 0.350143
O O7 0.651870 0.092513 0.740805
O O8 0.544195 0.000000 0.755460
O O9 0.993938 0.406796 0.700235
O O10 0.725408 0.229077 0.389588
O O11 0.000000 0.288886 0.000000
#
# Coordination Sequence:
#
# PCOD8079724 Si02
#       6
#     8   4   4   4   8   8
#     4  11  21  37  62  88 116 154 200 246 288 339
#     4  10  17  34  66  86 119 139 199 255 289 334
#     4  10  19  36  62  88 119 150 194 234 299 354
#     4  10  17  34  66  86 119 139 199 255 289 334
#     4  12  23  40  59  85 127 160 189 234 293 360
#     4  11  21  37  62  88 116 154 200 246 288 339
#
# _framework density 18.525853999999999
#
# number of rings (size 3 to 8) (size 9 to 14) (size 15 to 20)
#    0.667    0.444    6.667    1.667    0.000    0.889 
#    0.000    3.333    0.000    5.333    0.000    0.000 
#    0.000    0.000    0.000    0.000    0.000    0.000 
#
# Total GULP energy -223218.200785 kJ/mol
# GULP energy per Si atom -12401.011155 kJ/mol
# Density = 1.848369 g / cm^3
# Si number density = 18.525854 Si / 1000 Ang^3
#
#
#
# Elastic Constant Matrix: (Units=GPa)
#
#
# Indices 1 2 3 4 5 6 
#
# 1 97.8764 12.4713 42.2815 -0.0752 -3.8046 0.0230
# 2 12.4713 95.8424 -3.4101 -0.2157 0.3100 0.0800
# 3 42.2815 -3.4101 59.2609 -0.0962 -3.4122 0.0297
# 4 -0.0752 -0.2157 -0.0962 15.0480 0.1668 -0.8083
# 5 -3.8046 0.3100 -3.4122 0.1668 26.3372 -0.0185
# 6 0.0230 0.0800 0.0297 -0.8083 -0.0185 24.5251
#
#
#
# Elastic Compliance Matrix: (Units=1/GPa)
#
#
# Indices 1 2 3 4 5 6 
#
# 1 0.015311 -0.002387 -0.011015 -0.000037 0.000813 0.000006
# 2 -0.002387 0.010828 0.002316 0.000158 -0.000173 -0.000031
# 3 -0.011015 0.002316 0.024960 0.000119 0.001615 -0.000022
# 4 -0.000037 0.000158 0.000119 0.066579 -0.000412 0.002193
# 5 0.000813 -0.000173 0.001615 -0.000412 0.038300 0.000013
# 6 0.000006 -0.000031 -0.000022 0.002193 0.000013 0.040847
#
#
# Mechanical properties :
#
#
# Convention : Reuss Voigt Hill
#
# Bulk Modulus (GPa) = 34.56851 39.51834 37.04343
# Shear Modulus (GPa) = 21.86866 26.62454 24.24660
#
# Velocity S-wave (km/s) = 3.43948 3.79510 3.62166
# Velocity P-wave (km/s) = 5.87141 6.37036 6.12597
#
# Compressibility (1/GPa) = 0.02892806
#
# Stress axis : x y z
#
# Youngs Moduli (GPa) = 65.31306 92.35531 40.06457
#
# Poissons Ratio (x) = 0.22044 0.44130
# Poissons Ratio (y) = 0.15590 -0.09281
# Poissons Ratio (z) = 0.71940 -0.21393
#
# Static dielectric constant tensor:
#      x y z
#    x 3.178110 -0.000100 -0.119710 
#    y -0.000100 3.396960 0.000220 
#    z -0.119710 0.000220 3.138750 
# 
# 
# High freq. dielectric constant tensor:
#      x y z
#    x 1.698180 -0.000010 -0.019970 
#    y -0.000010 1.734350 0.000010 
#    z -0.019970 0.000010 1.698980 
# 
# From -- ./inp_files/82907.got.cif
#   From: 2010.06.25/outbox.cif.g09.slc.cpg/sg12_42_cif.got.tgz:82907.got - 2010.06.28 00:19:55.
