data_PCOD8079805
_publ_section_title
;
Structure prediction by ZEFSAII (Michael W. Deem and Ramdas Pophale) SiO2 
 PCOD8079805
Probable space group: C 2/M
;
_chemical_formula_sum "Si O2"
_cell_formula_units_Z 64
_cell_length_a 14.893396
_cell_length_b 22.872189
_cell_length_c 12.202577
_cell_angle_alpha 90.000000
_cell_angle_beta 115.082360
_cell_angle_gamma 90.000000
_cell_volume 3764.758169
_symmetry_space_group_name_H-M "C 2/M"
_symmetry_group_IT_number 12
_symmetry_cell_setting 'monoclinic'
loop_
_space_group_symop_operation_xyz
x,y,z
-x,y,-z
-x,-y,-z
x,-y,z
1/2+x,1/2+y,z
1/2-x,1/2+y,-z
1/2-x,1/2-y,-z
1/2+x,1/2-y,z
loop_
_atom_site_type_symbol
_atom_site_label
_atom_site_fract_x
_atom_site_fract_y
_atom_site_fract_z
Si Si1 0.134297 0.316761 0.397651
Si Si2 0.276764 0.067306 0.523319
Si Si3 0.167898 0.107889 0.261574
Si Si4 0.958874 0.239809 0.360835
Si Si5 0.251434 0.771283 0.335212
Si Si6 0.046862 0.128826 0.776690
Si Si7 0.108685 0.935291 0.603406
Si Si8 0.109053 0.064784 0.009535
O O1 0.136053 0.387815 0.394508
O O2 0.179575 0.285220 0.312979
O O3 0.207824 0.295872 0.530159
O O4 0.021550 0.297774 0.363545
O O5 0.247670 0.076641 0.381478
O O6 0.183448 0.086651 0.548996
O O7 0.310176 0.000000 0.558892
O O8 0.186559 0.176633 0.250598
O O9 0.180800 0.079146 0.148567
O O10 0.058956 0.097343 0.258439
O O11 0.843054 0.254743 0.304637
O O12 0.974562 0.195933 0.266766
O O13 0.000000 0.214524 0.500000
O O14 0.112692 0.105107 0.710973
O O15 0.114639 0.115389 0.918821
O O16 0.000000 0.933554 0.500000
O O17 0.138896 0.000000 0.656377
O O18 0.135686 0.000000 0.976146
O O19 0.000000 0.064495 0.000000
#
# Coordination Sequence:
#
# PCOD8079805 Si02
#       8
#     8   8   8   8   8   8   8   8
#     4   9  17  30  44  68  96 123 154 189 237 284
#     4  10  19  29  46  69  95 125 156 192 232 281
#     4  10  18  30  47  65  94 124 162 187 225 278
#     4  10  19  29  48  69  95 122 154 197 244 275
#     4   9  17  29  47  69  91 123 158 195 230 284
#     4  11  18  28  45  66  93 128 153 189 230 284
#     4  10  18  25  39  67  97 120 147 185 229 281
#     4   9  19  31  44  63  92 129 159 186 223 275
#
# _framework density 16.999763000000002
#
# number of rings (size 3 to 8) (size 9 to 14) (size 15 to 20)
#    0.000    2.250    2.500    1.875    1.750    1.000 
#    0.000    0.625    0.000   10.125    0.000    0.000 
#    0.000    0.000    0.000    6.750    0.000    1.250 
#
# Total GULP energy -396533.714839 kJ/mol
# GULP energy per Si atom -12391.678589 kJ/mol
# Density = 1.696107 g / cm^3
# Si number density = 16.999763 Si / 1000 Ang^3
#
#
#
# Elastic Constant Matrix: (Units=GPa)
#
#
# Indices 1 2 3 4 5 6 
#
# 1 56.0300 26.1723 21.5684 0.0000 -7.4871 0.0000
# 2 26.1723 109.7517 40.1477 0.0000 -7.2528 0.0000
# 3 21.5684 40.1477 67.4183 0.0000 -11.7934 0.0000
# 4 0.0000 0.0000 0.0000 18.9610 0.0000 0.8024
# 5 -7.4871 -7.2528 -11.7934 0.0000 10.0707 0.0000
# 6 0.0000 0.0000 0.0000 0.8024 0.0000 23.2382
#
#
#
# Elastic Compliance Matrix: (Units=1/GPa)
#
#
# Indices 1 2 3 4 5 6 
#
# 1 0.022041 -0.003395 -0.003258 0.000000 0.010126 0.000000
# 2 -0.003395 0.012173 -0.006377 0.000000 -0.001225 0.000000
# 3 -0.003258 -0.006377 0.023198 0.000000 0.020151 0.000000
# 4 0.000000 0.000000 0.000000 0.052817 0.000000 -0.001824
# 5 0.010126 -0.001225 0.020151 0.000000 0.129541 0.000000
# 6 0.000000 0.000000 0.000000 -0.001824 0.000000 0.043096
#
#
# Mechanical properties :
#
#
# Convention : Reuss Voigt Hill
#
# Bulk Modulus (GPa) = 31.89750 45.44186 38.66968
# Shear Modulus (GPa) = 15.65555 20.14143 17.89849
#
# Velocity S-wave (km/s) = 3.03797 3.44584 3.24831
# Velocity P-wave (km/s) = 5.57763 6.52845 6.07168
#
# Compressibility (1/GPa) = 0.03135042
#
# Stress axis : x y z
#
# Youngs Moduli (GPa) = 45.37052 82.14968 43.10773
#
# Poissons Ratio (x) = 0.27890 0.14046
# Poissons Ratio (y) = 0.15403 0.27491
# Poissons Ratio (z) = 0.14783 0.52388
#
# Static dielectric constant tensor:
#      x y z
#    x 2.993270 0.000000 -0.221410 
#    y 0.000000 3.365460 0.000000 
#    z -0.221410 0.000000 3.131810 
# 
# 
# High freq. dielectric constant tensor:
#      x y z
#    x 1.627950 0.000000 -0.022610 
#    y 0.000000 1.657750 0.000000 
#    z -0.022610 0.000000 1.615730 
# 
# From -- ./inp_files/148659.got.cif
#   From: 2010.06.25/outbox.cif.g09.slc.cpg/sg12_75_cif.got.tgz:148659.got - 2010.06.28 00:19:55.
