data_PCOD8079671
_publ_section_title
;
Structure prediction by ZEFSAII (Michael W. Deem and Ramdas Pophale) SiO2 
 PCOD8079671
Probable space group: C 2/M
;
_chemical_formula_sum "Si O2"
_cell_formula_units_Z 64
_cell_length_a 25.569706
_cell_length_b 17.809769
_cell_length_c 19.164441
_cell_angle_alpha 90.000000
_cell_angle_beta 158.885058
_cell_angle_gamma 90.000000
_cell_volume 3143.925378
_symmetry_space_group_name_H-M "C 2/M"
_symmetry_group_IT_number 12
_symmetry_cell_setting 'monoclinic'
loop_
_space_group_symop_operation_xyz
x,y,z
-x,y,-z
-x,-y,-z
x,-y,z
1/2+x,1/2+y,z
1/2-x,1/2+y,-z
1/2-x,1/2-y,-z
1/2+x,1/2-y,z
loop_
_atom_site_type_symbol
_atom_site_label
_atom_site_fract_x
_atom_site_fract_y
_atom_site_fract_z
Si Si1 0.121027 0.852039 0.840801
Si Si2 0.675457 0.085741 0.016498
Si Si3 0.360927 0.206859 0.222891
Si Si4 0.890975 0.322418 0.633578
Si Si5 0.912143 0.084865 0.961479
Si Si6 0.328174 0.190286 0.396809
Si Si7 0.407414 0.652675 0.686864
Si Si8 0.165703 0.816645 0.692352
O O1 0.098635 0.765841 0.789016
O O2 0.973856 0.880509 0.696299
O O3 0.179049 0.903873 0.850038
O O4 0.244914 0.854341 0.054524
O O5 0.537047 0.128330 0.811991
O O6 0.631899 0.000000 0.968661
O O7 0.721546 0.115906 0.150944
O O8 0.510907 0.165378 0.427945
O O9 0.292955 0.250034 0.203140
O O10 0.812959 0.316494 0.460915
O O11 0.766194 0.362902 0.525520
O O12 0.932550 0.242596 0.718525
O O13 0.774504 0.137382 0.776263
O O14 0.862733 0.000000 0.918818
O O15 0.000000 0.084610 0.000000
O O16 0.011038 0.116822 0.146260
O O17 0.309168 0.279739 0.352555
O O18 0.000000 0.843348 0.500000
#
# Coordination Sequence:
#
# PCOD8079671 Si02
#       8
#     8   8   8   8   8   8   8   8
#     4  10  17  33  58  84 115 150 190 248 295 344
#     4  11  23  39  59  90 125 159 200 244 304 369
#     4   9  16  31  56  85 113 141 190 245 298 335
#     4  11  22  37  63  97 115 153 202 261 305 344
#     4  11  24  38  53  78 121 166 193 230 296 370
#     4  11  18  36  59  88 113 150 203 248 294 353
#     4  11  22  39  62  87 123 153 209 253 295 359
#     4   9  20  35  62  89 113 155 196 250 302 343
#
# _framework density 20.356718000000001
#
# number of rings (size 3 to 8) (size 9 to 14) (size 15 to 20)
#    0.000    1.625    3.750    3.000    0.000    1.750 
#    0.000    0.000    0.000    4.125    0.000    3.500 
#    0.000    0.000    0.000    0.000    0.000    0.000 
#
# Total GULP energy -396518.653583 kJ/mol
# GULP energy per Si atom -12391.207924 kJ/mol
# Density = 2.031038 g / cm^3
# Si number density = 20.356718 Si / 1000 Ang^3
#
#
#
# Elastic Constant Matrix: (Units=GPa)
#
#
# Indices 1 2 3 4 5 6 
#
# 1 81.7242 21.4866 31.6967 0.0001 11.2650 0.0000
# 2 21.4866 82.8347 39.8734 0.0014 -0.1091 0.0029
# 3 31.6967 39.8734 94.4656 0.0021 1.4908 0.0046
# 4 0.0001 0.0014 0.0021 15.6370 0.0010 -0.8498
# 5 11.2650 -0.1091 1.4908 0.0010 34.2779 0.0018
# 6 0.0000 0.0029 0.0046 -0.8498 0.0018 9.7225
#
#
#
# Elastic Compliance Matrix: (Units=1/GPa)
#
#
# Indices 1 2 3 4 5 6 
#
# 1 0.015003 -0.001896 -0.004159 0.000001 -0.004756 0.000004
# 2 -0.001896 0.015394 -0.005876 -0.000001 0.000928 -0.000002
# 3 -0.004159 -0.005876 0.014450 -0.000002 0.000720 -0.000005
# 4 0.000001 -0.000001 -0.000002 0.064256 -0.000002 0.005616
# 5 -0.004756 0.000928 0.000720 -0.000002 0.030708 -0.000007
# 6 0.000004 -0.000002 -0.000005 0.005616 -0.000007 0.103345
#
#
# Mechanical properties :
#
#
# Convention : Reuss Voigt Hill
#
# Bulk Modulus (GPa) = 47.65216 49.45975 48.55596
# Shear Modulus (GPa) = 18.24729 22.99200 20.61965
#
# Velocity S-wave (km/s) = 2.99720 3.36438 3.18609
# Velocity P-wave (km/s) = 5.95290 6.28024 6.11876
#
# Compressibility (1/GPa) = 0.02098541
#
# Stress axis : x y z
#
# Youngs Moduli (GPa) = 66.65191 64.96125 69.20328
#
# Poissons Ratio (x) = 0.12317 0.28780
# Poissons Ratio (y) = 0.12638 0.40664
# Poissons Ratio (z) = 0.27719 0.38172
#
# Static dielectric constant tensor:
#      x y z
#    x 3.865740 0.000000 -0.028410 
#    y 0.000000 3.441840 0.000000 
#    z -0.028410 0.000000 3.990160 
# 
# 
# High freq. dielectric constant tensor:
#      x y z
#    x 1.792170 0.000000 -0.004160 
#    y 0.000000 1.745260 0.000000 
#    z -0.004160 0.000000 1.806910 
# 
# From -- ./inp_files/328639.got.cif
#   From: 2010.06.25/outbox.cif.g09.slc.cpg/sg12_165_cif.got.tgz:328639.got - 2010.06.28 00:19:55.
