data_PCOD8079499
_publ_section_title
;
Structure prediction by ZEFSAII (Michael W. Deem and Ramdas Pophale) SiO2 
 PCOD8079499
Probable space group: C 2/M
;
_chemical_formula_sum "Si O2"
_cell_formula_units_Z 64
_cell_length_a 7.894040
_cell_length_b 19.238349
_cell_length_c 21.803506
_cell_angle_alpha 90.000000
_cell_angle_beta 88.037207
_cell_angle_gamma 90.000000
_cell_volume 3309.318530
_symmetry_space_group_name_H-M "C 2/M"
_symmetry_group_IT_number 12
_symmetry_cell_setting 'monoclinic'
loop_
_space_group_symop_operation_xyz
x,y,z
-x,y,-z
-x,-y,-z
x,-y,z
1/2+x,1/2+y,z
1/2-x,1/2+y,-z
1/2-x,1/2-y,-z
1/2+x,1/2-y,z
loop_
_atom_site_type_symbol
_atom_site_label
_atom_site_fract_x
_atom_site_fract_y
_atom_site_fract_z
Si Si1 0.071179 0.344145 0.171353
Si Si2 0.620630 0.723452 0.870564
Si Si3 0.700820 0.830713 0.500215
Si Si4 0.480239 0.080524 0.702282
Si Si5 0.328233 0.695501 0.952348
Si Si6 0.317041 0.580179 0.385509
Si Si7 0.796912 0.920196 0.614399
Si Si8 0.603763 0.075803 0.937653
O O1 0.278012 0.340237 0.162898
O O2 0.017528 0.380772 0.233719
O O3 0.999732 0.265045 0.174943
O O4 0.002599 0.383495 0.112226
O O5 0.531496 0.698011 0.937359
O O6 0.761535 0.779602 0.887071
O O7 0.500000 0.840421 0.500000
O O8 0.750000 0.750000 0.500000
O O9 0.788038 0.868712 0.442330
O O10 0.775312 0.867427 0.559028
O O11 0.314452 0.103047 0.665698
O O12 0.656073 0.099619 0.666481
O O13 0.470834 0.000000 0.717490
O O14 0.269998 0.616273 0.959538
O O15 0.250000 0.750000 0.000000
O O16 0.281266 0.500000 0.405446
O O17 0.512471 0.588427 0.360649
O O18 0.768723 0.000000 0.592590
O O19 0.655752 0.000000 0.910924
O O20 0.500000 0.066338 0.000000
#
# Coordination Sequence:
#
# PCOD8079499 Si02
#       8
#     8   8   8   8   8   8   8   8
#     4  10  20  39  56  81 115 153 193 245 293 353
#     4   9  19  33  53  79 107 143 191 227 284 353
#     4  12  23  38  59  90 128 158 195 250 314 366
#     4  10  21  40  62  83 115 161 207 247 300 362
#     4  10  17  31  56  82 109 143 186 233 284 353
#     4  10  21  40  63  89 117 155 206 249 295 367
#     4  10  21  40  64  89 117 157 205 250 297 364
#     4  10  20  34  55  83 115 149 190 242 300 350
#
# _framework density 19.339328999999999
#
# number of rings (size 3 to 8) (size 9 to 14) (size 15 to 20)
#    0.000    1.875    1.250    4.500    0.000    1.500 
#    9.000    1.250    0.000    3.000    0.000    0.000 
#    0.000    0.000    0.000    0.000    0.000    0.000 
#
# Total GULP energy -396444.540525 kJ/mol
# GULP energy per Si atom -12388.891891 kJ/mol
# Density = 1.929531 g / cm^3
# Si number density = 19.339329 Si / 1000 Ang^3
#
#
#
# Elastic Constant Matrix: (Units=GPa)
#
#
# Indices 1 2 3 4 5 6 
#
# 1 139.9938 47.4009 49.7919 0.0000 -9.1101 0.0000
# 2 47.4009 103.7358 55.6892 0.0000 -7.7147 0.0000
# 3 49.7919 55.6892 104.9282 0.0000 -11.4152 0.0000
# 4 0.0000 0.0000 0.0000 63.9785 0.0000 -8.7573
# 5 -9.1101 -7.7147 -11.4152 0.0000 23.1539 0.0000
# 6 0.0000 0.0000 0.0000 -8.7573 0.0000 29.1572
#
#
#
# Elastic Compliance Matrix: (Units=1/GPa)
#
#
# Indices 1 2 3 4 5 6 
#
# 1 0.009094 -0.002541 -0.002821 0.000000 0.001341 0.000000
# 2 -0.002541 0.014214 -0.006268 0.000000 0.000646 0.000000
# 3 -0.002821 -0.006268 0.014632 0.000000 0.004016 0.000000
# 4 0.000000 0.000000 0.000000 0.016300 0.000000 0.004896
# 5 0.001341 0.000646 0.004016 0.000000 0.045912 0.000000
# 6 0.000000 0.000000 0.000000 0.004896 0.000000 0.035767
#
#
# Mechanical properties :
#
#
# Convention : Reuss Voigt Hill
#
# Bulk Modulus (GPa) = 68.11691 72.71355 70.41523
# Shear Modulus (GPa) = 30.47423 36.30962 33.39193
#
# Velocity S-wave (km/s) = 3.97390 4.33772 4.15979
# Velocity P-wave (km/s) = 7.50695 7.92263 7.71759
#
# Compressibility (1/GPa) = 0.01468064
#
# Stress axis : x y z
#
# Youngs Moduli (GPa) = 109.95982 70.35386 68.34261
#
# Poissons Ratio (x) = 0.17880 0.19278
# Poissons Ratio (y) = 0.27946 0.42834
# Poissons Ratio (z) = 0.31017 0.44094
#
# Static dielectric constant tensor:
#      x y z
#    x 5.211540 0.000000 0.219260 
#    y 0.000000 3.800070 0.000000 
#    z 0.219260 0.000000 3.371280 
# 
# 
# High freq. dielectric constant tensor:
#      x y z
#    x 1.771650 0.000000 -0.002120 
#    y 0.000000 1.744740 0.000000 
#    z -0.002120 0.000000 1.735420 
# 
# From -- ./inp_files/300807.got.cif
#   From: 2010.06.25/outbox.cif.g09.slc.cpg/sg12_151_cif.got.tgz:300807.got - 2010.06.28 00:19:55.
