data_PCOD8079822
_publ_section_title
;
Structure prediction by ZEFSAII (Michael W. Deem and Ramdas Pophale) SiO2 
 PCOD8079822
Probable space group: C 2/M
;
_chemical_formula_sum "Si O2"
_cell_formula_units_Z 64
_cell_length_a 27.341620
_cell_length_b 12.865559
_cell_length_c 11.562177
_cell_angle_alpha 90.000000
_cell_angle_beta 79.865581
_cell_angle_gamma 90.000000
_cell_volume 4003.714380
_symmetry_space_group_name_H-M "C 2/M"
_symmetry_group_IT_number 12
_symmetry_cell_setting 'monoclinic'
loop_
_space_group_symop_operation_xyz
x,y,z
-x,y,-z
-x,-y,-z
x,-y,z
1/2+x,1/2+y,z
1/2-x,1/2+y,-z
1/2-x,1/2-y,-z
1/2+x,1/2-y,z
loop_
_atom_site_type_symbol
_atom_site_label
_atom_site_fract_x
_atom_site_fract_y
_atom_site_fract_z
Si Si1 0.297371 0.675892 0.374079
Si Si2 0.168538 0.121757 0.975418
Si Si3 0.169709 0.805840 0.229377
Si Si4 0.926020 0.123109 0.608272
Si Si5 0.252914 0.617460 0.628607
Si Si6 0.265355 0.117273 0.808214
Si Si7 0.393425 0.620226 0.204495
Si Si8 0.969582 0.123134 0.348069
O O1 0.290495 0.640303 0.508264
O O2 0.292804 0.801484 0.360955
O O3 0.255042 0.621220 0.314177
O O4 0.351097 0.636188 0.317663
O O5 0.156174 0.144429 0.112127
O O6 0.169519 0.000000 0.950014
O O7 0.222730 0.163065 0.912437
O O8 0.125039 0.170412 0.909865
O O9 0.121412 0.812112 0.329820
O O10 0.216005 0.866943 0.266340
O O11 0.185026 0.686198 0.202117
O O12 0.940018 0.162120 0.474104
O O13 0.972450 0.153337 0.672370
O O14 0.914533 0.000000 0.619182
O O15 0.232002 0.500000 0.634153
O O16 0.280564 0.000000 0.834284
O O17 0.403834 0.500000 0.179044
O O18 0.443618 0.668694 0.241409
O O19 0.964844 0.000000 0.353065
#
# Coordination Sequence:
#
# PCOD8079822 Si02
#       8
#     8   8   8   8   8   8   8   8
#     4   9  17  27  41  59  78 106 139 168 199 239
#     4   9  17  28  41  59  84 110 136 168 201 240
#     4  11  19  27  42  63  85 110 137 168 208 245
#     4   9  16  26  41  63  89 109 131 169 208 244
#     4  10  18  26  38  59  85 107 131 167 207 244
#     4   9  18  31  44  58  81 112 142 170 198 237
#     4   9  15  26  43  57  76 110 143 165 193 242
#     4   8  15  27  42  61  84 110 137 165 203 248
#
# _framework density 15.985156999999999
#
# number of rings (size 3 to 8) (size 9 to 14) (size 15 to 20)
#    0.000    2.750    0.000    4.875    0.000    1.000 
#    0.000    0.625    0.000    3.000    0.000    2.625 
#    0.000    1.000    0.000    0.000    0.000    0.000 
#
# Total GULP energy -396543.896301 kJ/mol
# GULP energy per Si atom -12391.996759 kJ/mol
# Density = 1.594877 g / cm^3
# Si number density = 15.985157 Si / 1000 Ang^3
#
#
#
# Elastic Constant Matrix: (Units=GPa)
#
#
# Indices 1 2 3 4 5 6 
#
# 1 64.0670 12.6249 13.8008 0.0000 8.2065 0.0000
# 2 12.6249 45.2326 7.1896 0.0000 -0.4954 0.0000
# 3 13.8008 7.1896 58.4430 0.0000 13.3140 0.0000
# 4 0.0000 0.0000 0.0000 14.2898 0.0000 -1.3708
# 5 8.2065 -0.4954 13.3140 0.0000 24.1852 0.0000
# 6 0.0000 0.0000 0.0000 -1.3708 0.0000 13.5299
#
#
#
# Elastic Compliance Matrix: (Units=1/GPa)
#
#
# Indices 1 2 3 4 5 6 
#
# 1 0.017658 -0.004576 -0.002539 0.000000 -0.004688 0.000000
# 2 -0.004576 0.023845 -0.002650 0.000000 0.003500 0.000000
# 3 -0.002539 -0.002650 0.020412 0.000000 -0.010430 0.000000
# 4 0.000000 0.000000 0.000000 0.070667 0.000000 0.007160
# 5 -0.004688 0.003500 -0.010430 0.000000 0.048751 0.000000
# 6 0.000000 0.000000 0.000000 0.007160 0.000000 0.074636
#
#
# Mechanical properties :
#
#
# Convention : Reuss Voigt Hill
#
# Bulk Modulus (GPa) = 23.59358 26.10814 24.85086
# Shear Modulus (GPa) = 17.26356 19.34280 18.30318
#
# Velocity S-wave (km/s) = 3.28986 3.48235 3.38747
# Velocity P-wave (km/s) = 5.40580 5.70414 5.55697
#
# Compressibility (1/GPa) = 0.04238441
#
# Stress axis : x y z
#
# Youngs Moduli (GPa) = 56.63222 41.93787 48.99017
#
# Poissons Ratio (x) = 0.19192 0.12438
# Poissons Ratio (y) = 0.25916 0.12983
# Poissons Ratio (z) = 0.14378 0.11114
#
# Static dielectric constant tensor:
#      x y z
#    x 3.141080 0.000000 0.285610 
#    y 0.000000 2.795160 0.000000 
#    z 0.285610 0.000000 3.102590 
# 
# 
# High freq. dielectric constant tensor:
#      x y z
#    x 1.598400 0.000000 0.018550 
#    y 0.000000 1.569390 0.000000 
#    z 0.018550 0.000000 1.618030 
# 
# From -- ./inp_files/182024.got.cif
#   From: 2010.06.25/outbox.cif.g09.slc.cpg/sg12_92_cif.got.tgz:182024.got - 2010.06.28 00:19:55.
