data_PCOD8079320
_publ_section_title
;
Structure prediction by ZEFSAII (Michael W. Deem and Ramdas Pophale) SiO2 
 PCOD8079320
Probable space group: C 2/M
;
_chemical_formula_sum "Si O2"
_cell_formula_units_Z 56
_cell_length_a 18.215806
_cell_length_b 18.093584
_cell_length_c 29.107712
_cell_angle_alpha 90.000000
_cell_angle_beta 159.830628
_cell_angle_gamma 90.000000
_cell_volume 3307.835263
_symmetry_space_group_name_H-M "C 2/M"
_symmetry_group_IT_number 12
_symmetry_cell_setting 'monoclinic'
loop_
_space_group_symop_operation_xyz
x,y,z
-x,y,-z
-x,-y,-z
x,-y,z
1/2+x,1/2+y,z
1/2-x,1/2+y,-z
1/2-x,1/2-y,-z
1/2+x,1/2-y,z
loop_
_atom_site_type_symbol
_atom_site_label
_atom_site_fract_x
_atom_site_fract_y
_atom_site_fract_z
Si Si1 0.120996 0.170583 0.469354
Si Si2 0.667885 0.582674 0.639542
Si Si3 0.228519 0.084692 0.258197
Si Si4 0.048178 0.663448 0.257245
Si Si5 0.152782 0.657095 0.487942
Si Si6 0.745447 0.814013 0.639719
Si Si7 0.380443 0.584916 0.976892
O O1 0.314272 0.149142 0.616386
O O2 0.079001 0.257636 0.442314
O O3 0.178574 0.138921 0.452906
O O4 0.905031 0.132233 0.360111
O O5 0.500000 0.588206 0.500000
O O6 0.697266 0.500000 0.675113
O O7 0.889679 0.611088 0.749046
O O8 0.445480 0.106613 0.359629
O O9 0.191849 0.132618 0.282216
O O10 0.243034 0.000000 0.282068
O O11 0.036118 0.098479 0.110757
O O12 0.086024 0.747234 0.262404
O O13 0.806955 0.644688 0.128290
O O14 0.261683 0.640984 0.601280
O O15 0.500000 0.783859 0.500000
O O16 0.295697 0.500000 0.926672
O O17 0.500000 0.602747 0.000000
#
# Coordination Sequence:
#
# PCOD8079320 Si02
#       7
#     8   8   8   8   8   8   8
#     4   9  17  29  46  70  96 121 150 191 234 279
#     4   9  16  25  40  64  91 118 148 181 221 271
#     4  10  20  33  48  68  95 126 161 198 233 275
#     4  10  17  30  49  67  94 126 154 185 229 278
#     4   9  17  30  48  67  92 123 153 190 240 277
#     4   9  18  32  50  72  94 120 157 196 235 278
#     4  10  21  34  48  70  98 126 156 190 231 280
#
# _framework density 16.929500999999998
#
# number of rings (size 3 to 8) (size 9 to 14) (size 15 to 20)
#    0.000    2.571    0.000    4.286    0.000    4.286 
#    0.000    0.000    0.000    0.000    0.000    0.000 
#    0.000    4.000    0.000    0.000    0.000    0.000 
#
# Total GULP energy -347135.572445 kJ/mol
# GULP energy per Si atom -12397.699016 kJ/mol
# Density = 1.689097 g / cm^3
# Si number density = 16.929501 Si / 1000 Ang^3
#
#
#
# Elastic Constant Matrix: (Units=GPa)
#
#
# Indices 1 2 3 4 5 6 
#
# 1 135.8447 48.9718 39.2560 0.0081 9.8249 -0.0007
# 2 48.9718 85.6420 46.2406 0.0554 7.9363 0.0032
# 3 39.2560 46.2406 71.1619 0.1140 9.4747 -0.0133
# 4 0.0081 0.0554 0.1140 22.1060 -0.0013 -1.3290
# 5 9.8249 7.9363 9.4747 -0.0013 22.1268 -0.0023
# 6 -0.0007 0.0032 -0.0133 -1.3290 -0.0023 18.5236
#
#
#
# Elastic Compliance Matrix: (Units=1/GPa)
#
#
# Indices 1 2 3 4 5 6 
#
# 1 0.009655 -0.004018 -0.002478 0.000019 -0.001785 0.000000
# 2 -0.004018 0.019708 -0.010484 0.000005 -0.000796 -0.000011
# 3 -0.002478 -0.010484 0.022890 -0.000090 -0.004941 0.000011
# 4 0.000019 0.000005 -0.000090 0.045433 0.000031 0.003260
# 5 -0.001785 -0.000796 -0.004941 0.000031 0.048388 0.000005
# 6 0.000000 -0.000011 0.000011 0.003260 0.000005 0.054219
#
#
# Mechanical properties :
#
#
# Convention : Reuss Voigt Hill
#
# Bulk Modulus (GPa) = 54.66295 62.39837 58.53066
# Shear Modulus (GPa) = 20.80304 23.09662 21.94983
#
# Velocity S-wave (km/s) = 3.50923 3.69763 3.60466
# Velocity P-wave (km/s) = 6.98415 7.42750 7.20923
#
# Compressibility (1/GPa) = 0.01829393
#
# Stress axis : x y z
#
# Youngs Moduli (GPa) = 103.57542 50.74015 43.68756
#
# Poissons Ratio (x) = 0.20385 0.10825
# Poissons Ratio (y) = 0.41612 0.45803
# Poissons Ratio (z) = 0.25664 0.53197
#
# Static dielectric constant tensor:
#      x y z
#    x 3.469830 0.000020 0.054860 
#    y 0.000020 3.116210 -0.000070 
#    z 0.054860 -0.000070 2.810080 
# 
# 
# High freq. dielectric constant tensor:
#      x y z
#    x 1.669010 0.000000 0.008730 
#    y 0.000000 1.648700 -0.000010 
#    z 0.008730 -0.000010 1.610770 
# 
# From -- ./inp_files/364434.got.cif
#   From: 2010.06.25/outbox.cif.g09.slc.cpg/sg12_183_cif.got.tgz:364434.got - 2010.06.28 00:19:55.
