data_PCOD8079862
_publ_section_title
;
Structure prediction by ZEFSAII (Michael W. Deem and Ramdas Pophale) SiO2 
 PCOD8079862
Probable space group: C 2/M
;
_chemical_formula_sum "Si O2"
_cell_formula_units_Z 64
_cell_length_a 12.126298
_cell_length_b 22.450146
_cell_length_c 18.190403
_cell_angle_alpha 90.000000
_cell_angle_beta 131.634228
_cell_angle_gamma 90.000000
_cell_volume 3701.208880
_symmetry_space_group_name_H-M "C 2/M"
_symmetry_group_IT_number 12
_symmetry_cell_setting 'monoclinic'
loop_
_space_group_symop_operation_xyz
x,y,z
-x,y,-z
-x,-y,-z
x,-y,z
1/2+x,1/2+y,z
1/2-x,1/2+y,-z
1/2-x,1/2-y,-z
1/2+x,1/2-y,z
loop_
_atom_site_type_symbol
_atom_site_label
_atom_site_fract_x
_atom_site_fract_y
_atom_site_fract_z
Si Si1 0.413284 0.362678 0.606612
Si Si2 0.045926 0.685033 0.794112
Si Si3 0.871920 0.802488 0.733922
Si Si4 0.906535 0.769885 0.395058
Si Si5 0.779984 0.625862 0.615122
Si Si6 0.082190 0.658394 0.110322
Si Si7 0.867759 0.205483 0.888113
Si Si8 0.299304 0.567256 0.279716
O O1 0.357830 0.353672 0.665984
O O2 0.484105 0.298389 0.616720
O O3 0.274995 0.381649 0.493230
O O4 0.528793 0.416247 0.652522
O O5 0.216789 0.678419 0.851679
O O6 0.986497 0.752154 0.758726
O O7 0.952381 0.643984 0.695423
O O8 0.029791 0.662105 0.870728
O O9 0.709756 0.777380 0.686321
O O10 0.919232 0.826757 0.834764
O O11 0.817073 0.823346 0.391035
O O12 0.000000 0.737214 0.500000
O O13 0.750468 0.569845 0.656219
O O14 0.153964 0.723199 0.129839
O O15 0.209623 0.611562 0.186702
O O16 0.000000 0.636674 0.000000
O O17 0.000000 0.189479 0.000000
O O18 0.275796 0.500000 0.241840
#
# Coordination Sequence:
#
# PCOD8079862 Si02
#       8
#     8   8   8   8   8   8   8   8
#     4  10  18  29  44  67  97 124 156 195 236 278
#     4   9  17  31  45  63  98 131 157 188 226 279
#     4  10  18  26  42  65  91 125 159 189 224 275
#     4   8  15  26  40  61  91 123 149 178 225 279
#     4   8  17  30  44  65  92 123 153 187 233 286
#     4   9  19  32  48  71  98 128 162 200 236 276
#     4  10  20  31  46  68  95 131 163 188 231 285
#     4  10  19  32  50  70  95 126 159 199 244 286
#
# _framework density 17.291647999999999
#
# number of rings (size 3 to 8) (size 9 to 14) (size 15 to 20)
#    0.000    2.750    0.000    4.875    0.000   12.250 
#    0.000    0.000    0.000    0.000    0.000    3.500 
#    0.000   15.000    0.000    0.000    0.000    0.000 
#
# Total GULP energy -396497.073999 kJ/mol
# GULP energy per Si atom -12390.533562 kJ/mol
# Density = 1.725229 g / cm^3
# Si number density = 17.291648 Si / 1000 Ang^3
#
#
#
# Elastic Constant Matrix: (Units=GPa)
#
#
# Indices 1 2 3 4 5 6 
#
# 1 65.3182 20.9822 51.7737 0.0000 5.7418 0.0000
# 2 20.9822 35.2860 36.5184 0.0000 -2.9701 0.0000
# 3 51.7737 36.5184 147.0875 0.0000 -7.9537 0.0000
# 4 0.0000 0.0000 0.0000 13.3746 0.0000 -2.3349
# 5 5.7418 -2.9701 -7.9537 0.0000 32.4144 0.0000
# 6 0.0000 0.0000 0.0000 -2.3349 0.0000 7.8740
#
#
#
# Elastic Compliance Matrix: (Units=1/GPa)
#
#
# Indices 1 2 3 4 5 6 
#
# 1 0.023740 -0.007609 -0.006823 0.000000 -0.006577 0.000000
# 2 -0.007609 0.040624 -0.007229 0.000000 0.003296 0.000000
# 3 -0.006823 -0.007229 0.011173 0.000000 0.003288 0.000000
# 4 0.000000 0.000000 0.000000 0.078850 0.000000 0.023382
# 5 -0.006577 0.003296 0.003288 0.000000 0.033124 0.000000
# 6 0.000000 0.000000 0.000000 0.023382 0.000000 0.133934
#
#
# Mechanical properties :
#
#
# Convention : Reuss Voigt Hill
#
# Bulk Modulus (GPa) = 31.04218 51.80449 41.42333
# Shear Modulus (GPa) = 13.31539 19.96043 16.63791
#
# Velocity S-wave (km/s) = 2.77798 3.40124 3.10529
# Velocity P-wave (km/s) = 5.31796 6.74158 6.07164
#
# Compressibility (1/GPa) = 0.03221424
#
# Stress axis : x y z
#
# Youngs Moduli (GPa) = 42.12287 24.61616 89.50219
#
# Poissons Ratio (x) = 0.18731 0.61066
# Poissons Ratio (y) = 0.32052 0.64704
# Poissons Ratio (z) = 0.28740 0.17796
#
# Static dielectric constant tensor:
#      x y z
#    x 3.059380 0.000000 -0.004790 
#    y 0.000000 2.680850 0.000000 
#    z -0.004790 0.000000 3.868140 
# 
# 
# High freq. dielectric constant tensor:
#      x y z
#    x 1.650710 0.000000 -0.003480 
#    y 0.000000 1.596390 0.000000 
#    z -0.003480 0.000000 1.691010 
# 
# From -- ./inp_files/265543.got.cif
#   From: 2010.06.25/outbox.cif.g09.slc.cpg/sg12_133_cif.got.tgz:265543.got - 2010.06.28 00:19:55.
