data_PCOD8079324
_publ_section_title
;
Structure prediction by ZEFSAII (Michael W. Deem and Ramdas Pophale) SiO2 
 PCOD8079324
Probable space group: C 2/M
;
_chemical_formula_sum "Si O2"
_cell_formula_units_Z 64
_cell_length_a 19.014651
_cell_length_b 22.844514
_cell_length_c 12.069402
_cell_angle_alpha 90.000000
_cell_angle_beta 48.985475
_cell_angle_gamma 90.000000
_cell_volume 3955.853199
_symmetry_space_group_name_H-M "C 2/M"
_symmetry_group_IT_number 12
_symmetry_cell_setting 'monoclinic'
loop_
_space_group_symop_operation_xyz
x,y,z
-x,y,-z
-x,-y,-z
x,-y,z
1/2+x,1/2+y,z
1/2-x,1/2+y,-z
1/2-x,1/2-y,-z
1/2+x,1/2-y,z
loop_
_atom_site_type_symbol
_atom_site_label
_atom_site_fract_x
_atom_site_fract_y
_atom_site_fract_z
Si Si1 0.759926 0.666719 0.115639
Si Si2 0.555856 0.229226 0.052889
Si Si3 0.688603 0.663349 0.941588
Si Si4 0.653613 0.773095 0.322133
Si Si5 0.045723 0.932062 0.070050
Si Si6 0.475566 0.610457 0.364314
Si Si7 0.148241 0.067582 0.324847
Si Si8 0.020215 0.248981 0.642122
O O1 0.711553 0.714048 0.244497
O O2 0.738263 0.602938 0.188371
O O3 0.870891 0.676776 0.001361
O O4 0.719401 0.675582 0.035032
O O5 0.479890 0.231835 0.230108
O O6 0.500000 0.215799 0.000000
O O7 0.607581 0.291334 0.993217
O O8 0.777550 0.671655 0.768730
O O9 0.646990 0.598607 0.971745
O O10 0.614658 0.773401 0.487991
O O11 0.568873 0.777659 0.324150
O O12 0.974834 0.906965 0.235985
O O13 0.064100 0.000000 0.070661
O O14 0.000000 0.918701 0.000000
O O15 0.563409 0.578680 0.329021
O O16 0.381359 0.588028 0.520826
O O17 0.486323 0.679491 0.368413
O O18 0.176294 0.000000 0.297160
#
# Coordination Sequence:
#
# PCOD8079324 Si02
#       8
#     8   8   8   8   8   8   8   8
#     4  11  18  33  49  75  99 130 166 207 244 283
#     4  11  21  33  49  72 103 131 163 202 254 297
#     4  11  19  32  52  73  98 132 171 204 233 292
#     4  10  17  30  49  73  97 127 168 201 244 284
#     4  11  22  34  49  72 105 139 164 194 244 298
#     4  11  18  30  47  74 107 130 161 194 247 302
#     4  11  19  29  49  75 100 129 164 205 245 290
#     4  11  17  30  51  73 102 135 156 202 250 294
#
# _framework density 16.178557000000001
#
# number of rings (size 3 to 8) (size 9 to 14) (size 15 to 20)
#    0.000    1.125    7.500    3.375    0.000    0.000 
#    0.000    3.750    0.000    0.375    0.000    2.625 
#    0.000    0.000    0.000    0.000    0.000    0.000 
#
# Total GULP energy -396807.541750 kJ/mol
# GULP energy per Si atom -12400.235680 kJ/mol
# Density = 1.614173 g / cm^3
# Si number density = 16.178557 Si / 1000 Ang^3
#
#
#
# Elastic Constant Matrix: (Units=GPa)
#
#
# Indices 1 2 3 4 5 6 
#
# 1 60.4732 21.4668 29.0243 0.0000 5.4492 0.0000
# 2 21.4668 63.7184 38.9690 0.0000 -7.2266 0.0000
# 3 29.0243 38.9690 125.5365 0.0000 5.5632 0.0000
# 4 0.0000 0.0000 0.0000 21.0093 0.0000 -1.0615
# 5 5.4492 -7.2266 5.5632 0.0000 21.2212 0.0000
# 6 0.0000 0.0000 0.0000 -1.0615 0.0000 15.7846
#
#
#
# Elastic Compliance Matrix: (Units=1/GPa)
#
#
# Indices 1 2 3 4 5 6 
#
# 1 0.020535 -0.006115 -0.002553 0.000000 -0.006686 0.000000
# 2 -0.006115 0.022742 -0.006130 0.000000 0.010922 0.000000
# 3 -0.002553 -0.006130 0.010646 0.000000 -0.004223 0.000000
# 4 0.000000 0.000000 0.000000 0.047760 0.000000 0.003212
# 5 -0.006686 0.010922 -0.004223 0.000000 0.053666 0.000000
# 6 0.000000 0.000000 0.000000 0.003212 0.000000 0.063569
#
#
# Mechanical properties :
#
#
# Convention : Reuss Voigt Hill
#
# Bulk Modulus (GPa) = 41.10694 47.62760 44.36727
# Shear Modulus (GPa) = 19.48389 22.28753 20.88571
#
# Velocity S-wave (km/s) = 3.47407 3.71563 3.59688
# Velocity P-wave (km/s) = 6.44637 6.92174 6.68828
#
# Compressibility (1/GPa) = 0.02432679
#
# Stress axis : x y z
#
# Youngs Moduli (GPa) = 48.69767 43.97219 93.93201
#
# Poissons Ratio (x) = 0.26889 0.23982
# Poissons Ratio (y) = 0.29779 0.57577
# Poissons Ratio (z) = 0.12433 0.26953
#
# Static dielectric constant tensor:
#      x y z
#    x 2.795000 0.000000 0.051060 
#    y 0.000000 2.965260 0.000000 
#    z 0.051060 0.000000 3.491540 
# 
# 
# High freq. dielectric constant tensor:
#      x y z
#    x 1.589380 0.000000 0.013420 
#    y 0.000000 1.600450 0.000000 
#    z 0.013420 0.000000 1.636140 
# 
# From -- ./inp_files/160285.got.cif
#   From: 2010.06.25/outbox.cif.g09.slc.cpg/sg12_81_cif.got.tgz:160285.got - 2010.06.28 00:19:55.
