data_PCOD8079601
_publ_section_title
;
Structure prediction by ZEFSAII (Michael W. Deem and Ramdas Pophale) SiO2 
 PCOD8079601
Probable space group: C 2/M
;
_chemical_formula_sum "Si O2"
_cell_formula_units_Z 48
_cell_length_a 22.576971
_cell_length_b 18.893436
_cell_length_c 17.151025
_cell_angle_alpha 90.000000
_cell_angle_beta 20.356736
_cell_angle_gamma 90.000000
_cell_volume 2544.933549
_symmetry_space_group_name_H-M "C 2/M"
_symmetry_group_IT_number 12
_symmetry_cell_setting 'monoclinic'
loop_
_space_group_symop_operation_xyz
x,y,z
-x,y,-z
-x,-y,-z
x,-y,z
1/2+x,1/2+y,z
1/2-x,1/2+y,-z
1/2-x,1/2-y,-z
1/2+x,1/2-y,z
loop_
_atom_site_type_symbol
_atom_site_label
_atom_site_fract_x
_atom_site_fract_y
_atom_site_fract_z
Si Si1 0.038864 0.882833 0.086676
Si Si2 0.161324 0.500000 0.859645
Si Si3 0.022041 0.272889 0.061220
Si Si4 0.702806 0.644887 0.475070
Si Si5 0.199000 0.000000 0.682516
Si Si6 0.633896 0.000000 0.682268
Si Si7 0.164596 0.855071 0.348451
Si Si8 0.798578 0.500000 0.737193
O O1 0.066527 0.809912 0.007629
O O2 0.958809 0.858652 0.267967
O O3 0.912956 0.929929 0.190141
O O4 0.212859 0.929198 0.881266
O O5 0.287257 0.435461 0.697974
O O6 0.000000 0.500000 0.000000
O O7 0.069732 0.500000 0.057292
O O8 0.852469 0.299108 0.317297
O O9 0.190897 0.314138 0.879780
O O10 0.000000 0.298629 0.000000
O O11 0.783890 0.566811 0.374777
O O12 0.635579 0.671715 0.473536
O O13 0.343197 0.000000 0.438807
O O14 0.276788 0.000000 0.671381
O O15 0.000000 0.845030 0.500000
O O16 0.000000 0.500000 0.500000
#
# Coordination Sequence:
#
# PCOD8079601 Si02
#       8
#     8   4   8   8   4   4   8   4
#     4  10  20  37  62  82 103 138 190 238 265 313
#     4  12  17  34  57  76 106 142 186 217 262 305
#     4  10  19  34  57  80 108 144 184 222 272 319
#     4  10  19  35  56  84 109 140 184 232 270 310
#     4   9  20  37  60  83 103 128 190 231 267 310
#     4  10  17  32  58  82 101 135 176 233 261 299
#     4  11  22  34  51  80 117 150 174 211 269 341
#     4  11  23  41  57  81 113 147 175 222 288 335
#
# _framework density 18.861004000000001
#
# number of rings (size 3 to 8) (size 9 to 14) (size 15 to 20)
#    0.000    1.667    3.333    3.750    0.000    0.667 
#    3.000    0.833    0.000    0.000    0.000    0.000 
#    0.000    0.000    0.000    0.000    0.000    0.000 
#
# Total GULP energy -297373.648838 kJ/mol
# GULP energy per Si atom -12390.568702 kJ/mol
# Density = 1.881808 g / cm^3
# Si number density = 18.861004 Si / 1000 Ang^3
#
#
#
# Elastic Constant Matrix: (Units=GPa)
#
#
# Indices 1 2 3 4 5 6 
#
# 1 88.0359 20.4177 61.6501 -0.0261 -7.1072 0.0094
# 2 20.4177 118.4998 35.8725 -0.0273 -13.1882 0.0032
# 3 61.6501 35.8725 134.9138 -0.0550 -8.1416 0.0103
# 4 -0.0261 -0.0273 -0.0550 20.9974 0.0058 6.6082
# 5 -7.1072 -13.1882 -8.1416 0.0058 30.3057 -0.0052
# 6 0.0094 0.0032 0.0103 6.6082 -0.0052 14.8188
#
#
#
# Elastic Compliance Matrix: (Units=1/GPa)
#
#
# Indices 1 2 3 4 5 6 
#
# 1 0.016833 -0.000445 -0.007468 0.000002 0.001748 -0.000006
# 2 -0.000445 0.009546 -0.002125 0.000006 0.003479 -0.000002
# 3 -0.007468 -0.002125 0.011413 0.000022 0.000390 -0.000012
# 4 0.000002 0.000006 0.000022 0.055400 -0.000006 -0.024705
# 5 0.001748 0.003479 0.000390 -0.000006 0.035026 0.000013
# 6 -0.000006 -0.000002 -0.000012 -0.024705 0.000013 0.078498
#
#
# Mechanical properties :
#
#
# Convention : Reuss Voigt Hill
#
# Bulk Modulus (GPa) = 56.44588 64.14778 60.29683
# Shear Modulus (GPa) = 21.48705 28.12500 24.80603
#
# Velocity S-wave (km/s) = 3.37891 3.86576 3.63051
# Velocity P-wave (km/s) = 6.72421 7.34916 7.04362
#
# Compressibility (1/GPa) = 0.01771608
#
# Stress axis : x y z
#
# Youngs Moduli (GPa) = 59.40630 104.75654 87.61648
#
# Poissons Ratio (x) = 0.04663 0.65435
# Poissons Ratio (y) = 0.02644 0.18617
# Poissons Ratio (z) = 0.44366 0.22259
#
# Static dielectric constant tensor:
#      x y z
#    x 3.199770 0.000000 0.237010 
#    y 0.000000 3.572290 -0.000030 
#    z 0.237010 -0.000030 3.706580 
# 
# 
# High freq. dielectric constant tensor:
#      x y z
#    x 1.700570 0.000000 0.021730 
#    y 0.000000 1.741100 0.000000 
#    z 0.021730 0.000000 1.735770 
# 
# From -- ./inp_files/290558.got.cif
#   From: 2010.06.25/outbox.cif.g09.slc.cpg/sg12_146_cif.got.tgz:290558.got - 2010.06.28 00:19:55.
