data_PCOD8079363
_publ_section_title
;
Structure prediction by ZEFSAII (Michael W. Deem and Ramdas Pophale) SiO2 
 PCOD8079363
Probable space group: C 2/M
;
_chemical_formula_sum "Si O2"
_cell_formula_units_Z 48
_cell_length_a 26.729850
_cell_length_b 11.226630
_cell_length_c 12.517219
_cell_angle_alpha 90.000000
_cell_angle_beta 43.100949
_cell_angle_gamma 90.000000
_cell_volume 2566.588359
_symmetry_space_group_name_H-M "C 2/M"
_symmetry_group_IT_number 12
_symmetry_cell_setting 'monoclinic'
loop_
_space_group_symop_operation_xyz
x,y,z
-x,y,-z
-x,-y,-z
x,-y,z
1/2+x,1/2+y,z
1/2-x,1/2+y,-z
1/2-x,1/2-y,-z
1/2+x,1/2-y,z
loop_
_atom_site_type_symbol
_atom_site_label
_atom_site_fract_x
_atom_site_fract_y
_atom_site_fract_z
Si Si1 0.098999 0.500000 0.956675
Si Si2 0.914144 0.129499 0.154911
Si Si3 0.074158 0.500000 0.755374
Si Si4 0.894005 0.748356 0.976862
Si Si5 0.425861 0.364161 0.561190
Si Si6 0.065039 0.744439 0.670088
Si Si7 0.805209 0.860859 0.929269
O O1 0.119515 0.500000 0.797479
O O2 0.129895 0.610080 0.978559
O O3 0.011708 0.500000 0.087718
O O4 0.877932 0.211911 0.122734
O O5 0.897026 0.173060 0.300471
O O6 0.879410 0.000000 0.196761
O O7 0.000000 0.129347 0.000000
O O8 0.093382 0.612512 0.651945
O O9 0.847148 0.831590 0.972969
O O10 0.977709 0.759579 0.809907
O O11 0.500000 0.315758 0.500000
O O12 0.438043 0.500000 0.503763
O O13 0.406290 0.282409 0.490517
O O14 0.359515 0.353633 0.745668
O O15 0.774444 0.000000 0.984204
O O16 0.750000 0.750000 0.000000
#
# Coordination Sequence:
#
# PCOD8079363 Si02
#       7
#     4   8   4   8   8   8   8
#     4   9  16  28  49  78 119 160 183 222 286 352
#     4   9  16  24  44  79 112 139 176 233 294 341
#     4   9  16  28  44  81 126 153 176 219 293 355
#     4  10  18  31  54  80 114 150 194 236 284 341
#     4  10  20  37  60  84 113 150 191 239 292 337
#     4  10  17  30  51  85 116 147 183 235 292 343
#     4  11  25  43  61  83 116 158 200 241 286 344
#
# _framework density 18.701868000000001
#
# number of rings (size 3 to 8) (size 9 to 14) (size 15 to 20)
#    0.000    2.167    3.333    1.000    1.167    1.333 
#    1.500    0.417    0.000    1.000    0.000    0.000 
#    0.000    0.000    0.000    0.000    0.000    0.000 
#
# Total GULP energy -297359.501573 kJ/mol
# GULP energy per Si atom -12389.979232 kJ/mol
# Density = 1.865930 g / cm^3
# Si number density = 18.701868 Si / 1000 Ang^3
#
#
#
# Elastic Constant Matrix: (Units=GPa)
#
#
# Indices 1 2 3 4 5 6 
#
# 1 55.3504 37.9243 34.9296 0.0000 23.0060 0.0000
# 2 37.9243 146.6726 38.8325 0.0000 14.8975 0.0000
# 3 34.9296 38.8325 64.1134 0.0000 25.7650 0.0000
# 4 0.0000 0.0000 0.0000 25.1862 0.0000 5.7168
# 5 23.0060 14.8975 25.7650 0.0000 32.4593 0.0000
# 6 0.0000 0.0000 0.0000 5.7168 0.0000 30.1600
#
#
#
# Elastic Compliance Matrix: (Units=1/GPa)
#
#
# Indices 1 2 3 4 5 6 
#
# 1 0.032983 -0.004569 -0.009765 0.000000 -0.013529 0.000000
# 2 -0.004569 0.008754 -0.003671 0.000000 0.002134 0.000000
# 3 -0.009765 -0.003671 0.028902 0.000000 -0.014335 0.000000
# 4 0.000000 0.000000 0.000000 0.041489 0.000000 -0.007864
# 5 -0.013529 0.002134 -0.014335 0.000000 0.050796 0.000000
# 6 0.000000 0.000000 0.000000 -0.007864 0.000000 0.034647
#
#
# Mechanical properties :
#
#
# Convention : Reuss Voigt Hill
#
# Bulk Modulus (GPa) = 28.87762 54.38991 41.63376
# Shear Modulus (GPa) = 20.39786 27.85777 24.12781
#
# Velocity S-wave (km/s) = 3.30614 3.86368 3.59573
# Velocity P-wave (km/s) = 5.48166 7.00356 6.28882
#
# Compressibility (1/GPa) = 0.03462890
#
# Stress axis : x y z
#
# Youngs Moduli (GPa) = 30.31900 114.22916 34.59986
#
# Poissons Ratio (x) = 0.52186 0.33788
# Poissons Ratio (y) = 0.13851 0.12701
# Poissons Ratio (z) = 0.29608 0.41933
#
# Static dielectric constant tensor:
#      x y z
#    x 3.273240 0.000000 0.285350 
#    y 0.000000 3.888390 0.000000 
#    z 0.285350 0.000000 3.066190 
# 
# 
# High freq. dielectric constant tensor:
#      x y z
#    x 1.705340 0.000000 0.040700 
#    y 0.000000 1.744140 0.000000 
#    z 0.040700 0.000000 1.689460 
# 
# From -- ./inp_files/181891.got.cif
#   From: 2010.06.25/outbox.cif.g09.slc.cpg/sg12_91_cif.got.tgz:181891.got - 2010.06.28 00:19:55.
