data_PCOD8079455
_publ_section_title
;
Structure prediction by ZEFSAII (Michael W. Deem and Ramdas Pophale) SiO2 
 PCOD8079455
Probable space group: C 2/M
;
_chemical_formula_sum "Si O2"
_cell_formula_units_Z 56
_cell_length_a 26.947869
_cell_length_b 8.953422
_cell_length_c 13.788778
_cell_angle_alpha 90.000000
_cell_angle_beta 60.673291
_cell_angle_gamma 90.000000
_cell_volume 2900.524737
_symmetry_space_group_name_H-M "C 2/M"
_symmetry_group_IT_number 12
_symmetry_cell_setting 'monoclinic'
loop_
_space_group_symop_operation_xyz
x,y,z
-x,y,-z
-x,-y,-z
x,-y,z
1/2+x,1/2+y,z
1/2-x,1/2+y,-z
1/2-x,1/2-y,-z
1/2+x,1/2-y,z
loop_
_atom_site_type_symbol
_atom_site_label
_atom_site_fract_x
_atom_site_fract_y
_atom_site_fract_z
Si Si1 0.033396 0.830760 0.249521
Si Si2 0.032707 0.177641 0.874241
Si Si3 0.772019 0.670343 0.717351
Si Si4 0.068753 0.829988 0.517664
Si Si5 0.161641 0.821683 0.734677
Si Si6 0.618548 0.822927 0.289389
Si Si7 0.839122 0.672365 0.458557
O O1 0.092340 0.743260 0.215140
O O2 0.999859 0.759633 0.189905
O O3 0.996206 0.823921 0.383545
O O4 0.050048 0.000000 0.208221
O O5 0.097880 0.234834 0.818961
O O6 0.033195 0.000000 0.869433
O O7 0.000000 0.237729 0.000000
O O8 0.771861 0.500000 0.748515
O O9 0.706068 0.726895 0.779011
O O10 0.817345 0.743866 0.750012
O O11 0.793738 0.691977 0.587125
O O12 0.078342 0.722168 0.417656
O O13 0.105550 0.772712 0.572993
O O14 0.085439 0.000000 0.474317
O O15 0.185722 0.738671 0.616793
O O16 0.164450 0.000000 0.716369
O O17 0.618939 0.000000 0.281656
O O18 0.856830 0.500000 0.429108
#
# Coordination Sequence:
#
# PCOD8079455 Si02
#       7
#     8   8   8   8   8   8   8
#     4  10  19  32  49  71  96 127 165 204 245 293
#     4   9  18  33  54  78  97 118 162 217 257 288
#     4   8  17  30  45  68  99 131 167 196 230 290
#     4  10  18  30  47  70  99 134 170 202 236 287
#     4  10  17  31  52  70  93 129 164 205 250 288
#     4  10  20  32  46  71 102 134 164 197 238 292
#     4  10  18  28  43  70 104 133 163 199 238 293
#
# _framework density 19.306851999999999
#
# number of rings (size 3 to 8) (size 9 to 14) (size 15 to 20)
#    0.000    2.429    1.429    3.000    0.000    2.857 
#    0.000    3.571    0.000    2.571    0.000    0.000 
#    0.000    0.000    0.000    0.000    0.000    0.571 
#
# Total GULP energy -346887.254075 kJ/mol
# GULP energy per Si atom -12388.830503 kJ/mol
# Density = 1.926291 g / cm^3
# Si number density = 19.306852 Si / 1000 Ang^3
#
#
#
# Elastic Constant Matrix: (Units=GPa)
#
#
# Indices 1 2 3 4 5 6 
#
# 1 205.8835 37.0185 42.0415 0.0000 -4.2848 0.0000
# 2 37.0185 45.5203 8.8757 0.0000 -6.1740 0.0000
# 3 42.0415 8.8757 37.3798 0.0000 3.8477 0.0000
# 4 0.0000 0.0000 0.0000 8.8867 0.0000 1.9440
# 5 -4.2848 -6.1740 3.8477 0.0000 10.0463 0.0000
# 6 0.0000 0.0000 0.0000 1.9440 0.0000 26.1569
#
#
#
# Elastic Compliance Matrix: (Units=1/GPa)
#
#
# Indices 1 2 3 4 5 6 
#
# 1 0.007159 -0.003881 -0.007495 0.000000 0.003539 0.000000
# 2 -0.003881 0.028276 -0.004131 0.000000 0.017304 0.000000
# 3 -0.007495 -0.004131 0.038261 0.000000 -0.020389 0.000000
# 4 0.000000 0.000000 0.000000 0.114388 0.000000 -0.008501
# 5 0.003539 0.017304 -0.020389 0.000000 0.119492 0.000000
# 6 0.000000 0.000000 0.000000 -0.008501 0.000000 0.038863
#
#
# Mechanical properties :
#
#
# Convention : Reuss Voigt Hill
#
# Bulk Modulus (GPa) = 23.42764 51.62833 37.52798
# Shear Modulus (GPa) = 12.76555 22.40783 17.58669
#
# Velocity S-wave (km/s) = 2.57416 3.41048 3.02139
# Velocity P-wave (km/s) = 4.58211 6.50442 5.62598
#
# Compressibility (1/GPa) = 0.04268463
#
# Stress axis : x y z
#
# Youngs Moduli (GPa) = 139.68652 35.36507 26.13612
#
# Poissons Ratio (x) = 0.13724 0.19588
# Poissons Ratio (y) = 0.54206 0.10797
# Poissons Ratio (z) = 1.04689 0.14609
#
# Static dielectric constant tensor:
#      x y z
#    x 4.149720 0.000000 -0.055990 
#    y 0.000000 3.255140 0.000000 
#    z -0.055990 0.000000 3.088920 
# 
# 
# High freq. dielectric constant tensor:
#      x y z
#    x 1.781350 0.000000 0.000780 
#    y 0.000000 1.719230 0.000000 
#    z 0.000780 0.000000 1.690940 
# 
# From -- ./inp_files/243603.got.cif
#   From: 2010.06.25/outbox.cif.g09.slc.cpg/sg12_122_cif.got.tgz:243603.got - 2010.06.28 00:19:55.
