data_PCOD8079459
_publ_section_title
;
Structure prediction by ZEFSAII (Michael W. Deem and Ramdas Pophale) SiO2 
 PCOD8079459
Probable space group: C 2/M
;
_chemical_formula_sum "Si O2"
_cell_formula_units_Z 48
_cell_length_a 22.463364
_cell_length_b 12.428238
_cell_length_c 19.695524
_cell_angle_alpha 90.000000
_cell_angle_beta 152.709205
_cell_angle_gamma 90.000000
_cell_volume 2521.144063
_symmetry_space_group_name_H-M "C 2/M"
_symmetry_group_IT_number 12
_symmetry_cell_setting 'monoclinic'
loop_
_space_group_symop_operation_xyz
x,y,z
-x,y,-z
-x,-y,-z
x,-y,z
1/2+x,1/2+y,z
1/2-x,1/2+y,-z
1/2-x,1/2-y,-z
1/2+x,1/2-y,z
loop_
_atom_site_type_symbol
_atom_site_label
_atom_site_fract_x
_atom_site_fract_y
_atom_site_fract_z
Si Si1 0.857493 0.781648 0.823559
Si Si2 0.780681 0.382453 0.848335
Si Si3 0.709175 0.000000 0.689934
Si Si4 0.048264 0.500000 0.658153
Si Si5 0.938440 0.381732 0.800963
Si Si6 0.933985 0.660176 0.203973
Si Si7 0.656174 0.382393 0.860126
O O1 0.763831 0.710384 0.776175
O O2 0.794315 0.898051 0.753435
O O3 0.858263 0.717804 0.752050
O O4 0.000000 0.793652 0.000000
O O5 0.763210 0.500000 0.796363
O O6 0.673741 0.365356 0.797682
O O7 0.921165 0.375590 0.023758
O O8 0.674486 0.000000 0.735709
O O9 0.578406 0.000000 0.515535
O O10 0.044625 0.606387 0.701167
O O11 0.876302 0.500000 0.753682
O O12 0.953205 0.372149 0.734439
O O13 0.940935 0.789882 0.213921
O O14 0.793251 0.622146 0.037125
O O15 0.594573 0.500000 0.812751
#
# Coordination Sequence:
#
# PCOD8079459 Si02
#       7
#     8   8   4   4   8   8   8
#     4  10  19  34  52  80 111 138 169 227 270 308
#     4   8  14  26  48  76 107 131 162 213 269 316
#     4  11  25  38  52  76 103 147 195 209 259 322
#     4  11  22  40  58  70 103 152 187 220 246 321
#     4   9  16  29  51  78 103 131 172 209 268 329
#     4  10  17  31  52  75 104 143 173 216 264 310
#     4   9  16  27  47  83 109 130 173 216 269 317
#
# _framework density 19.038975000000001
#
# number of rings (size 3 to 8) (size 9 to 14) (size 15 to 20)
#    0.000    2.500    1.667    2.750    0.000    3.333 
#    1.500    0.833    0.000    2.000    0.000    8.167 
#    0.000    0.000    0.000    0.000    0.000    0.000 
#
# Total GULP energy -297400.242982 kJ/mol
# GULP energy per Si atom -12391.676791 kJ/mol
# Density = 1.899564 g / cm^3
# Si number density = 19.038975 Si / 1000 Ang^3
#
#
#
# Elastic Constant Matrix: (Units=GPa)
#
#
# Indices 1 2 3 4 5 6 
#
# 1 105.0351 65.0520 21.1112 0.0000 -13.6676 0.0000
# 2 65.0520 182.6491 20.5895 0.0000 -1.7996 0.0000
# 3 21.1112 20.5895 24.5969 -0.0001 -5.0533 0.0000
# 4 0.0000 0.0000 -0.0001 -2.9736 0.0000 -1.9920
# 5 -13.6676 -1.7996 -5.0533 0.0000 16.1357 0.0000
# 6 0.0000 0.0000 0.0000 -1.9920 0.0000 36.9682
#
#
#
# Elastic Compliance Matrix: (Units=1/GPa)
#
#
# Indices 1 2 3 4 5 6 
#
# 1 0.014999 -0.004443 -0.007103 0.000000 0.009985 0.000000
# 2 -0.004443 0.007376 -0.003169 0.000000 -0.003933 0.000000
# 3 -0.007103 -0.003169 0.051403 -0.000001 0.009728 0.000000
# 4 0.000000 0.000000 -0.000001 -0.324571 0.000000 -0.017489
# 5 0.009985 -0.003933 0.009728 0.000000 0.073040 0.000000
# 6 0.000000 0.000000 0.000000 -0.017489 0.000000 0.026108
#
#
# Mechanical properties :
#
#
# Convention : Reuss Voigt Hill
#
# Bulk Modulus (GPa) = 22.54873 58.42071 40.48472
# Shear Modulus (GPa) = -46.54104 23.72795 -11.40655
#
# Velocity S-wave (km/s) = -4.94957 3.53410 -2.45034
# Velocity P-wave (km/s) = 4.56017 6.88510 3.64757
#
# Compressibility (1/GPa) = 0.04434840
#
# Stress axis : x y z
#
# Youngs Moduli (GPa) = 66.66955 135.57736 19.45398
#
# Poissons Ratio (x) = 0.60238 0.13819
# Poissons Ratio (y) = 0.29622 0.06165
# Poissons Ratio (z) = 0.47357 0.42962
#
# Static dielectric constant tensor:
#      x y z
#    x 3.767920 0.000000 -0.152590 
#    y 0.000000 3.767330 0.000000 
#    z -0.152590 0.000000 2.809750 
# 
# 
# High freq. dielectric constant tensor:
#      x y z
#    x 1.743310 0.000000 -0.016400 
#    y 0.000000 1.761080 0.000000 
#    z -0.016400 0.000000 1.665410 
# 
# From -- ./inp_files/325001.got.cif
#   From: 2010.06.25/outbox.cif.g09.slc.cpg/sg12_163_cif.got.tgz:325001.got - 2010.06.28 00:19:55.
