data_PCOD8079793
_publ_section_title
;
Structure prediction by ZEFSAII (Michael W. Deem and Ramdas Pophale) SiO2 
 PCOD8079793
Probable space group: C 2/M
;
_chemical_formula_sum "Si O2"
_cell_formula_units_Z 40
_cell_length_a 13.148426
_cell_length_b 18.221235
_cell_length_c 14.485150
_cell_angle_alpha 90.000000
_cell_angle_beta 30.566785
_cell_angle_gamma 90.000000
_cell_volume 1764.825202
_symmetry_space_group_name_H-M "C 2/M"
_symmetry_group_IT_number 12
_symmetry_cell_setting 'monoclinic'
loop_
_space_group_symop_operation_xyz
x,y,z
-x,y,-z
-x,-y,-z
x,-y,z
1/2+x,1/2+y,z
1/2-x,1/2+y,-z
1/2-x,1/2-y,-z
1/2+x,1/2-y,z
loop_
_atom_site_type_symbol
_atom_site_label
_atom_site_fract_x
_atom_site_fract_y
_atom_site_fract_z
Si Si1 0.121594 0.719711 0.017249
Si Si2 0.418514 0.081257 0.849418
Si Si3 0.702074 0.860596 0.486820
Si Si4 0.493272 0.375016 0.107739
Si Si5 0.005849 0.791247 0.390442
O O1 0.261206 0.703535 0.820534
O O2 0.250000 0.750000 0.000000
O O3 0.006519 0.644875 0.137947
O O4 0.968385 0.786067 0.117090
O O5 0.550171 0.083029 0.653515
O O6 0.438032 0.000000 0.878198
O O7 0.188507 0.097752 0.007795
O O8 0.876852 0.841635 0.422917
O O9 0.571712 0.791416 0.557331
O O10 0.801407 0.899012 0.318861
O O11 0.500000 0.410245 0.000000
O O12 0.000000 0.819866 0.500000
#
# Coordination Sequence:
#
# PCOD8079793 Si02
#       5
#     8   8   8   8   8
#     4  10  17  39  59  87 121 157 203 251 302 353
#     4  11  24  41  60  88 130 168 205 250 311 377
#     4  11  21  38  61  93 126 158 205 253 313 362
#     4  11  22  39  68  94 123 160 208 261 309 366
#     4  11  20  35  67  97 122 154 204 268 312 358
#
# _framework density 22.665133999999998
#
# number of rings (size 3 to 8) (size 9 to 14) (size 15 to 20)
#    0.000    1.200    8.000    2.400    0.000    1.200 
#    0.000    1.000    0.000    6.600    0.000    0.000 
#    0.000    0.000    0.000    0.000    0.000    0.000 
#
# Total GULP energy -247881.217826 kJ/mol
# GULP energy per Si atom -12394.060891 kJ/mol
# Density = 2.261355 g / cm^3
# Si number density = 22.665134 Si / 1000 Ang^3
#
#
#
# Elastic Constant Matrix: (Units=GPa)
#
#
# Indices 1 2 3 4 5 6 
#
# 1 47.0842 3.3342 1.7725 -0.0149 31.7030 0.0216
# 2 3.3342 90.7718 24.9476 0.1030 2.7316 -0.0191
# 3 1.7725 24.9476 182.5286 0.0652 28.7295 -0.0126
# 4 -0.0149 0.1030 0.0652 11.8740 -0.0403 2.1358
# 5 31.7030 2.7316 28.7295 -0.0403 36.6150 -0.0029
# 6 0.0216 -0.0191 -0.0126 2.1358 -0.0029 8.7283
#
#
#
# Elastic Compliance Matrix: (Units=1/GPa)
#
#
# Indices 1 2 3 4 5 6 
#
# 1 0.062151 -0.003034 0.009407 -0.000130 -0.060969 -0.000135
# 2 -0.003034 0.011601 -0.002092 -0.000091 0.003402 0.000053
# 3 0.009407 -0.002092 0.007907 -0.000060 -0.014194 -0.000006
# 4 -0.000130 -0.000091 -0.000060 0.088096 0.000262 -0.021556
# 5 -0.060969 0.003402 -0.014194 0.000262 0.090984 0.000104
# 6 -0.000135 0.000053 -0.000006 -0.021556 0.000104 0.119844
#
#
# Mechanical properties :
#
#
# Convention : Reuss Voigt Hill
#
# Bulk Modulus (GPa) = 11.08359 42.27702 26.68031
# Shear Modulus (GPa) = 12.43491 30.79883 21.61687
#
# Velocity S-wave (km/s) = 2.34484 3.69028 3.09163
# Velocity P-wave (km/s) = 3.49740 6.07049 4.95392
#
# Compressibility (1/GPa) = 0.09022347
#
# Stress axis : x y z
#
# Youngs Moduli (GPa) = 16.08984 86.20225 126.46739
#
# Poissons Ratio (x) = 0.26150 -1.18973
# Poissons Ratio (y) = 0.04881 0.26451
# Poissons Ratio (z) = -0.15136 0.18030
#
# Static dielectric constant tensor:
#      x y z
#    x 4.061680 0.000410 0.322370 
#    y 0.000410 4.218560 0.001580 
#    z 0.322370 0.001580 4.422370 
# 
# 
# High freq. dielectric constant tensor:
#      x y z
#    x 1.876920 0.000000 0.009800 
#    y 0.000000 1.846030 0.000010 
#    z 0.009800 0.000010 1.917610 
# 
# From -- ./inp_files/216627.got.cif
#   From: 2010.06.25/outbox.cif.g09.slc.cpg/sg12_109_cif.got.tgz:216627.got - 2010.06.28 00:19:55.
