data_PCOD8079203
_publ_section_title
;
Structure prediction by ZEFSAII (Michael W. Deem and Ramdas Pophale) SiO2 
 PCOD8079203
Probable space group: C 2/M
;
_chemical_formula_sum "Si O2"
_cell_formula_units_Z 64
_cell_length_a 21.280873
_cell_length_b 13.420995
_cell_length_c 32.824529
_cell_angle_alpha 90.000000
_cell_angle_beta 155.131372
_cell_angle_gamma 90.000000
_cell_volume 3942.566631
_symmetry_space_group_name_H-M "C 2/M"
_symmetry_group_IT_number 12
_symmetry_cell_setting 'monoclinic'
loop_
_space_group_symop_operation_xyz
x,y,z
-x,y,-z
-x,-y,-z
x,-y,z
1/2+x,1/2+y,z
1/2-x,1/2+y,-z
1/2-x,1/2-y,-z
1/2+x,1/2-y,z
loop_
_atom_site_type_symbol
_atom_site_label
_atom_site_fract_x
_atom_site_fract_y
_atom_site_fract_z
Si Si1 0.595973 0.386705 0.596677
Si Si2 0.000321 0.614040 0.908699
Si Si3 0.353668 0.759089 0.938115
Si Si4 0.442016 0.699721 0.581470
Si Si5 0.413275 0.116780 0.208956
Si Si6 0.125056 0.385373 0.409474
Si Si7 0.075626 0.616679 0.224924
Si Si8 0.793323 0.886412 0.215633
O O1 0.500000 0.388988 0.500000
O O2 0.607933 0.500000 0.621992
O O3 0.519681 0.312177 0.583652
O O4 0.757242 0.340284 0.680857
O O5 0.048787 0.500000 0.946478
O O6 0.017430 0.639425 0.870940
O O7 0.826469 0.628123 0.818534
O O8 0.104390 0.690168 0.994343
O O9 0.250477 0.663828 0.884281
O O10 0.266840 0.841324 0.861405
O O11 0.500000 0.722264 0.000000
O O12 0.292530 0.633909 0.492627
O O13 0.408082 0.815986 0.570787
O O14 0.550624 0.662968 0.680989
O O15 0.512493 0.141395 0.306682
O O16 0.493452 0.162957 0.215938
O O17 0.387663 0.000000 0.188912
O O18 0.106752 0.500000 0.412164
O O19 0.092789 0.500000 0.242451
O O20 0.824949 0.000000 0.224723
#
# Coordination Sequence:
#
# PCOD8079203 Si02
#       8
#     8   8   8   8   8   8   8   8
#     4  10  18  29  49  78 106 128 157 200 246 296
#     4   9  17  30  48  72 100 123 153 203 255 299
#     4  10  20  32  48  70  95 128 170 202 245 292
#     4  11  19  31  54  77 100 132 166 195 241 301
#     4  10  20  35  49  67 100 132 165 206 248 290
#     4  10  21  34  49  74 106 134 162 202 245 289
#     4   9  17  29  47  70  97 129 158 199 256 297
#     4  10  17  29  49  75 101 123 153 201 249 299
#
# _framework density 16.233080000000001
#
# number of rings (size 3 to 8) (size 9 to 14) (size 15 to 20)
#    0.000    2.125    2.500    2.250    0.000    4.250 
#    0.000    0.000    0.000    0.375    0.000    1.750 
#    0.000    0.000    0.000    0.000    0.000    0.000 
#
# Total GULP energy -396792.077041 kJ/mol
# GULP energy per Si atom -12399.752408 kJ/mol
# Density = 1.619613 g / cm^3
# Si number density = 16.233080 Si / 1000 Ang^3
#
#
#
# Elastic Constant Matrix: (Units=GPa)
#
#
# Indices 1 2 3 4 5 6 
#
# 1 88.2594 39.7155 29.5531 -0.0040 3.9307 0.0007
# 2 39.7155 65.1755 34.8628 -0.0033 4.1622 0.0007
# 3 29.5531 34.8628 96.7384 -0.0077 7.5003 -0.0035
# 4 -0.0040 -0.0033 -0.0077 24.9004 -0.0003 0.6801
# 5 3.9307 4.1622 7.5003 -0.0003 21.9924 0.0007
# 6 0.0007 0.0007 -0.0035 0.6801 0.0007 18.9172
#
#
#
# Elastic Compliance Matrix: (Units=1/GPa)
#
#
# Indices 1 2 3 4 5 6 
#
# 1 0.015837 -0.008732 -0.001643 0.000001 -0.000618 -0.000001
# 2 -0.008732 0.023858 -0.005856 0.000000 -0.000957 -0.000002
# 3 -0.001643 -0.005856 0.013190 0.000003 -0.003096 0.000003
# 4 0.000001 0.000000 0.000003 0.040199 -0.000001 -0.001445
# 5 -0.000618 -0.000957 -0.003096 -0.000001 0.046818 -0.000002
# 6 -0.000001 -0.000002 0.000003 -0.001445 -0.000002 0.052914
#
#
# Mechanical properties :
#
#
# Convention : Reuss Voigt Hill
#
# Bulk Modulus (GPa) = 48.96792 50.93735 49.95263
# Shear Modulus (GPa) = 21.54369 22.89813 22.22091
#
# Velocity S-wave (km/s) = 3.64696 3.75985 3.70383
# Velocity P-wave (km/s) = 6.92566 7.09193 7.00929
#
# Compressibility (1/GPa) = 0.02042154
#
# Stress axis : x y z
#
# Youngs Moduli (GPa) = 63.14171 41.91493 75.81678
#
# Poissons Ratio (x) = 0.36601 0.12460
# Poissons Ratio (y) = 0.55136 0.44399
# Poissons Ratio (z) = 0.10377 0.24546
#
# Static dielectric constant tensor:
#      x y z
#    x 3.081490 0.000000 0.000510 
#    y 0.000000 2.840870 -0.000010 
#    z 0.000510 -0.000010 3.153470 
# 
# 
# High freq. dielectric constant tensor:
#      x y z
#    x 1.618630 0.000000 -0.006460 
#    y 0.000000 1.595530 0.000000 
#    z -0.006460 0.000000 1.637660 
# 
# From -- ./inp_files/283291.got.cif
#   From: 2010.06.25/outbox.cif.g09.slc.cpg/sg12_142_cif.got.tgz:283291.got - 2010.06.28 00:19:55.
