data_PCOD8079214
_publ_section_title
;
Structure prediction by ZEFSAII (Michael W. Deem and Ramdas Pophale) SiO2 
 PCOD8079214
Probable space group: C 2/M
;
_chemical_formula_sum "Si O2"
_cell_formula_units_Z 48
_cell_length_a 19.724873
_cell_length_b 11.706749
_cell_length_c 11.166309
_cell_angle_alpha 90.000000
_cell_angle_beta 105.130862
_cell_angle_gamma 90.000000
_cell_volume 2489.069049
_symmetry_space_group_name_H-M "C 2/M"
_symmetry_group_IT_number 12
_symmetry_cell_setting 'monoclinic'
loop_
_space_group_symop_operation_xyz
x,y,z
-x,y,-z
-x,-y,-z
x,-y,z
1/2+x,1/2+y,z
1/2-x,1/2+y,-z
1/2-x,1/2-y,-z
1/2+x,1/2-y,z
loop_
_atom_site_type_symbol
_atom_site_label
_atom_site_fract_x
_atom_site_fract_y
_atom_site_fract_z
Si Si1 0.045308 0.627211 0.899778
Si Si2 0.538103 0.500000 0.335333
Si Si3 0.721759 0.684598 0.671123
Si Si4 0.670100 0.870401 0.485281
Si Si5 0.393821 0.500000 0.376019
Si Si6 0.065178 0.751574 0.278651
Si Si7 0.342635 0.134793 0.876453
O O1 0.041337 0.500000 0.844821
O O2 0.015258 0.709396 0.781464
O O3 0.126507 0.656872 0.975097
O O4 0.000000 0.635258 0.000000
O O5 0.453384 0.500000 0.300983
O O6 0.569119 0.500000 0.480532
O O7 0.566104 0.388450 0.279959
O O8 0.701593 0.812376 0.620021
O O9 0.771595 0.629157 0.592448
O O10 0.651762 0.613273 0.657930
O O11 0.763256 0.680306 0.818084
O O12 0.599465 0.801322 0.414952
O O13 0.650001 0.000000 0.507704
O O14 0.110784 0.709018 0.190522
O O15 0.348799 0.000000 0.847727
#
# Coordination Sequence:
#
# PCOD8079214 Si02
#       7
#     8   4   8   8   4   8   8
#     4   8  14  26  47  73 101 123 149 197 251 295
#     4  11  24  32  49  66  96 142 172 191 226 284
#     4  10  17  29  50  71  97 123 158 196 240 287
#     4  10  18  27  48  77  99 119 147 203 258 289
#     4  11  20  38  48  66  97 134 172 196 222 294
#     4  10  17  30  45  70 102 124 163 197 237 291
#     4   9  16  28  51  80 100 122 154 202 255 289
#
# _framework density 19.284317999999999
#
# number of rings (size 3 to 8) (size 9 to 14) (size 15 to 20)
#    0.000    2.333    3.333    3.500    0.000    0.000 
#    0.000    3.750    0.000    5.000    0.000    0.000 
#    0.000    0.000    0.000    0.000    0.000    0.000 
#
# Total GULP energy -297333.627520 kJ/mol
# GULP energy per Si atom -12388.901147 kJ/mol
# Density = 1.924043 g / cm^3
# Si number density = 19.284318 Si / 1000 Ang^3
#
#
#
# Elastic Constant Matrix: (Units=GPa)
#
#
# Indices 1 2 3 4 5 6 
#
# 1 65.6891 35.5101 36.4723 0.0000 33.0500 0.0000
# 2 35.5101 160.0712 50.5228 0.0000 28.6434 0.0000
# 3 36.4723 50.5228 64.3126 0.0000 42.6880 0.0000
# 4 0.0000 0.0000 0.0000 -42.9269 0.0000 25.7373
# 5 33.0500 28.6434 42.6880 0.0000 36.1765 0.0000
# 6 0.0000 0.0000 0.0000 25.7373 0.0000 19.7213
#
#
#
# Elastic Compliance Matrix: (Units=1/GPa)
#
#
# Indices 1 2 3 4 5 6 
#
# 1 0.029645 -0.003126 0.009122 0.000000 -0.035372 0.000000
# 2 -0.003126 0.008853 -0.011186 0.000000 0.009046 0.000000
# 3 0.009122 -0.011186 0.086802 0.000000 -0.101903 0.000000
# 4 0.000000 0.000000 0.000000 -0.013069 0.000000 0.017056
# 5 -0.035372 0.009046 -0.101903 0.000000 0.173039 0.000000
# 6 0.000000 0.000000 0.000000 0.017056 0.000000 0.028448
#
#
# Mechanical properties :
#
#
# Convention : Reuss Voigt Hill
#
# Bulk Modulus (GPa) = 8.70176 59.45370 34.07773
# Shear Modulus (GPa) = 13.79681 13.76534 13.78108
#
# Velocity S-wave (km/s) = 2.67768 2.67462 2.67615
# Velocity P-wave (km/s) = 3.75261 6.35886 5.22098
#
# Compressibility (1/GPa) = 0.11491928
#
# Stress axis : x y z
#
# Youngs Moduli (GPa) = 33.73285 112.96123 11.52047
#
# Poissons Ratio (x) = 0.35313 -0.10509
# Poissons Ratio (y) = 0.10545 0.12887
# Poissons Ratio (z) = -0.30772 1.26359
#
# Static dielectric constant tensor:
#      x y z
#    x 3.663830 0.000000 1.025340 
#    y 0.000000 3.505660 0.000000 
#    z 1.025340 0.000000 3.914660 
# 
# 
# High freq. dielectric constant tensor:
#      x y z
#    x 1.719270 0.000000 0.060220 
#    y 0.000000 1.746340 0.000000 
#    z 0.060220 0.000000 1.727990 
# 
# From -- ./inp_files/173512.got.cif
#   From: 2010.06.25/outbox.cif.g09.slc.cpg/sg12_87_cif.got.tgz:173512.got - 2010.06.28 00:19:55.
