data_PCOD8079081
_publ_section_title
;
Structure prediction by ZEFSAII (Michael W. Deem and Ramdas Pophale) SiO2 
 PCOD8079081
Probable space group: C 2/M
;
_chemical_formula_sum "Si O2"
_cell_formula_units_Z 56
_cell_length_a 20.768292
_cell_length_b 8.900417
_cell_length_c 17.309760
_cell_angle_alpha 90.000000
_cell_angle_beta 105.403791
_cell_angle_gamma 90.000000
_cell_volume 3084.709556
_symmetry_space_group_name_H-M "C 2/M"
_symmetry_group_IT_number 12
_symmetry_cell_setting 'monoclinic'
loop_
_space_group_symop_operation_xyz
x,y,z
-x,y,-z
-x,-y,-z
x,-y,z
1/2+x,1/2+y,z
1/2-x,1/2+y,-z
1/2-x,1/2-y,-z
1/2+x,1/2-y,z
loop_
_atom_site_type_symbol
_atom_site_label
_atom_site_fract_x
_atom_site_fract_y
_atom_site_fract_z
Si Si1 0.151717 0.321243 0.101350
Si Si2 0.073202 0.834018 0.487554
Si Si3 0.210538 0.321511 0.812243
Si Si4 0.470044 0.824844 0.836104
Si Si5 0.618561 0.322162 0.663352
Si Si6 0.982225 0.673911 0.666068
Si Si7 0.384289 0.821678 0.081217
O O1 0.159327 0.500000 0.111124
O O2 0.215829 0.242358 0.156892
O O3 0.088400 0.258154 0.129145
O O4 0.142932 0.269191 0.010210
O O5 0.121653 0.780576 0.572675
O O6 0.073885 0.722028 0.414629
O O7 0.000000 0.839536 0.500000
O O8 0.093796 0.000000 0.464981
O O9 0.212511 0.500000 0.810589
O O10 0.180491 0.260168 0.722778
O O11 0.165718 0.260615 0.869107
O O12 0.452235 0.794287 0.741040
O O13 0.541818 0.752822 0.881090
O O14 0.474781 0.000000 0.855426
O O15 0.623374 0.500000 0.676731
O O16 0.549759 0.267550 0.679386
O O17 0.000281 0.500000 0.660415
O O18 0.387813 0.000000 0.087643
#
# Coordination Sequence:
#
# PCOD8079081 Si02
#       7
#     8   8   8   8   8   8   8
#     4  10  20  34  54  75 100 138 177 207 247 306
#     4   8  16  29  45  70 103 132 163 206 250 298
#     4  11  21  34  52  75 107 134 165 216 262 301
#     4   9  17  31  52  78 104 133 172 212 247 294
#     4  10  19  32  50  73 101 134 172 208 248 302
#     4  10  17  28  49  77 106 132 164 208 256 298
#     4   9  17  32  54  77  99 131 174 216 252 294
#
# _framework density 18.154060000000001
#
# number of rings (size 3 to 8) (size 9 to 14) (size 15 to 20)
#    0.000    2.429    1.429    3.000    0.000    4.857 
#    0.000    2.143    0.000    1.714    0.000    0.000 
#    0.000    0.000    0.000    0.000    0.000    0.000 
#
# Total GULP energy -347129.568598 kJ/mol
# GULP energy per Si atom -12397.484593 kJ/mol
# Density = 1.811274 g / cm^3
# Si number density = 18.154060 Si / 1000 Ang^3
#
#
#
# Elastic Constant Matrix: (Units=GPa)
#
#
# Indices 1 2 3 4 5 6 
#
# 1 88.5639 19.6169 37.7362 0.0000 18.1118 0.0000
# 2 19.6169 47.2298 31.4618 0.0000 7.5777 0.0000
# 3 37.7362 31.4618 115.7835 0.0000 28.0693 0.0000
# 4 0.0000 0.0000 0.0000 16.6481 0.0000 7.9580
# 5 18.1118 7.5777 28.0693 0.0000 19.6075 0.0000
# 6 0.0000 0.0000 0.0000 7.9580 0.0000 19.5796
#
#
#
# Elastic Compliance Matrix: (Units=1/GPa)
#
#
# Indices 1 2 3 4 5 6 
#
# 1 0.014770 -0.003588 -0.001328 0.000000 -0.010354 0.000000
# 2 -0.003588 0.026725 -0.006726 0.000000 0.002616 0.000000
# 3 -0.001328 -0.006726 0.015269 0.000000 -0.018032 0.000000
# 4 0.000000 0.000000 0.000000 0.074551 0.000000 -0.030301
# 5 -0.010354 0.002616 -0.018032 0.000000 0.085368 0.000000
# 6 0.000000 0.000000 0.000000 -0.030301 0.000000 0.063389
#
#
# Mechanical properties :
#
#
# Convention : Reuss Voigt Hill
#
# Bulk Modulus (GPa) = 29.87154 47.68968 38.78061
# Shear Modulus (GPa) = 15.89741 22.01787 18.95764
#
# Velocity S-wave (km/s) = 2.96242 3.48636 3.23501
# Velocity P-wave (km/s) = 5.30956 6.52171 5.94660
#
# Compressibility (1/GPa) = 0.03347669
#
# Stress axis : x y z
#
# Youngs Moduli (GPa) = 67.70625 37.41869 65.49237
#
# Poissons Ratio (x) = 0.13427 0.08700
# Poissons Ratio (y) = 0.24295 0.44053
# Poissons Ratio (z) = 0.08995 0.25170
#
# Static dielectric constant tensor:
#      x y z
#    x 3.182610 0.000000 0.087750 
#    y 0.000000 3.141210 0.000000 
#    z 0.087750 0.000000 3.809280 
# 
# 
# High freq. dielectric constant tensor:
#      x y z
#    x 1.671350 0.000000 0.009870 
#    y 0.000000 1.679290 0.000000 
#    z 0.009870 0.000000 1.722050 
# 
# From -- ./inp_files/280435.got.cif
#   From: 2010.06.25/outbox.cif.g09.slc.cpg/sg12_141_cif.got.tgz:280435.got - 2010.06.28 00:19:55.
