data_PCOD8079041
_publ_section_title
;
Structure prediction by ZEFSAII (Michael W. Deem and Ramdas Pophale) SiO2 
 PCOD8079041
Probable space group: C 2/M
;
_chemical_formula_sum "Si O2"
_cell_formula_units_Z 64
_cell_length_a 24.963504
_cell_length_b 8.925574
_cell_length_c 17.677791
_cell_angle_alpha 90.000000
_cell_angle_beta 103.729673
_cell_angle_gamma 90.000000
_cell_volume 3826.304840
_symmetry_space_group_name_H-M "C 2/M"
_symmetry_group_IT_number 12
_symmetry_cell_setting 'monoclinic'
loop_
_space_group_symop_operation_xyz
x,y,z
-x,y,-z
-x,-y,-z
x,-y,z
1/2+x,1/2+y,z
1/2-x,1/2+y,-z
1/2-x,1/2-y,-z
1/2+x,1/2-y,z
loop_
_atom_site_type_symbol
_atom_site_label
_atom_site_fract_x
_atom_site_fract_y
_atom_site_fract_z
Si Si1 0.569554 0.176207 0.914646
Si Si2 0.236345 0.823485 0.074401
Si Si3 0.614398 0.322400 0.075636
Si Si4 0.653337 0.823700 0.816939
Si Si5 0.032775 0.822340 0.335308
Si Si6 0.051194 0.676065 0.187101
Si Si7 0.919040 0.676129 0.342613
Si Si8 0.435334 0.665635 0.493998
O O1 0.614470 0.241324 0.870636
O O2 0.509798 0.214655 0.862018
O O3 0.576407 0.000000 0.932348
O O4 0.576076 0.262096 0.995609
O O5 0.177336 0.769330 0.084435
O O6 0.283476 0.772286 0.150124
O O7 0.237237 0.000000 0.062610
O O8 0.250000 0.750000 0.000000
O O9 0.608927 0.500000 0.078386
O O10 0.595872 0.250218 0.147717
O O11 0.632507 0.773595 0.727045
O O12 0.647526 0.000000 0.821484
O O13 0.060958 0.746747 0.272717
O O14 0.071641 0.783071 0.421009
O O15 0.971971 0.757749 0.326704
O O16 0.027890 0.000000 0.323144
O O17 0.061448 0.500000 0.194749
O O18 0.930056 0.500000 0.342858
O O19 0.905792 0.723176 0.424756
O O20 0.500000 0.662791 0.500000
O O21 0.410327 0.500000 0.473365
#
# Coordination Sequence:
#
# PCOD8079041 Si02
#       8
#     8   8   8   8   8   8   8   8
#     4  10  19  34  52  69  95 131 165 197 241 290
#     4  10  20  35  53  70  93 125 163 204 245 287
#     4  11  23  35  49  73  97 125 166 206 245 286
#     4   9  17  31  50  71  97 128 161 200 242 284
#     4  10  19  31  47  68 100 133 159 194 241 288
#     4  11  22  35  51  71  96 131 168 198 238 291
#     4  10  17  28  47  72  98 128 165 198 234 285
#     4   8  16  29  43  65  98 133 158 187 239 290
#
# _framework density 16.726320000000001
#
# number of rings (size 3 to 8) (size 9 to 14) (size 15 to 20)
#    0.000    2.125    2.500    2.625    0.000    5.750 
#    0.000    1.250    0.000    0.000    0.000    0.875 
#    0.000    0.000    0.000    0.000    0.000    0.000 
#
# Total GULP energy -396734.603823 kJ/mol
# GULP energy per Si atom -12397.956369 kJ/mol
# Density = 1.668825 g / cm^3
# Si number density = 16.726320 Si / 1000 Ang^3
#
#
#
# Elastic Constant Matrix: (Units=GPa)
#
#
# Indices 1 2 3 4 5 6 
#
# 1 72.3705 32.9936 49.8237 0.0000 -9.3576 0.0000
# 2 32.9936 60.1504 47.7754 0.0000 -5.0281 0.0000
# 3 49.8237 47.7754 150.5459 0.0000 -9.3239 0.0000
# 4 0.0000 0.0000 0.0000 30.8447 0.0000 -4.6486
# 5 -9.3576 -5.0281 -9.3239 0.0000 21.3513 0.0000
# 6 0.0000 0.0000 0.0000 -4.6486 0.0000 16.9678
#
#
#
# Elastic Compliance Matrix: (Units=1/GPa)
#
#
# Indices 1 2 3 4 5 6 
#
# 1 0.020892 -0.007724 -0.004120 0.000000 0.005538 0.000000
# 2 -0.007724 0.025186 -0.005425 0.000000 0.000177 0.000000
# 3 -0.004120 -0.005425 0.009802 0.000000 0.001197 0.000000
# 4 0.000000 0.000000 0.000000 0.033817 0.000000 0.009265
# 5 0.005538 0.000177 0.001197 0.000000 0.049827 0.000000
# 6 0.000000 0.000000 0.000000 0.009265 0.000000 0.061473
#
#
# Mechanical properties :
#
#
# Convention : Reuss Voigt Hill
#
# Bulk Modulus (GPa) = 46.85956 60.47245 53.66600
# Shear Modulus (GPa) = 20.60591 23.99771 22.30181
#
# Velocity S-wave (km/s) = 3.51372 3.79189 3.65545
# Velocity P-wave (km/s) = 6.67367 7.44337 7.06900
#
# Compressibility (1/GPa) = 0.02134036
#
# Stress axis : x y z
#
# Youngs Moduli (GPa) = 47.86594 39.70495 102.02151
#
# Poissons Ratio (x) = 0.30669 0.42032
# Poissons Ratio (y) = 0.36973 0.55350
# Poissons Ratio (z) = 0.19720 0.21541
#
# Static dielectric constant tensor:
#      x y z
#    x 2.955200 0.000000 0.015140 
#    y 0.000000 3.111290 0.000000 
#    z 0.015140 0.000000 3.507770 
# 
# 
# High freq. dielectric constant tensor:
#      x y z
#    x 1.606720 0.000000 0.000720 
#    y 0.000000 1.642950 0.000000 
#    z 0.000720 0.000000 1.655200 
# 
# From -- ./inp_files/287745.got.cif
#   From: 2010.06.25/outbox.cif.g09.slc.cpg/sg12_144_cif.got.tgz:287745.got - 2010.06.28 00:19:55.
