data_PCOD8079466
_publ_section_title
;
Structure prediction by ZEFSAII (Michael W. Deem and Ramdas Pophale) SiO2 
 PCOD8079466
Probable space group: C 2/M
;
_chemical_formula_sum "Si O2"
_cell_formula_units_Z 48
_cell_length_a 11.962394
_cell_length_b 16.999002
_cell_length_c 12.856205
_cell_angle_alpha 90.000000
_cell_angle_beta 73.122871
_cell_angle_gamma 90.000000
_cell_volume 2501.694545
_symmetry_space_group_name_H-M "C 2/M"
_symmetry_group_IT_number 12
_symmetry_cell_setting 'monoclinic'
loop_
_space_group_symop_operation_xyz
x,y,z
-x,y,-z
-x,-y,-z
x,-y,z
1/2+x,1/2+y,z
1/2-x,1/2+y,-z
1/2-x,1/2-y,-z
1/2+x,1/2-y,z
loop_
_atom_site_type_symbol
_atom_site_label
_atom_site_fract_x
_atom_site_fract_y
_atom_site_fract_z
Si Si1 0.317265 0.909674 0.881895
Si Si2 0.700729 0.309590 0.732522
Si Si3 0.492610 0.412923 0.305517
Si Si4 0.516126 0.779465 0.170898
Si Si5 0.924656 0.231715 0.618643
Si Si6 0.905397 0.874723 0.936157
O O1 0.264593 0.865163 0.797358
O O2 0.440368 0.865790 0.878359
O O3 0.346418 0.000000 0.847792
O O4 0.223076 0.905239 0.999677
O O5 0.628943 0.365587 0.674164
O O6 0.617353 0.247203 0.818431
O O7 0.791491 0.259792 0.638977
O O8 0.470485 0.500000 0.356648
O O9 0.571177 0.363178 0.365944
O O10 0.554910 0.421109 0.177178
O O11 0.524187 0.773855 0.293260
O O12 0.601457 0.717885 0.089484
O O13 0.000000 0.258887 0.500000
O O14 0.000000 0.893511 0.000000
#
# Coordination Sequence:
#
# PCOD8079466 Si02
#       6
#     8   8   8   8   8   8
#     4  11  19  30  52  78 106 133 164 208 250 286
#     4   9  18  34  53  73  98 133 170 201 246 302
#     4  10  20  32  50  79 104 125 167 213 248 288
#     4   9  20  33  49  78 101 133 171 205 242 299
#     4   9  19  35  55  74  97 131 170 207 250 300
#     4  10  17  31  53  75  99 139 171 198 240 298
#
# _framework density 19.186995
#
# number of rings (size 3 to 8) (size 9 to 14) (size 15 to 20)
#    0.000    2.667    3.333    1.500    0.000    3.667 
#    0.000    0.833    0.000   17.000    0.000    0.000 
#    0.000    0.000    0.000    0.000    0.000    0.000 
#
# Total GULP energy -297361.243806 kJ/mol
# GULP energy per Si atom -12390.051825 kJ/mol
# Density = 1.914332 g / cm^3
# Si number density = 19.186995 Si / 1000 Ang^3
#
#
#
# Elastic Constant Matrix: (Units=GPa)
#
#
# Indices 1 2 3 4 5 6 
#
# 1 64.1736 74.7689 16.9837 0.0000 -28.4567 0.0000
# 2 74.7689 147.9801 25.4479 0.0000 -19.7845 0.0000
# 3 16.9837 25.4479 58.9830 0.0000 -16.9948 0.0000
# 4 0.0000 0.0000 0.0000 7.2903 0.0000 0.1859
# 5 -28.4567 -19.7845 -16.9948 0.0000 22.4650 0.0000
# 6 0.0000 0.0000 0.0000 0.1859 0.0000 23.6527
#
#
#
# Elastic Compliance Matrix: (Units=1/GPa)
#
#
# Indices 1 2 3 4 5 6 
#
# 1 0.131694 -0.052133 0.024818 0.000000 0.139680 0.000000
# 2 -0.052133 0.028440 -0.011597 0.000000 -0.049765 0.000000
# 3 0.024818 -0.011597 0.026759 0.000000 0.041467 0.000000
# 4 0.000000 0.000000 0.000000 0.137197 0.000000 -0.001078
# 5 0.139680 -0.049765 0.041467 0.000000 0.208991 0.000000
# 6 0.000000 0.000000 0.000000 -0.001078 0.000000 0.042287
#
#
# Mechanical properties :
#
#
# Convention : Reuss Voigt Hill
#
# Bulk Modulus (GPa) = 9.16859 56.17086 32.66973
# Shear Modulus (GPa) = 7.25112 20.94400 14.09756
#
# Velocity S-wave (km/s) = 1.94612 3.30748 2.71356
# Velocity P-wave (km/s) = 3.13668 6.62759 5.18477
#
# Compressibility (1/GPa) = 0.10906804
#
# Stress axis : x y z
#
# Youngs Moduli (GPa) = 7.59336 35.16209 37.37005
#
# Poissons Ratio (x) = 1.83312 -0.92746
# Poissons Ratio (y) = 0.39587 0.43340
# Poissons Ratio (z) = -0.18845 0.40779
#
# Static dielectric constant tensor:
#      x y z
#    x 3.732930 0.000000 -0.149060 
#    y 0.000000 3.542170 0.000000 
#    z -0.149060 0.000000 3.305250 
# 
# 
# High freq. dielectric constant tensor:
#      x y z
#    x 1.727990 0.000000 -0.009640 
#    y 0.000000 1.736060 0.000000 
#    z -0.009640 0.000000 1.729200 
# 
# From -- ./inp_files/131088.got.cif
#   From: 2010.06.25/outbox.cif.g09.slc.cpg/sg12_66_cif.got.tgz:131088.got - 2010.06.28 00:19:55.
