data_PCOD8079606
_publ_section_title
;
Structure prediction by ZEFSAII (Michael W. Deem and Ramdas Pophale) SiO2 
 PCOD8079606
Probable space group: C 2/M
;
_chemical_formula_sum "Si O2"
_cell_formula_units_Z 64
_cell_length_a 18.143449
_cell_length_b 20.972443
_cell_length_c 9.146144
_cell_angle_alpha 90.000000
_cell_angle_beta 89.738425
_cell_angle_gamma 90.000000
_cell_volume 3480.185393
_symmetry_space_group_name_H-M "C 2/M"
_symmetry_group_IT_number 12
_symmetry_cell_setting 'monoclinic'
loop_
_space_group_symop_operation_xyz
x,y,z
-x,y,-z
-x,-y,-z
x,-y,z
1/2+x,1/2+y,z
1/2-x,1/2+y,-z
1/2-x,1/2-y,-z
1/2+x,1/2-y,z
loop_
_atom_site_type_symbol
_atom_site_label
_atom_site_fract_x
_atom_site_fract_y
_atom_site_fract_z
Si Si1 0.732756 0.573359 0.009493
Si Si2 0.976815 0.202023 0.836463
Si Si3 0.839814 0.244325 0.667890
Si Si4 0.411108 0.428867 0.804749
Si Si5 0.112929 0.248323 0.664180
Si Si6 0.790045 0.644753 0.267502
Si Si7 0.303051 0.571153 0.542559
Si Si8 0.227917 0.847564 0.725151
O O1 0.759897 0.500000 0.014838
O O2 0.649315 0.578654 0.067371
O O3 0.786123 0.619910 0.101616
O O4 0.737981 0.599325 0.846867
O O5 0.897432 0.231653 0.798028
O O6 0.974057 0.124600 0.824761
O O7 0.031320 0.230956 0.714961
O O8 0.000000 0.222299 0.000000
O O9 0.877231 0.236644 0.508811
O O10 0.774222 0.194120 0.685165
O O11 0.806615 0.315648 0.684702
O O12 0.446641 0.500000 0.811967
O O13 0.372488 0.418154 0.648933
O O14 0.131096 0.322551 0.702163
O O15 0.169147 0.207410 0.765642
O O16 0.774014 0.583465 0.370232
O O17 0.301251 0.500000 0.481462
O O18 0.311276 0.618652 0.409728
#
# Coordination Sequence:
#
# PCOD8079606 Si02
#       8
#     8   8   8   8   8   8   8   8
#     4  10  20  33  56  85 116 147 182 230 282 340
#     4  12  24  36  54  82 112 158 198 225 279 337
#     4  11  21  38  56  78 114 152 182 245 289 329
#     4   9  19  38  56  76 116 159 190 224 271 331
#     4  11  22  35  58  82 111 149 192 241 278 336
#     4  10  18  36  58  81 109 145 189 229 297 331
#     4  10  17  32  59  83 109 144 184 227 278 340
#     4  11  20  34  56  85 116 139 187 241 293 330
#
# _framework density 18.389824000000001
#
# number of rings (size 3 to 8) (size 9 to 14) (size 15 to 20)
#    0.000    1.500    5.000    3.375    1.750    1.250 
#    0.000    1.250    0.000    2.250    0.000    5.250 
#    0.000    0.000    0.000    0.000    0.000    0.000 
#
# Total GULP energy -396666.131508 kJ/mol
# GULP energy per Si atom -12395.816610 kJ/mol
# Density = 1.834797 g / cm^3
# Si number density = 18.389824 Si / 1000 Ang^3
#
#
#
# Elastic Constant Matrix: (Units=GPa)
#
#
# Indices 1 2 3 4 5 6 
#
# 1 52.4776 22.1697 15.7259 0.0000 -1.5963 0.0000
# 2 22.1697 56.4087 29.4763 0.0000 2.2556 0.0000
# 3 15.7259 29.4763 101.0845 0.0000 1.8204 0.0000
# 4 0.0000 0.0000 0.0000 31.0965 0.0000 5.2290
# 5 -1.5963 2.2556 1.8204 0.0000 20.9215 0.0000
# 6 0.0000 0.0000 0.0000 5.2290 0.0000 30.9080
#
#
#
# Elastic Compliance Matrix: (Units=1/GPa)
#
#
# Indices 1 2 3 4 5 6 
#
# 1 0.023116 -0.008602 -0.001138 0.000000 0.002790 0.000000
# 2 -0.008602 0.024178 -0.005662 0.000000 -0.002770 0.000000
# 3 -0.001138 -0.005662 0.011730 0.000000 -0.000497 0.000000
# 4 0.000000 0.000000 0.000000 0.033100 0.000000 -0.005600
# 5 0.002790 -0.002770 -0.000497 0.000000 0.048353 0.000000
# 6 0.000000 0.000000 0.000000 -0.005600 0.000000 0.033301
#
#
# Mechanical properties :
#
#
# Convention : Reuss Voigt Hill
#
# Bulk Modulus (GPa) = 35.43680 38.30163 36.86921
# Shear Modulus (GPa) = 23.36585 26.09178 24.72881
#
# Velocity S-wave (km/s) = 3.56839 3.77080 3.67099
# Velocity P-wave (km/s) = 6.02408 6.31122 6.16932
#
# Compressibility (1/GPa) = 0.02821925
#
# Stress axis : x y z
#
# Youngs Moduli (GPa) = 43.26086 41.35996 85.25274
#
# Poissons Ratio (x) = 0.35577 0.09703
# Poissons Ratio (y) = 0.37212 0.48272
# Poissons Ratio (z) = 0.04924 0.23419
#
# Static dielectric constant tensor:
#      x y z
#    x 3.137140 0.000000 0.089090 
#    y 0.000000 3.716910 0.000000 
#    z 0.089090 0.000000 3.372770 
# 
# 
# High freq. dielectric constant tensor:
#      x y z
#    x 1.666410 0.000000 0.006930 
#    y 0.000000 1.718800 0.000000 
#    z 0.006930 0.000000 1.720720 
# 
# From -- ./inp_files/77509.got.cif
#   From: 2010.06.25/outbox.cif.g09.slc.cpg/sg12_39_cif.got.tgz:77509.got - 2010.06.28 00:19:55.
