data_PCOD8079211
_publ_section_title
;
Structure prediction by ZEFSAII (Michael W. Deem and Ramdas Pophale) SiO2 
 PCOD8079211
Probable space group: C 2/M
;
_chemical_formula_sum "Si O2"
_cell_formula_units_Z 48
_cell_length_a 21.389354
_cell_length_b 27.761133
_cell_length_c 10.024291
_cell_angle_alpha 90.000000
_cell_angle_beta 154.013963
_cell_angle_gamma 90.000000
_cell_volume 2608.035001
_symmetry_space_group_name_H-M "C 2/M"
_symmetry_group_IT_number 12
_symmetry_cell_setting 'monoclinic'
loop_
_space_group_symop_operation_xyz
x,y,z
-x,y,-z
-x,-y,-z
x,-y,z
1/2+x,1/2+y,z
1/2-x,1/2+y,-z
1/2-x,1/2-y,-z
1/2+x,1/2-y,z
loop_
_atom_site_type_symbol
_atom_site_label
_atom_site_fract_x
_atom_site_fract_y
_atom_site_fract_z
Si Si1 0.193819 0.785031 0.007078
Si Si2 0.653834 0.390982 0.840806
Si Si3 0.007133 0.295119 0.355019
Si Si4 0.317934 0.943146 0.379209
Si Si5 0.666770 0.052789 0.297416
Si Si6 0.617123 0.893105 0.948226
O O1 0.324593 0.794304 0.361148
O O2 0.250000 0.750000 0.000000
O O3 0.137392 0.834366 0.837581
O O4 0.062228 0.756077 0.821272
O O5 0.500000 0.410692 0.500000
O O6 0.698369 0.418816 0.059171
O O7 0.771982 0.401744 0.956831
O O8 0.926121 0.337195 0.120730
O O9 0.000000 0.306362 0.500000
O O10 0.269736 0.930184 0.438518
O O11 0.475747 0.923899 0.646836
O O12 0.320306 0.000000 0.360452
O O13 0.728304 0.000000 0.374883
O O14 0.500000 0.047477 0.000000
O O15 0.696398 0.091064 0.237007
#
# Coordination Sequence:
#
# PCOD8079211 Si02
#       6
#     8   8   8   8   8   8
#     4  10  18  31  49  77 113 144 179 222 268 328
#     4  12  23  34  52  85 117 146 181 228 279 321
#     4  10  17  29  49  80 110 143 179 222 274 319
#     4  10  21  39  59  81 111 143 184 232 277 332
#     4   8  17  34  58  82 103 139 186 230 276 325
#     4  11  18  33  57  86 107 139 191 228 272 324
#
# _framework density 18.40466
#
# number of rings (size 3 to 8) (size 9 to 14) (size 15 to 20)
#    0.000    1.833    5.000    3.500    0.000    2.333 
#    0.000    0.833    0.000    3.000    0.000    0.000 
#    0.000    0.000    0.000    0.000    0.000    0.000 
#
# Total GULP energy -297474.997495 kJ/mol
# GULP energy per Si atom -12394.791562 kJ/mol
# Density = 1.836277 g / cm^3
# Si number density = 18.404660 Si / 1000 Ang^3
#
#
#
# Elastic Constant Matrix: (Units=GPa)
#
#
# Indices 1 2 3 4 5 6 
#
# 1 49.7697 45.5576 51.4837 0.0000 -18.2263 0.0000
# 2 45.5576 112.1236 52.0396 0.0000 -21.1287 0.0000
# 3 51.4837 52.0396 129.8912 0.0000 -10.3044 0.0000
# 4 0.0000 0.0000 0.0000 10.3026 0.0000 9.6985
# 5 -18.2263 -21.1287 -10.3044 0.0000 24.2459 0.0000
# 6 0.0000 0.0000 0.0000 9.6985 0.0000 15.8219
#
#
#
# Elastic Compliance Matrix: (Units=1/GPa)
#
#
# Indices 1 2 3 4 5 6 
#
# 1 0.055245 -0.010266 -0.015729 0.000000 0.025898 0.000000
# 2 -0.010266 0.014576 -0.001423 0.000000 0.004380 0.000000
# 3 -0.015729 -0.001423 0.013937 0.000000 -0.007141 0.000000
# 4 0.000000 0.000000 0.000000 0.229478 0.000000 -0.140665
# 5 0.025898 0.004380 -0.007141 0.000000 0.061494 0.000000
# 6 0.000000 0.000000 0.000000 -0.140665 0.000000 0.149428
#
#
# Mechanical properties :
#
#
# Convention : Reuss Voigt Hill
#
# Bulk Modulus (GPa) = 34.57764 65.54958 50.06361
# Shear Modulus (GPa) = 8.49422 19.58768 14.04095
#
# Velocity S-wave (km/s) = 2.15065 3.26587 2.76506
# Velocity P-wave (km/s) = 4.99953 7.06500 6.12003
#
# Compressibility (1/GPa) = 0.02892042
#
# Stress axis : x y z
#
# Youngs Moduli (GPa) = 18.10111 68.60647 71.75223
#
# Poissons Ratio (x) = 0.70434 1.12862
# Poissons Ratio (y) = 0.18583 0.10211
# Poissons Ratio (z) = 0.28472 0.09763
#
# Static dielectric constant tensor:
#      x y z
#    x 3.356480 0.000000 0.016000 
#    y 0.000000 3.586260 0.000000 
#    z 0.016000 0.000000 3.976770 
# 
# 
# High freq. dielectric constant tensor:
#      x y z
#    x 1.665620 0.000000 0.003260 
#    y 0.000000 1.722500 0.000000 
#    z 0.003260 0.000000 1.711000 
# 
# From -- ./inp_files/91271.got.cif
#   From: 2010.06.25/outbox.cif.g09.slc.cpg/sg12_46_cif.got.tgz:91271.got - 2010.06.28 00:19:55.
