data_PCOD8079107
_publ_section_title
;
Structure prediction by ZEFSAII (Michael W. Deem and Ramdas Pophale) SiO2 
 PCOD8079107
Probable space group: C 2/M
;
_chemical_formula_sum "Si O2"
_cell_formula_units_Z 56
_cell_length_a 21.416178
_cell_length_b 14.189894
_cell_length_c 10.205359
_cell_angle_alpha 90.000000
_cell_angle_beta 97.564512
_cell_angle_gamma 90.000000
_cell_volume 3074.350046
_symmetry_space_group_name_H-M "C 2/M"
_symmetry_group_IT_number 12
_symmetry_cell_setting 'monoclinic'
loop_
_space_group_symop_operation_xyz
x,y,z
-x,y,-z
-x,-y,-z
x,-y,z
1/2+x,1/2+y,z
1/2-x,1/2+y,-z
1/2-x,1/2-y,-z
1/2+x,1/2-y,z
loop_
_atom_site_type_symbol
_atom_site_label
_atom_site_fract_x
_atom_site_fract_y
_atom_site_fract_z
Si Si1 0.074505 0.605895 0.535863
Si Si2 0.882520 0.104252 0.281353
Si Si3 0.655115 0.214406 0.046686
Si Si4 0.437949 0.788002 0.209893
Si Si5 0.563163 0.394002 0.440590
Si Si6 0.218285 0.108333 0.950077
Si Si7 0.579743 0.782643 0.284860
O O1 0.101144 0.500000 0.548357
O O2 0.093924 0.658364 0.675324
O O3 0.103257 0.658207 0.417316
O O4 0.000000 0.607651 0.500000
O O5 0.932439 0.176077 0.231876
O O6 0.879831 0.114965 0.438277
O O7 0.812771 0.119353 0.202929
O O8 0.908224 0.000000 0.252482
O O9 0.709565 0.138263 0.039206
O O10 0.630466 0.202663 0.186458
O O11 0.599503 0.185960 0.931735
O O12 0.680443 0.321398 0.036477
O O13 0.511046 0.816315 0.214699
O O14 0.500000 0.361400 0.500000
O O15 0.556199 0.500000 0.384825
O O16 0.576543 0.327278 0.321932
O O17 0.213472 0.000000 0.999273
#
# Coordination Sequence:
#
# PCOD8079107 Si02
#       7
#     8   8   8   8   8   8   8
#     4   9  18  32  50  72 105 145 177 205 251 310
#     4   9  16  30  55  79 101 138 179 210 251 316
#     4  10  22  35  56  81 103 140 181 221 263 316
#     4  10  18  33  53  79 113 142 171 209 262 322
#     4  10  17  28  51  83 114 143 171 202 259 332
#     4   9  20  40  57  70 100 146 188 221 260 308
#     4  11  19  32  51  85 115 136 164 221 274 312
#
# _framework density 18.215232
#
# number of rings (size 3 to 8) (size 9 to 14) (size 15 to 20)
#    0.000    2.286    2.857    0.857    0.000    1.714 
#    0.000    0.714    0.000    8.571    0.000    0.000 
#    0.000    0.000    0.000    0.000    0.000    0.000 
#
# Total GULP energy -347097.820009 kJ/mol
# GULP energy per Si atom -12396.350715 kJ/mol
# Density = 1.817377 g / cm^3
# Si number density = 18.215232 Si / 1000 Ang^3
#
#
#
# Elastic Constant Matrix: (Units=GPa)
#
#
# Indices 1 2 3 4 5 6 
#
# 1 50.1283 18.9573 28.4495 0.0000 -6.6703 0.0000
# 2 18.9573 100.8602 34.6476 0.0000 -5.9414 0.0000
# 3 28.4495 34.6476 99.6420 0.0000 -14.8436 0.0000
# 4 0.0000 0.0000 0.0000 19.1037 0.0000 5.7388
# 5 -6.6703 -5.9414 -14.8436 0.0000 24.2219 0.0000
# 6 0.0000 0.0000 0.0000 5.7388 0.0000 16.3574
#
#
#
# Elastic Compliance Matrix: (Units=1/GPa)
#
#
# Indices 1 2 3 4 5 6 
#
# 1 0.024493 -0.002477 -0.005742 0.000000 0.002619 0.000000
# 2 -0.002477 0.011514 -0.003276 0.000000 0.000134 0.000000
# 3 -0.005742 -0.003276 0.013711 0.000000 0.006017 0.000000
# 4 0.000000 0.000000 0.000000 0.058513 0.000000 -0.020528
# 5 0.002619 0.000134 0.006017 0.000000 0.045727 0.000000
# 6 0.000000 0.000000 0.000000 -0.020528 0.000000 0.068336
#
#
# Mechanical properties :
#
#
# Convention : Reuss Voigt Hill
#
# Bulk Modulus (GPa) = 37.41486 46.08215 41.74850
# Shear Modulus (GPa) = 19.67018 23.17500 21.42259
#
# Velocity S-wave (km/s) = 3.28971 3.57078 3.43312
# Velocity P-wave (km/s) = 5.91731 6.50802 6.21968
#
# Compressibility (1/GPa) = 0.02672735
#
# Stress axis : x y z
#
# Youngs Moduli (GPa) = 40.82876 86.85330 72.93436
#
# Poissons Ratio (x) = 0.21513 0.41877
# Poissons Ratio (y) = 0.10113 0.23896
# Poissons Ratio (z) = 0.23443 0.28456
#
# Static dielectric constant tensor:
#      x y z
#    x 3.096830 0.000000 0.310780 
#    y 0.000000 3.514690 0.000000 
#    z 0.310780 0.000000 3.356230 
# 
# 
# High freq. dielectric constant tensor:
#      x y z
#    x 1.669890 0.000000 0.027490 
#    y 0.000000 1.714030 0.000000 
#    z 0.027490 0.000000 1.696890 
# 
# From -- ./inp_files/86382.got.cif
#   From: 2010.06.25/outbox.cif.g09.slc.cpg/sg12_44_cif.got.tgz:86382.got - 2010.06.28 00:19:55.
