data_PCOD8079523
_publ_section_title
;
Structure prediction by ZEFSAII (Michael W. Deem and Ramdas Pophale) SiO2 
 PCOD8079523
Probable space group: C 2/M
;
_chemical_formula_sum "Si O2"
_cell_formula_units_Z 64
_cell_length_a 18.164488
_cell_length_b 21.303326
_cell_length_c 9.691689
_cell_angle_alpha 90.000000
_cell_angle_beta 97.601704
_cell_angle_gamma 90.000000
_cell_volume 3717.375416
_symmetry_space_group_name_H-M "C 2/M"
_symmetry_group_IT_number 12
_symmetry_cell_setting 'monoclinic'
loop_
_space_group_symop_operation_xyz
x,y,z
-x,y,-z
-x,-y,-z
x,-y,z
1/2+x,1/2+y,z
1/2-x,1/2+y,-z
1/2-x,1/2-y,-z
1/2+x,1/2-y,z
loop_
_atom_site_type_symbol
_atom_site_label
_atom_site_fract_x
_atom_site_fract_y
_atom_site_fract_z
Si Si1 0.671870 0.929399 0.043891
Si Si2 0.887805 0.567444 0.261135
Si Si3 0.778227 0.192373 0.420899
Si Si4 0.947256 0.740867 0.864419
Si Si5 0.956847 0.603633 0.790443
Si Si6 0.427314 0.280535 0.567463
Si Si7 0.721191 0.794722 0.113889
Si Si8 0.634754 0.141274 0.476078
O O1 0.590630 0.922928 0.093748
O O2 0.724910 0.870653 0.095088
O O3 0.703254 0.000000 0.088100
O O4 0.667612 0.922318 0.878643
O O5 0.872694 0.500000 0.327685
O O6 0.873623 0.620845 0.368821
O O7 0.969673 0.564558 0.216499
O O8 0.750000 0.250000 0.500000
O O9 0.861556 0.174336 0.491630
O O10 0.773414 0.214480 0.260235
O O11 0.720002 0.137031 0.443095
O O12 0.982846 0.675203 0.824907
O O13 0.944828 0.789954 0.735224
O O14 0.863164 0.726980 0.887427
O O15 0.000000 0.768407 0.000000
O O16 0.909586 0.596674 0.638412
O O17 0.500000 0.297218 0.500000
O O18 0.400292 0.209960 0.537933
O O19 0.750000 0.750000 0.000000
#
# Coordination Sequence:
#
# PCOD8079523 Si02
#       8
#     8   8   8   8   8   8   8   8
#     4  10  21  35  48  70 107 144 185 227 269 313
#     4  11  22  30  46  73 102 147 189 221 251 294
#     4  10  19  37  50  72 103 134 179 218 276 324
#     4  10  19  32  46  76 105 136 178 214 265 316
#     4  10  17  32  47  68 100 144 189 219 249 296
#     4  10  20  31  52  71  96 137 167 218 274 321
#     4  11  22  35  55  81 101 147 184 224 273 319
#     4  10  19  33  48  68 102 136 179 218 262 306
#
# _framework density 17.216448
#
# number of rings (size 3 to 8) (size 9 to 14) (size 15 to 20)
#    0.000    1.750    5.000    4.125    5.250    2.500 
#    0.000    0.000    0.000    0.000    0.000    0.000 
#    0.000    2.500    0.000    0.125    0.000    0.125 
#
# Total GULP energy -396473.231924 kJ/mol
# GULP energy per Si atom -12389.788498 kJ/mol
# Density = 1.717726 g / cm^3
# Si number density = 17.216448 Si / 1000 Ang^3
#
#
#
# Elastic Constant Matrix: (Units=GPa)
#
#
# Indices 1 2 3 4 5 6 
#
# 1 79.2011 14.1130 33.0170 0.0000 9.2835 0.0000
# 2 14.1130 48.1007 28.0039 0.0000 -1.5121 0.0000
# 3 33.0170 28.0039 124.5934 0.0000 9.0178 0.0000
# 4 0.0000 0.0000 0.0000 14.3408 0.0000 0.3344
# 5 9.2835 -1.5121 9.0178 0.0000 31.0372 0.0000
# 6 0.0000 0.0000 0.0000 0.3344 0.0000 11.8705
#
#
#
# Elastic Compliance Matrix: (Units=1/GPa)
#
#
# Indices 1 2 3 4 5 6 
#
# 1 0.014808 -0.002681 -0.003056 0.000000 -0.003672 0.000000
# 2 -0.002681 0.024643 -0.005080 0.000000 0.003479 0.000000
# 3 -0.003056 -0.005080 0.010143 0.000000 -0.002280 0.000000
# 4 0.000000 0.000000 0.000000 0.069777 0.000000 -0.001966
# 5 -0.003672 0.003479 -0.002280 0.000000 0.034150 0.000000
# 6 0.000000 0.000000 0.000000 -0.001966 0.000000 0.084298
#
#
# Mechanical properties :
#
#
# Convention : Reuss Voigt Hill
#
# Bulk Modulus (GPa) = 35.76524 44.68477 40.22501
# Shear Modulus (GPa) = 18.60305 23.23379 20.91842
#
# Velocity S-wave (km/s) = 3.29072 3.67755 3.48950
# Velocity P-wave (km/s) = 5.93780 6.63653 6.29687
#
# Compressibility (1/GPa) = 0.02796011
#
# Stress axis : x y z
#
# Youngs Moduli (GPa) = 67.53055 40.57886 98.59260
#
# Poissons Ratio (x) = 0.10880 0.30127
# Poissons Ratio (y) = 0.18106 0.50087
# Poissons Ratio (z) = 0.20635 0.20615
#
# Static dielectric constant tensor:
#      x y z
#    x 1.368170 0.000000 -0.691600 
#    y 0.000000 3.084670 0.000000 
#    z -0.691600 0.000000 3.150390 
# 
# 
# High freq. dielectric constant tensor:
#      x y z
#    x 1.641170 0.000000 0.003640 
#    y 0.000000 1.615440 0.000000 
#    z 0.003640 0.000000 1.688540 
# 
# From -- ./inp_files/78789.got.cif
#   From: 2010.06.25/outbox.cif.g09.slc.cpg/sg12_40_cif.got.tgz:78789.got - 2010.06.28 00:19:55.
