data_PCOD8079691
_publ_section_title
;
Structure prediction by ZEFSAII (Michael W. Deem and Ramdas Pophale) SiO2 
 PCOD8079691
Probable space group: C 2/M
;
_chemical_formula_sum "Si O2"
_cell_formula_units_Z 48
_cell_length_a 18.015963
_cell_length_b 16.320024
_cell_length_c 17.148025
_cell_angle_alpha 90.000000
_cell_angle_beta 31.771027
_cell_angle_gamma 90.000000
_cell_volume 2654.679954
_symmetry_space_group_name_H-M "C 2/M"
_symmetry_group_IT_number 12
_symmetry_cell_setting 'monoclinic'
loop_
_space_group_symop_operation_xyz
x,y,z
-x,y,-z
-x,-y,-z
x,-y,z
1/2+x,1/2+y,z
1/2-x,1/2+y,-z
1/2-x,1/2-y,-z
1/2+x,1/2-y,z
loop_
_atom_site_type_symbol
_atom_site_label
_atom_site_fract_x
_atom_site_fract_y
_atom_site_fract_z
Si Si1 0.389472 0.198184 0.209986
Si Si2 0.603406 0.405709 0.189716
Si Si3 0.294020 0.199805 0.127906
Si Si4 0.786048 0.673962 0.911668
Si Si5 0.417454 0.905948 0.329003
Si Si6 0.822860 0.823793 0.390081
O O1 0.285954 0.190957 0.228375
O O2 0.353131 0.126487 0.304358
O O3 0.367840 0.289755 0.265067
O O4 0.549334 0.184384 0.042223
O O5 0.571577 0.500000 0.235639
O O6 0.693807 0.368981 0.180080
O O7 0.458484 0.356121 0.314854
O O8 0.687606 0.399434 0.031562
O O9 0.248100 0.292949 0.144730
O O10 0.948722 0.649504 0.769147
O O11 0.750000 0.750000 0.000000
O O12 0.297125 0.895071 0.503587
O O13 0.462520 0.000000 0.282041
O O14 0.750000 0.750000 0.500000
#
# Coordination Sequence:
#
# PCOD8079691 Si02
#       6
#     8   8   8   8   8   8
#     4  10  19  34  56  81 109 141 181 219 269 318
#     4  11  20  33  55  83 111 139 177 224 269 315
#     4  10  19  33  56  83 109 139 179 224 266 319
#     4  10  17  34  54  77 107 142 187 216 249 320
#     4  11  21  35  56  83 111 141 175 222 275 319
#     4  10  20  37  56  76 106 148 188 217 251 321
#
# _framework density 18.081275999999999
#
# number of rings (size 3 to 8) (size 9 to 14) (size 15 to 20)
#    0.000    1.667    5.000    4.000    0.000    0.667 
#    0.000    9.167    0.000   11.000    0.000    0.000 
#    0.000    0.000    0.000    0.000    0.000    0.000 
#
# Total GULP energy -297424.090306 kJ/mol
# GULP energy per Si atom -12392.670429 kJ/mol
# Density = 1.804012 g / cm^3
# Si number density = 18.081276 Si / 1000 Ang^3
#
#
#
# Elastic Constant Matrix: (Units=GPa)
#
#
# Indices 1 2 3 4 5 6 
#
# 1 78.2963 61.5002 32.6841 0.0001 -15.9376 -0.0012
# 2 61.5002 106.2326 32.7170 0.0004 -4.6046 0.0005
# 3 32.6841 32.7170 88.6063 0.0028 -19.6700 0.0000
# 4 0.0001 0.0004 0.0028 26.4193 -0.0004 -3.8329
# 5 -15.9376 -4.6046 -19.6700 -0.0004 21.7143 -0.0010
# 6 -0.0012 0.0005 0.0000 -3.8329 -0.0010 16.9248
#
#
#
# Elastic Compliance Matrix: (Units=1/GPa)
#
#
# Indices 1 2 3 4 5 6 
#
# 1 0.029063 -0.015738 -0.001145 0.000001 0.016957 0.000004
# 2 -0.015738 0.019189 -0.003681 0.000000 -0.010817 -0.000002
# 3 -0.001145 -0.003681 0.015906 -0.000001 0.012788 0.000000
# 4 0.000001 0.000000 -0.000001 0.039137 0.000001 0.008863
# 5 0.016957 -0.010817 0.012788 0.000001 0.067789 0.000006
# 6 0.000004 -0.000002 0.000000 0.008863 0.000006 0.061092
#
#
# Mechanical properties :
#
#
# Convention : Reuss Voigt Hill
#
# Bulk Modulus (GPa) = 43.42147 58.54865 50.98506
# Shear Modulus (GPa) = 17.79472 22.76059 20.27766
#
# Velocity S-wave (km/s) = 3.14052 3.55180 3.35247
# Velocity P-wave (km/s) = 6.10059 7.01936 6.57604
#
# Compressibility (1/GPa) = 0.02303008
#
# Stress axis : x y z
#
# Youngs Moduli (GPa) = 34.40757 52.11289 62.86753
#
# Poissons Ratio (x) = 0.82013 0.07200
# Poissons Ratio (y) = 0.54149 0.23145
# Poissons Ratio (z) = 0.03941 0.19185
#
# Static dielectric constant tensor:
#      x y z
#    x 3.554710 0.000000 0.072070 
#    y 0.000000 3.525600 0.000000 
#    z 0.072070 0.000000 3.675250 
# 
# 
# High freq. dielectric constant tensor:
#      x y z
#    x 1.677030 0.000000 -0.017150 
#    y 0.000000 1.689670 0.000000 
#    z -0.017150 0.000000 1.707790 
# 
# From -- ./inp_files/278523.got.cif
#   From: 2010.06.25/outbox.cif.g09.slc.cpg/sg12_140_cif.got.tgz:278523.got - 2010.06.28 00:19:55.
