data_PCOD8079174
_publ_section_title
;
Structure prediction by ZEFSAII (Michael W. Deem and Ramdas Pophale) SiO2 
 PCOD8079174
Probable space group: C 2/M
;
_chemical_formula_sum "Si O2"
_cell_formula_units_Z 64
_cell_length_a 24.343889
_cell_length_b 25.455729
_cell_length_c 18.206086
_cell_angle_alpha 90.000000
_cell_angle_beta 161.008838
_cell_angle_gamma 90.000000
_cell_volume 3671.465073
_symmetry_space_group_name_H-M "C 2/M"
_symmetry_group_IT_number 12
_symmetry_cell_setting 'monoclinic'
loop_
_space_group_symop_operation_xyz
x,y,z
-x,y,-z
-x,-y,-z
x,-y,z
1/2+x,1/2+y,z
1/2-x,1/2+y,-z
1/2-x,1/2-y,-z
1/2+x,1/2-y,z
loop_
_atom_site_type_symbol
_atom_site_label
_atom_site_fract_x
_atom_site_fract_y
_atom_site_fract_z
Si Si1 0.601286 0.312309 0.193435
Si Si2 0.330288 0.894563 0.742413
Si Si3 0.002476 0.439957 0.826996
Si Si4 0.956982 0.341511 0.679908
Si Si5 0.654122 0.440393 0.650029
Si Si6 0.892910 0.733855 0.236036
Si Si7 0.766176 0.212501 0.332004
Si Si8 0.627603 0.761186 0.009112
O O1 0.752711 0.345533 0.420685
O O2 0.683379 0.265127 0.253344
O O3 0.484924 0.288974 0.110674
O O4 0.500000 0.343762 0.000000
O O5 0.347615 0.921612 0.684471
O O6 0.174526 0.915413 0.594885
O O7 0.293868 0.832666 0.687627
O O8 0.500000 0.907907 0.000000
O O9 0.969935 0.500000 0.759804
O O10 0.015559 0.400496 0.774073
O O11 0.177689 0.435115 0.090307
O O12 0.028729 0.322636 0.690787
O O13 0.022381 0.298205 0.821056
O O14 0.500000 0.412962 0.500000
O O15 0.604064 0.500000 0.571603
O O16 0.032745 0.780013 0.414334
O O17 0.750000 0.750000 0.000000
O O18 0.798361 0.733151 0.194557
O O19 0.689150 0.201059 0.153589
#
# Coordination Sequence:
#
# PCOD8079174 Si02
#       8
#     8   8   8   8   8   8   8   8
#     4   9  18  31  48  68  92 120 150 185 230 287
#     4  10  18  29  46  69  94 126 161 192 228 276
#     4  10  20  33  49  67  90 125 168 207 237 271
#     4  10  19  32  47  67  95 122 155 195 240 283
#     4   9  18  31  45  64  92 124 158 195 233 273
#     4   9  20  31  42  65  97 128 159 191 228 278
#     4  10  18  29  45  68  97 125 154 185 226 279
#     4  10  17  29  48  71  97 124 153 187 229 287
#
# _framework density 17.431733999999999
#
# number of rings (size 3 to 8) (size 9 to 14) (size 15 to 20)
#    0.000    2.375    0.000    4.500    0.000    6.500 
#    0.000    0.000    0.000    0.375    0.000    0.000 
#    0.000   13.000    0.000    0.000    0.000    0.000 
#
# Total GULP energy -396484.712274 kJ/mol
# GULP energy per Si atom -12390.147259 kJ/mol
# Density = 1.739206 g / cm^3
# Si number density = 17.431734 Si / 1000 Ang^3
#
#
#
# Elastic Constant Matrix: (Units=GPa)
#
#
# Indices 1 2 3 4 5 6 
#
# 1 63.4812 23.4873 20.1218 0.0001 19.1547 0.0001
# 2 23.4873 66.6895 14.8487 0.0000 -3.1444 0.0000
# 3 20.1218 14.8487 75.7561 0.0002 10.2606 0.0002
# 4 0.0001 0.0000 0.0002 18.4748 0.0001 -0.5824
# 5 19.1547 -3.1444 10.2606 0.0001 27.2453 0.0001
# 6 0.0001 0.0000 0.0002 -0.5824 0.0001 22.1874
#
#
#
# Elastic Compliance Matrix: (Units=1/GPa)
#
#
# Indices 1 2 3 4 5 6 
#
# 1 0.025382 -0.009230 -0.002499 0.000000 -0.017969 0.000000
# 2 -0.009230 0.019292 -0.002645 0.000000 0.009712 0.000000
# 3 -0.002499 -0.002645 0.014948 0.000000 -0.004178 0.000000
# 4 0.000000 0.000000 0.000000 0.054173 0.000000 0.001422
# 5 -0.017969 0.009712 -0.004178 0.000000 0.052031 0.000000
# 6 0.000000 0.000000 0.000000 0.001422 0.000000 0.045108
#
#
# Mechanical properties :
#
#
# Convention : Reuss Voigt Hill
#
# Bulk Modulus (GPa) = 32.38941 35.87138 34.13040
# Shear Modulus (GPa) = 20.00215 23.41276 21.70745
#
# Velocity S-wave (km/s) = 3.39109 3.66882 3.53269
# Velocity P-wave (km/s) = 5.82698 6.21047 6.02178
#
# Compressibility (1/GPa) = 0.03087429
#
# Stress axis : x y z
#
# Youngs Moduli (GPa) = 39.39866 51.83373 66.89703
#
# Poissons Ratio (x) = 0.47842 0.16716
# Poissons Ratio (y) = 0.36365 0.17696
# Poissons Ratio (z) = 0.09845 0.13711
#
# Static dielectric constant tensor:
#      x y z
#    x 3.903110 0.000000 0.192090 
#    y 0.000000 3.003510 0.000000 
#    z 0.192090 0.000000 3.992530 
# 
# 
# High freq. dielectric constant tensor:
#      x y z
#    x 1.673570 0.000000 0.020660 
#    y 0.000000 1.632050 0.000000 
#    z 0.020660 0.000000 1.669580 
# 
# From -- ./inp_files/78801.got.cif
#   From: 2010.06.25/outbox.cif.g09.slc.cpg/sg12_40_cif.got.tgz:78801.got - 2010.06.28 00:19:55.
