data_PCOD8079049
_publ_section_title
;
Structure prediction by ZEFSAII (Michael W. Deem and Ramdas Pophale) SiO2 
 PCOD8079049
Probable space group: C 2/M
;
_chemical_formula_sum "Si O2"
_cell_formula_units_Z 40
_cell_length_a 25.868434
_cell_length_b 8.328459
_cell_length_c 9.075779
_cell_angle_alpha 90.000000
_cell_angle_beta 95.377136
_cell_angle_gamma 90.000000
_cell_volume 1946.719352
_symmetry_space_group_name_H-M "C 2/M"
_symmetry_group_IT_number 12
_symmetry_cell_setting 'monoclinic'
loop_
_space_group_symop_operation_xyz
x,y,z
-x,y,-z
-x,-y,-z
x,-y,z
1/2+x,1/2+y,z
1/2-x,1/2+y,-z
1/2-x,1/2-y,-z
1/2+x,1/2-y,z
loop_
_atom_site_type_symbol
_atom_site_label
_atom_site_fract_x
_atom_site_fract_y
_atom_site_fract_z
Si Si1 0.939878 0.688139 0.356244
Si Si2 0.164037 0.186941 0.625351
Si Si3 0.255337 0.314322 0.838268
Si Si4 0.150004 0.314435 0.298084
Si Si5 0.042736 0.186065 0.317001
O O1 0.941067 0.500000 0.390505
O O2 0.883085 0.743914 0.284108
O O3 0.948296 0.787657 0.507747
O O4 0.986807 0.735503 0.257385
O O5 0.217811 0.214170 0.722059
O O6 0.164365 0.280187 0.471147
O O7 0.156080 0.000000 0.591381
O O8 0.239988 0.500000 0.827816
O O9 0.314002 0.290279 0.799223
O O10 0.250000 0.250000 0.000000
O O11 0.159447 0.500000 0.266458
O O12 0.090289 0.269868 0.243800
O O13 0.041942 0.000000 0.276564
#
# Coordination Sequence:
#
# PCOD8079049 Si02
#       5
#     8   8   8   8   8
#     4  10  17  28  47  76 110 144 178 221 270 322
#     4  11  21  36  57  84 113 146 184 228 273 323
#     4  12  25  42  59  80 108 144 184 228 277 330
#     4  11  21  36  57  84 113 146 184 228 273 323
#     4  10  17  28  47  76 110 144 178 221 270 322
#
# _framework density 20.547391000000001
#
# number of rings (size 3 to 8) (size 9 to 14) (size 15 to 20)
#    0.000    1.200    0.000   13.200    0.000    0.000 
#    0.000    0.000    0.000    1.200    0.000    8.400 
#    0.000    0.000    0.000    0.000    0.000    0.000 
#
# Total GULP energy -247998.140746 kJ/mol
# GULP energy per Si atom -12399.907037 kJ/mol
# Density = 2.050062 g / cm^3
# Si number density = 20.547391 Si / 1000 Ang^3
#
#
#
# Elastic Constant Matrix: (Units=GPa)
#
#
# Indices 1 2 3 4 5 6 
#
# 1 154.8999 18.0988 26.8440 0.0000 -22.2938 0.0000
# 2 18.0988 116.3186 8.3426 0.0000 2.4248 0.0000
# 3 26.8440 8.3426 37.9987 0.0000 -13.9511 0.0000
# 4 0.0000 0.0000 0.0000 21.1600 0.0000 -1.6612
# 5 -22.2938 2.4248 -13.9511 0.0000 9.6388 0.0000
# 6 0.0000 0.0000 0.0000 -1.6612 0.0000 42.0705
#
#
#
# Elastic Compliance Matrix: (Units=1/GPa)
#
#
# Indices 1 2 3 4 5 6 
#
# 1 0.010553 -0.002674 0.004994 0.000000 0.032309 0.000000
# 2 -0.002674 0.009952 -0.007439 0.000000 -0.019455 0.000000
# 3 0.004994 -0.007439 0.062634 0.000000 0.104080 0.000000
# 4 0.000000 0.000000 0.000000 0.047406 0.000000 0.001872
# 5 0.032309 -0.019455 0.104080 0.000000 0.334014 0.000000
# 6 0.000000 0.000000 0.000000 0.001872 0.000000 0.023844
#
#
# Mechanical properties :
#
#
# Convention : Reuss Voigt Hill
#
# Bulk Modulus (GPa) = 13.71698 46.19866 29.95782
# Shear Modulus (GPa) = 9.56132 31.63597 20.59864
#
# Velocity S-wave (km/s) = 2.15949 3.92811 3.16965
# Velocity P-wave (km/s) = 3.59279 6.56552 5.29218
#
# Compressibility (1/GPa) = 0.07290233
#
# Stress axis : x y z
#
# Youngs Moduli (GPa) = 94.76250 100.48018 15.96565
#
# Poissons Ratio (x) = 0.26865 -0.07974
# Poissons Ratio (y) = 0.25337 0.11877
# Poissons Ratio (z) = -0.47327 0.74748
#
# Static dielectric constant tensor:
#      x y z
#    x 4.884840 0.000000 -0.007220 
#    y 0.000000 3.741770 0.000000 
#    z -0.007220 0.000000 2.897340 
# 
# 
# High freq. dielectric constant tensor:
#      x y z
#    x 1.838720 0.000000 -0.006230 
#    y 0.000000 1.824290 0.000000 
#    z -0.006230 0.000000 1.726240 
# 
# From -- ./inp_files/101193.got.cif
#   From: 2010.06.25/outbox.cif.g09.slc.cpg/sg12_51_cif.got.tgz:101193.got - 2010.06.28 00:19:55.
