data_PCOD8079853
_publ_section_title
;
Structure prediction by ZEFSAII (Michael W. Deem and Ramdas Pophale) SiO2 
 PCOD8079853
Probable space group: C 2/M
;
_chemical_formula_sum "Si O2"
_cell_formula_units_Z 40
_cell_length_a 25.124119
_cell_length_b 9.240234
_cell_length_c 12.475602
_cell_angle_alpha 90.000000
_cell_angle_beta 121.230743
_cell_angle_gamma 90.000000
_cell_volume 2476.539222
_symmetry_space_group_name_H-M "C 2/M"
_symmetry_group_IT_number 12
_symmetry_cell_setting 'monoclinic'
loop_
_space_group_symop_operation_xyz
x,y,z
-x,y,-z
-x,-y,-z
x,-y,z
1/2+x,1/2+y,z
1/2-x,1/2+y,-z
1/2-x,1/2-y,-z
1/2+x,1/2-y,z
loop_
_atom_site_type_symbol
_atom_site_label
_atom_site_fract_x
_atom_site_fract_y
_atom_site_fract_z
Si Si1 0.533072 0.829504 0.638618
Si Si2 0.100297 0.670621 0.102898
Si Si3 0.831592 0.666511 0.157315
Si Si4 0.504223 0.828607 0.171799
Si Si5 0.302394 0.667621 0.913562
O O1 0.500000 0.758798 0.500000
O O2 0.606592 0.793643 0.711428
O O3 0.502038 0.764046 0.714784
O O4 0.521616 0.000000 0.625844
O O5 0.112624 0.500000 0.112064
O O6 0.069526 0.717401 0.184611
O O7 0.165598 0.753492 0.154468
O O8 0.053944 0.723291 0.960351
O O9 0.834198 0.500000 0.120079
O O10 0.772034 0.692057 0.171651
O O11 0.828435 0.766530 0.050463
O O12 0.500682 0.000000 0.171259
O O13 0.319868 0.500000 0.929238
#
# Coordination Sequence:
#
# PCOD8079853 Si02
#       5
#     8   8   8   8   8
#     4   9  15  25  45  68  85 104 140 186 215 238
#     4   9  15  26  44  62  86 114 138 174 214 251
#     4   9  17  29  43  62  88 114 141 173 213 254
#     4   8  14  24  41  64  85 109 141 174 213 250
#     4  10  18  26  41  65  90 114 139 172 213 256
#
# _framework density 16.151572000000002
#
# number of rings (size 3 to 8) (size 9 to 14) (size 15 to 20)
#    0.000    3.000    2.000    1.800    0.000    0.800 
#    0.000    2.000    0.000    1.800    0.000    0.000 
#    0.000    0.000    0.000    0.000    0.000    0.600 
#
# Total GULP energy -247848.255367 kJ/mol
# GULP energy per Si atom -12392.412768 kJ/mol
# Density = 1.611481 g / cm^3
# Si number density = 16.151572 Si / 1000 Ang^3
#
#
#
# Elastic Constant Matrix: (Units=GPa)
#
#
# Indices 1 2 3 4 5 6 
#
# 1 160.9899 44.5169 61.3783 0.0000 -7.4176 0.0000
# 2 44.5169 43.9257 17.1996 0.0000 1.5758 0.0000
# 3 61.3783 17.1996 94.0711 0.0000 -4.1369 0.0000
# 4 0.0000 0.0000 0.0000 8.4280 0.0000 -0.5428
# 5 -7.4176 1.5758 -4.1369 0.0000 22.5031 0.0000
# 6 0.0000 0.0000 0.0000 -0.5428 0.0000 26.7282
#
#
#
# Elastic Compliance Matrix: (Units=1/GPa)
#
#
# Indices 1 2 3 4 5 6 
#
# 1 0.010895 -0.009081 -0.005305 0.000000 0.003252 0.000000
# 2 -0.009081 0.032238 -0.000202 0.000000 -0.005288 0.000000
# 3 -0.005305 -0.000202 0.014167 0.000000 0.000870 0.000000
# 4 0.000000 0.000000 0.000000 0.118808 0.000000 0.002413
# 5 0.003252 -0.005288 0.000870 0.000000 0.046040 0.000000
# 6 0.000000 0.000000 0.000000 0.002413 0.000000 0.037463
#
#
# Mechanical properties :
#
#
# Convention : Reuss Voigt Hill
#
# Bulk Modulus (GPa) = 35.55733 60.57514 48.06624
# Shear Modulus (GPa) = 16.76945 23.25799 20.01372
#
# Velocity S-wave (km/s) = 3.22569 3.79883 3.52393
# Velocity P-wave (km/s) = 5.99467 7.53837 6.81040
#
# Compressibility (1/GPa) = 0.02812359
#
# Stress axis : x y z
#
# Youngs Moduli (GPa) = 91.78328 31.01956 70.58670
#
# Poissons Ratio (x) = 0.28169 0.37449
# Poissons Ratio (y) = 0.83350 0.01423
# Poissons Ratio (z) = 0.48695 0.00625
#
# Static dielectric constant tensor:
#      x y z
#    x 3.487090 0.000000 -0.162250 
#    y 0.000000 2.735370 0.000000 
#    z -0.162250 0.000000 2.997590 
# 
# 
# High freq. dielectric constant tensor:
#      x y z
#    x 1.641910 0.000000 -0.005240 
#    y 0.000000 1.582930 0.000000 
#    z -0.005240 0.000000 1.575230 
# 
# From -- ./inp_files/171384.got.cif
#   From: 2010.06.25/outbox.cif.g09.slc.cpg/sg12_86_cif.got.tgz:171384.got - 2010.06.28 00:19:55.
