data_PCOD8079393
_publ_section_title
;
Structure prediction by ZEFSAII (Michael W. Deem and Ramdas Pophale) SiO2 
 PCOD8079393
Probable space group: C 2/M
;
_chemical_formula_sum "Si O2"
_cell_formula_units_Z 56
_cell_length_a 21.952215
_cell_length_b 17.134943
_cell_length_c 9.707390
_cell_angle_alpha 90.000000
_cell_angle_beta 54.579908
_cell_angle_gamma 90.000000
_cell_volume 2975.643658
_symmetry_space_group_name_H-M "C 2/M"
_symmetry_group_IT_number 12
_symmetry_cell_setting 'monoclinic'
loop_
_space_group_symop_operation_xyz
x,y,z
-x,y,-z
-x,-y,-z
x,-y,z
1/2+x,1/2+y,z
1/2-x,1/2+y,-z
1/2-x,1/2-y,-z
1/2+x,1/2-y,z
loop_
_atom_site_type_symbol
_atom_site_label
_atom_site_fract_x
_atom_site_fract_y
_atom_site_fract_z
Si Si1 0.458814 0.910757 0.246707
Si Si2 0.815538 0.909282 0.454979
Si Si3 0.314978 0.908193 0.570565
Si Si4 0.245889 0.909110 0.176045
Si Si5 0.901234 0.346780 0.052261
Si Si6 0.801468 0.907947 0.060348
Si Si7 0.085534 0.169784 0.888747
O O1 0.399196 0.875308 0.436752
O O2 0.417719 0.908908 0.151476
O O3 0.480003 0.000000 0.253046
O O4 0.534196 0.858678 0.148871
O O5 0.736684 0.884249 0.491222
O O6 0.810316 0.891168 0.624409
O O7 0.880471 0.858220 0.301309
O O8 0.832869 0.000000 0.403308
O O9 0.274902 0.878855 0.763201
O O10 0.324194 0.000000 0.561483
O O11 0.321134 0.859161 0.088468
O O12 0.268197 0.000000 0.143277
O O13 0.203270 0.883937 0.092949
O O14 0.906857 0.262121 0.111783
O O15 0.873432 0.868384 0.033925
O O16 0.810540 0.000000 0.068933
O O17 0.000000 0.142864 0.000000
#
# Coordination Sequence:
#
# PCOD8079393 Si02
#       7
#     8   8   8   8   8   8   8
#     4  10  17  30  53  82 110 141 177 219 258 306
#     4   9  18  33  56  80 100 136 183 227 268 312
#     4   8  14  29  52  79 105 132 177 221 255 302
#     4  10  19  36  58  82 109 137 179 223 265 321
#     4  11  20  31  51  81 114 142 175 213 266 314
#     4   9  20  37  58  80 105 141 180 224 270 314
#     4  11  22  37  54  77 111 139 180 225 266 321
#
# _framework density 18.819458000000001
#
# number of rings (size 3 to 8) (size 9 to 14) (size 15 to 20)
#    0.000    2.286    2.857    3.000    0.000    2.286 
#    0.000    1.429    0.000    7.714    0.000    0.000 
#    0.000    0.000    0.000    0.000    0.000    0.000 
#
# Total GULP energy -347077.824219 kJ/mol
# GULP energy per Si atom -12395.636579 kJ/mol
# Density = 1.877662 g / cm^3
# Si number density = 18.819458 Si / 1000 Ang^3
#
#
#
# Elastic Constant Matrix: (Units=GPa)
#
#
# Indices 1 2 3 4 5 6 
#
# 1 95.8019 31.3213 72.5068 0.0000 -13.7286 0.0000
# 2 31.3213 57.6173 46.1689 0.0000 -12.5729 0.0000
# 3 72.5068 46.1689 152.9476 0.0000 -9.3786 0.0000
# 4 0.0000 0.0000 0.0000 9.6588 0.0000 -6.1274
# 5 -13.7286 -12.5729 -9.3786 0.0000 38.7395 0.0000
# 6 0.0000 0.0000 0.0000 -6.1274 0.0000 22.0838
#
#
#
# Elastic Compliance Matrix: (Units=1/GPa)
#
#
# Indices 1 2 3 4 5 6 
#
# 1 0.017253 -0.002959 -0.007075 0.000000 0.003441 0.000000
# 2 -0.002959 0.024783 -0.005734 0.000000 0.005606 0.000000
# 3 -0.007075 -0.005734 0.011526 0.000000 -0.001578 0.000000
# 4 0.000000 0.000000 0.000000 0.125648 0.000000 0.034862
# 5 0.003441 0.005606 -0.001578 0.000000 0.028470 0.000000
# 6 0.000000 0.000000 0.000000 0.034862 0.000000 0.054955
#
#
# Mechanical properties :
#
#
# Convention : Reuss Voigt Hill
#
# Bulk Modulus (GPa) = 45.40129 67.37341 56.38735
# Shear Modulus (GPa) = 16.58293 24.52110 20.55202
#
# Velocity S-wave (km/s) = 2.97165 3.61358 3.30822
# Velocity P-wave (km/s) = 5.99594 7.29987 6.67980
#
# Compressibility (1/GPa) = 0.02202581
#
# Stress axis : x y z
#
# Youngs Moduli (GPa) = 57.95976 40.35049 86.75730
#
# Poissons Ratio (x) = 0.11940 0.61380
# Poissons Ratio (y) = 0.17150 0.49750
# Poissons Ratio (z) = 0.41006 0.23139
#
# Static dielectric constant tensor:
#      x y z
#    x 3.266950 0.000000 -0.199030 
#    y 0.000000 3.200480 0.000000 
#    z -0.199030 0.000000 3.752660 
# 
# 
# High freq. dielectric constant tensor:
#      x y z
#    x 1.704580 0.000000 -0.016130 
#    y 0.000000 1.709410 0.000000 
#    z -0.016130 0.000000 1.735460 
# 
# From -- ./inp_files/96750.got.cif
#   From: 2010.06.25/outbox.cif.g09.slc.cpg/sg12_49_cif.got.tgz:96750.got - 2010.06.28 00:19:55.
