data_PCOD8079300
_publ_section_title
;
Structure prediction by ZEFSAII (Michael W. Deem and Ramdas Pophale) SiO2 
 PCOD8079300
Probable space group: C 2/M
;
_chemical_formula_sum "Si O2"
_cell_formula_units_Z 48
_cell_length_a 13.854830
_cell_length_b 21.399391
_cell_length_c 15.285090
_cell_angle_alpha 90.000000
_cell_angle_beta 39.566344
_cell_angle_gamma 90.000000
_cell_volume 2886.625626
_symmetry_space_group_name_H-M "C 2/M"
_symmetry_group_IT_number 12
_symmetry_cell_setting 'monoclinic'
loop_
_space_group_symop_operation_xyz
x,y,z
-x,y,-z
-x,-y,-z
x,-y,z
1/2+x,1/2+y,z
1/2-x,1/2+y,-z
1/2-x,1/2-y,-z
1/2+x,1/2-y,z
loop_
_atom_site_type_symbol
_atom_site_label
_atom_site_fract_x
_atom_site_fract_y
_atom_site_fract_z
Si Si1 0.118352 0.252356 0.990303
Si Si2 0.178305 0.000000 0.874343
Si Si3 0.438471 0.705352 0.787054
Si Si4 0.825778 0.500000 0.588461
Si Si5 0.310936 0.625490 0.337027
Si Si6 0.957791 0.706253 0.433234
Si Si7 0.239257 0.368085 0.189963
O O1 0.258556 0.301633 0.893405
O O2 0.183911 0.183743 0.923946
O O3 0.040306 0.248089 0.140051
O O4 0.000000 0.275544 0.000000
O O5 0.246863 0.064092 0.868267
O O6 0.219559 0.000000 0.745170
O O7 0.000000 0.000000 0.000000
O O8 0.519123 0.637462 0.743883
O O9 0.523914 0.737958 0.647287
O O10 0.773803 0.561912 0.571669
O O11 0.000000 0.500000 0.500000
O O12 0.213936 0.682712 0.443941
O O13 0.326921 0.629165 0.221048
O O14 0.000000 0.731482 0.500000
O O15 0.064589 0.647650 0.331529
#
# Coordination Sequence:
#
# PCOD8079300 Si02
#       7
#     8   4   8   4   8   8   8
#     4  10  18  32  46  65 102 133 161 200 254 293
#     4  10  18  24  42  70  94 132 173 184 225 306
#     4  10  20  29  48  72  92 132 169 201 242 295
#     4  10  20  32  48  72 104 142 162 186 252 310
#     4  10  17  30  47  69 100 126 165 198 233 301
#     4   9  18  31  47  67  97 131 162 206 246 285
#     4   9  17  28  44  65  99 135 156 189 243 294
#
# _framework density 16.628411
#
# number of rings (size 3 to 8) (size 9 to 14) (size 15 to 20)
#    0.000    2.333    1.667    3.500    2.333    0.000 
#    0.000    0.000    0.000    0.000    0.000    1.167 
#    0.000    0.000    0.000    0.000    0.000    0.000 
#
# Total GULP energy -297338.330478 kJ/mol
# GULP energy per Si atom -12389.097103 kJ/mol
# Density = 1.659056 g / cm^3
# Si number density = 16.628411 Si / 1000 Ang^3
#
#
#
# Elastic Constant Matrix: (Units=GPa)
#
#
# Indices 1 2 3 4 5 6 
#
# 1 98.7198 39.6279 28.2020 -0.0012 -15.5834 0.0018
# 2 39.6279 75.1436 21.4360 -0.0021 -12.5001 0.0015
# 3 28.2020 21.4360 74.9850 -0.0085 0.1299 0.0052
# 4 -0.0012 -0.0021 -0.0085 20.6576 0.0031 -7.8379
# 5 -15.5834 -12.5001 0.1299 0.0031 26.0830 -0.0020
# 6 0.0018 0.0015 0.0052 -7.8379 -0.0020 21.6078
#
#
#
# Elastic Compliance Matrix: (Units=1/GPa)
#
#
# Indices 1 2 3 4 5 6 
#
# 1 0.014376 -0.005489 -0.003848 -0.000002 0.005977 0.000000
# 2 -0.005489 0.017972 -0.003082 0.000000 0.005349 0.000000
# 3 -0.003848 -0.003082 0.015671 0.000006 -0.003854 -0.000001
# 4 -0.000002 0.000000 0.000006 0.056134 -0.000007 0.020362
# 5 0.005977 0.005349 -0.003854 -0.000007 0.044493 0.000002
# 6 0.000000 0.000000 -0.000001 0.020362 0.000002 0.053665
#
#
# Mechanical properties :
#
#
# Convention : Reuss Voigt Hill
#
# Bulk Modulus (GPa) = 43.14136 47.48666 45.31401
# Shear Modulus (GPa) = 21.28774 24.30851 22.79813
#
# Velocity S-wave (km/s) = 3.58187 3.82758 3.70677
# Velocity P-wave (km/s) = 6.56560 6.93927 6.75502
#
# Compressibility (1/GPa) = 0.02317961
#
# Stress axis : x y z
#
# Youngs Moduli (GPa) = 69.56015 55.64291 63.81193
#
# Poissons Ratio (x) = 0.30544 0.24555
# Poissons Ratio (y) = 0.38184 0.19669
# Poissons Ratio (z) = 0.26767 0.17151
#
# Static dielectric constant tensor:
#      x y z
#    x 3.022840 0.000000 -0.135210 
#    y 0.000000 3.557260 0.000000 
#    z -0.135210 0.000000 3.261450 
# 
# 
# High freq. dielectric constant tensor:
#      x y z
#    x 1.607650 0.000000 -0.018170 
#    y 0.000000 1.609980 0.000000 
#    z -0.018170 0.000000 1.659740 
# 
# From -- ./inp_files/218082.got.cif
#   From: 2010.06.25/outbox.cif.g09.slc.cpg/sg12_110_cif.got.tgz:218082.got - 2010.06.28 00:19:55.
