data_PCOD8079639
_publ_section_title
;
Structure prediction by ZEFSAII (Michael W. Deem and Ramdas Pophale) SiO2 
 PCOD8079639
Probable space group: C 2/M
;
_chemical_formula_sum "Si O2"
_cell_formula_units_Z 48
_cell_length_a 19.618447
_cell_length_b 10.547218
_cell_length_c 12.541964
_cell_angle_alpha 90.000000
_cell_angle_beta 83.436988
_cell_angle_gamma 90.000000
_cell_volume 2578.176792
_symmetry_space_group_name_H-M "C 2/M"
_symmetry_group_IT_number 12
_symmetry_cell_setting 'monoclinic'
loop_
_space_group_symop_operation_xyz
x,y,z
-x,y,-z
-x,-y,-z
x,-y,z
1/2+x,1/2+y,z
1/2-x,1/2+y,-z
1/2-x,1/2-y,-z
1/2+x,1/2-y,z
loop_
_atom_site_type_symbol
_atom_site_label
_atom_site_fract_x
_atom_site_fract_y
_atom_site_fract_z
Si Si1 0.101073 0.000000 0.728068
Si Si2 0.448451 0.500000 0.744979
Si Si3 0.524813 0.248799 0.378557
Si Si4 0.745810 0.238610 0.766147
Si Si5 0.660662 0.142241 0.415632
Si Si6 0.784868 0.000000 0.127520
Si Si7 0.307795 0.500000 0.874478
Si Si8 0.621374 0.232638 0.651306
O O1 0.141133 0.000000 0.831456
O O2 0.119096 0.884835 0.646406
O O3 0.023301 0.000000 0.784838
O O4 0.440964 0.373772 0.676578
O O5 0.389706 0.500000 0.845043
O O6 0.500000 0.288224 0.500000
O O7 0.585202 0.145518 0.374833
O O8 0.459237 0.190012 0.324861
O O9 0.787882 0.259320 0.649351
O O10 0.753102 0.370155 0.830767
O O11 0.775894 0.125426 0.829274
O O12 0.667749 0.198009 0.746607
O O13 0.656592 0.176803 0.540490
O O14 0.689570 0.000000 0.398726
O O15 0.791082 0.000000 0.000729
#
# Coordination Sequence:
#
# PCOD8079639 Si02
#       8
#     4   4   8   8   8   4   4   8
#     4   8  18  37  60  78 109 146 174 227 284 324
#     4  10  17  33  54  84 109 132 182 231 275 319
#     4   9  18  33  52  78 111 149 182 216 265 327
#     4  11  22  40  56  83 113 144 183 231 282 324
#     4  11  21  34  54  80 112 154 183 219 266 331
#     4  10  22  43  60  77 107 147 187 232 289 325
#     4  12  24  35  62  85 105 141 191 240 272 328
#     4   9  20  34  55  80 113 147 180 216 271 335
#
# _framework density 18.617808
#
# number of rings (size 3 to 8) (size 9 to 14) (size 15 to 20)
#    0.000    2.000    2.500    1.250    1.167    6.000 
#    0.000    0.000    0.000    0.000    0.000    1.167 
#    0.000    0.000    0.000    0.000    0.000    0.000 
#
# Total GULP energy -297428.357481 kJ/mol
# GULP energy per Si atom -12392.848228 kJ/mol
# Density = 1.857543 g / cm^3
# Si number density = 18.617808 Si / 1000 Ang^3
#
#
#
# Elastic Constant Matrix: (Units=GPa)
#
#
# Indices 1 2 3 4 5 6 
#
# 1 78.0292 31.9522 22.3457 0.0000 3.5550 0.0000
# 2 31.9522 95.6096 34.9326 0.0000 8.4350 0.0000
# 3 22.3457 34.9326 67.9376 0.0000 -0.7578 0.0000
# 4 0.0000 0.0000 0.0000 22.1959 0.0000 -3.8790
# 5 3.5550 8.4350 -0.7578 0.0000 20.0923 0.0000
# 6 0.0000 0.0000 0.0000 -3.8790 0.0000 24.1133
#
#
#
# Elastic Compliance Matrix: (Units=1/GPa)
#
#
# Indices 1 2 3 4 5 6 
#
# 1 0.015344 -0.003908 -0.003050 0.000000 -0.001189 0.000000
# 2 -0.003908 0.014551 -0.006260 0.000000 -0.005653 0.000000
# 3 -0.003050 -0.006260 0.018985 0.000000 0.003884 0.000000
# 4 0.000000 0.000000 0.000000 0.046357 0.000000 0.007457
# 5 -0.001189 -0.005653 0.003884 0.000000 0.052500 0.000000
# 6 0.000000 0.000000 0.000000 0.007457 0.000000 0.042670
#
#
# Mechanical properties :
#
#
# Convention : Reuss Voigt Hill
#
# Bulk Modulus (GPa) = 44.55753 46.67082 45.61418
# Shear Modulus (GPa) = 22.28910 23.43670 22.86290
#
# Velocity S-wave (km/s) = 3.46380 3.55185 3.50810
# Velocity P-wave (km/s) = 6.32313 6.47635 6.40020
#
# Compressibility (1/GPa) = 0.02244290
#
# Stress axis : x y z
#
# Youngs Moduli (GPa) = 65.17237 68.72314 52.67428
#
# Poissons Ratio (x) = 0.26860 0.16068
# Poissons Ratio (y) = 0.25472 0.32972
# Poissons Ratio (z) = 0.19881 0.43017
#
# Static dielectric constant tensor:
#      x y z
#    x 3.898000 0.000000 0.090530 
#    y 0.000000 3.385160 0.000000 
#    z 0.090530 0.000000 3.069330 
# 
# 
# High freq. dielectric constant tensor:
#      x y z
#    x 1.739300 0.000000 0.004970 
#    y 0.000000 1.721250 0.000000 
#    z 0.004970 0.000000 1.686260 
# 
# From -- ./inp_files/164149.got.cif
#   From: 2010.06.25/outbox.cif.g09.slc.cpg/sg12_83_cif.got.tgz:164149.got - 2010.06.28 00:19:55.
