data_PCOD8079966
_publ_section_title
;
Structure prediction by ZEFSAII (Michael W. Deem and Ramdas Pophale) SiO2 
 PCOD8079966
Probable space group: C 2/M
;
_chemical_formula_sum "Si O2"
_cell_formula_units_Z 56
_cell_length_a 28.933832
_cell_length_b 8.906700
_cell_length_c 13.773999
_cell_angle_alpha 90.000000
_cell_angle_beta 76.182216
_cell_angle_gamma 90.000000
_cell_volume 3446.902343
_symmetry_space_group_name_H-M "C 2/M"
_symmetry_group_IT_number 12
_symmetry_cell_setting 'monoclinic'
loop_
_space_group_symop_operation_xyz
x,y,z
-x,y,-z
-x,-y,-z
x,-y,z
1/2+x,1/2+y,z
1/2-x,1/2+y,-z
1/2-x,1/2-y,-z
1/2+x,1/2-y,z
loop_
_atom_site_type_symbol
_atom_site_label
_atom_site_fract_x
_atom_site_fract_y
_atom_site_fract_z
Si Si1 0.607302 0.178120 0.252942
Si Si2 0.057907 0.327381 0.085038
Si Si3 0.698290 0.825062 0.927321
Si Si4 0.979336 0.824569 0.614706
Si Si5 0.694536 0.324153 0.133591
Si Si6 0.105362 0.677046 0.871873
Si Si7 0.034096 0.673404 0.757813
O O1 0.586318 0.240155 0.162076
O O2 0.571967 0.242989 0.352604
O O3 0.660898 0.243688 0.230516
O O4 0.608260 0.000000 0.263190
O O5 0.072838 0.500000 0.071931
O O6 0.001935 0.307858 0.132769
O O7 0.075173 0.250279 0.976429
O O8 0.751113 0.784405 0.864216
O O9 0.661137 0.783378 0.859594
O O10 0.694503 0.000000 0.956936
O O11 0.684200 0.734534 0.030510
O O12 0.000000 0.783599 0.500000
O O13 0.018004 0.770485 0.674406
O O14 0.971188 0.000000 0.632719
O O15 0.684841 0.500000 0.141444
O O16 0.096796 0.500000 0.874869
O O17 0.084489 0.733127 0.777963
O O18 0.035642 0.500000 0.722781
#
# Coordination Sequence:
#
# PCOD8079966 Si02
#       7
#     8   8   8   8   8   8   8
#     4  10  18  30  50  69  89 120 156 193 228 268
#     4   8  13  22  39  62  87 116 150 183 213 253
#     4   9  17  28  42  61  91 132 168 193 219 261
#     4  10  21  36  51  68  93 119 142 180 235 286
#     4  10  18  27  41  64  94 126 161 197 230 262
#     4   9  14  24  42  64  91 123 160 189 215 257
#     4   9  17  27  45  69  89 117 154 190 222 261
#
# _framework density 16.246471
#
# number of rings (size 3 to 8) (size 9 to 14) (size 15 to 20)
#    0.000    2.714    1.429    2.571    0.000    3.429 
#    0.000    0.714    0.000    1.714    0.000    1.000 
#    0.000    0.000    0.000    0.000    0.000    0.000 
#
# Total GULP energy -346944.470605 kJ/mol
# GULP energy per Si atom -12390.873950 kJ/mol
# Density = 1.620949 g / cm^3
# Si number density = 16.246471 Si / 1000 Ang^3
#
#
#
# Elastic Constant Matrix: (Units=GPa)
#
#
# Indices 1 2 3 4 5 6 
#
# 1 114.9026 35.8052 52.1582 0.0000 -9.5851 0.0000
# 2 35.8052 57.8960 38.7884 0.0000 -11.1924 0.0000
# 3 52.1582 38.7884 80.5776 0.0000 -9.9745 0.0000
# 4 0.0000 0.0000 0.0000 19.3887 0.0000 -3.0020
# 5 -9.5851 -11.1924 -9.9745 0.0000 19.1288 0.0000
# 6 0.0000 0.0000 0.0000 -3.0020 0.0000 19.5290
#
#
#
# Elastic Compliance Matrix: (Units=1/GPa)
#
#
# Indices 1 2 3 4 5 6 
#
# 1 0.012803 -0.003320 -0.006559 0.000000 0.001053 0.000000
# 2 -0.003320 0.027931 -0.010133 0.000000 0.009395 0.000000
# 3 -0.006559 -0.010133 0.021800 0.000000 0.002152 0.000000
# 4 0.000000 0.000000 0.000000 0.052834 0.000000 0.008122
# 5 0.001053 0.009395 0.002152 0.000000 0.059424 0.000000
# 6 0.000000 0.000000 0.000000 0.008122 0.000000 0.052454
#
#
# Mechanical properties :
#
#
# Convention : Reuss Voigt Hill
#
# Bulk Modulus (GPa) = 44.42544 56.32000 50.37272
# Shear Modulus (GPa) = 18.19685 20.05092 19.12389
#
# Velocity S-wave (km/s) = 3.35034 3.51689 3.43463
# Velocity P-wave (km/s) = 6.50926 7.15769 6.84116
#
# Compressibility (1/GPa) = 0.02250962
#
# Stress axis : x y z
#
# Youngs Moduli (GPa) = 78.10904 35.80275 45.87118
#
# Poissons Ratio (x) = 0.11887 0.30085
# Poissons Ratio (y) = 0.25933 0.46482
# Poissons Ratio (z) = 0.51229 0.36280
#
# Static dielectric constant tensor:
#      x y z
#    x 3.346310 0.000000 -0.078460 
#    y 0.000000 2.868520 0.000000 
#    z -0.078460 0.000000 2.830410 
# 
# 
# High freq. dielectric constant tensor:
#      x y z
#    x 1.630930 0.000000 -0.008740 
#    y 0.000000 1.604820 0.000000 
#    z -0.008740 0.000000 1.581500 
# 
# From -- ./inp_files/247724.got.cif
#   From: 2010.06.25/outbox.cif.g09.slc.cpg/sg12_124_cif.got.tgz:247724.got - 2010.06.28 00:19:55.
