data_PCOD8079296
_publ_section_title
;
Structure prediction by ZEFSAII (Michael W. Deem and Ramdas Pophale) SiO2 
 PCOD8079296
Probable space group: C 2/M
;
_chemical_formula_sum "Si O2"
_cell_formula_units_Z 64
_cell_length_a 25.319730
_cell_length_b 9.149363
_cell_length_c 17.506215
_cell_angle_alpha 90.000000
_cell_angle_beta 78.277664
_cell_angle_gamma 90.000000
_cell_volume 3970.896913
_symmetry_space_group_name_H-M "C 2/M"
_symmetry_group_IT_number 12
_symmetry_cell_setting 'monoclinic'
loop_
_space_group_symop_operation_xyz
x,y,z
-x,y,-z
-x,-y,-z
x,-y,z
1/2+x,1/2+y,z
1/2-x,1/2+y,-z
1/2-x,1/2-y,-z
1/2+x,1/2-y,z
loop_
_atom_site_type_symbol
_atom_site_label
_atom_site_fract_x
_atom_site_fract_y
_atom_site_fract_z
Si Si1 0.817293 0.826085 0.592381
Si Si2 0.194793 0.331182 0.001081
Si Si3 0.489232 0.325682 0.417536
Si Si4 0.403825 0.673395 0.689969
Si Si5 0.871321 0.171963 0.422073
Si Si6 0.288813 0.327817 0.319538
Si Si7 0.778242 0.333772 0.170781
Si Si8 0.341354 0.329896 0.853059
O O1 0.860661 0.769345 0.641209
O O2 0.836889 0.769619 0.503995
O O3 0.760877 0.751423 0.626380
O O4 0.809621 0.000000 0.598169
O O5 0.201498 0.500000 0.020766
O O6 0.150141 0.258677 0.069953
O O7 0.250000 0.250000 0.000000
O O8 0.182209 0.313389 0.914361
O O9 0.500000 0.268974 0.500000
O O10 0.489371 0.500000 0.416792
O O11 0.536768 0.265887 0.348214
O O12 0.431998 0.262338 0.404777
O O13 0.403270 0.500000 0.686373
O O14 0.386841 0.724398 0.779991
O O15 0.842201 0.214032 0.351824
O O16 0.876293 0.000000 0.431020
O O17 0.278322 0.500000 0.322742
O O18 0.298586 0.273754 0.230577
O O19 0.780838 0.500000 0.200189
O O20 0.716794 0.295816 0.166764
O O21 0.346970 0.500000 0.870777
#
# Coordination Sequence:
#
# PCOD8079296 Si02
#       8
#     8   8   8   8   8   8   8   8
#     4  10  17  30  47  62  88 121 153 185 218 262
#     4   9  17  28  43  63  87 116 147 178 216 264
#     4   9  14  24  44  66  86 113 150 190 229 260
#     4   9  15  24  43  68  89 114 148 185 222 261
#     4   9  18  29  42  64  91 117 151 194 226 256
#     4  11  21  29  40  65  96 121 149 184 223 263
#     4   9  17  30  45  61  87 120 150 178 212 263
#     4   9  16  27  42  65  93 114 141 180 221 266
#
# _framework density 16.117266000000001
#
# number of rings (size 3 to 8) (size 9 to 14) (size 15 to 20)
#    0.000    2.625    2.500    1.875    0.000    2.500 
#    0.000    0.625    0.000    0.000    0.000    7.000 
#    0.000    7.000    0.000    0.000    0.000    0.000 
#
# Total GULP energy -396613.883678 kJ/mol
# GULP energy per Si atom -12394.183865 kJ/mol
# Density = 1.608058 g / cm^3
# Si number density = 16.117266 Si / 1000 Ang^3
#
#
#
# Elastic Constant Matrix: (Units=GPa)
#
#
# Indices 1 2 3 4 5 6 
#
# 1 96.9975 28.3501 58.8762 0.0000 -4.5115 0.0000
# 2 28.3501 45.4690 41.3465 0.0000 -0.4950 0.0000
# 3 58.8762 41.3465 139.9269 0.0000 -16.2421 0.0000
# 4 0.0000 0.0000 0.0000 24.1853 0.0000 0.3831
# 5 -4.5115 -0.4950 -16.2421 0.0000 18.6182 0.0000
# 6 0.0000 0.0000 0.0000 0.3831 0.0000 12.0289
#
#
#
# Elastic Compliance Matrix: (Units=1/GPa)
#
#
# Indices 1 2 3 4 5 6 
#
# 1 0.014584 -0.004698 -0.004843 0.000000 -0.000816 0.000000
# 2 -0.004698 0.032623 -0.008561 0.000000 -0.007740 0.000000
# 3 -0.004843 -0.008561 0.012853 0.000000 0.009811 0.000000
# 4 0.000000 0.000000 0.000000 0.041368 0.000000 -0.001317
# 5 -0.000816 -0.007740 0.009811 0.000000 0.061867 0.000000
# 6 0.000000 0.000000 0.000000 -0.001317 0.000000 0.083175
#
#
# Mechanical properties :
#
#
# Convention : Reuss Voigt Hill
#
# Bulk Modulus (GPa) = 41.91928 59.94879 50.93403
# Shear Modulus (GPa) = 17.20414 21.22119 19.21267
#
# Velocity S-wave (km/s) = 3.27071 3.63254 3.45636
# Velocity P-wave (km/s) = 6.35049 7.40742 6.89923
#
# Compressibility (1/GPa) = 0.02385537
#
# Stress axis : x y z
#
# Youngs Moduli (GPa) = 68.56608 30.65299 77.80340
#
# Poissons Ratio (x) = 0.14402 0.37680
# Poissons Ratio (y) = 0.32216 0.66609
# Poissons Ratio (z) = 0.33206 0.26243
#
# Static dielectric constant tensor:
#      x y z
#    x 2.987660 0.000000 -0.182310 
#    y 0.000000 2.816130 0.000000 
#    z -0.182310 0.000000 3.642960 
# 
# 
# High freq. dielectric constant tensor:
#      x y z
#    x 1.583800 0.000000 -0.009460 
#    y 0.000000 1.587510 0.000000 
#    z -0.009460 0.000000 1.631910 
# 
# From -- ./inp_files/287538.got.cif
#   From: 2010.06.25/outbox.cif.g09.slc.cpg/sg12_144_cif.got.tgz:287538.got - 2010.06.28 00:19:55.
