data_PCOD8079551
_publ_section_title
;
Structure prediction by ZEFSAII (Michael W. Deem and Ramdas Pophale) SiO2 
 PCOD8079551
Probable space group: C 2/M
;
_chemical_formula_sum "Si O2"
_cell_formula_units_Z 52
_cell_length_a 24.890061
_cell_length_b 13.918350
_cell_length_c 18.146952
_cell_angle_alpha 90.000000
_cell_angle_beta 24.405916
_cell_angle_gamma 90.000000
_cell_volume 2597.622863
_symmetry_space_group_name_H-M "C 2/M"
_symmetry_group_IT_number 12
_symmetry_cell_setting 'monoclinic'
loop_
_space_group_symop_operation_xyz
x,y,z
-x,y,-z
-x,-y,-z
x,-y,z
1/2+x,1/2+y,z
1/2-x,1/2+y,-z
1/2-x,1/2-y,-z
1/2+x,1/2-y,z
loop_
_atom_site_type_symbol
_atom_site_label
_atom_site_fract_x
_atom_site_fract_y
_atom_site_fract_z
Si Si1 0.577061 0.893323 0.558206
Si Si2 0.734316 0.783411 0.660923
Si Si3 0.500000 0.830763 0.500000
Si Si4 0.371370 0.778654 0.896870
Si Si5 0.933024 0.892518 0.318884
Si Si6 0.506729 0.342633 0.912302
Si Si7 0.263965 0.231686 0.180443
O O1 0.692245 0.819121 0.429393
O O2 0.534020 0.896383 0.526892
O O3 0.451016 0.864854 0.762262
O O4 0.622600 0.000000 0.524293
O O5 0.586033 0.758769 0.823700
O O6 0.742590 0.828196 0.734070
O O7 0.796165 0.856417 0.524614
O O8 0.622095 0.762547 0.330215
O O9 0.455493 0.681000 0.796792
O O10 0.250000 0.750000 0.000000
O O11 0.328161 0.821751 0.030382
O O12 0.923901 0.899554 0.240966
O O13 0.961868 0.000000 0.312681
O O14 0.500000 0.398127 0.000000
O O15 0.356457 0.323695 0.080022
#
# Coordination Sequence:
#
# PCOD8079551 Si02
#       7
#     8   8   4   8   8   8   8
#     4  10  20  32  52  79 106 139 176 219 272 323
#     4   9  19  36  56  78 112 143 177 222 269 324
#     4  10  17  32  52  76 107 134 175 228 270 320
#     4  10  19  36  53  75 108 143 178 225 270 318
#     4  10  21  35  55  83 110 144 183 222 271 325
#     4   9  18  35  56  80 108 142 177 221 275 326
#     4   9  18  33  57  78 103 145 183 219 271 318
#
# _framework density 20.018303
#
# number of rings (size 3 to 8) (size 9 to 14) (size 15 to 20)
#    0.000    2.462    1.538    0.692    0.000    1.538 
#    0.000   13.846    0.000    5.077    0.000    0.000 
#    0.000    0.000    0.000    0.000    0.000    0.000 
#
# Total GULP energy -322101.765580 kJ/mol
# GULP energy per Si atom -12388.529445 kJ/mol
# Density = 1.997274 g / cm^3
# Si number density = 20.018303 Si / 1000 Ang^3
#
#
#
# Elastic Constant Matrix: (Units=GPa)
#
#
# Indices 1 2 3 4 5 6 
#
# 1 65.8046 22.1990 29.0095 0.0001 14.0862 0.0000
# 2 22.1990 72.8546 26.7168 0.0000 14.0338 0.0000
# 3 29.0095 26.7168 112.2763 0.0001 18.5714 0.0000
# 4 0.0001 0.0000 0.0001 6.2597 -0.0001 -2.0168
# 5 14.0862 14.0338 18.5714 -0.0001 51.6447 0.0000
# 6 0.0000 0.0000 0.0000 -2.0168 0.0000 8.7123
#
#
#
# Elastic Compliance Matrix: (Units=1/GPa)
#
#
# Indices 1 2 3 4 5 6 
#
# 1 0.018612 -0.003878 -0.003424 0.000000 -0.002791 0.000000
# 2 -0.003878 0.016289 -0.002464 0.000000 -0.002483 0.000000
# 3 -0.003424 -0.002464 0.010752 0.000000 -0.002263 0.000000
# 4 0.000000 0.000000 0.000000 0.172626 0.000000 0.039961
# 5 -0.002791 -0.002483 -0.002263 0.000000 0.021613 0.000000
# 6 0.000000 0.000000 0.000000 0.039961 0.000000 0.124030
#
#
# Mechanical properties :
#
#
# Convention : Reuss Voigt Hill
#
# Bulk Modulus (GPa) = 38.28235 45.19845 41.74040
# Shear Modulus (GPa) = 12.74989 24.85738 18.80364
#
# Velocity S-wave (km/s) = 2.52645 3.52765 3.06816
# Velocity P-wave (km/s) = 5.26078 6.26258 5.78341
#
# Compressibility (1/GPa) = 0.02612170
#
# Stress axis : x y z
#
# Youngs Moduli (GPa) = 53.72947 61.39056 93.00682
#
# Poissons Ratio (x) = 0.23805 0.31850
# Poissons Ratio (y) = 0.20834 0.22912
# Poissons Ratio (z) = 0.18399 0.15124
#
# Static dielectric constant tensor:
#      x y z
#    x 3.917370 0.000000 0.385430 
#    y 0.000000 2.996830 0.000000 
#    z 0.385430 0.000000 4.158190 
# 
# 
# High freq. dielectric constant tensor:
#      x y z
#    x 1.794170 0.000000 0.013200 
#    y 0.000000 1.710260 0.000000 
#    z 0.013200 0.000000 1.808610 
# 
# From -- ./inp_files/289751.got.cif
#   From: 2010.06.25/outbox.cif.g09.slc.cpg/sg12_145_cif.got.tgz:289751.got - 2010.06.28 00:19:55.
