data_PCOD8079375
_publ_section_title
;
Structure prediction by ZEFSAII (Michael W. Deem and Ramdas Pophale) SiO2 
 PCOD8079375
Probable space group: C 2/M
;
_chemical_formula_sum "Si O2"
_cell_formula_units_Z 40
_cell_length_a 8.037040
_cell_length_b 28.119430
_cell_length_c 9.001144
_cell_angle_alpha 90.000000
_cell_angle_beta 95.008213
_cell_angle_gamma 90.000000
_cell_volume 2026.465094
_symmetry_space_group_name_H-M "C 2/M"
_symmetry_group_IT_number 12
_symmetry_cell_setting 'monoclinic'
loop_
_space_group_symop_operation_xyz
x,y,z
-x,y,-z
-x,-y,-z
x,-y,z
1/2+x,1/2+y,z
1/2-x,1/2+y,-z
1/2-x,1/2-y,-z
1/2+x,1/2-y,z
loop_
_atom_site_type_symbol
_atom_site_label
_atom_site_fract_x
_atom_site_fract_y
_atom_site_fract_z
Si Si1 0.682369 0.448669 0.442824
Si Si2 0.841564 0.861609 0.389141
Si Si3 0.231025 0.692236 0.877994
Si Si4 0.152591 0.288756 0.197487
Si Si5 0.564366 0.599531 0.162632
O O1 0.500000 0.450501 0.500000
O O2 0.773599 0.500000 0.475995
O O3 0.767039 0.402711 0.530624
O O4 0.661810 0.440999 0.263768
O O5 0.730385 0.815260 0.346764
O O6 0.000000 0.845497 0.500000
O O7 0.900642 0.883177 0.237331
O O8 0.332928 0.731510 0.788927
O O9 0.303125 0.641608 0.842674
O O10 0.036944 0.694643 0.823963
O O11 0.257051 0.698944 0.056434
O O12 0.500000 0.579326 0.000000
#
# Coordination Sequence:
#
# PCOD8079375 Si02
#       5
#     8   8   8   8   8
#     4   8  17  33  52  76 102 132 166 211 265 302
#     4   9  18  33  53  74 105 137 166 210 254 306
#     4  10  20  30  52  75 104 136 174 211 248 297
#     4  10  19  33  49  75 104 142 171 205 253 300
#     4  10  17  30  52  78 104 131 172 215 248 297
#
# _framework density 19.738806
#
# number of rings (size 3 to 8) (size 9 to 14) (size 15 to 20)
#    0.000    3.000    2.000    1.200    2.800    0.400 
#    0.000   13.000    0.000    2.400    0.000    2.800 
#    0.000    0.000    0.000    0.000    0.000    0.000 
#
# Total GULP energy -247775.708393 kJ/mol
# GULP energy per Si atom -12388.785420 kJ/mol
# Density = 1.969388 g / cm^3
# Si number density = 19.738806 Si / 1000 Ang^3
#
#
#
# Elastic Constant Matrix: (Units=GPa)
#
#
# Indices 1 2 3 4 5 6 
#
# 1 34.2072 27.1811 23.5557 0.0000 9.7691 0.0000
# 2 27.1811 110.6031 38.8084 0.0000 14.2256 0.0000
# 3 23.5557 38.8084 112.2640 0.0000 14.6554 0.0000
# 4 0.0000 0.0000 0.0000 25.5830 0.0000 8.0533
# 5 9.7691 14.2256 14.6554 0.0000 23.8258 0.0000
# 6 0.0000 0.0000 0.0000 8.0533 0.0000 7.2350
#
#
#
# Elastic Compliance Matrix: (Units=1/GPa)
#
#
# Indices 1 2 3 4 5 6 
#
# 1 0.040992 -0.007131 -0.004891 0.000000 -0.009542 0.000000
# 2 -0.007131 0.011952 -0.002268 0.000000 -0.002817 0.000000
# 3 -0.004891 -0.002268 0.011177 0.000000 -0.003516 0.000000
# 4 0.000000 0.000000 0.000000 0.060172 0.000000 -0.066978
# 5 -0.009542 -0.002817 -0.003516 0.000000 0.049728 0.000000
# 6 0.000000 0.000000 0.000000 -0.066978 0.000000 0.212769
#
#
# Mechanical properties :
#
#
# Convention : Reuss Voigt Hill
#
# Bulk Modulus (GPa) = 28.13493 48.46276 38.29885
# Shear Modulus (GPa) = 11.70368 22.49738 17.10053
#
# Velocity S-wave (km/s) = 2.43765 3.37969 2.94656
# Velocity P-wave (km/s) = 4.71248 6.31150 5.56967
#
# Compressibility (1/GPa) = 0.03554300
#
# Stress axis : x y z
#
# Youngs Moduli (GPa) = 24.39471 83.66956 89.47303
#
# Poissons Ratio (x) = 0.59663 0.43757
# Poissons Ratio (y) = 0.17395 0.20289
# Poissons Ratio (z) = 0.11930 0.18973
#
# Static dielectric constant tensor:
#      x y z
#    x 3.097390 0.000000 -0.007110 
#    y 0.000000 4.060420 0.000000 
#    z -0.007110 0.000000 3.802080 
# 
# 
# High freq. dielectric constant tensor:
#      x y z
#    x 1.726000 0.000000 0.002130 
#    y 0.000000 1.765060 0.000000 
#    z 0.002130 0.000000 1.769460 
# 
# From -- ./inp_files/41094.got.cif
#   From: 2010.06.25/outbox.cif.g09.slc.cpg/sg12_21_cif.got.tgz:41094.got - 2010.06.28 00:19:55.
