data_PCOD8079421
_publ_section_title
;
Structure prediction by ZEFSAII (Michael W. Deem and Ramdas Pophale) SiO2 
 PCOD8079421
Probable space group: C 2/M
;
_chemical_formula_sum "Si O2"
_cell_formula_units_Z 48
_cell_length_a 14.677517
_cell_length_b 22.115041
_cell_length_c 13.201802
_cell_angle_alpha 90.000000
_cell_angle_beta 35.698535
_cell_angle_gamma 90.000000
_cell_volume 2500.515981
_symmetry_space_group_name_H-M "C 2/M"
_symmetry_group_IT_number 12
_symmetry_cell_setting 'monoclinic'
loop_
_space_group_symop_operation_xyz
x,y,z
-x,y,-z
-x,-y,-z
x,-y,z
1/2+x,1/2+y,z
1/2-x,1/2+y,-z
1/2-x,1/2-y,-z
1/2+x,1/2-y,z
loop_
_atom_site_type_symbol
_atom_site_label
_atom_site_fract_x
_atom_site_fract_y
_atom_site_fract_z
Si Si1 0.056306 0.384989 0.337931
Si Si2 0.615118 0.597945 0.478168
Si Si3 0.737407 0.819611 0.486754
Si Si4 0.664979 0.369734 0.800847
Si Si5 0.638059 0.000000 0.792679
Si Si6 0.936676 0.000000 0.762757
Si Si7 0.395048 0.000000 0.843119
Si Si8 0.380808 0.500000 0.197140
O O1 0.212545 0.346290 0.224599
O O2 0.109906 0.441392 0.222611
O O3 0.000000 0.406000 0.500000
O O4 0.936869 0.342574 0.383957
O O5 0.500000 0.629780 0.500000
O O6 0.699010 0.646704 0.472110
O O7 0.749728 0.558498 0.300633
O O8 0.494688 0.558488 0.651474
O O9 0.750000 0.750000 0.500000
O O10 0.843760 0.829399 0.291754
O O11 0.719554 0.438188 0.717046
O O12 0.500000 0.369188 0.000000
O O13 0.559244 0.000000 0.753423
O O14 0.500000 0.000000 0.000000
O O15 0.014835 0.000000 0.799340
O O16 0.748759 0.000000 0.946932
O O17 0.500000 0.500000 0.000000
#
# Coordination Sequence:
#
# PCOD8079421 Si02
#       8
#     8   8   8   8   4   4   4   4
#     4  10  22  36  60  94 129 153 192 246 316 367
#     4  11  23  41  60  85 122 160 208 249 308 364
#     4  11  24  43  62  84 120 170 213 250 292 346
#     4  10  20  38  64  94 128 152 193 249 313 374
#     4  11  22  39  59  91 124 157 196 256 310 368
#     4  11  21  35  61  94 122 161 188 251 313 384
#     4  12  19  34  63  94 128 149 191 247 325 370
#     4  10  17  30  57  98 127 148 177 237 315 380
#
# _framework density 19.196038000000001
#
# number of rings (size 3 to 8) (size 9 to 14) (size 15 to 20)
#    0.000    1.333    3.333    4.750    0.000    4.000 
#    0.000    1.667    0.000    0.000    0.000    0.000 
#    0.000    0.000    0.000    0.000    0.000    0.000 
#
# Total GULP energy -297379.681820 kJ/mol
# GULP energy per Si atom -12390.820076 kJ/mol
# Density = 1.915235 g / cm^3
# Si number density = 19.196038 Si / 1000 Ang^3
#
#
#
# Elastic Constant Matrix: (Units=GPa)
#
#
# Indices 1 2 3 4 5 6 
#
# 1 169.4819 47.8236 44.4232 0.1564 -4.2162 -0.0611
# 2 47.8236 121.6878 50.0928 0.3631 3.8093 -0.3247
# 3 44.4232 50.0928 111.1271 0.0867 -9.7851 -0.1366
# 4 0.1564 0.3631 0.0867 11.3455 -0.1576 4.7060
# 5 -4.2162 3.8093 -9.7851 -0.1576 32.5576 0.1415
# 6 -0.0611 -0.3247 -0.1366 4.7060 0.1415 10.4817
#
#
#
# Elastic Compliance Matrix: (Units=1/GPa)
#
#
# Indices 1 2 3 4 5 6 
#
# 1 0.006959 -0.002001 -0.001828 0.000015 0.000586 -0.000060
# 2 -0.002001 0.010891 -0.004359 -0.000559 -0.002849 0.000558
# 3 -0.001828 -0.004359 0.012037 0.000177 0.003892 -0.000121
# 4 0.000015 -0.000559 0.000177 0.108360 0.000857 -0.048678
# 5 0.000586 -0.002849 0.003892 0.000857 0.032302 -0.000855
# 6 -0.000060 0.000558 -0.000121 -0.048678 -0.000855 0.117286
#
#
# Mechanical properties :
#
#
# Convention : Reuss Voigt Hill
#
# Bulk Modulus (GPa) = 74.01901 76.33066 75.17483
# Shear Modulus (GPa) = 16.19617 28.20744 22.20180
#
# Velocity S-wave (km/s) = 2.90785 3.83749 3.40455
# Velocity P-wave (km/s) = 7.06522 7.71266 7.39603
#
# Compressibility (1/GPa) = 0.01351004
#
# Stress axis : x y z
#
# Youngs Moduli (GPa) = 143.70592 91.82059 83.07698
#
# Poissons Ratio (x) = 0.18370 0.15190
# Poissons Ratio (y) = 0.28751 0.36215
# Poissons Ratio (z) = 0.26275 0.40026
#
# Static dielectric constant tensor:
#      x y z
#    x 4.277730 0.000560 -0.147200 
#    y 0.000560 3.080310 0.000210 
#    z -0.147200 0.000210 3.576700 
# 
# 
# High freq. dielectric constant tensor:
#      x y z
#    x 1.782500 0.000000 -0.002370 
#    y 0.000000 1.702350 0.000000 
#    z -0.002370 0.000000 1.749970 
# 
# From -- ./inp_files/147986.got.cif
#   From: 2010.06.25/outbox.cif.g09.slc.cpg/sg12_74_cif.got.tgz:147986.got - 2010.06.28 00:19:55.
