data_PCOD8079368
_publ_section_title
;
Structure prediction by ZEFSAII (Michael W. Deem and Ramdas Pophale) SiO2 
 PCOD8079368
Probable space group: C 2/M
;
_chemical_formula_sum "Si O2"
_cell_formula_units_Z 64
_cell_length_a 36.928891
_cell_length_b 13.180211
_cell_length_c 12.363279
_cell_angle_alpha 90.000000
_cell_angle_beta 35.130456
_cell_angle_gamma 90.000000
_cell_volume 3462.760018
_symmetry_space_group_name_H-M "C 2/M"
_symmetry_group_IT_number 12
_symmetry_cell_setting 'monoclinic'
loop_
_space_group_symop_operation_xyz
x,y,z
-x,y,-z
-x,-y,-z
x,-y,z
1/2+x,1/2+y,z
1/2-x,1/2+y,-z
1/2-x,1/2-y,-z
1/2+x,1/2-y,z
loop_
_atom_site_type_symbol
_atom_site_label
_atom_site_fract_x
_atom_site_fract_y
_atom_site_fract_z
Si Si1 0.404083 0.219578 0.514891
Si Si2 0.492813 0.119248 0.143017
Si Si3 0.333886 0.614175 0.576740
Si Si4 0.523189 0.288913 0.337847
Si Si5 0.197397 0.385364 0.833801
Si Si6 0.100380 0.614418 0.254675
Si Si7 0.897698 0.753194 0.038553
Si Si8 0.430116 0.385850 0.151711
O O1 0.425271 0.157642 0.355040
O O2 0.347030 0.298657 0.633022
O O3 0.463726 0.284718 0.405533
O O4 0.382840 0.145561 0.663279
O O5 0.497216 0.000000 0.148591
O O6 0.500000 0.149711 0.000000
O O7 0.549152 0.167244 0.075294
O O8 0.328426 0.500000 0.640407
O O9 0.270615 0.641591 0.667174
O O10 0.393480 0.618286 0.352585
O O11 0.500000 0.356084 0.500000
O O12 0.545655 0.181865 0.335393
O O13 0.581096 0.323130 0.118224
O O14 0.189389 0.500000 0.807761
O O15 0.167925 0.304481 0.821832
O O16 0.164767 0.375002 0.030132
O O17 0.075117 0.500000 0.315321
O O18 0.890824 0.823207 0.159526
O O19 0.436582 0.500000 0.091826
O O20 0.500000 0.339528 0.000000
#
# Coordination Sequence:
#
# PCOD8079368 Si02
#       8
#     8   8   8   8   8   8   8   8
#     4  10  18  29  49  71  96 129 164 198 242 288
#     4  10  19  29  44  72 106 130 152 192 248 302
#     4  10  21  36  51  69  95 128 169 211 244 282
#     4   8  16  27  44  71  98 120 150 190 234 283
#     4   9  19  34  51  72  97 128 166 203 242 291
#     4   9  17  30  50  75 101 127 157 194 238 295
#     4  10  17  30  52  72  96 128 161 196 241 287
#     4  10  20  34  53  75  97 125 165 207 244 288
#
# _framework density 18.482367
#
# number of rings (size 3 to 8) (size 9 to 14) (size 15 to 20)
#    0.000    2.500    0.000    3.375    0.000    6.250 
#    0.000    0.000    0.000   12.000    0.000    0.000 
#    0.000    0.000    0.000    0.000    0.000    0.000 
#
# Total GULP energy -396475.369536 kJ/mol
# GULP energy per Si atom -12389.855298 kJ/mol
# Density = 1.844030 g / cm^3
# Si number density = 18.482367 Si / 1000 Ang^3
#
#
#
# Elastic Constant Matrix: (Units=GPa)
#
#
# Indices 1 2 3 4 5 6 
#
# 1 85.1486 34.5594 21.0197 0.0000 -2.5493 0.0000
# 2 34.5594 61.7876 5.0330 0.0000 -6.4066 0.0000
# 3 21.0197 5.0330 46.8699 0.0000 -11.0223 0.0000
# 4 0.0000 0.0000 0.0000 16.5488 0.0000 -5.6705
# 5 -2.5493 -6.4066 -11.0223 0.0000 34.5518 0.0000
# 6 0.0000 0.0000 0.0000 -5.6705 0.0000 31.4299
#
#
#
# Elastic Compliance Matrix: (Units=1/GPa)
#
#
# Indices 1 2 3 4 5 6 
#
# 1 0.017288 -0.009359 -0.007412 0.000000 -0.002824 0.000000
# 2 -0.009359 0.021624 0.002871 0.000000 0.004235 0.000000
# 3 -0.007412 0.002871 0.026323 0.000000 0.008383 0.000000
# 4 0.000000 0.000000 0.000000 0.064409 0.000000 0.011620
# 5 -0.002824 0.004235 0.008383 0.000000 0.032193 0.000000
# 6 0.000000 0.000000 0.000000 0.011620 0.000000 0.033913
#
#
# Mechanical properties :
#
#
# Convention : Reuss Voigt Hill
#
# Bulk Modulus (GPa) = 26.71302 35.00337 30.85819
# Shear Modulus (GPa) = 21.18390 25.38572 23.28481
#
# Velocity S-wave (km/s) = 3.38918 3.71011 3.55327
# Velocity P-wave (km/s) = 5.45894 6.11008 5.79367
#
# Compressibility (1/GPa) = 0.03743493
#
# Stress axis : x y z
#
# Youngs Moduli (GPa) = 57.84437 46.24446 37.98983
#
# Poissons Ratio (x) = 0.43278 0.28159
# Poissons Ratio (y) = 0.54134 -0.10906
# Poissons Ratio (z) = 0.42876 -0.13276
#
# Static dielectric constant tensor:
#      x y z
#    x 3.357200 0.000000 0.265360 
#    y 0.000000 3.287030 0.000000 
#    z 0.265360 0.000000 3.526740 
# 
# 
# High freq. dielectric constant tensor:
#      x y z
#    x 1.705860 0.000000 0.013780 
#    y 0.000000 1.696030 0.000000 
#    z 0.013780 0.000000 1.713500 
# 
# From -- ./inp_files/189436.got.cif
#   From: 2010.06.25/outbox.cif.g09.slc.cpg/sg12_95_cif.got.tgz:189436.got - 2010.06.28 00:19:55.
