data_PCOD8079640
_publ_section_title
;
Structure prediction by ZEFSAII (Michael W. Deem and Ramdas Pophale) SiO2 
 PCOD8079640
Probable space group: C 2/M
;
_chemical_formula_sum "Si O2"
_cell_formula_units_Z 64
_cell_length_a 19.035654
_cell_length_b 18.475076
_cell_length_c 11.220031
_cell_angle_alpha 90.000000
_cell_angle_beta 115.117014
_cell_angle_gamma 90.000000
_cell_volume 3572.803317
_symmetry_space_group_name_H-M "C 2/M"
_symmetry_group_IT_number 12
_symmetry_cell_setting 'monoclinic'
loop_
_space_group_symop_operation_xyz
x,y,z
-x,y,-z
-x,-y,-z
x,-y,z
1/2+x,1/2+y,z
1/2-x,1/2+y,-z
1/2-x,1/2-y,-z
1/2+x,1/2-y,z
loop_
_atom_site_type_symbol
_atom_site_label
_atom_site_fract_x
_atom_site_fract_y
_atom_site_fract_z
Si Si1 0.231364 0.581956 0.293978
Si Si2 0.954229 0.776906 0.753522
Si Si3 0.683451 0.664555 0.216988
Si Si4 0.917430 0.654229 0.909519
Si Si5 0.578944 0.798219 0.507337
Si Si6 0.304742 0.717765 0.251597
Si Si7 0.124919 0.780430 0.946166
Si Si8 0.201072 0.582389 0.544433
O O1 0.253782 0.500000 0.277743
O O2 0.145426 0.595937 0.178595
O O3 0.295133 0.633833 0.279546
O O4 0.237298 0.594156 0.440241
O O5 0.891316 0.835747 0.751046
O O6 0.939884 0.704849 0.816702
O O7 0.938840 0.760725 0.605612
O O8 0.041276 0.806323 0.836833
O O9 0.729781 0.741296 0.252518
O O10 0.738585 0.601063 0.305593
O O11 0.655035 0.656801 0.059275
O O12 0.882763 0.702627 0.993203
O O13 0.000000 0.615227 0.000000
O O14 0.500000 0.832286 0.500000
O O15 0.618506 0.752931 0.640282
O O16 0.627269 0.866178 0.497233
O O17 0.312326 0.726166 0.114568
O O18 0.174104 0.500000 0.543489
#
# Coordination Sequence:
#
# PCOD8079640 Si02
#       8
#     8   8   8   8   8   8   8   8
#     4  11  21  35  54  76 109 148 183 224 270 323
#     4  10  17  33  54  85 105 136 180 231 272 320
#     4  10  19  33  58  78 104 141 186 225 269 318
#     4   9  18  32  54  77 110 142 178 222 271 330
#     4  11  20  33  57  84 107 139 179 229 278 327
#     4  11  20  33  54  83 109 139 181 228 275 324
#     4  10  19  32  55  81 114 138 171 231 283 313
#     4  10  22  38  55  78 110 147 185 225 269 323
#
# _framework density 17.913105000000002
#
# number of rings (size 3 to 8) (size 9 to 14) (size 15 to 20)
#    0.000    1.750    5.000    2.250    0.000    2.500 
#    0.000    0.625    0.000    2.625    0.000    0.000 
#    0.000    0.000    0.000    0.000    0.000    0.000 
#
# Total GULP energy -396642.318584 kJ/mol
# GULP energy per Si atom -12395.072456 kJ/mol
# Density = 1.787233 g / cm^3
# Si number density = 17.913105 Si / 1000 Ang^3
#
#
#
# Elastic Constant Matrix: (Units=GPa)
#
#
# Indices 1 2 3 4 5 6 
#
# 1 62.2304 31.0182 29.5359 0.0000 -0.9349 0.0000
# 2 31.0182 70.6941 30.2276 0.0000 0.8518 0.0000
# 3 29.5359 30.2276 109.2075 0.0000 0.0516 0.0000
# 4 0.0000 0.0000 0.0000 16.0860 0.0000 -2.6210
# 5 -0.9349 0.8518 0.0516 0.0000 34.3756 0.0000
# 6 0.0000 0.0000 0.0000 -2.6210 0.0000 10.1799
#
#
#
# Elastic Compliance Matrix: (Units=1/GPa)
#
#
# Indices 1 2 3 4 5 6 
#
# 1 0.021822 -0.008009 -0.003686 0.000000 0.000797 0.000000
# 2 -0.008009 0.018989 -0.003090 0.000000 -0.000684 0.000000
# 3 -0.003686 -0.003090 0.011009 0.000000 -0.000040 0.000000
# 4 0.000000 0.000000 0.000000 0.064888 0.000000 0.016706
# 5 0.000797 -0.000684 -0.000040 0.000000 0.029129 0.000000
# 6 0.000000 0.000000 0.000000 0.016706 0.000000 0.102534
#
#
# Mechanical properties :
#
#
# Convention : Reuss Voigt Hill
#
# Bulk Modulus (GPa) = 44.93936 47.07726 46.00831
# Shear Modulus (GPa) = 17.52194 22.21832 19.87013
#
# Velocity S-wave (km/s) = 3.13095 3.52567 3.33416
# Velocity P-wave (km/s) = 6.18162 6.55070 6.36883
#
# Compressibility (1/GPa) = 0.02225221
#
# Stress axis : x y z
#
# Youngs Moduli (GPa) = 45.82445 52.66305 90.83570
#
# Poissons Ratio (x) = 0.42176 0.33479
# Poissons Ratio (y) = 0.36699 0.28064
# Poissons Ratio (z) = 0.16889 0.16271
#
# Static dielectric constant tensor:
#      x y z
#    x 3.385470 0.000000 0.182070 
#    y 0.000000 2.871860 0.000000 
#    z 0.182070 0.000000 3.666970 
# 
# 
# High freq. dielectric constant tensor:
#      x y z
#    x 1.697180 0.000000 0.007440 
#    y 0.000000 1.640160 0.000000 
#    z 0.007440 0.000000 1.715270 
# 
# From -- ./inp_files/168487.got.cif
#   From: 2010.06.25/outbox.cif.g09.slc.cpg/sg12_85_cif.got.tgz:168487.got - 2010.06.28 00:19:55.
