data_PCOD8079904
_publ_section_title
;
Structure prediction by ZEFSAII (Michael W. Deem and Ramdas Pophale) SiO2 
 PCOD8079904
Probable space group: C 2/M
;
_chemical_formula_sum "Si O2"
_cell_formula_units_Z 64
_cell_length_a 29.764359
_cell_length_b 9.328512
_cell_length_c 15.836564
_cell_angle_alpha 90.000000
_cell_angle_beta 117.937115
_cell_angle_gamma 90.000000
_cell_volume 3884.703752
_symmetry_space_group_name_H-M "C 2/M"
_symmetry_group_IT_number 12
_symmetry_cell_setting 'monoclinic'
loop_
_space_group_symop_operation_xyz
x,y,z
-x,y,-z
-x,-y,-z
x,-y,z
1/2+x,1/2+y,z
1/2-x,1/2+y,-z
1/2-x,1/2-y,-z
1/2+x,1/2-y,z
loop_
_atom_site_type_symbol
_atom_site_label
_atom_site_fract_x
_atom_site_fract_y
_atom_site_fract_z
Si Si1 0.734284 0.667429 0.610807
Si Si2 0.287480 0.331241 0.220993
Si Si3 0.091408 0.166790 0.061245
Si Si4 0.636576 0.330692 0.848214
Si Si5 0.927670 0.829342 0.770769
Si Si6 0.822745 0.832034 0.606284
Si Si7 0.961348 0.171151 0.151783
Si Si8 0.694159 0.666324 0.063523
O O1 0.747560 0.500000 0.621490
O O2 0.710897 0.716289 0.679860
O O3 0.786186 0.752319 0.640025
O O4 0.692482 0.705931 0.503051
O O5 0.279099 0.500000 0.205480
O O6 0.340798 0.285048 0.223022
O O7 0.242496 0.257643 0.131052
O O8 0.078106 0.236498 0.140057
O O9 0.150715 0.193261 0.095006
O O10 0.079342 0.000000 0.055464
O O11 0.056431 0.231208 0.955504
O O12 0.633700 0.500000 0.854557
O O13 0.578873 0.271612 0.812628
O O14 0.674109 0.276779 0.955422
O O15 0.880552 0.777958 0.671288
O O16 0.981279 0.774173 0.778520
O O17 0.927302 0.000000 0.774922
O O18 0.817223 0.000000 0.620230
O O19 0.960249 0.000000 0.148938
O O20 0.709665 0.500000 0.073526
#
# Coordination Sequence:
#
# PCOD8079904 Si02
#       8
#     8   8   8   8   8   8   8   8
#     4   9  18  30  42  58  82 109 131 155 195 244
#     4  10  18  27  40  57  79 108 137 161 192 235
#     4   8  13  20  32  54  81 102 121 153 197 237
#     4   8  15  26  38  54  79 109 135 161 194 231
#     4   9  14  20  35  57  78 100 126 159 197 231
#     4   9  17  29  44  62  82 101 127 165 201 232
#     4   8  13  21  33  52  79 105 127 154 192 235
#     4   9  16  26  40  59  82 105 132 165 196 227
#
# _framework density 16.474874
#
# number of rings (size 3 to 8) (size 9 to 14) (size 15 to 20)
#    0.000    3.250    0.000    3.000    0.000    3.000 
#    0.000    0.000    0.000    0.750    0.000    9.625 
#    0.000   13.000    0.000    7.375    0.000    7.750 
#
# Total GULP energy -396502.187948 kJ/mol
# GULP energy per Si atom -12390.693373 kJ/mol
# Density = 1.643738 g / cm^3
# Si number density = 16.474874 Si / 1000 Ang^3
#
#
#
# Elastic Constant Matrix: (Units=GPa)
#
#
# Indices 1 2 3 4 5 6 
#
# 1 157.4469 21.8726 87.3707 0.0000 -0.0480 0.0000
# 2 21.8726 11.8425 16.0293 0.0000 -1.3052 0.0000
# 3 87.3707 16.0293 90.6843 0.0000 -1.9742 0.0000
# 4 0.0000 0.0000 0.0000 13.1466 0.0000 0.9338
# 5 -0.0480 -1.3052 -1.9742 0.0000 30.5435 0.0000
# 6 0.0000 0.0000 0.0000 0.9338 0.0000 14.6361
#
#
#
# Elastic Compliance Matrix: (Units=1/GPa)
#
#
# Indices 1 2 3 4 5 6 
#
# 1 0.014605 -0.010552 -0.012233 0.000000 -0.001219 0.000000
# 2 -0.010552 0.118992 -0.010772 0.000000 0.004372 0.000000
# 3 -0.012233 -0.010772 0.024742 0.000000 0.001120 0.000000
# 4 0.000000 0.000000 0.000000 0.076412 0.000000 -0.004875
# 5 -0.001219 0.004372 0.001120 0.000000 0.032997 0.000000
# 6 0.000000 0.000000 0.000000 -0.004875 0.000000 0.068635
#
#
# Mechanical properties :
#
#
# Convention : Reuss Voigt Hill
#
# Bulk Modulus (GPa) = 10.96180 56.72433 33.84306
# Shear Modulus (GPa) = 11.52330 20.64530 16.08430
#
# Velocity S-wave (km/s) = 2.64757 3.54381 3.12796
# Velocity P-wave (km/s) = 4.00179 7.15894 5.79934
#
# Compressibility (1/GPa) = 0.09122592
#
# Stress axis : x y z
#
# Youngs Moduli (GPa) = 68.46924 8.40396 40.41792
#
# Poissons Ratio (x) = 0.08868 0.49443
# Poissons Ratio (y) = 0.72246 0.43536
# Poissons Ratio (z) = 0.83757 0.09052
#
# Static dielectric constant tensor:
#      x y z
#    x 3.527810 0.000000 -0.095800 
#    y 0.000000 2.618290 0.000000 
#    z -0.095800 0.000000 3.193290 
# 
# 
# High freq. dielectric constant tensor:
#      x y z
#    x 1.642280 0.000000 -0.003170 
#    y 0.000000 1.577110 0.000000 
#    z -0.003170 0.000000 1.618990 
# 
# From -- ./inp_files/245147.got.cif
#   From: 2010.06.25/outbox.cif.g09.slc.cpg/sg12_123_cif.got.tgz:245147.got - 2010.06.28 00:19:55.
