data_PCOD8079708
_publ_section_title
;
Structure prediction by ZEFSAII (Michael W. Deem and Ramdas Pophale) SiO2 
 PCOD8079708
Probable space group: C 2/M
;
_chemical_formula_sum "Si O2"
_cell_formula_units_Z 44
_cell_length_a 18.512513
_cell_length_b 15.944369
_cell_length_c 10.981901
_cell_angle_alpha 90.000000
_cell_angle_beta 49.204137
_cell_angle_gamma 90.000000
_cell_volume 2453.976197
_symmetry_space_group_name_H-M "C 2/M"
_symmetry_group_IT_number 12
_symmetry_cell_setting 'monoclinic'
loop_
_space_group_symop_operation_xyz
x,y,z
-x,y,-z
-x,-y,-z
x,-y,z
1/2+x,1/2+y,z
1/2-x,1/2+y,-z
1/2-x,1/2-y,-z
1/2+x,1/2-y,z
loop_
_atom_site_type_symbol
_atom_site_label
_atom_site_fract_x
_atom_site_fract_y
_atom_site_fract_z
Si Si1 0.891775 0.133942 0.846376
Si Si2 0.210713 0.000000 0.495956
Si Si3 0.289599 0.902060 0.814762
Si Si4 0.027988 0.692732 0.330661
Si Si5 0.984324 0.000000 0.159557
Si Si6 0.649715 0.907301 0.514494
Si Si7 0.111277 0.000000 0.347514
O O1 0.939719 0.222052 0.766426
O O2 0.969437 0.082640 0.835721
O O3 0.863562 0.084083 0.754357
O O4 0.797142 0.149254 0.029905
O O5 0.276085 0.917153 0.453673
O O6 0.175347 0.000000 0.397614
O O7 0.126646 0.000000 0.686882
O O8 0.388020 0.875448 0.770625
O O9 0.293150 0.877084 0.668567
O O10 0.270095 0.000000 0.858630
O O11 0.000000 0.710887 0.500000
O O12 0.936219 0.656001 0.359230
O O13 0.000000 0.000000 0.000000
O O14 0.606442 0.000000 0.530504
O O15 0.000000 0.000000 0.500000
#
# Coordination Sequence:
#
# PCOD8079708 Si02
#       7
#     8   4   8   8   4   8   4
#     4  11  21  34  57  83 114 142 191 231 281 333
#     4  10  19  35  59  77 110 145 193 232 266 343
#     4  10  17  34  58  87 111 147 192 231 275 327
#     4  10  20  33  58  86 119 146 181 236 279 338
#     4  11  21  36  59  77 107 147 186 238 278 326
#     4   8  18  35  59  85 108 147 189 230 282 324
#     4  11  20  36  55  79 106 158 185 221 280 340
#
# _framework density 17.930083
#
# number of rings (size 3 to 8) (size 9 to 14) (size 15 to 20)
#    0.545    1.455    3.636    2.727    0.000    2.182 
#    0.000    0.909    8.000    1.091    0.000    0.000 
#    0.000    0.000    0.000    0.000    0.000    0.000 
#
# Total GULP energy -272705.491433 kJ/mol
# GULP energy per Si atom -12395.704156 kJ/mol
# Density = 1.788927 g / cm^3
# Si number density = 17.930083 Si / 1000 Ang^3
#
#
#
# Elastic Constant Matrix: (Units=GPa)
#
#
# Indices 1 2 3 4 5 6 
#
# 1 142.8610 44.2092 48.3109 0.0000 -2.5317 0.0000
# 2 44.2092 76.2074 54.9250 0.0000 -3.1759 0.0000
# 3 48.3109 54.9250 96.5566 0.0000 -17.9173 0.0000
# 4 0.0000 0.0000 0.0000 31.2342 0.0000 -7.6624
# 5 -2.5317 -3.1759 -17.9173 0.0000 27.8882 0.0000
# 6 0.0000 0.0000 0.0000 -7.6624 0.0000 13.0786
#
#
#
# Elastic Compliance Matrix: (Units=1/GPa)
#
#
# Indices 1 2 3 4 5 6 
#
# 1 0.008941 -0.003099 -0.002981 0.000000 -0.001456 0.000000
# 2 -0.003099 0.024352 -0.013442 0.000000 -0.006144 0.000000
# 3 -0.002981 -0.013442 0.021753 0.000000 0.012174 0.000000
# 4 0.000000 0.000000 0.000000 0.037390 0.000000 0.021906
# 5 -0.001456 -0.006144 0.012174 0.000000 0.042847 0.000000
# 6 0.000000 0.000000 0.000000 0.021906 0.000000 0.089295
#
#
# Mechanical properties :
#
#
# Convention : Reuss Voigt Hill
#
# Bulk Modulus (GPa) = 62.48933 67.83503 65.16218
# Shear Modulus (GPa) = 18.59039 25.65219 22.12129
#
# Velocity S-wave (km/s) = 3.22347 3.78653 3.51629
# Velocity P-wave (km/s) = 6.98439 7.55198 7.27372
#
# Compressibility (1/GPa) = 0.01600273
#
# Stress axis : x y z
#
# Youngs Moduli (GPa) = 111.84315 41.06485 45.97001
#
# Poissons Ratio (x) = 0.12727 0.13703
# Poissons Ratio (y) = 0.34662 0.61791
# Poissons Ratio (z) = 0.33339 0.55198
#
# Static dielectric constant tensor:
#      x y z
#    x 3.291650 0.000000 -0.081270 
#    y 0.000000 3.133290 0.000000 
#    z -0.081270 0.000000 3.422440 
# 
# 
# High freq. dielectric constant tensor:
#      x y z
#    x 1.682650 0.000000 -0.014690 
#    y 0.000000 1.679300 0.000000 
#    z -0.014690 0.000000 1.699370 
# 
# From -- ./inp_files/167071.got.cif
#   From: 2010.06.25/outbox.cif.g09.slc.cpg/sg12_84_cif.got.tgz:167071.got - 2010.06.28 00:19:55.
