data_PCOD8079629
_publ_section_title
;
Structure prediction by ZEFSAII (Michael W. Deem and Ramdas Pophale) SiO2 
 PCOD8079629
Probable space group: C 2/M
;
_chemical_formula_sum "Si O2"
_cell_formula_units_Z 64
_cell_length_a 16.403617
_cell_length_b 21.625396
_cell_length_c 18.983466
_cell_angle_alpha 90.000000
_cell_angle_beta 32.780952
_cell_angle_gamma 90.000000
_cell_volume 3646.032189
_symmetry_space_group_name_H-M "C 2/M"
_symmetry_group_IT_number 12
_symmetry_cell_setting 'monoclinic'
loop_
_space_group_symop_operation_xyz
x,y,z
-x,y,-z
-x,-y,-z
x,-y,z
1/2+x,1/2+y,z
1/2-x,1/2+y,-z
1/2-x,1/2-y,-z
1/2+x,1/2-y,z
loop_
_atom_site_type_symbol
_atom_site_label
_atom_site_fract_x
_atom_site_fract_y
_atom_site_fract_z
Si Si1 0.422175 0.331577 0.372387
Si Si2 0.143552 0.431230 0.358852
Si Si3 0.919744 0.068959 0.255418
Si Si4 0.614969 0.803027 0.659379
Si Si5 0.549005 0.650928 0.043822
Si Si6 0.743457 0.299919 0.180447
Si Si7 0.653434 0.834775 0.232852
Si Si8 0.014645 0.711087 0.885302
O O1 0.405402 0.391835 0.336856
O O2 0.404389 0.270347 0.337970
O O3 0.287538 0.327218 0.528342
O O4 0.588875 0.339068 0.285914
O O5 0.111747 0.500000 0.351105
O O6 0.257547 0.435413 0.339608
O O7 0.194811 0.386843 0.259387
O O8 0.000000 0.400976 0.500000
O O9 0.023858 0.098847 0.120090
O O10 0.980135 0.000000 0.229953
O O11 0.516444 0.840067 0.673010
O O12 0.544418 0.816549 0.786821
O O13 0.464714 0.714624 0.125566
O O14 0.500000 0.631362 0.000000
O O15 0.729154 0.658418 0.916377
O O16 0.683887 0.231998 0.244148
O O17 0.855718 0.321096 0.161018
O O18 0.844429 0.304342 0.035425
#
# Coordination Sequence:
#
# PCOD8079629 Si02
#       8
#     8   8   8   8   8   8   8   8
#     4  10  21  35  48  78 107 134 176 218 258 311
#     4  10  20  33  49  68  98 144 184 210 248 304
#     4  11  22  34  52  74 104 144 179 214 254 303
#     4  10  21  32  52  76 106 137 171 217 264 312
#     4  11  18  32  51  74 106 138 178 214 248 306
#     4   9  19  32  52  77 103 135 168 207 269 319
#     4  10  19  32  48  73 102 141 172 213 262 302
#     4  10  17  33  53  78 103 137 169 207 269 319
#
# _framework density 17.553329000000002
#
# number of rings (size 3 to 8) (size 9 to 14) (size 15 to 20)
#    0.000    1.875    5.000    0.750    1.750    2.750 
#    0.000    0.000    0.000    0.000    0.000    4.375 
#    0.000    0.000    0.000    0.000    0.000    0.000 
#
# Total GULP energy -396502.371323 kJ/mol
# GULP energy per Si atom -12390.699104 kJ/mol
# Density = 1.751338 g / cm^3
# Si number density = 17.553329 Si / 1000 Ang^3
#
#
#
# Elastic Constant Matrix: (Units=GPa)
#
#
# Indices 1 2 3 4 5 6 
#
# 1 64.5839 28.0411 38.0849 -0.0085 -6.2777 -0.0039
# 2 28.0411 63.4592 18.4043 0.0094 4.8788 0.0141
# 3 38.0849 18.4043 93.3516 0.0251 -13.0422 0.0369
# 4 -0.0085 0.0094 0.0251 40.4752 -0.0173 31.4481
# 5 -6.2777 4.8788 -13.0422 -0.0173 32.1945 -0.0232
# 6 -0.0039 0.0141 0.0369 31.4481 -0.0232 59.3464
#
#
#
# Elastic Compliance Matrix: (Units=1/GPa)
#
#
# Indices 1 2 3 4 5 6 
#
# 1 0.024050 -0.008611 -0.007713 0.000010 0.002870 0.000004
# 2 -0.008611 0.020323 -0.001228 -0.000005 -0.005256 -0.000004
# 3 -0.007713 -0.001228 0.014752 -0.000004 0.004658 -0.000005
# 4 0.000010 -0.000005 -0.000004 0.041998 0.000007 -0.022255
# 5 0.002870 -0.005256 0.004658 0.000007 0.034304 0.000008
# 6 0.000004 -0.000004 -0.000005 -0.022255 0.000008 0.028643
#
#
# Mechanical properties :
#
#
# Convention : Reuss Voigt Hill
#
# Bulk Modulus (GPa) = 41.63035 43.38392 42.50713
# Shear Modulus (GPa) = 24.13343 35.52751 29.83047
#
# Velocity S-wave (km/s) = 3.71194 4.50374 4.12687
# Velocity P-wave (km/s) = 6.49148 7.19820 6.85395
#
# Compressibility (1/GPa) = 0.02402094
#
# Stress axis : x y z
#
# Youngs Moduli (GPa) = 41.58068 49.20446 67.78814
#
# Poissons Ratio (x) = 0.42368 0.52285
# Poissons Ratio (y) = 0.35804 0.08326
# Poissons Ratio (z) = 0.32071 0.06043
#
# Static dielectric constant tensor:
#      x y z
#    x 3.302730 0.000030 -0.116950 
#    y 0.000030 3.045330 0.000040 
#    z -0.116950 0.000040 3.470600 
# 
# 
# High freq. dielectric constant tensor:
#      x y z
#    x 1.662340 0.000000 -0.012330 
#    y 0.000000 1.633160 0.000000 
#    z -0.012330 0.000000 1.694670 
# 
# From -- ./inp_files/317783.got.cif
#   From: 2010.06.25/outbox.cif.g09.slc.cpg/sg12_159_cif.got.tgz:317783.got - 2010.06.28 00:19:55.
