data_PCOD8079888
_publ_section_title
;
Structure prediction by ZEFSAII (Michael W. Deem and Ramdas Pophale) SiO2 
 PCOD8079888
Probable space group: C 2/M
;
_chemical_formula_sum "Si O2"
_cell_formula_units_Z 64
_cell_length_a 26.985923
_cell_length_b 9.135319
_cell_length_c 26.507518
_cell_angle_alpha 90.000000
_cell_angle_beta 40.857780
_cell_angle_gamma 90.000000
_cell_volume 4274.937347
_symmetry_space_group_name_H-M "C 2/M"
_symmetry_group_IT_number 12
_symmetry_cell_setting 'monoclinic'
loop_
_space_group_symop_operation_xyz
x,y,z
-x,y,-z
-x,-y,-z
x,-y,z
1/2+x,1/2+y,z
1/2-x,1/2+y,-z
1/2-x,1/2-y,-z
1/2+x,1/2-y,z
loop_
_atom_site_type_symbol
_atom_site_label
_atom_site_fract_x
_atom_site_fract_y
_atom_site_fract_z
Si Si1 0.654867 0.828922 0.026760
Si Si2 0.303788 0.832290 0.894044
Si Si3 0.612392 0.330509 0.879817
Si Si4 0.264420 0.324463 0.743344
Si Si5 0.549688 0.668820 0.036277
Si Si6 0.874146 0.669939 0.735058
Si Si7 0.994359 0.834310 0.586917
Si Si8 0.116714 0.836822 0.421936
O O1 0.654264 0.787862 0.086455
O O2 0.579477 0.763252 0.060014
O O3 0.654979 0.000000 0.017150
O O4 0.729134 0.763817 0.942714
O O5 0.362306 0.806262 0.803683
O O6 0.276598 0.000000 0.917235
O O7 0.636901 0.500000 0.858170
O O8 0.678411 0.228023 0.807965
O O9 0.539419 0.301032 0.901315
O O10 0.593864 0.286382 0.951436
O O11 0.269137 0.500000 0.744290
O O12 0.307153 0.254213 0.757998
O O13 0.304223 0.269183 0.659789
O O14 0.564598 0.500000 0.036711
O O15 0.870910 0.500000 0.722288
O O16 0.958013 0.732934 0.658195
O O17 0.936630 0.838848 0.585433
O O18 0.073394 0.763322 0.503523
O O19 0.006392 0.000000 0.598248
O O20 0.132364 0.000000 0.428743
#
# Coordination Sequence:
#
# PCOD8079888 Si02
#       8
#     8   8   8   8   8   8   8   8
#     4  10  19  30  45  62  78 101 137 173 198 229
#     4   9  19  32  42  56  82 111 133 160 203 244
#     4   9  18  31  44  59  80 107 135 160 195 242
#     4  10  18  27  40  59  82 107 136 168 198 228
#     4   9  18  32  46  58  79 109 133 159 201 244
#     4  10  18  27  39  56  81 110 136 163 198 237
#     4   8  13  24  39  53  73 103 136 163 190 229
#     4   7  12  23  37  52  75 106 131 156 196 236
#
# _framework density 14.970980000000001
#
# number of rings (size 3 to 8) (size 9 to 14) (size 15 to 20)
#    0.000    3.000    0.000    4.125    0.000    5.500 
#    0.000    6.875    0.000    0.000    0.000    0.000 
#    0.000    1.000    0.000    2.250    0.000    4.250 
#
# Total GULP energy -396497.806547 kJ/mol
# GULP energy per Si atom -12390.556455 kJ/mol
# Density = 1.493691 g / cm^3
# Si number density = 14.970980 Si / 1000 Ang^3
#
#
#
# Elastic Constant Matrix: (Units=GPa)
#
#
# Indices 1 2 3 4 5 6 
#
# 1 60.0858 31.3556 35.9554 0.0013 -1.5917 -0.0105
# 2 31.3556 64.0337 45.6578 0.0035 -2.9462 -0.0203
# 3 35.9554 45.6578 122.2168 -0.0001 -11.5749 -0.0076
# 4 0.0013 0.0035 -0.0001 24.3457 0.0011 -1.9451
# 5 -1.5917 -2.9462 -11.5749 0.0011 16.5318 0.0015
# 6 -0.0105 -0.0203 -0.0076 -1.9451 0.0015 21.2156
#
#
#
# Elastic Compliance Matrix: (Units=1/GPa)
#
#
# Indices 1 2 3 4 5 6 
#
# 1 0.023495 -0.008907 -0.003771 0.000000 -0.001965 0.000002
# 2 -0.008907 0.024719 -0.006724 -0.000002 -0.001160 0.000017
# 3 -0.003771 -0.006724 0.012484 0.000001 0.007179 -0.000004
# 4 0.000000 -0.000002 0.000001 0.041378 -0.000003 0.003794
# 5 -0.001965 -0.001160 0.007179 -0.000003 0.065120 -0.000004
# 6 0.000002 0.000017 -0.000004 0.003794 -0.000004 0.047483
#
#
# Mechanical properties :
#
#
# Convention : Reuss Voigt Hill
#
# Bulk Modulus (GPa) = 45.67375 52.47486 49.07431
# Shear Modulus (GPa) = 19.17317 21.30979 20.24148
#
# Velocity S-wave (km/s) = 3.58255 3.77690 3.68101
# Velocity P-wave (km/s) = 6.90560 7.35847 7.13563
#
# Compressibility (1/GPa) = 0.02189441
#
# Stress axis : x y z
#
# Youngs Moduli (GPa) = 42.56178 40.45420 80.10556
#
# Poissons Ratio (x) = 0.36031 0.30207
# Poissons Ratio (y) = 0.37908 0.53865
# Poissons Ratio (z) = 0.16050 0.27202
#
# Static dielectric constant tensor:
#      x y z
#    x 2.585210 -0.000020 -0.111890 
#    y -0.000020 2.862540 0.000020 
#    z -0.111890 0.000020 3.268010 
# 
# 
# High freq. dielectric constant tensor:
#      x y z
#    x 1.526820 0.000000 -0.008620 
#    y 0.000000 1.569360 0.000000 
#    z -0.008620 0.000000 1.578800 
# 
# From -- ./inp_files/350938.got.cif
#   From: 2010.06.25/outbox.cif.g09.slc.cpg/sg12_176_cif.got.tgz:350938.got - 2010.06.28 00:19:55.
