data_PCOD8079912
_publ_section_title
;
Structure prediction by ZEFSAII (Michael W. Deem and Ramdas Pophale) SiO2 
 PCOD8079912
Probable space group: C 2/M
;
_chemical_formula_sum "Si O2"
_cell_formula_units_Z 64
_cell_length_a 24.318715
_cell_length_b 9.082595
_cell_length_c 24.216432
_cell_angle_alpha 90.000000
_cell_angle_beta 49.136282
_cell_angle_gamma 90.000000
_cell_volume 4045.166571
_symmetry_space_group_name_H-M "C 2/M"
_symmetry_group_IT_number 12
_symmetry_cell_setting 'monoclinic'
loop_
_space_group_symop_operation_xyz
x,y,z
-x,y,-z
-x,-y,-z
x,-y,z
1/2+x,1/2+y,z
1/2-x,1/2+y,-z
1/2-x,1/2-y,-z
1/2+x,1/2-y,z
loop_
_atom_site_type_symbol
_atom_site_label
_atom_site_fract_x
_atom_site_fract_y
_atom_site_fract_z
Si Si1 0.177277 0.170170 0.486514
Si Si2 0.328176 0.336760 0.831349
Si Si3 0.701417 0.172918 0.986407
Si Si4 0.920359 0.167082 0.882148
Si Si5 0.178251 0.828846 0.614586
Si Si6 0.478419 0.327313 0.453040
Si Si7 0.055756 0.328571 0.304204
Si Si8 0.037864 0.326292 0.741037
O O1 0.164434 0.201439 0.559314
O O2 0.242616 0.269103 0.420130
O O3 0.104895 0.219516 0.502148
O O4 0.196764 0.000000 0.463467
O O5 0.336483 0.500000 0.800575
O O6 0.242751 0.303158 0.900282
O O7 0.370172 0.328156 0.861465
O O8 0.362579 0.222781 0.765382
O O9 0.693891 0.000000 0.004970
O O10 0.750000 0.250000 0.000000
O O11 0.621842 0.249396 0.040002
O O12 0.994986 0.252651 0.820112
O O13 0.937750 0.000000 0.888693
O O14 0.118499 0.739963 0.688370
O O15 0.172741 0.000000 0.633072
O O16 0.500000 0.277494 0.500000
O O17 0.488036 0.500000 0.437395
O O18 0.532150 0.248474 0.375724
O O19 0.057516 0.500000 0.313931
O O20 0.000479 0.285189 0.291665
O O21 0.040804 0.500000 0.748403
#
# Coordination Sequence:
#
# PCOD8079912 Si02
#       8
#     8   8   8   8   8   8   8   8
#     4   9  18  31  45  63  84 107 137 175 214 258
#     4   8  15  25  37  51  72 103 137 172 207 245
#     4   9  15  23  34  50  72 102 137 172 207 245
#     4   9  16  24  35  52  76 106 138 172 207 247
#     4  10  18  28  45  64  84 110 138 176 216 254
#     4  10  20  34  50  64  82 111 143 176 217 262
#     4  10  19  28  41  60  81 105 138 178 216 253
#     4  10  18  27  40  59  83 111 141 175 212 252
#
# _framework density 15.821350000000001
#
# number of rings (size 3 to 8) (size 9 to 14) (size 15 to 20)
#    0.000    2.625    1.250    2.625    0.000    5.750 
#    0.000    0.000    0.000    0.000    0.000    0.000 
#    0.000    0.000    0.000    1.125    0.000   22.625 
#
# Total GULP energy -396696.708692 kJ/mol
# GULP energy per Si atom -12396.772147 kJ/mol
# Density = 1.578534 g / cm^3
# Si number density = 15.821350 Si / 1000 Ang^3
#
#
#
# Elastic Constant Matrix: (Units=GPa)
#
#
# Indices 1 2 3 4 5 6 
#
# 1 49.9978 24.6465 39.8280 -0.0001 -9.4585 0.0002
# 2 24.6465 86.3398 63.6718 -0.0003 -14.7235 0.0016
# 3 39.8280 63.6718 125.3524 0.0003 -30.1619 -0.0001
# 4 -0.0001 -0.0003 0.0003 32.8763 -0.0002 -7.6964
# 5 -9.4585 -14.7235 -30.1619 -0.0002 18.8623 0.0002
# 6 0.0002 0.0016 -0.0001 -7.6964 0.0002 13.9419
#
#
#
# Elastic Compliance Matrix: (Units=1/GPa)
#
#
# Indices 1 2 3 4 5 6 
#
# 1 0.027040 -0.002210 -0.007512 0.000000 -0.000177 0.000000
# 2 -0.002210 0.018710 -0.009028 0.000000 -0.000939 -0.000002
# 3 -0.007512 -0.009028 0.020070 0.000000 0.021279 0.000001
# 4 0.000000 0.000000 0.000000 0.034931 0.000000 0.019283
# 5 -0.000177 -0.000939 0.021279 0.000000 0.086221 -0.000001
# 6 0.000000 -0.000002 0.000001 0.019283 -0.000001 0.082371
#
#
# Mechanical properties :
#
#
# Convention : Reuss Voigt Hill
#
# Bulk Modulus (GPa) = 35.30735 57.55362 46.43048
# Shear Modulus (GPa) = 15.80863 22.03902 18.92383
#
# Velocity S-wave (km/s) = 3.16444 3.73633 3.46221
# Velocity P-wave (km/s) = 5.97631 7.42090 6.73743
#
# Compressibility (1/GPa) = 0.02832272
#
# Stress axis : x y z
#
# Youngs Moduli (GPa) = 36.98168 53.44676 49.82579
#
# Poissons Ratio (x) = 0.11809 0.37428
# Poissons Ratio (y) = 0.08171 0.44981
# Poissons Ratio (z) = 0.27780 0.48250
#
# Static dielectric constant tensor:
#      x y z
#    x 2.553130 0.000000 -0.328440 
#    y 0.000000 3.102990 0.000000 
#    z -0.328440 0.000000 3.330780 
# 
# 
# High freq. dielectric constant tensor:
#      x y z
#    x 1.534580 0.000000 -0.036240 
#    y 0.000000 1.621200 0.000000 
#    z -0.036240 0.000000 1.613720 
# 
# From -- ./inp_files/326627.got.cif
#   From: 2010.06.25/outbox.cif.g09.slc.cpg/sg12_164_cif.got.tgz:326627.got - 2010.06.28 00:19:55.
