data_PCOD8079144
_publ_section_title
;
Structure prediction by ZEFSAII (Michael W. Deem and Ramdas Pophale) SiO2 
 PCOD8079144
Probable space group: C 2/M
;
_chemical_formula_sum "Si O2"
_cell_formula_units_Z 56
_cell_length_a 28.491985
_cell_length_b 12.473688
_cell_length_c 26.817204
_cell_angle_alpha 90.000000
_cell_angle_beta 159.033769
_cell_angle_gamma 90.000000
_cell_volume 3410.302026
_symmetry_space_group_name_H-M "C 2/M"
_symmetry_group_IT_number 12
_symmetry_cell_setting 'monoclinic'
loop_
_space_group_symop_operation_xyz
x,y,z
-x,y,-z
-x,-y,-z
x,-y,z
1/2+x,1/2+y,z
1/2-x,1/2+y,-z
1/2-x,1/2-y,-z
1/2+x,1/2-y,z
loop_
_atom_site_type_symbol
_atom_site_label
_atom_site_fract_x
_atom_site_fract_y
_atom_site_fract_z
Si Si1 0.536890 0.248707 0.280011
Si Si2 0.151574 0.375842 0.637982
Si Si3 0.715463 0.807359 0.595085
Si Si4 0.498245 0.377491 0.148708
Si Si5 0.046569 0.622567 0.714131
Si Si6 0.266234 0.375101 0.460368
Si Si7 0.741922 0.373885 0.153742
O O1 0.460358 0.304068 0.158462
O O2 0.437148 0.192885 0.219541
O O3 0.617503 0.342947 0.387016
O O4 0.630574 0.154960 0.352426
O O5 0.183295 0.500000 0.657144
O O6 0.190694 0.304221 0.629465
O O7 0.235857 0.330129 0.768209
O O8 0.000000 0.361208 0.500000
O O9 0.601215 0.872207 0.453570
O O10 0.719814 0.686325 0.578580
O O11 0.851724 0.866166 0.718608
O O12 0.468355 0.500000 0.133310
O O13 0.403213 0.342370 0.008901
O O14 0.081395 0.500000 0.761305
O O15 0.147886 0.672045 0.774563
O O16 0.271420 0.500000 0.453843
O O17 0.765231 0.500000 0.180039
#
# Coordination Sequence:
#
# PCOD8079144 Si02
#       7
#     8   8   8   8   8   8   8
#     4   9  18  27  46  69  89 127 157 182 232 266
#     4  10  17  29  49  72  94 117 150 191 230 273
#     4  10  19  29  49  72  89 122 155 184 235 273
#     4  10  19  31  43  66 100 123 148 186 229 278
#     4  10  17  29  46  69  94 121 159 190 217 270
#     4   9  17  30  45  70  98 118 153 197 227 267
#     4   9  19  30  44  67  96 125 148 184 234 273
#
# _framework density 16.420832000000001
#
# number of rings (size 3 to 8) (size 9 to 14) (size 15 to 20)
#    0.000    2.429    1.429    3.000    0.000    1.143 
#    0.000    2.143    0.000    0.429    0.000   18.000 
#    0.000    0.000    0.000    0.000    0.000    0.000 
#
# Total GULP energy -347160.423878 kJ/mol
# GULP energy per Si atom -12398.586567 kJ/mol
# Density = 1.638346 g / cm^3
# Si number density = 16.420832 Si / 1000 Ang^3
#
#
#
# Elastic Constant Matrix: (Units=GPa)
#
#
# Indices 1 2 3 4 5 6 
#
# 1 111.5391 31.1326 21.8367 0.0009 -18.3322 0.0003
# 2 31.1326 73.5129 13.3418 0.0020 -10.7140 0.0012
# 3 21.8367 13.3418 76.1695 0.0009 -12.8976 0.0006
# 4 0.0009 0.0020 0.0009 10.8853 0.0004 -2.9119
# 5 -18.3322 -10.7140 -12.8976 0.0004 29.1203 0.0002
# 6 0.0003 0.0012 0.0006 -2.9119 0.0002 22.0749
#
#
#
# Elastic Compliance Matrix: (Units=1/GPa)
#
#
# Indices 1 2 3 4 5 6 
#
# 1 0.011136 -0.003691 -0.001718 0.000000 0.004892 0.000000
# 2 -0.003691 0.015817 -0.001211 -0.000003 0.002959 -0.000001
# 3 -0.001718 -0.001211 0.014675 -0.000001 0.004973 -0.000001
# 4 0.000000 -0.000003 -0.000001 0.095228 -0.000003 0.012562
# 5 0.004892 0.002959 0.004973 -0.000003 0.040711 -0.000001
# 6 0.000000 -0.000001 -0.000001 0.012562 -0.000001 0.046957
#
#
# Mechanical properties :
#
#
# Convention : Reuss Voigt Hill
#
# Bulk Modulus (GPa) = 35.22603 43.76042 39.49323
# Shear Modulus (GPa) = 20.22423 25.41010 22.81717
#
# Velocity S-wave (km/s) = 3.51325 3.93801 3.73168
# Velocity P-wave (km/s) = 6.16083 6.88363 6.53224
#
# Compressibility (1/GPa) = 0.02838810
#
# Stress axis : x y z
#
# Youngs Moduli (GPa) = 89.79831 63.22115 68.14202
#
# Poissons Ratio (x) = 0.23338 0.11705
# Poissons Ratio (y) = 0.33149 0.08253
# Poissons Ratio (z) = 0.15424 0.07657
#
# Static dielectric constant tensor:
#      x y z
#    x 3.263450 0.000000 -0.129800 
#    y 0.000000 2.758500 0.000000 
#    z -0.129800 0.000000 3.076760 
# 
# 
# High freq. dielectric constant tensor:
#      x y z
#    x 1.638730 0.000000 -0.005350 
#    y 0.000000 1.591260 0.000000 
#    z -0.005350 0.000000 1.627240 
# 
# From -- ./inp_files/109873.got.cif
#   From: 2010.06.25/outbox.cif.g09.slc.cpg/sg12_55_cif.got.tgz:109873.got - 2010.06.28 00:19:55.
