data_PCOD8079547
_publ_section_title
;
Structure prediction by ZEFSAII (Michael W. Deem and Ramdas Pophale) SiO2 
 PCOD8079547
Probable space group: C 2/M
;
_chemical_formula_sum "Si O2"
_cell_formula_units_Z 60
_cell_length_a 17.948444
_cell_length_b 13.861303
_cell_length_c 16.375592
_cell_angle_alpha 90.000000
_cell_angle_beta 56.821518
_cell_angle_gamma 90.000000
_cell_volume 3409.869113
_symmetry_space_group_name_H-M "C 2/M"
_symmetry_group_IT_number 12
_symmetry_cell_setting 'monoclinic'
loop_
_space_group_symop_operation_xyz
x,y,z
-x,y,-z
-x,-y,-z
x,-y,z
1/2+x,1/2+y,z
1/2-x,1/2+y,-z
1/2-x,1/2-y,-z
1/2+x,1/2-y,z
loop_
_atom_site_type_symbol
_atom_site_label
_atom_site_fract_x
_atom_site_fract_y
_atom_site_fract_z
Si Si1 0.189523 0.888227 0.301189
Si Si2 0.582593 0.734313 0.242724
Si Si3 0.659676 0.745512 0.807429
Si Si4 0.724728 0.610891 0.465266
Si Si5 0.620430 0.608900 0.062251
Si Si6 0.000000 0.807817 0.000000
Si Si7 0.122816 0.241986 0.643510
Si Si8 0.271257 0.111956 0.847845
O O1 0.111065 0.830320 0.303304
O O2 0.284604 0.844188 0.217398
O O3 0.178649 0.874426 0.404748
O O4 0.187190 0.000000 0.276895
O O5 0.604398 0.677990 0.147340
O O6 0.479805 0.761239 0.315146
O O7 0.634123 0.835259 0.205733
O O8 0.633415 0.718538 0.731846
O O9 0.714778 0.653936 0.806487
O O10 0.571637 0.762122 0.914254
O O11 0.744965 0.500000 0.470962
O O12 0.819357 0.664813 0.415850
O O13 0.655708 0.649428 0.573411
O O14 0.614610 0.500000 0.098098
O O15 0.544643 0.623117 0.039914
O O16 0.717451 0.628882 0.964556
O O17 0.288596 0.000000 0.820711
#
# Coordination Sequence:
#
# PCOD8079547 Si02
#       8
#     8   8   8   8   8   4   8   8
#     4   9  19  36  54  74 105 142 173 210 264 315
#     4  11  20  33  54  79 107 135 173 220 258 308
#     4   9  18  34  54  75 105 139 174 217 258 308
#     4   9  20  38  57  75 103 138 172 216 268 316
#     4  10  19  31  49  76 107 139 176 215 256 303
#     4  10  17  32  51  76 108 140 169 214 265 300
#     4  10  20  35  55  82 103 131 177 221 264 306
#     4   9  20  35  51  73 106 147 177 206 257 311
#
# _framework density 17.595983
#
# number of rings (size 3 to 8) (size 9 to 14) (size 15 to 20)
#    0.000    2.400    1.333    1.000    0.000    3.200 
#    0.000    1.667    0.000    0.000    0.000    7.467 
#    0.000    0.000    0.000    0.000    0.000    0.000 
#
# Total GULP energy -372013.872667 kJ/mol
# GULP energy per Si atom -12400.462422 kJ/mol
# Density = 1.755593 g / cm^3
# Si number density = 17.595983 Si / 1000 Ang^3
#
#
#
# Elastic Constant Matrix: (Units=GPa)
#
#
# Indices 1 2 3 4 5 6 
#
# 1 110.6711 50.0776 57.5929 0.0000 -13.0559 0.0000
# 2 50.0776 100.5353 39.7921 0.0000 -3.4593 0.0000
# 3 57.5929 39.7921 94.3776 0.0000 -11.5603 0.0000
# 4 0.0000 0.0000 0.0000 21.6397 0.0000 4.1509
# 5 -13.0559 -3.4593 -11.5603 0.0000 28.6597 0.0000
# 6 0.0000 0.0000 0.0000 4.1509 0.0000 18.7630
#
#
#
# Elastic Compliance Matrix: (Units=1/GPa)
#
#
# Indices 1 2 3 4 5 6 
#
# 1 0.015138 -0.004722 -0.006808 0.000000 0.003580 0.000000
# 2 -0.004722 0.013423 -0.002990 0.000000 -0.001737 0.000000
# 3 -0.006808 -0.002990 0.016397 0.000000 0.003152 0.000000
# 4 0.000000 0.000000 0.000000 0.048259 0.000000 -0.010676
# 5 0.003580 -0.001737 0.003152 0.000000 0.037585 0.000000
# 6 0.000000 0.000000 0.000000 -0.010676 0.000000 0.055658
#
#
# Mechanical properties :
#
#
# Convention : Reuss Voigt Hill
#
# Bulk Modulus (GPa) = 62.82997 66.72324 64.77660
# Shear Modulus (GPa) = 22.64417 24.35392 23.49904
#
# Velocity S-wave (km/s) = 3.59122 3.72433 3.65838
# Velocity P-wave (km/s) = 7.27876 7.51639 7.39853
#
# Compressibility (1/GPa) = 0.01591597
#
# Stress axis : x y z
#
# Youngs Moduli (GPa) = 66.05938 74.49963 60.98606
#
# Poissons Ratio (x) = 0.35182 0.41520
# Poissons Ratio (y) = 0.31196 0.18237
# Poissons Ratio (z) = 0.44974 0.22278
#
# Static dielectric constant tensor:
#      x y z
#    x 3.358840 0.000000 0.034640 
#    y 0.000000 3.181010 0.000000 
#    z 0.034640 0.000000 3.368660 
# 
# 
# High freq. dielectric constant tensor:
#      x y z
#    x 1.684150 0.000000 0.004210 
#    y 0.000000 1.672920 0.000000 
#    z 0.004210 0.000000 1.682810 
# 
# From -- ./inp_files/277610.got.cif
#   From: 2010.06.25/outbox.cif.g09.slc.cpg/sg12_139_cif.got.tgz:277610.got - 2010.06.28 00:19:55.
