data_PCOD8079660
_publ_section_title
;
Structure prediction by ZEFSAII (Michael W. Deem and Ramdas Pophale) SiO2 
 PCOD8079660
Probable space group: C 2/M
;
_chemical_formula_sum "Si O2"
_cell_formula_units_Z 44
_cell_length_a 24.684159
_cell_length_b 12.964165
_cell_length_c 9.301232
_cell_angle_alpha 90.000000
_cell_angle_beta 129.785108
_cell_angle_gamma 90.000000
_cell_volume 2287.277745
_symmetry_space_group_name_H-M "C 2/M"
_symmetry_group_IT_number 12
_symmetry_cell_setting 'monoclinic'
loop_
_space_group_symop_operation_xyz
x,y,z
-x,y,-z
-x,-y,-z
x,-y,z
1/2+x,1/2+y,z
1/2-x,1/2+y,-z
1/2-x,1/2-y,-z
1/2+x,1/2-y,z
loop_
_atom_site_type_symbol
_atom_site_label
_atom_site_fract_x
_atom_site_fract_y
_atom_site_fract_z
Si Si1 0.685795 0.314080 0.707952
Si Si2 0.581327 0.883172 0.799487
Si Si3 0.167834 0.500000 0.473439
Si Si4 0.723641 0.500000 0.572032
Si Si5 0.319869 0.500000 0.806636
Si Si6 0.320539 0.694484 0.978583
Si Si7 0.423107 0.160527 0.535464
O O1 0.713320 0.401460 0.651562
O O2 0.740606 0.218709 0.794744
O O3 0.608902 0.275956 0.523484
O O4 0.678964 0.352906 0.860144
O O5 0.588059 0.891045 0.639216
O O6 0.505010 0.839387 0.715813
O O7 0.593478 0.000000 0.880204
O O8 0.636696 0.802219 0.959780
O O9 0.196941 0.500000 0.358377
O O10 0.235459 0.500000 0.695493
O O11 0.119458 0.599452 0.415307
O O12 0.667230 0.500000 0.343886
O O13 0.352460 0.604654 0.930869
#
# Coordination Sequence:
#
# PCOD8079660 Si02
#       7
#     8   8   4   4   4   8   8
#     4  10  20  35  55  86 111 151 189 240 280 333
#     4  10  19  31  57  89 117 146 180 242 294 342
#     4  10  18  31  57  80 105 150 185 233 265 333
#     4  10  23  35  57  83 114 156 195 231 270 342
#     4  10  21  37  54  83 115 153 190 233 275 334
#     4  10  21  33  58  88 117 143 185 243 296 320
#     4  10  17  33  56  84 116 143 190 232 290 340
#
# _framework density 19.236841999999999
#
# number of rings (size 3 to 8) (size 9 to 14) (size 15 to 20)
#    0.545    1.455    3.636    1.091    1.273    2.909 
#    0.000    0.909    0.000   10.909    0.000    0.000 
#    0.000    0.000    0.000    0.000    0.000    0.000 
#
# Total GULP energy -272661.743569 kJ/mol
# GULP energy per Si atom -12393.715617 kJ/mol
# Density = 1.919306 g / cm^3
# Si number density = 19.236842 Si / 1000 Ang^3
#
#
#
# Elastic Constant Matrix: (Units=GPa)
#
#
# Indices 1 2 3 4 5 6 
#
# 1 103.3327 50.6773 34.1473 0.0000 -4.0585 0.0000
# 2 50.6773 99.3847 43.8858 0.0000 -14.1628 0.0000
# 3 34.1473 43.8858 58.6950 0.0000 -10.4860 0.0000
# 4 0.0000 0.0000 0.0000 28.3739 0.0000 1.8205
# 5 -4.0585 -14.1628 -10.4860 0.0000 29.2475 0.0000
# 6 0.0000 0.0000 0.0000 1.8205 0.0000 32.4518
#
#
#
# Elastic Compliance Matrix: (Units=1/GPa)
#
#
# Indices 1 2 3 4 5 6 
#
# 1 0.013655 -0.005372 -0.004331 0.000000 -0.002259 0.000000
# 2 -0.005372 0.017472 -0.009146 0.000000 0.004436 0.000000
# 3 -0.004331 -0.009146 0.027241 0.000000 0.004737 0.000000
# 4 0.000000 0.000000 0.000000 0.035371 0.000000 -0.001984
# 5 -0.002259 0.004436 0.004737 0.000000 0.037724 0.000000
# 6 0.000000 0.000000 0.000000 -0.001984 0.000000 0.030926
#
#
# Mechanical properties :
#
#
# Convention : Reuss Voigt Hill
#
# Bulk Modulus (GPa) = 48.37840 57.64816 53.01328
# Shear Modulus (GPa) = 24.15734 26.86144 25.50939
#
# Velocity S-wave (km/s) = 3.54755 3.74084 3.64547
# Velocity P-wave (km/s) = 6.47947 6.97790 6.73330
#
# Compressibility (1/GPa) = 0.02067038
#
# Stress axis : x y z
#
# Youngs Moduli (GPa) = 73.23555 57.23459 36.70908
#
# Poissons Ratio (x) = 0.30748 0.15898
# Poissons Ratio (y) = 0.39344 0.33573
# Poissons Ratio (z) = 0.31717 0.52345
#
# Static dielectric constant tensor:
#      x y z
#    x 3.455400 0.000000 0.088210 
#    y 0.000000 3.455550 0.000000 
#    z 0.088210 0.000000 3.255580 
# 
# 
# High freq. dielectric constant tensor:
#      x y z
#    x 1.734520 0.000000 0.001220 
#    y 0.000000 1.744380 0.000000 
#    z 0.001220 0.000000 1.719560 
# 
# From -- ./inp_files/95087.got.cif
#   From: 2010.06.25/outbox.cif.g09.slc.cpg/sg12_48_cif.got.tgz:95087.got - 2010.06.28 00:19:55.
