data_PCOD8079955
_publ_section_title
;
Structure prediction by ZEFSAII (Michael W. Deem and Ramdas Pophale) SiO2 
 PCOD8079955
Probable space group: C 2/M
;
_chemical_formula_sum "Si O2"
_cell_formula_units_Z 56
_cell_length_a 27.313887
_cell_length_b 9.473799
_cell_length_c 14.344229
_cell_angle_alpha 90.000000
_cell_angle_beta 104.070898
_cell_angle_gamma 90.000000
_cell_volume 3600.432404
_symmetry_space_group_name_H-M "C 2/M"
_symmetry_group_IT_number 12
_symmetry_cell_setting 'monoclinic'
loop_
_space_group_symop_operation_xyz
x,y,z
-x,y,-z
-x,-y,-z
x,-y,z
1/2+x,1/2+y,z
1/2-x,1/2+y,-z
1/2-x,1/2-y,-z
1/2+x,1/2-y,z
loop_
_atom_site_type_symbol
_atom_site_label
_atom_site_fract_x
_atom_site_fract_y
_atom_site_fract_z
Si Si1 0.207150 0.659567 0.613460
Si Si2 0.442333 0.165808 0.459958
Si Si3 0.820916 0.837920 0.713076
Si Si4 0.711163 0.335654 0.103742
Si Si5 0.870231 0.836175 0.308938
Si Si6 0.691548 0.661120 0.890586
Si Si7 0.865281 0.658897 0.582226
O O1 0.196008 0.500000 0.645412
O O2 0.266193 0.691726 0.643489
O O3 0.178682 0.774367 0.662372
O O4 0.187193 0.672112 0.498531
O O5 0.500000 0.209862 0.500000
O O6 0.420405 0.250880 0.361116
O O7 0.411415 0.210182 0.537997
O O8 0.435943 0.000000 0.436644
O O9 0.821653 0.788162 0.821782
O O10 0.862543 0.751896 0.674275
O O11 0.836399 0.000000 0.711403
O O12 0.724104 0.500000 0.120375
O O13 0.764534 0.257887 0.130022
O O14 0.680668 0.301868 0.994270
O O15 0.859677 0.817706 0.193021
O O16 0.876809 0.000000 0.339061
O O17 0.710516 0.500000 0.891110
O O18 0.875331 0.500000 0.619768
#
# Coordination Sequence:
#
# PCOD8079955 Si02
#       7
#     8   8   8   8   8   8   8
#     4   9  17  29  41  58  86 122 156 178 205 252
#     4   9  19  36  53  67  85 111 143 179 223 274
#     4  10  18  27  41  61  87 121 154 180 209 250
#     4   9  17  28  42  59  86 123 157 184 209 246
#     4  10  18  27  44  69  93 115 143 183 225 259
#     4   9  17  28  41  62  89 118 151 185 219 249
#     4   9  18  29  43  62  85 111 141 179 220 263
#
# _framework density 15.553687999999999
#
# number of rings (size 3 to 8) (size 9 to 14) (size 15 to 20)
#    0.000    2.714    1.429    1.714    0.000    4.286 
#    0.000    0.000    0.000    0.000    0.000    1.000 
#    0.000    8.000    0.000    0.000    0.000    0.000 
#
# Total GULP energy -347058.371298 kJ/mol
# GULP energy per Si atom -12394.941832 kJ/mol
# Density = 1.551829 g / cm^3
# Si number density = 15.553688 Si / 1000 Ang^3
#
#
#
# Elastic Constant Matrix: (Units=GPa)
#
#
# Indices 1 2 3 4 5 6 
#
# 1 65.3493 33.1422 51.3172 0.0000 0.0607 0.0000
# 2 33.1422 59.3339 49.1459 0.0000 0.0268 0.0000
# 3 51.3172 49.1459 113.3834 0.0000 -5.2146 0.0000
# 4 0.0000 0.0000 0.0000 22.1021 0.0000 -2.8688
# 5 0.0607 0.0268 -5.2146 0.0000 16.5598 0.0000
# 6 0.0000 0.0000 0.0000 -2.8688 0.0000 19.7308
#
#
#
# Elastic Compliance Matrix: (Units=1/GPa)
#
#
# Indices 1 2 3 4 5 6 
#
# 1 0.025768 -0.007215 -0.008664 0.000000 -0.002811 0.000000
# 2 -0.007215 0.028538 -0.009239 0.000000 -0.002929 0.000000
# 3 -0.008664 -0.009239 0.016994 0.000000 0.005398 0.000000
# 4 0.000000 0.000000 0.000000 0.046115 0.000000 0.006705
# 5 -0.002811 -0.002929 0.005398 0.000000 0.062102 0.000000
# 6 0.000000 0.000000 0.000000 0.006705 0.000000 0.051657
#
#
# Mechanical properties :
#
#
# Convention : Reuss Voigt Hill
#
# Bulk Modulus (GPa) = 47.47697 56.14190 51.80944
# Shear Modulus (GPa) = 17.33510 18.64262 17.98886
#
# Velocity S-wave (km/s) = 3.34208 3.46583 3.40452
# Velocity P-wave (km/s) = 6.74415 7.22426 6.98833
#
# Compressibility (1/GPa) = 0.02106284
#
# Stress axis : x y z
#
# Youngs Moduli (GPa) = 38.80729 35.04128 58.84463
#
# Poissons Ratio (x) = 0.25284 0.50986
# Poissons Ratio (y) = 0.28001 0.54364
# Poissons Ratio (z) = 0.33625 0.32373
#
# Static dielectric constant tensor:
#      x y z
#    x 2.622160 0.000000 0.026660 
#    y 0.000000 3.009260 0.000000 
#    z 0.026660 0.000000 3.157000 
# 
# 
# High freq. dielectric constant tensor:
#      x y z
#    x 1.547180 0.000000 -0.002760 
#    y 0.000000 1.602760 0.000000 
#    z -0.002760 0.000000 1.598230 
# 
# From -- ./inp_files/243016.got.cif
#   From: 2010.06.25/outbox.cif.g09.slc.cpg/sg12_122_cif.got.tgz:243016.got - 2010.06.28 00:19:55.
