data_PCOD8079183
_publ_section_title
;
Structure prediction by ZEFSAII (Michael W. Deem and Ramdas Pophale) SiO2 
 PCOD8079183
Probable space group: C 2/M
;
_chemical_formula_sum "Si O2"
_cell_formula_units_Z 64
_cell_length_a 30.375638
_cell_length_b 9.130736
_cell_length_c 31.255715
_cell_angle_alpha 90.000000
_cell_angle_beta 27.645973
_cell_angle_gamma 90.000000
_cell_volume 4022.398795
_symmetry_space_group_name_H-M "C 2/M"
_symmetry_group_IT_number 12
_symmetry_cell_setting 'monoclinic'
loop_
_space_group_symop_operation_xyz
x,y,z
-x,y,-z
-x,-y,-z
x,-y,z
1/2+x,1/2+y,z
1/2-x,1/2+y,-z
1/2-x,1/2-y,-z
1/2+x,1/2-y,z
loop_
_atom_site_type_symbol
_atom_site_label
_atom_site_fract_x
_atom_site_fract_y
_atom_site_fract_z
Si Si1 0.901707 0.172725 0.813164
Si Si2 0.771269 0.330561 0.415522
Si Si3 0.108973 0.169661 0.617084
Si Si4 0.083001 0.827263 0.873435
Si Si5 0.637949 0.331557 0.735026
Si Si6 0.074395 0.830511 0.111497
Si Si7 0.714539 0.174377 0.928283
Si Si8 0.871419 0.172943 0.073140
O O1 0.899074 0.229599 0.864283
O O2 0.812934 0.236101 0.863234
O O3 0.999722 0.219324 0.705464
O O4 0.893871 0.000000 0.821388
O O5 0.795103 0.500000 0.390244
O O6 0.845523 0.263808 0.384684
O O7 0.664152 0.304540 0.524929
O O8 0.781822 0.255877 0.360131
O O9 0.115406 0.000000 0.625876
O O10 0.133018 0.765518 0.787571
O O11 0.143242 0.787227 0.864011
O O12 0.073585 0.000000 0.877021
O O13 0.975393 0.769358 0.969708
O O14 0.669113 0.500000 0.709146
O O15 0.537521 0.311265 0.798204
O O16 0.103564 0.000000 0.079742
O O17 0.127985 0.731710 0.031151
O O18 0.706059 0.239568 0.887779
O O19 0.712069 0.000000 0.928464
O O20 0.859884 0.000000 0.075248
#
# Coordination Sequence:
#
# PCOD8079183 Si02
#       8
#     8   8   8   8   8   8   8   8
#     4   9  18  32  47  62  85 124 161 183 210 260
#     4  10  19  28  45  71  93 112 143 190 233 261
#     4   9  17  33  49  61  85 123 157 182 216 266
#     4   8  15  28  49  68  82 113 155 186 210 261
#     4  10  17  29  49  68  89 121 152 175 216 274
#     4  10  18  31  48  62  85 125 163 181 205 257
#     4  11  21  30  43  66  94 119 150 189 226 254
#     4   9  16  31  49  64  85 114 154 188 215 261
#
# _framework density 15.910904
#
# number of rings (size 3 to 8) (size 9 to 14) (size 15 to 20)
#    0.000    2.500    2.500    1.875    0.000    1.000 
#    0.000    3.750    0.000    0.000    0.000    0.875 
#    0.000    7.000    0.000    0.000    0.000    0.000 
#
# Total GULP energy -396681.032698 kJ/mol
# GULP energy per Si atom -12396.282272 kJ/mol
# Density = 1.587469 g / cm^3
# Si number density = 15.910904 Si / 1000 Ang^3
#
#
#
# Elastic Constant Matrix: (Units=GPa)
#
#
# Indices 1 2 3 4 5 6 
#
# 1 110.8440 30.8603 38.0659 0.0007 19.2879 -0.0074
# 2 30.8603 49.9589 30.2421 0.0154 8.4531 -0.0124
# 3 38.0659 30.2421 72.8922 0.0173 19.6191 -0.0203
# 4 0.0007 0.0154 0.0173 21.3299 0.0008 4.1316
# 5 19.2879 8.4531 19.6191 0.0008 25.7441 0.0008
# 6 -0.0074 -0.0124 -0.0203 4.1316 0.0008 22.3499
#
#
#
# Elastic Compliance Matrix: (Units=1/GPa)
#
#
# Indices 1 2 3 4 5 6 
#
# 1 0.012344 -0.004926 -0.002955 0.000006 -0.005379 -0.000002
# 2 -0.004926 0.028699 -0.009802 -0.000014 0.001737 0.000008
# 3 -0.002955 -0.009802 0.022477 -0.000014 -0.011697 0.000017
# 4 0.000006 -0.000014 -0.000014 0.048624 0.000010 -0.008989
# 5 -0.005379 0.001737 -0.011697 0.000010 0.051217 -0.000015
# 6 -0.000002 0.000008 0.000017 -0.008989 -0.000015 0.046405
#
#
# Mechanical properties :
#
#
# Convention : Reuss Voigt Hill
#
# Bulk Modulus (GPa) = 35.51871 48.00352 41.76111
# Shear Modulus (GPa) = 19.64516 22.85324 21.24920
#
# Velocity S-wave (km/s) = 3.51764 3.79400 3.65843
# Velocity P-wave (km/s) = 6.23461 7.03053 6.64449
#
# Compressibility (1/GPa) = 0.02815418
#
# Stress axis : x y z
#
# Youngs Moduli (GPa) = 81.01162 34.84439 44.49035
#
# Poissons Ratio (x) = 0.17166 0.13145
# Poissons Ratio (y) = 0.39909 0.43609
# Poissons Ratio (z) = 0.23936 0.34154
#
# Static dielectric constant tensor:
#      x y z
#    x 3.186020 -0.000070 0.153980 
#    y -0.000070 2.837530 0.000080 
#    z 0.153980 0.000080 3.132870 
# 
# 
# High freq. dielectric constant tensor:
#      x y z
#    x 1.598310 -0.000010 0.017090 
#    y -0.000010 1.591720 0.000010 
#    z 0.017090 0.000010 1.597820 
# 
# From -- ./inp_files/384542.got.cif
#   From: 2010.06.25/outbox.cif.g09.slc.cpg/sg12_193_cif.got.tgz:384542.got - 2010.06.28 00:19:55.
