data_PCOD8079461
_publ_section_title
;
Structure prediction by ZEFSAII (Michael W. Deem and Ramdas Pophale) SiO2 
 PCOD8079461
Probable space group: C 2/M
;
_chemical_formula_sum "Si O2"
_cell_formula_units_Z 60
_cell_length_a 14.662890
_cell_length_b 22.480055
_cell_length_c 19.606851
_cell_angle_alpha 90.000000
_cell_angle_beta 149.320482
_cell_angle_gamma 90.000000
_cell_volume 3297.580998
_symmetry_space_group_name_H-M "C 2/M"
_symmetry_group_IT_number 12
_symmetry_cell_setting 'monoclinic'
loop_
_space_group_symop_operation_xyz
x,y,z
-x,y,-z
-x,-y,-z
x,-y,z
1/2+x,1/2+y,z
1/2-x,1/2+y,-z
1/2-x,1/2-y,-z
1/2+x,1/2-y,z
loop_
_atom_site_type_symbol
_atom_site_label
_atom_site_fract_x
_atom_site_fract_y
_atom_site_fract_z
Si Si1 0.635102 0.567315 0.935008
Si Si2 0.547451 0.764823 0.192793
Si Si3 0.694828 0.362808 0.106712
Si Si4 0.500000 0.844134 0.500000
Si Si5 0.792487 0.757392 0.224126
Si Si6 0.725192 0.325896 0.920902
Si Si7 0.740441 0.935345 0.727716
Si Si8 0.834274 0.245598 0.480422
O O1 0.715532 0.500000 0.987804
O O2 0.688302 0.602751 0.899962
O O3 0.422685 0.563525 0.802759
O O4 0.714831 0.611679 0.043785
O O5 0.638574 0.746183 0.180246
O O6 0.450459 0.707351 0.162696
O O7 0.696577 0.790642 0.342547
O O8 0.398261 0.813487 0.079240
O O9 0.825404 0.305783 0.204968
O O10 0.726478 0.421544 0.172060
O O11 0.500000 0.337152 0.000000
O O12 0.612713 0.883872 0.622285
O O13 0.362528 0.807453 0.458366
O O14 0.740596 0.807426 0.135515
O O15 0.966984 0.780366 0.378683
O O16 0.647729 0.000000 0.662211
O O17 0.750000 0.250000 0.500000
#
# Coordination Sequence:
#
# PCOD8079461 Si02
#       8
#     8   8   8   4   8   8   8   8
#     4  10  21  35  52  76 109 144 183 230 276 323
#     4  11  21  37  54  85 114 147 180 224 283 333
#     4  10  17  31  52  77 105 140 177 220 272 328
#     4  12  21  36  54  72 116 156 179 228 270 330
#     4  12  21  35  57  83 113 146 182 227 280 342
#     4  11  22  34  58  82 113 142 186 231 274 338
#     4  10  20  33  51  77 107 148 192 219 263 333
#     4  12  23  35  52  81 115 152 183 221 278 338
#
# _framework density 18.195155
#
# number of rings (size 3 to 8) (size 9 to 14) (size 15 to 20)
#    0.000    1.067    4.000    5.800    0.000    1.600 
#    0.000    0.000    0.000    1.600    0.000    0.000 
#    0.000    2.133    0.000    0.533    0.000    0.000 
#
# Total GULP energy -371695.677841 kJ/mol
# GULP energy per Si atom -12389.855928 kJ/mol
# Density = 1.815374 g / cm^3
# Si number density = 18.195155 Si / 1000 Ang^3
#
#
#
# Elastic Constant Matrix: (Units=GPa)
#
#
# Indices 1 2 3 4 5 6 
#
# 1 84.4050 24.3530 17.8622 0.0021 -6.1077 -0.0003
# 2 24.3530 74.1295 23.0305 -0.0075 -6.8622 0.0020
# 3 17.8622 23.0305 101.2809 -0.0100 -8.2462 -0.0054
# 4 0.0021 -0.0075 -0.0100 23.5374 0.0026 -8.4508
# 5 -6.1077 -6.8622 -8.2462 0.0026 24.0674 -0.0002
# 6 -0.0003 0.0020 -0.0054 -8.4508 -0.0002 -6.9369
#
#
#
# Elastic Compliance Matrix: (Units=1/GPa)
#
#
# Indices 1 2 3 4 5 6 
#
# 1 0.013362 -0.003802 -0.001342 -0.000002 0.001847 0.000002
# 2 -0.003802 0.015825 -0.002715 0.000004 0.002617 0.000001
# 3 -0.001342 -0.002715 0.010942 0.000000 0.002634 -0.000010
# 4 -0.000002 0.000004 0.000000 0.029557 -0.000003 -0.036008
# 5 0.001847 0.002617 0.002634 -0.000003 0.043668 0.000001
# 6 0.000002 0.000001 -0.000010 -0.036008 0.000001 -0.100290
#
#
# Mechanical properties :
#
#
# Convention : Reuss Voigt Hill
#
# Bulk Modulus (GPa) = 40.96347 43.36741 42.16544
# Shear Modulus (GPa) = 135.43618 21.10490 78.27054
#
# Velocity S-wave (km/s) = 8.63695 3.40945 6.56587
# Velocity P-wave (km/s) = 11.04648 6.27579 8.98360
#
# Compressibility (1/GPa) = 0.02441199
#
# Stress axis : x y z
#
# Youngs Moduli (GPa) = 74.83800 63.19279 91.39125
#
# Poissons Ratio (x) = 0.24025 0.12262
# Poissons Ratio (y) = 0.28453 0.24811
# Poissons Ratio (z) = 0.10041 0.17156
#
# Static dielectric constant tensor:
#      x y z
#    x 3.328480 0.000010 -0.172530 
#    y 0.000010 3.221950 0.000020 
#    z -0.172530 0.000020 3.576350 
# 
# 
# High freq. dielectric constant tensor:
#      x y z
#    x 1.697490 0.000000 -0.011910 
#    y 0.000000 1.666140 0.000000 
#    z -0.011910 0.000000 1.717300 
# 
# From -- ./inp_files/312172.got.cif
#   From: 2010.06.25/outbox.cif.g09.slc.cpg/sg12_157_cif.got.tgz:312172.got - 2010.06.28 00:19:55.
