data_PCOD8079025
_publ_section_title
;
Structure prediction by ZEFSAII (Michael W. Deem and Ramdas Pophale) SiO2 
 PCOD8079025
Probable space group: C 2/M
;
_chemical_formula_sum "Si O2"
_cell_formula_units_Z 56
_cell_length_a 14.025114
_cell_length_b 19.153514
_cell_length_c 11.701698
_cell_angle_alpha 90.000000
_cell_angle_beta 73.530630
_cell_angle_gamma 90.000000
_cell_volume 3014.459255
_symmetry_space_group_name_H-M "C 2/M"
_symmetry_group_IT_number 12
_symmetry_cell_setting 'monoclinic'
loop_
_space_group_symop_operation_xyz
x,y,z
-x,y,-z
-x,-y,-z
x,-y,z
1/2+x,1/2+y,z
1/2-x,1/2+y,-z
1/2-x,1/2-y,-z
1/2+x,1/2-y,z
loop_
_atom_site_type_symbol
_atom_site_label
_atom_site_fract_x
_atom_site_fract_y
_atom_site_fract_z
Si Si1 0.915797 0.740870 0.456096
Si Si2 0.724212 0.077308 0.210006
Si Si3 0.769653 0.791313 0.323680
Si Si4 0.814013 0.226915 0.868572
Si Si5 0.085741 0.575860 0.880081
Si Si6 0.469020 0.840172 0.752462
Si Si7 0.710233 0.421803 0.067319
O O1 0.870896 0.779576 0.360178
O O2 0.826481 0.714360 0.563809
O O3 0.000000 0.785353 0.500000
O O4 0.982852 0.676831 0.386524
O O5 0.778598 0.129465 0.277717
O O6 0.608865 0.096940 0.233025
O O7 0.729679 0.000000 0.260420
O O8 0.782416 0.080197 0.071036
O O9 0.753984 0.738839 0.221964
O O10 0.913497 0.273122 0.825949
O O11 0.851970 0.145756 0.867360
O O12 0.750000 0.250000 0.000000
O O13 0.097728 0.500000 0.815483
O O14 0.183660 0.595394 0.915049
O O15 0.061696 0.636064 0.798011
O O16 0.000000 0.571496 0.000000
O O17 0.670803 0.500000 0.117976
#
# Coordination Sequence:
#
# PCOD8079025 Si02
#       7
#     8   8   8   8   8   8   8
#     4  11  21  39  57  81 108 148 191 241 282 316
#     4  10  18  33  53  79 114 148 180 220 282 344
#     4  10  22  37  59  82 114 149 189 234 277 336
#     4  11  18  33  53  84 115 143 187 222 273 339
#     4  10  17  28  46  75 113 150 178 211 278 344
#     4  11  20  31  53  82 113 144 187 231 272 328
#     4  10  19  31  50  76 116 153 176 217 277 338
#
# _framework density 18.577128999999999
#
# number of rings (size 3 to 8) (size 9 to 14) (size 15 to 20)
#    0.000    1.571    7.143    1.286    0.000    0.000 
#    0.000    2.143    0.000    4.714    0.000    2.000 
#    0.000    0.000    0.000    0.000    0.000    0.000 
#
# Total GULP energy -346872.185168 kJ/mol
# GULP energy per Si atom -12388.292327 kJ/mol
# Density = 1.853485 g / cm^3
# Si number density = 18.577129 Si / 1000 Ang^3
#
#
#
# Elastic Constant Matrix: (Units=GPa)
#
#
# Indices 1 2 3 4 5 6 
#
# 1 72.6847 25.1454 24.1892 0.0000 23.1150 0.0000
# 2 25.1454 140.7262 37.3014 0.0000 13.0602 0.0000
# 3 24.1892 37.3014 90.1786 0.0000 10.3385 0.0000
# 4 0.0000 0.0000 0.0000 17.4531 0.0000 6.2739
# 5 23.1150 13.0602 10.3385 0.0000 31.8898 0.0000
# 6 0.0000 0.0000 0.0000 6.2739 0.0000 25.2386
#
#
#
# Elastic Compliance Matrix: (Units=1/GPa)
#
#
# Indices 1 2 3 4 5 6 
#
# 1 0.019226 -0.001459 -0.003141 0.000000 -0.012320 0.000000
# 2 -0.001459 0.008255 -0.002863 0.000000 -0.001395 0.000000
# 3 -0.003141 -0.002863 0.013212 0.000000 -0.000834 0.000000
# 4 0.000000 0.000000 0.000000 0.062919 0.000000 -0.015641
# 5 -0.012320 -0.001395 -0.000834 0.000000 0.041129 0.000000
# 6 0.000000 0.000000 0.000000 -0.015641 0.000000 0.043510
#
#
# Mechanical properties :
#
#
# Convention : Reuss Voigt Hill
#
# Bulk Modulus (GPa) = 38.81176 52.98461 45.89819
# Shear Modulus (GPa) = 23.61082 29.37986 26.49534
#
# Velocity S-wave (km/s) = 3.56892 3.98113 3.78065
# Velocity P-wave (km/s) = 6.15796 7.05095 6.61953
#
# Compressibility (1/GPa) = 0.02576539
#
# Stress axis : x y z
#
# Youngs Moduli (GPa) = 52.01216 121.13626 75.69100
#
# Poissons Ratio (x) = 0.17679 0.23775
# Poissons Ratio (y) = 0.07591 0.21673
# Poissons Ratio (z) = 0.16337 0.34685
#
# Static dielectric constant tensor:
#      x y z
#    x 3.390930 0.000000 0.264990 
#    y 0.000000 3.750190 0.000000 
#    z 0.264990 0.000000 3.484660 
# 
# 
# High freq. dielectric constant tensor:
#      x y z
#    x 1.705120 0.000000 0.016660 
#    y 0.000000 1.713810 0.000000 
#    z 0.016660 0.000000 1.714290 
# 
# From -- ./inp_files/147071.got.cif
#   From: 2010.06.25/outbox.cif.g09.slc.cpg/sg12_74_cif.got.tgz:147071.got - 2010.06.28 00:19:55.
