data_PCOD8079238
_publ_section_title
;
Structure prediction by ZEFSAII (Michael W. Deem and Ramdas Pophale) SiO2 
 PCOD8079238
Probable space group: C 2/M
;
_chemical_formula_sum "Si O2"
_cell_formula_units_Z 40
_cell_length_a 24.765667
_cell_length_b 8.362114
_cell_length_c 21.094137
_cell_angle_alpha 90.000000
_cell_angle_beta 30.961569
_cell_angle_gamma 90.000000
_cell_volume 2247.408582
_symmetry_space_group_name_H-M "C 2/M"
_symmetry_group_IT_number 12
_symmetry_cell_setting 'monoclinic'
loop_
_space_group_symop_operation_xyz
x,y,z
-x,y,-z
-x,-y,-z
x,-y,z
1/2+x,1/2+y,z
1/2-x,1/2+y,-z
1/2-x,1/2-y,-z
1/2+x,1/2-y,z
loop_
_atom_site_type_symbol
_atom_site_label
_atom_site_fract_x
_atom_site_fract_y
_atom_site_fract_z
Si Si1 0.129211 0.185921 0.924015
Si Si2 0.753704 0.189561 0.425421
Si Si3 0.641978 0.810059 0.308351
Si Si4 0.576924 0.810217 0.510638
Si Si5 0.915635 0.684860 0.165858
O O1 0.244246 0.247663 0.831578
O O2 0.123012 0.209893 0.854405
O O3 0.112901 0.000000 0.955516
O O4 0.040307 0.285683 0.050419
O O5 0.750000 0.250000 0.500000
O O6 0.648119 0.253563 0.496686
O O7 0.855822 0.263145 0.289304
O O8 0.761620 0.000000 0.415236
O O9 0.623218 0.742081 0.398130
O O10 0.545550 0.753773 0.359925
O O11 0.643602 0.000000 0.311432
O O12 0.580790 0.000000 0.505863
O O13 0.895827 0.500000 0.170857
#
# Coordination Sequence:
#
# PCOD8079238 Si02
#       5
#     8   8   8   8   8
#     4  10  17  29  51  76 101 129 161 204 251 296
#     4  11  21  35  53  73  99 133 168 205 242 290
#     4   8  13  24  47  76 100 123 155 200 248 295
#     4   8  14  26  46  73 100 125 159 199 244 293
#     4  11  21  32  46  70 103 135 167 202 243 293
#
# _framework density 17.798276000000001
#
# number of rings (size 3 to 8) (size 9 to 14) (size 15 to 20)
#    0.000    2.400    2.000    5.400    0.000    0.000 
#    0.000    0.000    0.000    7.200    0.000    0.000 
#    0.000    0.000    0.000    0.000    0.000    0.000 
#
# Total GULP energy -247847.718160 kJ/mol
# GULP energy per Si atom -12392.385908 kJ/mol
# Density = 1.775777 g / cm^3
# Si number density = 17.798276 Si / 1000 Ang^3
#
#
#
# Elastic Constant Matrix: (Units=GPa)
#
#
# Indices 1 2 3 4 5 6 
#
# 1 117.1355 12.9810 74.3364 0.0044 -21.1941 -0.0009
# 2 12.9810 43.0842 17.3383 0.0111 -5.1597 -0.0019
# 3 74.3364 17.3383 138.4923 0.0097 -24.5427 -0.0026
# 4 0.0044 0.0111 0.0097 19.5533 -0.0066 6.2833
# 5 -21.1941 -5.1597 -24.5427 -0.0066 35.4869 0.0006
# 6 -0.0009 -0.0019 -0.0026 6.2833 0.0006 11.8542
#
#
#
# Elastic Compliance Matrix: (Units=1/GPa)
#
#
# Indices 1 2 3 4 5 6 
#
# 1 0.013346 -0.001027 -0.006438 0.000003 0.003369 -0.000002
# 2 -0.001027 0.024605 -0.002284 -0.000016 0.001385 0.000012
# 3 -0.006438 -0.002284 0.011650 -0.000003 0.003880 0.000003
# 4 0.000003 -0.000016 -0.000003 0.061641 0.000009 -0.032673
# 5 0.003369 0.001385 0.003880 0.000009 0.033076 -0.000005
# 6 -0.000002 0.000012 0.000003 -0.032673 -0.000005 0.101676
#
#
# Mechanical properties :
#
#
# Convention : Reuss Voigt Hill
#
# Bulk Modulus (GPa) = 33.21899 56.44704 44.83302
# Shear Modulus (GPa) = 18.14710 26.31596 22.23153
#
# Velocity S-wave (km/s) = 3.19658 3.84939 3.53807
# Velocity P-wave (km/s) = 5.68585 7.17919 6.47571
#
# Compressibility (1/GPa) = 0.03010326
#
# Stress axis : x y z
#
# Youngs Moduli (GPa) = 74.92772 40.64274 85.83879
#
# Poissons Ratio (x) = 0.04173 0.55263
# Poissons Ratio (y) = 0.07694 0.19604
# Poissons Ratio (z) = 0.48239 0.09282
#
# Static dielectric constant tensor:
#      x y z
#    x 3.332890 -0.000010 -0.576250 
#    y -0.000010 2.998470 0.000010 
#    z -0.576250 0.000010 3.541550 
# 
# 
# High freq. dielectric constant tensor:
#      x y z
#    x 1.661160 0.000000 -0.038580 
#    y 0.000000 1.665490 0.000000 
#    z -0.038580 0.000000 1.685570 
# 
# From -- ./inp_files/236244.got.cif
#   From: 2010.06.25/outbox.cif.g09.slc.cpg/sg12_119_cif.got.tgz:236244.got - 2010.06.28 00:19:55.
