data_PCOD8079179
_publ_section_title
;
Structure prediction by ZEFSAII (Michael W. Deem and Ramdas Pophale) SiO2 
 PCOD8079179
Probable space group: C 2/M
;
_chemical_formula_sum "Si O2"
_cell_formula_units_Z 52
_cell_length_a 13.040686
_cell_length_b 24.866054
_cell_length_c 12.598197
_cell_angle_alpha 90.000000
_cell_angle_beta 136.623469
_cell_angle_gamma 90.000000
_cell_volume 2805.689245
_symmetry_space_group_name_H-M "C 2/M"
_symmetry_group_IT_number 12
_symmetry_cell_setting 'monoclinic'
loop_
_space_group_symop_operation_xyz
x,y,z
-x,y,-z
-x,-y,-z
x,-y,z
1/2+x,1/2+y,z
1/2-x,1/2+y,-z
1/2-x,1/2-y,-z
1/2+x,1/2-y,z
loop_
_atom_site_type_symbol
_atom_site_label
_atom_site_fract_x
_atom_site_fract_y
_atom_site_fract_z
Si Si1 0.705866 0.500000 0.636903
Si Si2 0.931850 0.301684 0.562214
Si Si3 0.454265 0.116669 0.193463
Si Si4 0.843262 0.883596 0.153321
Si Si5 0.274565 0.616482 0.350926
Si Si6 0.608102 0.687375 0.381653
Si Si7 0.343290 0.500000 0.169592
Si Si8 0.035776 0.500000 0.845201
O O1 0.677543 0.558029 0.559379
O O2 0.607527 0.500000 0.670239
O O3 0.882782 0.500000 0.795888
O O4 0.757552 0.318664 0.423112
O O5 0.941008 0.249024 0.642972
O O6 0.000000 0.288590 0.500000
O O7 0.030713 0.349210 0.687560
O O8 0.598432 0.128152 0.228517
O O9 0.448425 0.053015 0.217268
O O10 0.305594 0.134787 0.019582
O O11 0.813917 0.882418 0.257098
O O12 0.897318 0.943950 0.157591
O O13 0.974961 0.843039 0.220516
O O14 0.366154 0.661732 0.482359
O O15 0.163042 0.500000 0.030463
#
# Coordination Sequence:
#
# PCOD8079179 Si02
#       8
#     4   8   8   8   8   8   4   4
#     4   8  13  21  40  68 100 135 167 183 216 287
#     4  10  21  39  54  68  93 127 162 201 243 288
#     4   9  18  30  50  73  98 131 166 198 238 284
#     4  10  17  29  48  76 105 129 160 197 235 287
#     4   9  16  28  46  73 106 137 159 189 234 288
#     4  10  21  34  52  73  96 127 160 195 245 287
#     4   8  15  23  40  69 105 134 149 186 247 283
#     4   8  13  26  43  67  98 127 160 199 234 280
#
# _framework density 18.533770000000001
#
# number of rings (size 3 to 8) (size 9 to 14) (size 15 to 20)
#    0.000    2.769    0.000    2.077    0.000    4.923 
#    0.000    4.231    0.000    0.000    0.000    3.231 
#    0.000    0.000    0.000    0.000    0.000    0.000 
#
# Total GULP energy -322118.199883 kJ/mol
# GULP energy per Si atom -12389.161534 kJ/mol
# Density = 1.849159 g / cm^3
# Si number density = 18.533770 Si / 1000 Ang^3
#
#
#
# Elastic Constant Matrix: (Units=GPa)
#
#
# Indices 1 2 3 4 5 6 
#
# 1 64.4892 23.4239 27.4729 0.0000 12.1098 0.0000
# 2 23.4239 101.0836 35.2542 0.0000 13.9692 0.0000
# 3 27.4729 35.2542 61.6394 0.0000 21.5002 0.0000
# 4 0.0000 0.0000 0.0000 29.2699 0.0000 7.7643
# 5 12.1098 13.9692 21.5002 0.0000 25.4683 0.0000
# 6 0.0000 0.0000 0.0000 7.7643 0.0000 16.5394
#
#
#
# Elastic Compliance Matrix: (Units=1/GPa)
#
#
# Indices 1 2 3 4 5 6 
#
# 1 0.019532 -0.001808 -0.006772 0.000000 -0.002579 0.000000
# 2 -0.001808 0.012549 -0.006053 0.000000 -0.000914 0.000000
# 3 -0.006772 -0.006053 0.028946 0.000000 -0.017896 0.000000
# 4 0.000000 0.000000 0.000000 0.039024 0.000000 -0.018320
# 5 -0.002579 -0.000914 -0.017896 0.000000 0.056099 0.000000
# 6 0.000000 0.000000 0.000000 -0.018320 0.000000 0.069062
#
#
# Mechanical properties :
#
#
# Convention : Reuss Voigt Hill
#
# Bulk Modulus (GPa) = 31.48476 44.39045 37.93761
# Shear Modulus (GPa) = 18.86325 23.65961 21.26143
#
# Velocity S-wave (km/s) = 3.19372 3.57678 3.39067
# Velocity P-wave (km/s) = 5.53394 6.40788 5.98688
#
# Compressibility (1/GPa) = 0.03176140
#
# Stress axis : x y z
#
# Youngs Moduli (GPa) = 51.19709 79.68756 34.54733
#
# Poissons Ratio (x) = 0.14407 0.23396
# Poissons Ratio (y) = 0.09256 0.20911
# Poissons Ratio (z) = 0.34671 0.48233
#
# Static dielectric constant tensor:
#      x y z
#    x 3.088280 0.000000 0.381390 
#    y 0.000000 3.793520 0.000000 
#    z 0.381390 0.000000 3.243360 
# 
# 
# High freq. dielectric constant tensor:
#      x y z
#    x 1.676280 0.000000 0.041410 
#    y 0.000000 1.736820 0.000000 
#    z 0.041410 0.000000 1.699890 
# 
# From -- ./inp_files/52593.got.cif
#   From: 2010.06.25/outbox.cif.g09.slc.cpg/sg12_27_cif.got.tgz:52593.got - 2010.06.28 00:19:55.
