data_PCOD8079779
_publ_section_title
;
Structure prediction by ZEFSAII (Michael W. Deem and Ramdas Pophale) SiO2 
 PCOD8079779
Probable space group: C 2/M
;
_chemical_formula_sum "Si O2"
_cell_formula_units_Z 64
_cell_length_a 32.828203
_cell_length_b 14.487444
_cell_length_c 23.426624
_cell_angle_alpha 90.000000
_cell_angle_beta 16.507470
_cell_angle_gamma 90.000000
_cell_volume 3165.785590
_symmetry_space_group_name_H-M "C 2/M"
_symmetry_group_IT_number 12
_symmetry_cell_setting 'monoclinic'
loop_
_space_group_symop_operation_xyz
x,y,z
-x,y,-z
-x,-y,-z
x,-y,z
1/2+x,1/2+y,z
1/2-x,1/2+y,-z
1/2-x,1/2-y,-z
1/2+x,1/2-y,z
loop_
_atom_site_type_symbol
_atom_site_label
_atom_site_fract_x
_atom_site_fract_y
_atom_site_fract_z
Si Si1 0.733490 0.100622 0.420249
Si Si2 0.946854 0.607096 0.231117
Si Si3 0.589152 0.732808 0.105425
Si Si4 0.129190 0.707141 0.783589
Si Si5 0.635864 0.597080 0.198722
Si Si6 0.059502 0.645952 0.246014
Si Si7 0.900965 0.280960 0.686959
Si Si8 0.406669 0.396228 0.407613
O O1 0.693454 0.108878 0.540713
O O2 0.843758 0.182864 0.258273
O O3 0.586442 0.101456 0.581347
O O4 0.806031 0.000000 0.311374
O O5 0.001388 0.500000 0.150568
O O6 0.908007 0.654622 0.224284
O O7 0.065848 0.673721 0.100187
O O8 0.590692 0.757807 0.171300
O O9 0.462231 0.655877 0.274400
O O10 0.740353 0.687055 0.885068
O O11 0.272448 0.659018 0.615014
O O12 0.000000 0.690823 0.000000
O O13 0.604163 0.500000 0.272725
O O14 0.610147 0.674179 0.280720
O O15 0.530746 0.605133 0.286825
O O16 0.797929 0.587462 0.956923
O O17 0.037594 0.660466 0.342977
O O18 0.000000 0.297500 0.500000
O O19 0.360052 0.500000 0.453161
#
# Coordination Sequence:
#
# PCOD8079779 Si02
#       8
#     8   8   8   8   8   8   8   8
#     4  10  21  39  68  94 117 158 212 256 295 360
#     4  10  22  40  65  91 116 157 211 258 304 360
#     4  10  19  38  61  84 118 158 214 253 290 358
#     4  12  25  42  61  89 131 162 196 255 321 364
#     4  10  19  34  60  88 117 159 206 248 291 362
#     4  10  17  37  61  86 119 159 204 245 298 360
#     4  11  21  33  55  89 128 160 191 245 313 364
#     4  11  21  37  62  88 117 160 212 251 298 365
#
# _framework density 20.216149999999999
#
# number of rings (size 3 to 8) (size 9 to 14) (size 15 to 20)
#    0.000    1.500    5.000    1.875    0.000    6.500 
#    0.000    1.250    0.000    4.875    0.000    0.000 
#    0.000    0.000    0.000    0.000    0.000    0.000 
#
# Total GULP energy -396462.369481 kJ/mol
# GULP energy per Si atom -12389.449046 kJ/mol
# Density = 2.017014 g / cm^3
# Si number density = 20.216150 Si / 1000 Ang^3
#
#
#
# Elastic Constant Matrix: (Units=GPa)
#
#
# Indices 1 2 3 4 5 6 
#
# 1 76.3912 25.9243 37.0756 -0.0067 3.4837 0.0088
# 2 25.9243 132.2577 47.2765 -0.0069 -1.5659 0.0094
# 3 37.0756 47.2765 110.3172 -0.0007 5.7294 0.0048
# 4 -0.0067 -0.0069 -0.0007 10.0595 -0.0015 0.9900
# 5 3.4837 -1.5659 5.7294 -0.0015 19.2699 -0.0007
# 6 0.0088 0.0094 0.0048 0.9900 -0.0007 14.6293
#
#
#
# Elastic Compliance Matrix: (Units=1/GPa)
#
#
# Indices 1 2 3 4 5 6 
#
# 1 0.015914 -0.001484 -0.004628 0.000010 -0.001622 -0.000008
# 2 -0.001484 0.009136 -0.003523 0.000006 0.002058 -0.000004
# 3 -0.004628 -0.003523 0.012291 -0.000005 -0.003104 0.000001
# 4 0.000010 0.000006 -0.000005 0.100075 0.000008 -0.006772
# 5 -0.001622 0.002058 -0.003104 0.000008 0.053278 0.000003
# 6 -0.000008 -0.000004 0.000001 -0.006772 0.000003 0.068814
#
#
# Mechanical properties :
#
#
# Convention : Reuss Voigt Hill
#
# Bulk Modulus (GPa) = 55.34006 59.94654 57.64330
# Shear Modulus (GPa) = 17.55603 22.70440 20.13022
#
# Velocity S-wave (km/s) = 2.95009 3.35488 3.15897
# Velocity P-wave (km/s) = 6.24801 6.68761 6.47154
#
# Compressibility (1/GPa) = 0.01807009
#
# Stress axis : x y z
#
# Youngs Moduli (GPa) = 62.83598 109.46098 81.35828
#
# Poissons Ratio (x) = 0.16247 0.37655
# Poissons Ratio (y) = 0.09326 0.28664
# Poissons Ratio (z) = 0.29082 0.38565
#
# Static dielectric constant tensor:
#      x y z
#    x 3.511250 -0.000010 -0.227500 
#    y -0.000010 4.087220 0.000010 
#    z -0.227500 0.000010 3.567700 
# 
# 
# High freq. dielectric constant tensor:
#      x y z
#    x 1.773990 0.000000 -0.020950 
#    y 0.000000 1.803190 0.000000 
#    z -0.020950 0.000000 1.764690 
# 
# From -- ./inp_files/330337.got.cif
#   From: 2010.06.25/outbox.cif.g09.slc.cpg/sg12_166_cif.got.tgz:330337.got - 2010.06.28 00:19:55.
