data_PCOD8079600
_publ_section_title
;
Structure prediction by ZEFSAII (Michael W. Deem and Ramdas Pophale) SiO2 
 PCOD8079600
Probable space group: C 2/M
;
_chemical_formula_sum "Si O2"
_cell_formula_units_Z 64
_cell_length_a 15.491165
_cell_length_b 8.955471
_cell_length_c 25.243912
_cell_angle_alpha 90.000000
_cell_angle_beta 108.124311
_cell_angle_gamma 90.000000
_cell_volume 3328.343989
_symmetry_space_group_name_H-M "C 2/M"
_symmetry_group_IT_number 12
_symmetry_cell_setting 'monoclinic'
loop_
_space_group_symop_operation_xyz
x,y,z
-x,y,-z
-x,-y,-z
x,-y,z
1/2+x,1/2+y,z
1/2-x,1/2+y,-z
1/2-x,1/2-y,-z
1/2+x,1/2-y,z
loop_
_atom_site_type_symbol
_atom_site_label
_atom_site_fract_x
_atom_site_fract_y
_atom_site_fract_z
Si Si1 0.951735 0.168113 0.249119
Si Si2 0.150712 0.176979 0.131682
Si Si3 0.580850 0.327737 0.369347
Si Si4 0.270527 0.177476 0.365056
Si Si5 0.725696 0.176772 0.940239
Si Si6 0.225959 0.323603 0.751958
Si Si7 0.457010 0.671619 0.128599
Si Si8 0.465626 0.177230 0.437224
O O1 0.874434 0.285798 0.247612
O O2 0.984172 0.190400 0.195141
O O3 0.037323 0.197732 0.303290
O O4 0.914266 0.000000 0.250345
O O5 0.200113 0.235331 0.088087
O O6 0.201603 0.245373 0.192862
O O7 0.044983 0.224169 0.111605
O O8 0.158860 0.000000 0.136079
O O9 0.574353 0.500000 0.385268
O O10 0.685546 0.273698 0.385114
O O11 0.532437 0.229574 0.404058
O O12 0.258614 0.244296 0.303611
O O13 0.363928 0.239788 0.408024
O O14 0.274427 0.000000 0.361953
O O15 0.625902 0.223376 0.902603
O O16 0.728837 0.000000 0.946680
O O17 0.750000 0.250000 0.000000
O O18 0.235594 0.500000 0.751989
O O19 0.431555 0.500000 0.110735
O O20 0.500000 0.240292 0.500000
O O21 0.465774 0.000000 0.437056
#
# Coordination Sequence:
#
# PCOD8079600 Si02
#       8
#     8   8   8   8   8   8   8   8
#     4  10  19  31  53  84 113 136 168 222 276 317
#     4   9  19  35  58  83 107 141 184 220 260 328
#     4  10  20  35  55  80 109 142 181 220 269 329
#     4   9  18  33  55  79 106 143 180 218 268 329
#     4  11  23  40  59  82 110 145 189 231 271 318
#     4  10  17  32  58  81 106 144 183 214 262 333
#     4  10  20  37  59  83 111 143 178 222 272 321
#     4  10  21  37  55  77 106 142 186 233 277 320
#
# _framework density 19.228781999999999
#
# number of rings (size 3 to 8) (size 9 to 14) (size 15 to 20)
#    0.000    2.125    2.500    1.125    0.000    4.250 
#    0.000    5.625    0.000    1.500    0.000    0.000 
#    0.000    0.000    0.000    0.000    0.000    0.000 
#
# Total GULP energy -396778.622075 kJ/mol
# GULP energy per Si atom -12399.331940 kJ/mol
# Density = 1.918502 g / cm^3
# Si number density = 19.228782 Si / 1000 Ang^3
#
#
#
# Elastic Constant Matrix: (Units=GPa)
#
#
# Indices 1 2 3 4 5 6 
#
# 1 151.3823 18.2999 62.1084 0.0000 -1.0686 0.0000
# 2 18.2999 23.7692 27.3107 0.0000 0.5617 0.0000
# 3 62.1084 27.3107 139.8448 0.0000 -5.3089 0.0000
# 4 0.0000 0.0000 0.0000 21.4227 0.0000 -2.1628
# 5 -1.0686 0.5617 -5.3089 0.0000 13.7647 0.0000
# 6 0.0000 0.0000 0.0000 -2.1628 0.0000 27.5199
#
#
#
# Elastic Compliance Matrix: (Units=1/GPa)
#
#
# Indices 1 2 3 4 5 6 
#
# 1 0.008218 -0.002710 -0.003138 0.000000 -0.000462 0.000000
# 2 -0.002710 0.055697 -0.009913 0.000000 -0.006306 0.000000
# 3 -0.003138 -0.009913 0.010642 0.000000 0.004265 0.000000
# 4 0.000000 0.000000 0.000000 0.047053 0.000000 0.003698
# 5 -0.000462 -0.006306 0.004265 0.000000 0.074516 0.000000
# 6 0.000000 0.000000 0.000000 0.003698 0.000000 0.036628
#
#
# Mechanical properties :
#
#
# Convention : Reuss Voigt Hill
#
# Bulk Modulus (GPa) = 23.23722 58.93716 41.08719
# Shear Modulus (GPa) = 17.94556 26.35995 22.15276
#
# Velocity S-wave (km/s) = 3.05825 3.70653 3.39789
# Velocity P-wave (km/s) = 4.95796 7.00249 6.06697
#
# Compressibility (1/GPa) = 0.04303441
#
# Stress axis : x y z
#
# Youngs Moduli (GPa) = 121.69080 17.95434 93.96555
#
# Poissons Ratio (x) = 0.04866 0.29485
# Poissons Ratio (y) = 0.32984 0.93147
# Poissons Ratio (z) = 0.38184 0.17798
#
# Static dielectric constant tensor:
#      x y z
#    x 3.672780 0.000000 0.060590 
#    y 0.000000 3.193370 0.000000 
#    z 0.060590 0.000000 3.807720 
# 
# 
# High freq. dielectric constant tensor:
#      x y z
#    x 1.758750 0.000000 0.000210 
#    y 0.000000 1.710250 0.000000 
#    z 0.000210 0.000000 1.753410 
# 
# From -- ./inp_files/359956.got.cif
#   From: 2010.06.25/outbox.cif.g09.slc.cpg/sg12_180_cif.got.tgz:359956.got - 2010.06.28 00:19:55.
