data_PCOD8079439
_publ_section_title
;
Structure prediction by ZEFSAII (Michael W. Deem and Ramdas Pophale) SiO2 
 PCOD8079439
Probable space group: C 2/M
;
_chemical_formula_sum "Si O2"
_cell_formula_units_Z 56
_cell_length_a 10.129491
_cell_length_b 18.556106
_cell_length_c 22.813208
_cell_angle_alpha 90.000000
_cell_angle_beta 47.059004
_cell_angle_gamma 90.000000
_cell_volume 3139.098344
_symmetry_space_group_name_H-M "C 2/M"
_symmetry_group_IT_number 12
_symmetry_cell_setting 'monoclinic'
loop_
_space_group_symop_operation_xyz
x,y,z
-x,y,-z
-x,-y,-z
x,-y,z
1/2+x,1/2+y,z
1/2-x,1/2+y,-z
1/2-x,1/2-y,-z
1/2+x,1/2-y,z
loop_
_atom_site_type_symbol
_atom_site_label
_atom_site_fract_x
_atom_site_fract_y
_atom_site_fract_z
Si Si1 0.659978 0.180271 0.998469
Si Si2 0.999233 0.164526 0.170259
Si Si3 0.532936 0.415820 0.584597
Si Si4 0.110357 0.339544 0.252944
Si Si5 0.981905 0.664388 0.166548
Si Si6 0.920613 0.168984 0.724974
Si Si7 0.287472 0.916763 0.403690
O O1 0.578688 0.135092 0.077882
O O2 0.500000 0.199679 0.000000
O O3 0.750000 0.250000 0.000000
O O4 0.820910 0.135815 0.917805
O O5 0.813741 0.132621 0.201308
O O6 0.994214 0.249888 0.164440
O O7 0.008411 0.140144 0.234663
O O8 0.521898 0.500000 0.605801
O O9 0.550023 0.364169 0.635962
O O10 0.709843 0.401337 0.491906
O O11 0.356918 0.391875 0.601259
O O12 0.071572 0.365480 0.198447
O O13 0.084412 0.255125 0.272624
O O14 0.975154 0.375796 0.339651
O O15 0.777427 0.637304 0.226732
O O16 0.327275 0.000000 0.383356
#
# Coordination Sequence:
#
# PCOD8079439 Si02
#       7
#     8   8   8   8   8   8   8
#     4  10  18  27  42  68 103 139 169 205 251 297
#     4   9  19  28  43  70 104 133 163 203 254 296
#     4   9  18  33  55  77  97 128 172 213 248 296
#     4  10  19  31  49  75 103 135 165 206 255 298
#     4   9  17  28  46  68 101 135 169 206 241 294
#     4  10  17  31  49  74 103 132 165 206 249 300
#     4   9  18  34  54  76  99 128 171 214 247 296
#
# _framework density 17.839517000000001
#
# number of rings (size 3 to 8) (size 9 to 14) (size 15 to 20)
#    0.000    2.571    2.857    0.857    6.000    0.571 
#    0.000    1.429    0.000    1.714    0.000    6.000 
#    0.000    0.000    0.000    0.000    0.000    0.000 
#
# Total GULP energy -346991.515556 kJ/mol
# GULP energy per Si atom -12392.554127 kJ/mol
# Density = 1.779891 g / cm^3
# Si number density = 17.839517 Si / 1000 Ang^3
#
#
#
# Elastic Constant Matrix: (Units=GPa)
#
#
# Indices 1 2 3 4 5 6 
#
# 1 136.4575 20.3460 70.2435 -0.0022 -0.7903 0.0005
# 2 20.3460 19.5885 30.9043 -0.0018 3.9866 0.0001
# 3 70.2435 30.9043 150.2900 -0.0067 4.8764 0.0009
# 4 -0.0022 -0.0018 -0.0067 3.3963 0.0030 -1.3170
# 5 -0.7903 3.9866 4.8764 0.0030 36.9520 -0.0003
# 6 0.0005 0.0001 0.0009 -1.3170 -0.0003 11.6327
#
#
#
# Elastic Compliance Matrix: (Units=1/GPa)
#
#
# Indices 1 2 3 4 5 6 
#
# 1 0.009954 -0.004713 -0.003723 -0.000005 0.001213 -0.000001
# 2 -0.004713 0.079204 -0.013863 0.000018 -0.006816 0.000002
# 3 -0.003723 -0.013863 0.011247 0.000013 -0.000068 0.000001
# 4 -0.000005 0.000018 0.000013 0.307955 -0.000029 0.034866
# 5 0.001213 -0.006816 -0.000068 -0.000029 0.027832 -0.000003
# 6 -0.000001 0.000002 0.000001 0.034866 -0.000003 0.089912
#
#
# Mechanical properties :
#
#
# Convention : Reuss Voigt Hill
#
# Bulk Modulus (GPa) = 17.91863 61.03596 39.47729
# Shear Modulus (GPa) = 8.48459 22.71902 15.60181
#
# Velocity S-wave (km/s) = 2.18321 3.57252 2.96051
# Velocity P-wave (km/s) = 4.05233 7.16277 5.81922
#
# Compressibility (1/GPa) = 0.05580785
#
# Stress axis : x y z
#
# Youngs Moduli (GPa) = 100.45869 12.62568 88.91551
#
# Poissons Ratio (x) = 0.05950 0.33101
# Poissons Ratio (y) = 0.47343 1.23263
# Poissons Ratio (z) = 0.37399 0.17503
#
# Static dielectric constant tensor:
#      x y z
#    x 3.448240 0.000000 0.013120 
#    y 0.000000 2.692080 0.000000 
#    z 0.013120 0.000000 3.713180 
# 
# 
# High freq. dielectric constant tensor:
#      x y z
#    x 1.691260 0.000000 0.003180 
#    y 0.000000 1.624330 0.000000 
#    z 0.003180 0.000000 1.711460 
# 
# From -- ./inp_files/208245.got.cif
#   From: 2010.06.25/outbox.cif.g09.slc.cpg/sg12_105_cif.got.tgz:208245.got - 2010.06.28 00:19:55.
