data_PCOD8079749
_publ_section_title
;
Structure prediction by ZEFSAII (Michael W. Deem and Ramdas Pophale) SiO2 
 PCOD8079749
Probable space group: C 2/M
;
_chemical_formula_sum "Si O2"
_cell_formula_units_Z 52
_cell_length_a 8.215476
_cell_length_b 30.031716
_cell_length_c 20.522063
_cell_angle_alpha 90.000000
_cell_angle_beta 146.486139
_cell_angle_gamma 90.000000
_cell_volume 2795.645414
_symmetry_space_group_name_H-M "C 2/M"
_symmetry_group_IT_number 12
_symmetry_cell_setting 'monoclinic'
loop_
_space_group_symop_operation_xyz
x,y,z
-x,y,-z
-x,-y,-z
x,-y,z
1/2+x,1/2+y,z
1/2-x,1/2+y,-z
1/2-x,1/2-y,-z
1/2+x,1/2-y,z
loop_
_atom_site_type_symbol
_atom_site_label
_atom_site_fract_x
_atom_site_fract_y
_atom_site_fract_z
Si Si1 0.500000 0.414861 0.500000
Si Si2 0.692050 0.389992 0.367785
Si Si3 0.811131 0.265177 0.629271
Si Si4 0.816084 0.627873 0.137197
Si Si5 0.680056 0.312627 0.718337
Si Si6 0.263522 0.449173 0.288747
Si Si7 0.441787 0.146796 0.324160
O O1 0.429391 0.445140 0.413672
O O2 0.776058 0.384252 0.576066
O O3 0.558733 0.351770 0.370279
O O4 0.478270 0.432788 0.301671
O O5 0.707861 0.370222 0.299960
O O6 0.000000 0.404871 0.500000
O O7 0.500000 0.245295 0.500000
O O8 0.727703 0.290790 0.665497
O O9 0.047799 0.225452 0.721840
O O10 0.959762 0.301710 0.630053
O O11 0.785920 0.644111 0.201666
O O12 0.010257 0.663562 0.158985
O O13 0.964085 0.579301 0.186614
O O14 0.500000 0.624384 0.000000
O O15 0.177421 0.500000 0.247035
#
# Coordination Sequence:
#
# PCOD8079749 Si02
#       7
#     4   8   8   8   8   8   8
#     4  10  17  36  52  82 114 142 174 214 273 330
#     4  11  19  33  51  80 118 146 168 215 277 336
#     4  11  18  30  50  80 112 142 180 224 265 320
#     4   9  21  41  59  74 104 145 190 231 268 312
#     4  10  21  32  50  78 108 144 186 221 268 313
#     4  10  21  35  57  83 109 138 179 224 273 331
#     4  10  19  33  56  80 111 148 180 215 268 322
#
# _framework density 18.600356999999999
#
# number of rings (size 3 to 8) (size 9 to 14) (size 15 to 20)
#    0.000    1.846    2.308    3.923    0.000    0.615 
#    0.000    6.923    0.000    0.923    0.000    0.000 
#    0.000    0.000    0.000    0.000    0.000    0.000 
#
# Total GULP energy -322218.755040 kJ/mol
# GULP energy per Si atom -12393.029040 kJ/mol
# Density = 1.855802 g / cm^3
# Si number density = 18.600357 Si / 1000 Ang^3
#
#
#
# Elastic Constant Matrix: (Units=GPa)
#
#
# Indices 1 2 3 4 5 6 
#
# 1 89.3692 39.3813 38.2589 0.0000 9.0713 0.0000
# 2 39.3813 124.8463 42.4337 0.0000 13.2102 0.0000
# 3 38.2589 42.4337 111.3296 0.0001 15.4591 -0.0003
# 4 0.0000 0.0000 0.0001 14.2819 0.0000 1.3396
# 5 9.0713 13.2102 15.4591 0.0000 17.5749 -0.0001
# 6 0.0000 0.0000 -0.0003 1.3396 -0.0001 23.3470
#
#
#
# Elastic Compliance Matrix: (Units=1/GPa)
#
#
# Indices 1 2 3 4 5 6 
#
# 1 0.014231 -0.003113 -0.003427 0.000000 -0.001990 0.000000
# 2 -0.003113 0.010187 -0.002247 0.000000 -0.004073 0.000000
# 3 -0.003427 -0.002247 0.012003 0.000000 -0.007099 0.000000
# 4 0.000000 0.000000 0.000000 0.070398 0.000000 -0.004039
# 5 -0.001990 -0.004073 -0.007099 0.000000 0.067233 0.000000
# 6 0.000000 0.000000 0.000000 -0.004039 0.000000 0.043064
#
#
# Mechanical properties :
#
#
# Convention : Reuss Voigt Hill
#
# Bulk Modulus (GPa) = 53.06717 62.85474 57.96096
# Shear Modulus (GPa) = 20.74933 24.73885 22.74409
#
# Velocity S-wave (km/s) = 3.34358 3.65090 3.50062
# Velocity P-wave (km/s) = 6.59532 7.18594 6.89695
#
# Compressibility (1/GPa) = 0.01884404
#
# Stress axis : x y z
#
# Youngs Moduli (GPa) = 70.27026 98.16709 83.31580
#
# Poissons Ratio (x) = 0.30563 0.28556
# Poissons Ratio (y) = 0.21878 0.18722
# Poissons Ratio (z) = 0.24085 0.22060
#
# Static dielectric constant tensor:
#      x y z
#    x 3.842530 0.000000 0.172630 
#    y 0.000000 3.628410 0.000000 
#    z 0.172630 0.000000 3.032500 
# 
# 
# High freq. dielectric constant tensor:
#      x y z
#    x 1.733880 0.000000 0.013880 
#    y 0.000000 1.723560 0.000000 
#    z 0.013880 0.000000 1.673140 
# 
# From -- ./inp_files/199642.got.cif
#   From: 2010.06.25/outbox.cif.g09.slc.cpg/sg12_100_cif.got.tgz:199642.got - 2010.06.28 00:19:55.
