data_PCOD8079118
_publ_section_title
;
Structure prediction by ZEFSAII (Michael W. Deem and Ramdas Pophale) SiO2 
 PCOD8079118
Probable space group: C 2/M
;
_chemical_formula_sum "Si O2"
_cell_formula_units_Z 56
_cell_length_a 17.450077
_cell_length_b 13.972459
_cell_length_c 11.605566
_cell_angle_alpha 90.000000
_cell_angle_beta 70.306974
_cell_angle_gamma 90.000000
_cell_volume 2664.171500
_symmetry_space_group_name_H-M "C 2/M"
_symmetry_group_IT_number 12
_symmetry_cell_setting 'monoclinic'
loop_
_space_group_symop_operation_xyz
x,y,z
-x,y,-z
-x,-y,-z
x,-y,z
1/2+x,1/2+y,z
1/2-x,1/2+y,-z
1/2-x,1/2-y,-z
1/2+x,1/2-y,z
loop_
_atom_site_type_symbol
_atom_site_label
_atom_site_fract_x
_atom_site_fract_y
_atom_site_fract_z
Si Si1 0.290481 0.604201 0.116738
Si Si2 0.372350 0.237479 0.512704
Si Si3 0.192174 0.691231 0.830310
Si Si4 0.116153 0.608800 0.086307
Si Si5 0.535221 0.240104 0.302274
Si Si6 0.263245 0.112242 0.423792
Si Si7 0.355531 0.392853 0.841082
O O1 0.297781 0.500000 0.176348
O O2 0.311518 0.693350 0.189415
O O3 0.201020 0.615743 0.109564
O O4 0.355014 0.606493 0.979512
O O5 0.440521 0.246854 0.379836
O O6 0.412102 0.208810 0.613552
O O7 0.309324 0.152964 0.512761
O O8 0.324836 0.338188 0.546362
O O9 0.180524 0.636776 0.715642
O O10 0.281268 0.670246 0.834170
O O11 0.124301 0.656838 0.955810
O O12 0.088058 0.500000 0.083432
O O13 0.047475 0.662864 0.194733
O O14 0.561405 0.344948 0.244704
O O15 0.250234 0.000000 0.444470
O O16 0.348639 0.500000 0.793914
#
# Coordination Sequence:
#
# PCOD8079118 Si02
#       7
#     8   8   8   8   8   8   8
#     4   9  16  27  50  87 124 153 188 233 291 359
#     4  10  25  40  60  85 116 162 203 247 297 347
#     4  11  17  33  57  88 122 153 192 243 298 356
#     4  10  18  29  53  87 118 151 190 242 303 354
#     4  11  20  39  59  87 124 151 196 254 300 354
#     4  11  23  43  63  84 117 161 207 246 294 359
#     4  10  17  28  54  88 119 152 189 241 300 347
#
# _framework density 21.019667999999999
#
# number of rings (size 3 to 8) (size 9 to 14) (size 15 to 20)
#    0.000    1.714    4.286    3.000    0.000    1.714 
#    0.000    7.857    0.000    1.714    0.000    2.000 
#    0.000    0.000    0.000    0.000    0.000    0.000 
#
# Total GULP energy -347161.288483 kJ/mol
# GULP energy per Si atom -12398.617446 kJ/mol
# Density = 2.097183 g / cm^3
# Si number density = 21.019668 Si / 1000 Ang^3
#
#
#
# Elastic Constant Matrix: (Units=GPa)
#
#
# Indices 1 2 3 4 5 6 
#
# 1 41.9545 17.2567 22.5071 0.0000 -6.7705 0.0000
# 2 17.2567 185.3880 45.5830 0.0000 -4.6294 0.0000
# 3 22.5071 45.5830 93.9537 0.0000 -28.2223 0.0000
# 4 0.0000 0.0000 0.0000 27.7664 0.0000 -0.2009
# 5 -6.7705 -4.6294 -28.2223 0.0000 26.0385 0.0000
# 6 0.0000 0.0000 0.0000 -0.2009 0.0000 9.3344
#
#
#
# Elastic Compliance Matrix: (Units=1/GPa)
#
#
# Indices 1 2 3 4 5 6 
#
# 1 0.027541 -0.001101 -0.005888 0.000000 0.000584 0.000000
# 2 -0.001101 0.006349 -0.003801 0.000000 -0.003277 0.000000
# 3 -0.005888 -0.003801 0.019625 0.000000 0.019064 0.000000
# 4 0.000000 0.000000 0.000000 0.036020 0.000000 0.000775
# 5 0.000584 -0.003277 0.019064 0.000000 0.058636 0.000000
# 6 0.000000 0.000000 0.000000 0.000775 0.000000 0.107148
#
#
# Mechanical properties :
#
#
# Convention : Reuss Voigt Hill
#
# Bulk Modulus (GPa) = 31.31434 54.66555 42.98994
# Shear Modulus (GPa) = 17.38854 28.35782 22.87318
#
# Velocity S-wave (km/s) = 2.87932 3.67701 3.30234
# Velocity P-wave (km/s) = 5.09744 6.64007 5.91922
#
# Compressibility (1/GPa) = 0.03193425
#
# Stress axis : x y z
#
# Youngs Moduli (GPa) = 36.30920 157.49531 50.95605
#
# Poissons Ratio (x) = 0.17345 0.30003
# Poissons Ratio (y) = 0.03999 0.19369
# Poissons Ratio (z) = 0.21379 0.59867
#
# Static dielectric constant tensor:
#      x y z
#    x 3.297210 0.000000 -0.137020 
#    y 0.000000 3.965700 0.000000 
#    z -0.137020 0.000000 4.038540 
# 
# 
# High freq. dielectric constant tensor:
#      x y z
#    x 1.773990 0.000000 -0.011390 
#    y 0.000000 1.829920 0.000000 
#    z -0.011390 0.000000 1.830180 
# 
# From -- ./inp_files/155950.got.cif
#   From: 2010.06.25/outbox.cif.g09.slc.cpg/sg12_78_cif.got.tgz:155950.got - 2010.06.28 00:19:55.
