data_PCOD8079818
_publ_section_title
;
Structure prediction by ZEFSAII (Michael W. Deem and Ramdas Pophale) SiO2 
 PCOD8079818
Probable space group: C 2/M
;
_chemical_formula_sum "Si O2"
_cell_formula_units_Z 64
_cell_length_a 27.402480
_cell_length_b 9.350322
_cell_length_c 23.680230
_cell_angle_alpha 90.000000
_cell_angle_beta 135.663988
_cell_angle_gamma 90.000000
_cell_volume 4240.290702
_symmetry_space_group_name_H-M "C 2/M"
_symmetry_group_IT_number 12
_symmetry_cell_setting 'monoclinic'
loop_
_space_group_symop_operation_xyz
x,y,z
-x,y,-z
-x,-y,-z
x,-y,z
1/2+x,1/2+y,z
1/2-x,1/2+y,-z
1/2-x,1/2-y,-z
1/2+x,1/2-y,z
loop_
_atom_site_type_symbol
_atom_site_label
_atom_site_fract_x
_atom_site_fract_y
_atom_site_fract_z
Si Si1 0.100868 0.335498 0.827098
Si Si2 0.284308 0.164082 0.831951
Si Si3 0.347669 0.333680 0.337837
Si Si4 0.550782 0.658944 0.488501
Si Si5 0.447614 0.168003 0.337709
Si Si6 0.249807 0.661808 0.908764
Si Si7 0.095304 0.834229 0.929297
Si Si8 0.064249 0.668591 0.014846
O O1 0.087719 0.500000 0.832587
O O2 0.063607 0.297908 0.737354
O O3 0.183686 0.302514 0.893077
O O4 0.067648 0.236604 0.848475
O O5 0.236435 0.191947 0.736610
O O6 0.245505 0.241644 0.850421
O O7 0.365012 0.212501 0.892268
O O8 0.284032 0.000000 0.848933
O O9 0.366315 0.500000 0.341284
O O10 0.373498 0.294240 0.422891
O O11 0.386301 0.239917 0.322766
O O12 0.500000 0.660840 0.500000
O O13 0.554504 0.500000 0.464883
O O14 0.523326 0.768633 0.418427
O O15 0.446674 0.000000 0.349146
O O16 0.244363 0.500000 0.882185
O O17 0.321271 0.687454 0.001517
O O18 0.073652 0.000000 0.913381
O O19 0.060190 0.754121 0.953009
O O20 0.060894 0.500000 0.998907
O O21 0.000000 0.718330 0.000000
#
# Coordination Sequence:
#
# PCOD8079818 Si02
#       8
#     8   8   8   8   8   8   8   8
#     4  10  19  29  40  56  84 114 141 173 205 241
#     4   9  16  26  43  64  82 107 143 174 203 246
#     4   9  16  26  39  56  80 109 141 175 206 238
#     4   8  15  26  37  51  76 109 141 173 206 238
#     4  10  18  26  38  56  79 111 145 174 204 238
#     4   9  17  29  40  56  83 111 139 173 208 238
#     4  10  20  30  44  63  81 106 141 175 207 245
#     4   9  18  33  50  65  84 109 135 169 214 256
#
# _framework density 15.093305000000001
#
# number of rings (size 3 to 8) (size 9 to 14) (size 15 to 20)
#    0.000    2.750    1.250    1.875    0.000    4.500 
#    0.000    0.000    0.000    0.000    0.000    0.000 
#    0.000    1.000    0.000    2.000    0.000    2.625 
#
# Total GULP energy -396553.148565 kJ/mol
# GULP energy per Si atom -12392.285893 kJ/mol
# Density = 1.505895 g / cm^3
# Si number density = 15.093305 Si / 1000 Ang^3
#
#
#
# Elastic Constant Matrix: (Units=GPa)
#
#
# Indices 1 2 3 4 5 6 
#
# 1 62.4077 37.3433 47.6250 0.0000 -3.3761 0.0000
# 2 37.3433 66.6213 50.5735 0.0000 -5.8441 -0.0001
# 3 47.6250 50.5735 105.6555 0.0000 -1.1524 0.0000
# 4 0.0000 0.0000 0.0000 23.7757 0.0000 -3.3714
# 5 -3.3761 -5.8441 -1.1524 0.0000 12.7399 0.0000
# 6 0.0000 -0.0001 0.0000 -3.3714 0.0000 15.4995
#
#
#
# Elastic Compliance Matrix: (Units=1/GPa)
#
#
# Indices 1 2 3 4 5 6 
#
# 1 0.027885 -0.009264 -0.008109 0.000000 0.002407 0.000000
# 2 -0.009264 0.027945 -0.009097 0.000000 0.009541 0.000000
# 3 -0.008109 -0.009097 0.017422 0.000000 -0.004746 0.000000
# 4 0.000000 0.000000 0.000000 0.043398 0.000000 0.009440
# 5 0.002407 0.009541 -0.004746 0.000000 0.083079 0.000000
# 6 0.000000 0.000000 0.000000 0.009440 0.000000 0.066572
#
#
# Mechanical properties :
#
#
# Convention : Reuss Voigt Hill
#
# Bulk Modulus (GPa) = 49.22683 56.19648 52.71165
# Shear Modulus (GPa) = 15.33687 17.01253 16.17470
#
# Velocity S-wave (km/s) = 3.19115 3.36096 3.27715
# Velocity P-wave (km/s) = 6.80174 7.23705 7.02277
#
# Compressibility (1/GPa) = 0.02031413
#
# Stress axis : x y z
#
# Youngs Moduli (GPa) = 35.86117 35.78430 57.39742
#
# Poissons Ratio (x) = 0.33150 0.46544
# Poissons Ratio (y) = 0.33221 0.52212
# Poissons Ratio (z) = 0.29080 0.32552
#
# Static dielectric constant tensor:
#      x y z
#    x 2.534480 0.000000 0.229650 
#    y 0.000000 2.969180 0.000000 
#    z 0.229650 0.000000 3.292800 
# 
# 
# High freq. dielectric constant tensor:
#      x y z
#    x 1.516420 0.000000 0.008510 
#    y 0.000000 1.585390 0.000000 
#    z 0.008510 0.000000 1.584840 
# 
# From -- ./inp_files/323733.got.cif
#   From: 2010.06.25/outbox.cif.g09.slc.cpg/sg12_162_cif.got.tgz:323733.got - 2010.06.28 00:19:55.
