data_PCOD8079891
_publ_section_title
;
Structure prediction by ZEFSAII (Michael W. Deem and Ramdas Pophale) SiO2 
 PCOD8079891
Probable space group: C 2/M
;
_chemical_formula_sum "Si O2"
_cell_formula_units_Z 64
_cell_length_a 27.109905
_cell_length_b 9.163840
_cell_length_c 16.952937
_cell_angle_alpha 90.000000
_cell_angle_beta 101.307447
_cell_angle_gamma 90.000000
_cell_volume 4129.881015
_symmetry_space_group_name_H-M "C 2/M"
_symmetry_group_IT_number 12
_symmetry_cell_setting 'monoclinic'
loop_
_space_group_symop_operation_xyz
x,y,z
-x,y,-z
-x,-y,-z
x,-y,z
1/2+x,1/2+y,z
1/2-x,1/2+y,-z
1/2-x,1/2-y,-z
1/2+x,1/2-y,z
loop_
_atom_site_type_symbol
_atom_site_label
_atom_site_fract_x
_atom_site_fract_y
_atom_site_fract_z
Si Si1 0.291188 0.165164 0.415157
Si Si2 0.802457 0.669723 0.012037
Si Si3 0.326662 0.326237 0.166570
Si Si4 0.810943 0.830108 0.691987
Si Si5 0.443605 0.671827 0.462046
Si Si6 0.787896 0.333835 0.834401
Si Si7 0.142846 0.830844 0.449714
Si Si8 0.880059 0.332510 0.319775
O O1 0.239936 0.230573 0.364048
O O2 0.308692 0.255138 0.496466
O O3 0.332194 0.177494 0.360168
O O4 0.283092 0.000000 0.440589
O O5 0.797086 0.500000 0.034259
O O6 0.838912 0.753303 0.084866
O O7 0.750000 0.750000 0.000000
O O8 0.819400 0.683946 0.925865
O O9 0.332409 0.500000 0.162699
O O10 0.270059 0.279597 0.174896
O O11 0.368108 0.260311 0.238088
O O12 0.819144 0.752699 0.778096
O O13 0.856582 0.797537 0.644454
O O14 0.805815 0.000000 0.708799
O O15 0.500000 0.718210 0.500000
O O16 0.438938 0.500000 0.443414
O O17 0.409296 0.719747 0.526399
O O18 0.427366 0.759164 0.378865
O O19 0.786340 0.500000 0.806671
O O20 0.151357 0.000000 0.467665
O O21 0.893000 0.500000 0.302151
#
# Coordination Sequence:
#
# PCOD8079891 Si02
#       8
#     8   8   8   8   8   8   8   8
#     4   9  17  27  38  56  81 110 139 171 211 247
#     4   9  17  28  40  57  81 112 149 183 213 246
#     4  10  18  28  42  61  84 113 148 180 211 250
#     4  10  18  27  39  57  83 111 143 177 207 246
#     4   9  18  33  49  63  84 112 141 178 222 262
#     4   9  18  28  39  57  82 115 149 176 207 245
#     4   9  18  29  42  60  79 106 142 177 212 251
#     4  10  18  28  44  65  87 111 142 179 215 255
#
# _framework density 15.496815
#
# number of rings (size 3 to 8) (size 9 to 14) (size 15 to 20)
#    0.000    2.625    1.250    2.250    0.000    4.250 
#    0.000    0.000    0.000    0.000    0.000    0.000 
#    0.000    1.000    0.000   11.500    0.000    2.875 
#
# Total GULP energy -396617.936771 kJ/mol
# GULP energy per Si atom -12394.310524 kJ/mol
# Density = 1.546154 g / cm^3
# Si number density = 15.496815 Si / 1000 Ang^3
#
#
#
# Elastic Constant Matrix: (Units=GPa)
#
#
# Indices 1 2 3 4 5 6 
#
# 1 46.4626 22.3913 37.5734 0.0000 5.8879 0.0000
# 2 22.3913 73.1054 58.8544 0.0000 3.3870 0.0000
# 3 37.5734 58.8544 125.5052 0.0000 2.3968 0.0000
# 4 0.0000 0.0000 0.0000 32.8826 0.0000 1.6421
# 5 5.8879 3.3870 2.3968 0.0000 16.1658 0.0000
# 6 0.0000 0.0000 0.0000 1.6421 0.0000 13.4122
#
#
#
# Elastic Compliance Matrix: (Units=1/GPa)
#
#
# Indices 1 2 3 4 5 6 
#
# 1 0.030126 -0.002697 -0.007577 0.000000 -0.009284 0.000000
# 2 -0.002697 0.022371 -0.009640 0.000000 -0.002276 0.000000
# 3 -0.007577 -0.009640 0.014707 0.000000 0.002599 0.000000
# 4 0.000000 0.000000 0.000000 0.030598 0.000000 -0.003746
# 5 -0.009284 -0.002276 0.002599 0.000000 0.065332 0.000000
# 6 0.000000 0.000000 0.000000 -0.003746 0.000000 0.075018
#
#
# Mechanical properties :
#
#
# Convention : Reuss Voigt Hill
#
# Bulk Modulus (GPa) = 36.52770 53.63462 45.08116
# Shear Modulus (GPa) = 17.41519 20.90907 19.16213
#
# Velocity S-wave (km/s) = 3.35594 3.67720 3.52023
# Velocity P-wave (km/s) = 6.21600 7.26046 6.75844
#
# Compressibility (1/GPa) = 0.02737649
#
# Stress axis : x y z
#
# Youngs Moduli (GPa) = 33.19338 44.70074 67.99490
#
# Poissons Ratio (x) = 0.12057 0.51520
# Poissons Ratio (y) = 0.08953 0.65545
# Poissons Ratio (z) = 0.25151 0.43090
#
# Static dielectric constant tensor:
#      x y z
#    x 2.614870 0.000000 -0.022780 
#    y 0.000000 3.046260 0.000000 
#    z -0.022780 0.000000 2.423100 
# 
# 
# High freq. dielectric constant tensor:
#      x y z
#    x 1.533400 0.000000 -0.005450 
#    y 0.000000 1.602430 0.000000 
#    z -0.005450 0.000000 1.599410 
# 
# From -- ./inp_files/248493.got.cif
#   From: 2010.06.25/outbox.cif.g09.slc.cpg/sg12_125_cif.got.tgz:248493.got - 2010.06.28 00:19:55.
