data_PCOD8079764
_publ_section_title
;
Structure prediction by ZEFSAII (Michael W. Deem and Ramdas Pophale) SiO2 
 PCOD8079764
Probable space group: C 2/M
;
_chemical_formula_sum "Si O2"
_cell_formula_units_Z 52
_cell_length_a 20.660798
_cell_length_b 14.406621
_cell_length_c 12.088788
_cell_angle_alpha 90.000000
_cell_angle_beta 131.974254
_cell_angle_gamma 90.000000
_cell_volume 2675.106509
_symmetry_space_group_name_H-M "C 2/M"
_symmetry_group_IT_number 12
_symmetry_cell_setting 'monoclinic'
loop_
_space_group_symop_operation_xyz
x,y,z
-x,y,-z
-x,-y,-z
x,-y,z
1/2+x,1/2+y,z
1/2-x,1/2+y,-z
1/2-x,1/2-y,-z
1/2+x,1/2-y,z
loop_
_atom_site_type_symbol
_atom_site_label
_atom_site_fract_x
_atom_site_fract_y
_atom_site_fract_z
Si Si1 0.500000 0.336553 0.000000
Si Si2 0.383846 0.609214 0.220169
Si Si3 0.499397 0.172150 0.153610
Si Si4 0.711056 0.726561 0.705850
Si Si5 0.972620 0.252816 0.585903
Si Si6 0.861394 0.602908 0.837338
Si Si7 0.827296 0.896534 0.906345
O O1 0.522755 0.273428 0.132347
O O2 0.586441 0.395424 0.072650
O O3 0.386316 0.500000 0.253697
O O4 0.316361 0.666094 0.218875
O O5 0.479977 0.652968 0.346798
O O6 0.355399 0.626687 0.062687
O O7 0.498971 0.175480 0.285690
O O8 0.571410 0.101211 0.188511
O O9 0.405127 0.140950 0.000866
O O10 0.631008 0.740109 0.530513
O O11 0.781220 0.668791 0.716247
O O12 0.751813 0.825567 0.785389
O O13 0.000000 0.298614 0.500000
O O14 0.826774 0.500000 0.819109
O O15 0.787757 0.000000 0.852770
#
# Coordination Sequence:
#
# PCOD8079764 Si02
#       7
#     4   8   8   8   8   8   8
#     4  10  17  36  63  82 108 146 189 246 275 328
#     4  10  21  37  60  84 113 153 197 240 280 337
#     4  10  18  37  59  81 115 147 191 229 280 339
#     4  11  21  36  56  86 119 149 186 239 288 341
#     4  10  22  37  59  81 116 159 185 229 289 344
#     4  10  20  36  63  88 111 148 190 241 283 332
#     4  11  21  37  59  86 115 150 196 239 285 338
#
# _framework density 19.438479000000001
#
# number of rings (size 3 to 8) (size 9 to 14) (size 15 to 20)
#    0.000    1.846    4.615    2.077    0.000    5.231 
#    0.000    1.538    0.000    9.692    0.000    0.000 
#    0.000    0.000    0.000    0.000    0.000    0.000 
#
# Total GULP energy -322319.671141 kJ/mol
# GULP energy per Si atom -12396.910428 kJ/mol
# Density = 1.939424 g / cm^3
# Si number density = 19.438479 Si / 1000 Ang^3
#
#
#
# Elastic Constant Matrix: (Units=GPa)
#
#
# Indices 1 2 3 4 5 6 
#
# 1 64.4907 31.6758 35.2075 0.0000 9.8362 0.0000
# 2 31.6758 108.9966 42.1403 0.0000 5.6852 0.0000
# 3 35.2075 42.1403 83.5221 0.0000 4.0972 0.0000
# 4 0.0000 0.0000 0.0000 15.4982 0.0000 1.6603
# 5 9.8362 5.6852 4.0972 0.0000 43.2801 0.0000
# 6 0.0000 0.0000 0.0000 1.6603 0.0000 22.8038
#
#
#
# Elastic Compliance Matrix: (Units=1/GPa)
#
#
# Indices 1 2 3 4 5 6 
#
# 1 0.021682 -0.003281 -0.007298 0.000000 -0.003806 0.000000
# 2 -0.003281 0.011934 -0.004619 0.000000 -0.000385 0.000000
# 3 -0.007298 -0.004619 0.017349 0.000000 0.000623 0.000000
# 4 0.000000 0.000000 0.000000 0.065031 0.000000 -0.004735
# 5 -0.003806 -0.000385 0.000623 0.000000 0.023962 0.000000
# 6 0.000000 0.000000 0.000000 -0.004735 0.000000 0.044197
#
#
# Mechanical properties :
#
#
# Convention : Reuss Voigt Hill
#
# Bulk Modulus (GPa) = 48.61609 52.78406 50.70008
# Shear Modulus (GPa) = 22.58276 26.18214 24.38245
#
# Velocity S-wave (km/s) = 3.41215 3.67403 3.54551
# Velocity P-wave (km/s) = 6.37089 6.72394 6.54979
#
# Compressibility (1/GPa) = 0.02056932
#
# Stress axis : x y z
#
# Youngs Moduli (GPa) = 46.12079 83.79344 57.63977
#
# Poissons Ratio (x) = 0.27494 0.42063
# Poissons Ratio (y) = 0.15133 0.26625
# Poissons Ratio (z) = 0.33657 0.38706
#
# Static dielectric constant tensor:
#      x y z
#    x 3.650320 0.000000 0.031930 
#    y 0.000000 3.461310 0.000000 
#    z 0.031930 0.000000 3.442330 
# 
# 
# High freq. dielectric constant tensor:
#      x y z
#    x 1.759410 0.000000 0.006370 
#    y 0.000000 1.749230 0.000000 
#    z 0.006370 0.000000 1.740420 
# 
# From -- ./inp_files/167361.got.cif
#   From: 2010.06.25/outbox.cif.g09.slc.cpg/sg12_84_cif.got.tgz:167361.got - 2010.06.28 00:19:55.
