data_PCOD8079303
_publ_section_title
;
Structure prediction by ZEFSAII (Michael W. Deem and Ramdas Pophale) SiO2 
 PCOD8079303
Probable space group: C 2/M
;
_chemical_formula_sum "Si O2"
_cell_formula_units_Z 56
_cell_length_a 9.584035
_cell_length_b 27.654350
_cell_length_c 14.868565
_cell_angle_alpha 90.000000
_cell_angle_beta 57.536243
_cell_angle_gamma 90.000000
_cell_volume 3324.948981
_symmetry_space_group_name_H-M "C 2/M"
_symmetry_group_IT_number 12
_symmetry_cell_setting 'monoclinic'
loop_
_space_group_symop_operation_xyz
x,y,z
-x,y,-z
-x,-y,-z
x,-y,z
1/2+x,1/2+y,z
1/2-x,1/2+y,-z
1/2-x,1/2-y,-z
1/2+x,1/2-y,z
loop_
_atom_site_type_symbol
_atom_site_label
_atom_site_fract_x
_atom_site_fract_y
_atom_site_fract_z
Si Si1 0.643027 0.297010 0.018593
Si Si2 0.941174 0.052493 0.926392
Si Si3 0.579052 0.636682 0.790571
Si Si4 0.873964 0.361073 0.823519
Si Si5 0.532738 0.791842 0.633771
Si Si6 0.559460 0.053613 0.076025
Si Si7 0.736075 0.301148 0.604718
O O1 0.543947 0.320038 0.136513
O O2 0.500000 0.281554 0.000000
O O3 0.750000 0.250000 0.000000
O O4 0.774547 0.336049 0.938541
O O5 0.981511 0.086094 0.826579
O O6 0.028757 0.000000 0.884498
O O7 0.750371 0.044824 0.999103
O O8 0.000000 0.077613 0.000000
O O9 0.739607 0.625432 0.795508
O O10 0.641020 0.650359 0.669547
O O11 0.970710 0.407513 0.832660
O O12 0.008909 0.325729 0.729561
O O13 0.598795 0.739867 0.640345
O O14 0.360889 0.783890 0.640279
O O15 0.669203 0.814990 0.519540
O O16 0.479859 0.000000 0.125175
O O17 0.500000 0.073919 0.000000
#
# Coordination Sequence:
#
# PCOD8079303 Si02
#       7
#     8   8   8   8   8   8   8
#     4  10  19  29  41  63  94 123 149 185 231 278
#     4  10  17  30  51  70  92 126 160 188 231 289
#     4  10  17  30  47  70  94 122 157 196 230 275
#     4  10  18  31  48  67  95 125 156 192 234 282
#     4   9  18  33  50  69  91 128 163 196 235 274
#     4  10  20  33  48  71 100 125 155 196 238 286
#     4   9  18  32  50  68  95 124 162 201 231 274
#
# _framework density 16.842362999999999
#
# number of rings (size 3 to 8) (size 9 to 14) (size 15 to 20)
#    0.000    2.286    2.857    1.286    0.000    0.571 
#    2.571    0.000    0.000    0.857    0.000    4.000 
#    0.000    3.429    0.000    0.000    0.000    0.000 
#
# Total GULP energy -346885.307554 kJ/mol
# GULP energy per Si atom -12388.760984 kJ/mol
# Density = 1.680403 g / cm^3
# Si number density = 16.842363 Si / 1000 Ang^3
#
#
#
# Elastic Constant Matrix: (Units=GPa)
#
#
# Indices 1 2 3 4 5 6 
#
# 1 47.4920 19.4691 16.4299 0.0000 1.8300 0.0000
# 2 19.4691 69.7683 30.7324 0.0000 2.0966 0.0000
# 3 16.4299 30.7324 83.4953 0.0000 0.4223 0.0000
# 4 0.0000 0.0000 0.0000 30.6824 0.0000 5.2886
# 5 1.8300 2.0966 0.4223 0.0000 16.4713 0.0000
# 6 0.0000 0.0000 0.0000 5.2886 0.0000 22.3500
#
#
#
# Elastic Compliance Matrix: (Units=1/GPa)
#
#
# Indices 1 2 3 4 5 6 
#
# 1 0.024346 -0.005526 -0.002747 0.000000 -0.001931 0.000000
# 2 -0.005526 0.018428 -0.005688 0.000000 -0.001586 0.000000
# 3 -0.002747 -0.005688 0.014607 0.000000 0.000655 0.000000
# 4 0.000000 0.000000 0.000000 0.033978 0.000000 -0.008040
# 5 -0.001931 -0.001586 0.000655 0.000000 0.061111 0.000000
# 6 0.000000 0.000000 0.000000 -0.008040 0.000000 0.046645
#
#
# Mechanical properties :
#
#
# Convention : Reuss Voigt Hill
#
# Bulk Modulus (GPa) = 33.94330 37.11317 35.52824
# Shear Modulus (GPa) = 21.10976 22.84235 21.97605
#
# Velocity S-wave (km/s) = 3.54414 3.68672 3.61613
# Velocity P-wave (km/s) = 6.07826 6.34082 6.21092
#
# Compressibility (1/GPa) = 0.02946089
#
# Stress axis : x y z
#
# Youngs Moduli (GPa) = 41.07407 54.26485 68.45837
#
# Poissons Ratio (x) = 0.29986 0.18806
# Poissons Ratio (y) = 0.22697 0.38936
# Poissons Ratio (z) = 0.11283 0.30863
#
# Static dielectric constant tensor:
#      x y z
#    x 3.055970 0.000000 -0.056870 
#    y 0.000000 3.384700 0.000000 
#    z -0.056870 0.000000 3.196630 
# 
# 
# High freq. dielectric constant tensor:
#      x y z
#    x 1.642300 0.000000 -0.007880 
#    y 0.000000 1.643540 0.000000 
#    z -0.007880 0.000000 1.627960 
# 
# From -- ./inp_files/199699.got.cif
#   From: 2010.06.25/outbox.cif.g09.slc.cpg/sg12_100_cif.got.tgz:199699.got - 2010.06.28 00:19:55.
