data_PCOD8079156
_publ_section_title
;
Structure prediction by ZEFSAII (Michael W. Deem and Ramdas Pophale) SiO2 
 PCOD8079156
Probable space group: C 2/M
;
_chemical_formula_sum "Si O2"
_cell_formula_units_Z 64
_cell_length_a 30.628940
_cell_length_b 13.783512
_cell_length_c 9.700911
_cell_angle_alpha 90.000000
_cell_angle_beta 79.862698
_cell_angle_gamma 90.000000
_cell_volume 4031.540619
_symmetry_space_group_name_H-M "C 2/M"
_symmetry_group_IT_number 12
_symmetry_cell_setting 'monoclinic'
loop_
_space_group_symop_operation_xyz
x,y,z
-x,y,-z
-x,-y,-z
x,-y,z
1/2+x,1/2+y,z
1/2-x,1/2+y,-z
1/2-x,1/2-y,-z
1/2+x,1/2-y,z
loop_
_atom_site_type_symbol
_atom_site_label
_atom_site_fract_x
_atom_site_fract_y
_atom_site_fract_z
Si Si1 0.494961 0.114408 0.155969
Si Si2 0.349082 0.799042 0.091959
Si Si3 0.590825 0.113579 0.163544
Si Si4 0.599557 0.111287 0.703222
Si Si5 0.298158 0.393826 0.123045
Si Si6 0.246275 0.343057 0.907720
Si Si7 0.145907 0.390007 0.396863
Si Si8 0.234716 0.275199 0.354234
O O1 0.539300 0.142701 0.216549
O O2 0.450087 0.154946 0.250712
O O3 0.489985 0.000000 0.151629
O O4 0.500000 0.157765 0.000000
O O5 0.364173 0.823496 0.238213
O O6 0.337719 0.684406 0.084577
O O7 0.306179 0.866417 0.078948
O O8 0.390398 0.825009 0.973572
O O9 0.619142 0.143242 0.278676
O O10 0.594492 0.000000 0.125664
O O11 0.610538 0.118439 0.537507
O O12 0.602770 0.000000 0.754460
O O13 0.316379 0.500000 0.158770
O O14 0.265980 0.354232 0.262019
O O15 0.273629 0.417300 0.988110
O O16 0.266098 0.321551 0.743186
O O17 0.250000 0.250000 0.000000
O O18 0.164028 0.500000 0.373308
O O19 0.185901 0.317021 0.395597
O O20 0.250000 0.250000 0.500000
#
# Coordination Sequence:
#
# PCOD8079156 Si02
#       8
#     8   8   8   8   8   8   8   8
#     4   9  16  28  43  64  93 121 148 184 231 280
#     4  10  17  29  47  66  84 116 159 193 224 269
#     4  10  18  28  47  69  91 121 153 187 231 282
#     4  10  19  29  43  66  95 120 150 189 229 278
#     4  10  20  33  47  65  94 128 159 196 238 275
#     4   8  17  30  45  63  85 116 153 192 229 266
#     4  10  19  28  41  65  93 121 150 182 223 273
#     4  10  18  32  49  66  93 125 157 199 238 275
#
# _framework density 15.874824
#
# number of rings (size 3 to 8) (size 9 to 14) (size 15 to 20)
#    0.000    2.625    1.250    4.500    0.000    2.500 
#    0.000    3.750    0.000    0.000    0.000    1.750 
#    0.000    0.000    0.000    5.500    0.000    0.250 
#
# Total GULP energy -396430.274134 kJ/mol
# GULP energy per Si atom -12388.446067 kJ/mol
# Density = 1.583869 g / cm^3
# Si number density = 15.874824 Si / 1000 Ang^3
#
#
#
# Elastic Constant Matrix: (Units=GPa)
#
#
# Indices 1 2 3 4 5 6 
#
# 1 96.7052 24.7742 24.1595 0.0000 -3.9160 0.0000
# 2 24.7742 56.4575 15.5780 0.0000 1.0547 0.0000
# 3 24.1595 15.5780 85.2299 0.0000 5.3292 0.0000
# 4 0.0000 0.0000 0.0000 12.4403 0.0000 0.5986
# 5 -3.9160 1.0547 5.3292 0.0000 25.4457 0.0000
# 6 0.0000 0.0000 0.0000 0.5986 0.0000 17.5102
#
#
#
# Elastic Compliance Matrix: (Units=1/GPa)
#
#
# Indices 1 2 3 4 5 6 
#
# 1 0.012355 -0.004696 -0.002812 0.000000 0.002685 0.000000
# 2 -0.004696 0.020438 -0.002337 0.000000 -0.001080 0.000000
# 3 -0.002812 -0.002337 0.013150 0.000000 -0.003090 0.000000
# 4 0.000000 0.000000 0.000000 0.080516 0.000000 -0.002752
# 5 0.002685 -0.001080 -0.003090 0.000000 0.040404 0.000000
# 6 0.000000 0.000000 0.000000 -0.002752 0.000000 0.057204
#
#
# Mechanical properties :
#
#
# Convention : Reuss Voigt Hill
#
# Bulk Modulus (GPa) = 38.08907 40.82401 39.45654
# Shear Modulus (GPa) = 19.80137 22.67131 21.23634
#
# Velocity S-wave (km/s) = 3.53561 3.78316 3.66148
# Velocity P-wave (km/s) = 6.38066 6.69739 6.54095
#
# Compressibility (1/GPa) = 0.02625425
#
# Stress axis : x y z
#
# Youngs Moduli (GPa) = 80.93986 48.92841 76.04359
#
# Poissons Ratio (x) = 0.22976 0.21381
# Poissons Ratio (y) = 0.38008 0.17771
# Poissons Ratio (z) = 0.22758 0.11434
#
# Static dielectric constant tensor:
#      x y z
#    x 3.284750 0.000000 0.187580 
#    y 0.000000 4.260180 0.000000 
#    z 0.187580 0.000000 3.328810 
# 
# 
# High freq. dielectric constant tensor:
#      x y z
#    x 1.610890 0.000000 0.004550 
#    y 0.000000 1.562090 0.000000 
#    z 0.004550 0.000000 1.618260 
# 
# From -- ./inp_files/111166.got.cif
#   From: 2010.06.25/outbox.cif.g09.slc.cpg/sg12_56_cif.got.tgz:111166.got - 2010.06.28 00:19:55.
