data_PCOD8079152
_publ_section_title
;
Structure prediction by ZEFSAII (Michael W. Deem and Ramdas Pophale) SiO2 
 PCOD8079152
Probable space group: C 2/M
;
_chemical_formula_sum "Si O2"
_cell_formula_units_Z 40
_cell_length_a 18.756380
_cell_length_b 27.268054
_cell_length_c 14.925366
_cell_angle_alpha 90.000000
_cell_angle_beta 159.992304
_cell_angle_gamma 90.000000
_cell_volume 2611.800991
_symmetry_space_group_name_H-M "C 2/M"
_symmetry_group_IT_number 12
_symmetry_cell_setting 'monoclinic'
loop_
_space_group_symop_operation_xyz
x,y,z
-x,y,-z
-x,-y,-z
x,-y,z
1/2+x,1/2+y,z
1/2-x,1/2+y,-z
1/2-x,1/2-y,-z
1/2+x,1/2-y,z
loop_
_atom_site_type_symbol
_atom_site_label
_atom_site_fract_x
_atom_site_fract_y
_atom_site_fract_z
Si Si1 0.783232 0.871834 0.910614
Si Si2 0.844771 0.243234 0.736067
Si Si3 0.448724 0.278790 0.197726
Si Si4 0.306340 0.139274 0.393576
Si Si5 0.568093 0.446396 0.182117
O O1 0.821140 0.856102 0.850981
O O2 0.543701 0.871907 0.651683
O O3 0.897040 0.834823 0.112269
O O4 0.884847 0.926421 0.032701
O O5 0.642663 0.279409 0.497184
O O6 0.737449 0.189727 0.608290
O O7 0.979404 0.250614 0.805718
O O8 0.000000 0.255564 0.000000
O O9 0.250000 0.250000 0.000000
O O10 0.246853 0.094972 0.390400
O O11 0.641260 0.500000 0.305076
O O12 0.500000 0.453852 0.000000
#
# Coordination Sequence:
#
# PCOD8079152 Si02
#       5
#     8   8   8   8   8
#     4  10  18  29  45  65  90 123 159 190 229 271
#     4  11  20  32  47  66  94 126 160 193 232 275
#     4  11  21  30  47  70  90 125 164 194 228 281
#     4  10  17  29  47  62  89 127 158 190 226 273
#     4   9  17  29  43  62  89 122 159 194 227 269
#
# _framework density 15.315102
#
# number of rings (size 3 to 8) (size 9 to 14) (size 15 to 20)
#    0.000    1.800    6.000    0.600    0.000    1.600 
#    0.000    4.000    0.000    0.000    0.000    0.000 
#    0.000    0.800    0.000    3.800    0.000    0.200 
#
# Total GULP energy -247778.328072 kJ/mol
# GULP energy per Si atom -12388.916404 kJ/mol
# Density = 1.528024 g / cm^3
# Si number density = 15.315102 Si / 1000 Ang^3
#
#
#
# Elastic Constant Matrix: (Units=GPa)
#
#
# Indices 1 2 3 4 5 6 
#
# 1 58.7267 29.8552 36.9925 0.0006 13.9125 0.0005
# 2 29.8552 102.3619 37.3257 0.0000 -0.2376 -0.0001
# 3 36.9925 37.3257 83.9472 0.0017 -2.1284 0.0009
# 4 0.0006 0.0000 0.0017 12.4241 0.0010 8.5206
# 5 13.9125 -0.2376 -2.1284 0.0010 22.2767 0.0007
# 6 0.0005 -0.0001 0.0009 8.5206 0.0007 10.8113
#
#
#
# Elastic Compliance Matrix: (Units=1/GPa)
#
#
# Indices 1 2 3 4 5 6 
#
# 1 0.032732 -0.004937 -0.012779 0.000003 -0.021716 -0.000001
# 2 -0.004937 0.012408 -0.003267 0.000000 0.002904 0.000000
# 3 -0.012779 -0.003267 0.019244 -0.000004 0.009785 0.000001
# 4 0.000003 0.000000 -0.000004 0.175167 -0.000006 -0.138052
# 5 -0.021716 0.002904 0.009785 -0.000006 0.059418 0.000001
# 6 -0.000001 0.000000 0.000001 -0.138052 0.000001 0.201297
#
#
# Mechanical properties :
#
#
# Convention : Reuss Voigt Hill
#
# Bulk Modulus (GPa) = 44.61042 50.37584 47.49313
# Shear Modulus (GPa) = 9.09576 18.49325 13.79451
#
# Velocity S-wave (km/s) = 2.43967 3.47871 3.00444
# Velocity P-wave (km/s) = 6.09324 7.00710 6.56609
#
# Compressibility (1/GPa) = 0.02241629
#
# Stress axis : x y z
#
# Youngs Moduli (GPa) = 30.55075 80.59636 51.96299
#
# Poissons Ratio (x) = 0.39794 0.66405
# Poissons Ratio (y) = 0.15084 0.16979
# Poissons Ratio (z) = 0.39041 0.26334
#
# Static dielectric constant tensor:
#      x y z
#    x 2.874370 0.000000 0.207890 
#    y 0.000000 3.045530 0.000000 
#    z 0.207890 0.000000 3.050360 
# 
# 
# High freq. dielectric constant tensor:
#      x y z
#    x 1.565920 0.000000 0.038340 
#    y 0.000000 1.570520 0.000000 
#    z 0.038340 0.000000 1.584120 
# 
# From -- ./inp_files/149233.got.cif
#   From: 2010.06.25/outbox.cif.g09.slc.cpg/sg12_75_cif.got.tgz:149233.got - 2010.06.28 00:19:55.
