data_PCOD8079091
_publ_section_title
;
Structure prediction by ZEFSAII (Michael W. Deem and Ramdas Pophale) SiO2 
 PCOD8079091
Probable space group: C 2/M
;
_chemical_formula_sum "Si O2"
_cell_formula_units_Z 64
_cell_length_a 25.600450
_cell_length_b 14.264748
_cell_length_c 9.524442
_cell_angle_alpha 90.000000
_cell_angle_beta 98.116339
_cell_angle_gamma 90.000000
_cell_volume 3443.334177
_symmetry_space_group_name_H-M "C 2/M"
_symmetry_group_IT_number 12
_symmetry_cell_setting 'monoclinic'
loop_
_space_group_symop_operation_xyz
x,y,z
-x,y,-z
-x,-y,-z
x,-y,z
1/2+x,1/2+y,z
1/2-x,1/2+y,-z
1/2-x,1/2-y,-z
1/2+x,1/2-y,z
loop_
_atom_site_type_symbol
_atom_site_label
_atom_site_fract_x
_atom_site_fract_y
_atom_site_fract_z
Si Si1 0.077344 0.797646 0.772681
Si Si2 0.607196 0.609779 0.072055
Si Si3 0.394653 0.103519 0.138221
Si Si4 0.304346 0.609367 0.677914
Si Si5 0.184133 0.606263 0.661458
Si Si6 0.051792 0.602767 0.113749
Si Si7 0.131581 0.217688 0.519682
Si Si8 0.541364 0.710381 0.268836
O O1 0.071004 0.684581 0.776401
O O2 0.118263 0.827784 0.666265
O O3 0.017282 0.827959 0.720734
O O4 0.103262 0.836873 0.923709
O O5 0.603282 0.500000 0.040985
O O6 0.661357 0.637613 0.172485
O O7 0.559147 0.641521 0.151509
O O8 0.335999 0.110877 0.183677
O O9 0.418745 0.000000 0.182403
O O10 0.396998 0.117678 0.969759
O O11 0.310770 0.500000 0.649352
O O12 0.244635 0.638840 0.687157
O O13 0.322776 0.662322 0.544213
O O14 0.178528 0.500000 0.600583
O O15 0.150537 0.674557 0.546864
O O16 0.055594 0.500000 0.186959
O O17 0.048515 0.681520 0.228988
O O18 0.000000 0.610443 0.000000
O O19 0.076410 0.204239 0.419844
#
# Coordination Sequence:
#
# PCOD8079091 Si02
#       8
#     8   8   8   8   8   8   8   8
#     4  11  20  34  52  78 107 141 173 218 264 309
#     4  10  21  36  56  78 100 133 182 229 269 315
#     4   9  17  30  50  78 104 133 171 209 258 313
#     4   9  19  38  60  77 100 138 178 222 274 316
#     4   9  18  35  58  78 106 142 176 213 262 316
#     4  10  17  28  50  76 105 140 175 213 258 307
#     4  10  22  34  53  79 110 140 178 214 258 313
#     4  11  20  34  51  76 111 143 176 209 260 318
#
# _framework density 18.586635999999999
#
# number of rings (size 3 to 8) (size 9 to 14) (size 15 to 20)
#    0.000    2.125    2.500    1.125    0.000    2.000 
#    0.000    2.500    2.750    7.500    0.000    0.000 
#    0.000    0.000    0.000    0.000    0.000    0.000 
#
# Total GULP energy -396497.235059 kJ/mol
# GULP energy per Si atom -12390.538596 kJ/mol
# Density = 1.854433 g / cm^3
# Si number density = 18.586636 Si / 1000 Ang^3
#
#
#
# Elastic Constant Matrix: (Units=GPa)
#
#
# Indices 1 2 3 4 5 6 
#
# 1 114.5838 28.8689 48.5087 0.0000 -14.8098 0.0000
# 2 28.8689 62.5774 37.8005 0.0000 -4.4554 0.0000
# 3 48.5087 37.8005 90.1607 0.0000 -13.0782 0.0000
# 4 0.0000 0.0000 0.0000 22.0117 0.0000 -1.0245
# 5 -14.8098 -4.4554 -13.0782 0.0000 22.5062 0.0000
# 6 0.0000 0.0000 0.0000 -1.0245 0.0000 24.8535
#
#
#
# Elastic Compliance Matrix: (Units=1/GPa)
#
#
# Indices 1 2 3 4 5 6 
#
# 1 0.011926 -0.002279 -0.004792 0.000000 0.004612 0.000000
# 2 -0.002279 0.021859 -0.008221 0.000000 -0.001950 0.000000
# 3 -0.004792 -0.008221 0.017935 0.000000 0.005641 0.000000
# 4 0.000000 0.000000 0.000000 0.045518 0.000000 0.001876
# 5 0.004612 -0.001950 0.005641 0.000000 0.050359 0.000000
# 6 0.000000 0.000000 0.000000 0.001876 0.000000 0.040313
#
#
# Mechanical properties :
#
#
# Convention : Reuss Voigt Hill
#
# Bulk Modulus (GPa) = 47.31429 55.29758 51.30594
# Shear Modulus (GPa) = 22.16913 24.01720 23.09317
#
# Velocity S-wave (km/s) = 3.45736 3.59858 3.52868
# Velocity P-wave (km/s) = 6.43810 6.86165 6.65325
#
# Compressibility (1/GPa) = 0.02113526
#
# Stress axis : x y z
#
# Youngs Moduli (GPa) = 83.84880 45.74821 55.75799
#
# Poissons Ratio (x) = 0.10425 0.26720
# Poissons Ratio (y) = 0.19107 0.45840
# Poissons Ratio (z) = 0.40182 0.37610
#
# Static dielectric constant tensor:
#      x y z
#    x 3.570510 0.000000 -0.226660 
#    y 0.000000 3.530580 0.000000 
#    z -0.226660 0.000000 3.299810 
# 
# 
# High freq. dielectric constant tensor:
#      x y z
#    x 1.723890 0.000000 -0.021590 
#    y 0.000000 1.724900 0.000000 
#    z -0.021590 0.000000 1.696610 
# 
# From -- ./inp_files/104666.got.cif
#   From: 2010.06.25/outbox.cif.g09.slc.cpg/sg12_53_cif.got.tgz:104666.got - 2010.06.28 00:19:55.
