data_PCOD8079009
_publ_section_title
;
Structure prediction by ZEFSAII (Michael W. Deem and Ramdas Pophale) SiO2 
 PCOD8079009
Probable space group: C 2/M
;
_chemical_formula_sum "Si O2"
_cell_formula_units_Z 48
_cell_length_a 24.264864
_cell_length_b 9.075171
_cell_length_c 13.619450
_cell_angle_alpha 90.000000
_cell_angle_beta 70.889385
_cell_angle_gamma 90.000000
_cell_volume 2833.822912
_symmetry_space_group_name_H-M "C 2/M"
_symmetry_group_IT_number 12
_symmetry_cell_setting 'monoclinic'
loop_
_space_group_symop_operation_xyz
x,y,z
-x,y,-z
-x,-y,-z
x,-y,z
1/2+x,1/2+y,z
1/2-x,1/2+y,-z
1/2-x,1/2-y,-z
1/2+x,1/2-y,z
loop_
_atom_site_type_symbol
_atom_site_label
_atom_site_fract_x
_atom_site_fract_y
_atom_site_fract_z
Si Si1 0.265881 0.171029 0.891433
Si Si2 0.503323 0.324135 0.383814
Si Si3 0.612278 0.666719 0.645706
Si Si4 0.880891 0.326131 0.711139
Si Si5 0.206981 0.174826 0.728234
Si Si6 0.814565 0.831068 0.584698
O O1 0.331712 0.212245 0.820942
O O2 0.219852 0.219364 0.833446
O O3 0.260244 0.000000 0.915148
O O4 0.250000 0.250000 0.000000
O O5 0.500000 0.276258 0.500000
O O6 0.508498 0.500000 0.373886
O O7 0.446813 0.256464 0.358993
O O8 0.557972 0.249585 0.296628
O O9 0.592686 0.500000 0.671555
O O10 0.641130 0.722476 0.732314
O O11 0.665444 0.680023 0.538820
O O12 0.888843 0.500000 0.695521
O O13 0.861902 0.258918 0.618863
O O14 0.251401 0.259396 0.631422
O O15 0.216825 0.000000 0.708050
O O16 0.813529 0.000000 0.621834
#
# Coordination Sequence:
#
# PCOD8079009 Si02
#       6
#     8   8   8   8   8   8
#     4   9  19  34  53  73  93 118 156 205 253 295
#     4  10  18  31  49  71 100 135 171 197 225 275
#     4   9  17  29  46  67  99 135 161 192 233 278
#     4  10  20  33  48  72 101 129 162 203 243 283
#     4   9  18  32  47  69  98 126 157 198 246 290
#     4  10  17  28  46  69  97 131 164 196 232 281
#
# _framework density 16.938248999999999
#
# number of rings (size 3 to 8) (size 9 to 14) (size 15 to 20)
#    0.000    2.500    1.667    2.500    0.000    3.667 
#    0.000    1.667    0.000    1.000    0.000    7.000 
#    0.000    0.000    0.000    0.000    0.000    0.000 
#
# Total GULP energy -297379.471794 kJ/mol
# GULP energy per Si atom -12390.811325 kJ/mol
# Density = 1.689970 g / cm^3
# Si number density = 16.938249 Si / 1000 Ang^3
#
#
#
# Elastic Constant Matrix: (Units=GPa)
#
#
# Indices 1 2 3 4 5 6 
#
# 1 167.6628 39.9442 67.5292 0.0000 11.6406 0.0000
# 2 39.9442 42.6182 28.8751 0.0000 -1.0325 0.0000
# 3 67.5292 28.8751 73.6162 0.0000 5.6197 0.0000
# 4 0.0000 0.0000 0.0000 23.9513 0.0000 -6.6052
# 5 11.6406 -1.0325 5.6197 0.0000 15.3490 0.0000
# 6 0.0000 0.0000 0.0000 -6.6052 0.0000 20.9780
#
#
#
# Elastic Compliance Matrix: (Units=1/GPa)
#
#
# Indices 1 2 3 4 5 6 
#
# 1 0.010452 -0.005079 -0.007165 0.000000 -0.005645 0.000000
# 2 -0.005079 0.035158 -0.009882 0.000000 0.009835 0.000000
# 3 -0.007165 -0.009882 0.024349 0.000000 -0.004146 0.000000
# 4 0.000000 0.000000 0.000000 0.045722 0.000000 0.014396
# 5 -0.005645 0.009835 -0.004146 0.000000 0.071612 0.000000
# 6 0.000000 0.000000 0.000000 0.014396 0.000000 0.052202
#
#
# Mechanical properties :
#
#
# Convention : Reuss Voigt Hill
#
# Bulk Modulus (GPa) = 38.89925 61.84381 50.37153
# Shear Modulus (GPa) = 17.10485 21.89223 19.49854
#
# Velocity S-wave (km/s) = 3.18124 3.59900 3.39655
# Velocity P-wave (km/s) = 6.04226 7.33900 6.72197
#
# Compressibility (1/GPa) = 0.02570744
#
# Stress axis : x y z
#
# Youngs Moduli (GPa) = 95.67601 28.44302 41.06930
#
# Poissons Ratio (x) = 0.14445 0.29425
# Poissons Ratio (y) = 0.48590 0.40587
# Poissons Ratio (z) = 0.68550 0.28109
#
# Static dielectric constant tensor:
#      x y z
#    x 3.556280 0.000000 0.047380 
#    y 0.000000 3.079060 0.000000 
#    z 0.047380 0.000000 2.908210 
# 
# 
# High freq. dielectric constant tensor:
#      x y z
#    x 1.665670 0.000000 0.006140 
#    y 0.000000 1.640660 0.000000 
#    z 0.006140 0.000000 1.614990 
# 
# From -- ./inp_files/230453.got.cif
#   From: 2010.06.25/outbox.cif.g09.slc.cpg/sg12_116_cif.got.tgz:230453.got - 2010.06.28 00:19:55.
