data_PCOD8079875
_publ_section_title
;
Structure prediction by ZEFSAII (Michael W. Deem and Ramdas Pophale) SiO2 
 PCOD8079875
Probable space group: C 2/M
;
_chemical_formula_sum "Si O2"
_cell_formula_units_Z 44
_cell_length_a 21.308697
_cell_length_b 20.718765
_cell_length_c 17.954361
_cell_angle_alpha 90.000000
_cell_angle_beta 20.071496
_cell_angle_gamma 90.000000
_cell_volume 2720.372986
_symmetry_space_group_name_H-M "C 2/M"
_symmetry_group_IT_number 12
_symmetry_cell_setting 'monoclinic'
loop_
_space_group_symop_operation_xyz
x,y,z
-x,y,-z
-x,-y,-z
x,-y,z
1/2+x,1/2+y,z
1/2-x,1/2+y,-z
1/2-x,1/2-y,-z
1/2+x,1/2-y,z
loop_
_atom_site_type_symbol
_atom_site_label
_atom_site_fract_x
_atom_site_fract_y
_atom_site_fract_z
Si Si1 0.608229 0.786387 0.952331
Si Si2 0.544154 0.227453 0.727837
Si Si3 0.864315 0.926685 0.220496
Si Si4 0.000000 0.765701 0.500000
Si Si5 0.380278 0.660081 0.982283
Si Si6 0.983585 0.339782 0.395586
O O1 0.820414 0.810296 0.713243
O O2 0.500000 0.809289 0.000000
O O3 0.506316 0.812942 0.140277
O O4 0.615373 0.707574 0.949823
O O5 0.750000 0.250000 0.500000
O O6 0.423966 0.294062 0.861658
O O7 0.507894 0.181747 0.699242
O O8 0.674443 0.891422 0.413313
O O9 0.965865 0.894533 0.178215
O O10 0.817292 0.000000 0.293972
O O11 0.000000 0.922970 0.000000
O O12 0.953835 0.723114 0.478861
O O13 0.180006 0.628075 0.196481
#
# Coordination Sequence:
#
# PCOD8079875 Si02
#       6
#     8   8   8   4   8   8
#     4   9  17  28  42  66  92 125 150 188 231 286
#     4  10  18  29  50  69  95 125 161 198 245 297
#     4  11  22  34  48  67  94 132 177 210 231 270
#     4  10  18  26  47  62  98 126 155 184 236 290
#     4   9  19  30  48  66  93 125 159 200 237 287
#     4  11  19  33  47  70  94 132 163 197 246 286
#
# _framework density 16.174253
#
# number of rings (size 3 to 8) (size 9 to 14) (size 15 to 20)
#    1.091    0.909    1.818    5.455    0.000    0.727 
#    0.000    2.273    0.000    0.000    0.000    0.000 
#    0.000    0.727    0.000    3.636    0.000    0.000 
#
# Total GULP energy -272553.429901 kJ/mol
# GULP energy per Si atom -12388.792268 kJ/mol
# Density = 1.613744 g / cm^3
# Si number density = 16.174253 Si / 1000 Ang^3
#
#
#
# Elastic Constant Matrix: (Units=GPa)
#
#
# Indices 1 2 3 4 5 6 
#
# 1 79.0021 8.3061 21.6299 0.0289 8.5715 -0.0156
# 2 8.3061 32.0527 7.2728 -0.0043 -3.2908 0.0060
# 3 21.6299 7.2728 109.1538 0.0387 -9.2073 -0.0136
# 4 0.0289 -0.0043 0.0387 12.5177 -0.0205 1.0167
# 5 8.5715 -3.2908 -9.2073 -0.0205 33.5108 0.0127
# 6 -0.0156 0.0060 -0.0136 1.0167 0.0127 9.9656
#
#
#
# Elastic Compliance Matrix: (Units=1/GPa)
#
#
# Indices 1 2 3 4 5 6 
#
# 1 0.014385 -0.003540 -0.003024 -0.000035 -0.004858 0.000030
# 2 -0.003540 0.032770 -0.001161 0.000032 0.003805 -0.000035
# 3 -0.003024 -0.001161 0.010128 -0.000020 0.003442 0.000007
# 4 -0.000035 0.000032 -0.000020 0.080555 0.000059 -0.008218
# 5 -0.004858 0.003805 0.003442 0.000059 0.032403 -0.000053
# 6 0.000030 -0.000035 0.000007 -0.008218 -0.000053 0.101184
#
#
# Mechanical properties :
#
#
# Convention : Reuss Voigt Hill
#
# Bulk Modulus (GPa) = 23.90498 32.73625 28.32062
# Shear Modulus (GPa) = 16.62114 23.39879 20.00996
#
# Velocity S-wave (km/s) = 3.20914 3.80764 3.52113
# Velocity P-wave (km/s) = 5.34258 6.29400 5.83771
#
# Compressibility (1/GPa) = 0.04183228
#
# Stress axis : x y z
#
# Youngs Moduli (GPa) = 69.51534 30.51562 98.73170
#
# Poissons Ratio (x) = 0.10804 0.29861
# Poissons Ratio (y) = 0.24611 0.11463
# Poissons Ratio (z) = 0.21025 0.03543
#
# Static dielectric constant tensor:
#      x y z
#    x 3.197190 -0.000160 -0.062690 
#    y -0.000160 2.556910 0.000120 
#    z -0.062690 0.000120 3.426890 
# 
# 
# High freq. dielectric constant tensor:
#      x y z
#    x 1.617520 0.000000 -0.009240 
#    y 0.000000 1.542660 0.000010 
#    z -0.009240 0.000010 1.649870 
# 
# From -- ./inp_files/286165.got.cif
#   From: 2010.06.25/outbox.cif.g09.slc.cpg/sg12_144_cif.got.tgz:286165.got - 2010.06.28 00:19:55.
