data_PCOD8079997
_publ_section_title
;
Structure prediction by ZEFSAII (Michael W. Deem and Ramdas Pophale) SiO2 
 PCOD8079997
Probable space group: C 2/M
;
_chemical_formula_sum "Si O2"
_cell_formula_units_Z 56
_cell_length_a 24.273629
_cell_length_b 9.064367
_cell_length_c 17.571254
_cell_angle_alpha 90.000000
_cell_angle_beta 62.716351
_cell_angle_gamma 90.000000
_cell_volume 3436.003723
_symmetry_space_group_name_H-M "C 2/M"
_symmetry_group_IT_number 12
_symmetry_cell_setting 'monoclinic'
loop_
_space_group_symop_operation_xyz
x,y,z
-x,y,-z
-x,-y,-z
x,-y,z
1/2+x,1/2+y,z
1/2-x,1/2+y,-z
1/2-x,1/2-y,-z
1/2+x,1/2-y,z
loop_
_atom_site_type_symbol
_atom_site_label
_atom_site_fract_x
_atom_site_fract_y
_atom_site_fract_z
Si Si1 0.185518 0.335983 0.958036
Si Si2 0.070689 0.330325 0.460876
Si Si3 0.710603 0.329511 0.632883
Si Si4 0.841792 0.329339 0.733898
Si Si5 0.784815 0.674814 0.223618
Si Si6 0.167799 0.164762 0.111934
Si Si7 0.666787 0.329069 0.497280
O O1 0.158953 0.500000 0.987260
O O2 0.175145 0.283993 0.877126
O O3 0.258749 0.335547 0.925129
O O4 0.150734 0.229674 0.039484
O O5 0.075844 0.500000 0.483891
O O6 0.101140 0.307385 0.359129
O O7 0.102294 0.228968 0.504926
O O8 0.000000 0.278561 0.500000
O O9 0.718971 0.500000 0.648853
O O10 0.681340 0.243270 0.723722
O O11 0.665562 0.307423 0.589385
O O12 0.778348 0.265623 0.573410
O O13 0.823830 0.500000 0.756096
O O14 0.783658 0.242811 0.736559
O O15 0.862341 0.263419 0.802527
O O16 0.778076 0.500000 0.235225
O O17 0.140619 0.000000 0.134270
O O18 0.677127 0.500000 0.469655
#
# Coordination Sequence:
#
# PCOD8079997 Si02
#       7
#     8   8   8   8   8   8   8
#     4   8  15  25  36  55  83 113 143 175 213 257
#     4  10  21  35  49  66  89 118 154 193 231 269
#     4  10  19  30  45  66  91 119 149 184 225 270
#     4  10  18  28  43  60  83 116 149 183 225 267
#     4  10  18  27  42  64  89 116 148 183 217 263
#     4   9  16  25  38  56  80 111 146 181 214 257
#     4  10  20  32  47  66  88 116 152 189 226 267
#
# _framework density 16.298003000000001
#
# number of rings (size 3 to 8) (size 9 to 14) (size 15 to 20)
#    0.000    2.429    1.429    3.000    0.000    6.571 
#    0.000    0.000    0.000    0.000    0.000    0.000 
#    0.000    1.143    0.000   12.857    0.000    6.714 
#
# Total GULP energy -347136.589243 kJ/mol
# GULP energy per Si atom -12397.735330 kJ/mol
# Density = 1.626091 g / cm^3
# Si number density = 16.298003 Si / 1000 Ang^3
#
#
#
# Elastic Constant Matrix: (Units=GPa)
#
#
# Indices 1 2 3 4 5 6 
#
# 1 58.8293 38.1005 41.5948 0.0000 13.3800 0.0001
# 2 38.1005 111.3590 60.0901 -0.0001 21.1026 0.0001
# 3 41.5948 60.0901 100.5327 0.0000 33.1769 0.0001
# 4 0.0000 -0.0001 0.0000 28.3870 0.0000 9.7284
# 5 13.3800 21.1026 33.1769 0.0000 25.5573 0.0000
# 6 0.0001 0.0001 0.0001 9.7284 0.0000 19.4241
#
#
#
# Elastic Compliance Matrix: (Units=1/GPa)
#
#
# Indices 1 2 3 4 5 6 
#
# 1 0.025462 -0.004485 -0.008182 0.000000 0.000995 0.000000
# 2 -0.004485 0.014065 -0.006112 0.000000 -0.001331 0.000000
# 3 -0.008182 -0.006112 0.024329 0.000000 -0.022252 0.000000
# 4 0.000000 0.000000 0.000000 0.042527 0.000000 -0.021299
# 5 0.000995 -0.001331 -0.022252 0.000000 0.068593 0.000000
# 6 0.000000 0.000000 0.000000 -0.021299 0.000000 0.062150
#
#
# Mechanical properties :
#
#
# Convention : Reuss Voigt Hill
#
# Bulk Modulus (GPa) = 38.02627 61.14352 49.58490
# Shear Modulus (GPa) = 17.63985 23.40270 20.52127
#
# Velocity S-wave (km/s) = 3.29345 3.79347 3.55227
# Velocity P-wave (km/s) = 6.15182 7.53556 6.87857
#
# Compressibility (1/GPa) = 0.02629761
#
# Stress axis : x y z
#
# Youngs Moduli (GPa) = 39.27428 71.10027 41.10314
#
# Poissons Ratio (x) = 0.31887 0.33632
# Poissons Ratio (y) = 0.17614 0.25121
# Poissons Ratio (z) = 0.32136 0.43455
#
# Static dielectric constant tensor:
#      x y z
#    x 2.704490 0.000000 0.447340 
#    y 0.000000 3.266810 0.000000 
#    z 0.447340 0.000000 3.308460 
# 
# 
# High freq. dielectric constant tensor:
#      x y z
#    x 1.564190 0.000000 0.042160 
#    y 0.000000 1.644010 0.000000 
#    z 0.042160 0.000000 1.626860 
# 
# From -- ./inp_files/287333.got.cif
#   From: 2010.06.25/outbox.cif.g09.slc.cpg/sg12_144_cif.got.tgz:287333.got - 2010.06.28 00:19:55.
