data_PCOD8079692
_publ_section_title
;
Structure prediction by ZEFSAII (Michael W. Deem and Ramdas Pophale) SiO2 
 PCOD8079692
Probable space group: C 2/M
;
_chemical_formula_sum "Si O2"
_cell_formula_units_Z 56
_cell_length_a 11.891288
_cell_length_b 19.106866
_cell_length_c 13.477535
_cell_angle_alpha 90.000000
_cell_angle_beta 104.894401
_cell_angle_gamma 90.000000
_cell_volume 2959.281541
_symmetry_space_group_name_H-M "C 2/M"
_symmetry_group_IT_number 12
_symmetry_cell_setting 'monoclinic'
loop_
_space_group_symop_operation_xyz
x,y,z
-x,y,-z
-x,-y,-z
x,-y,z
1/2+x,1/2+y,z
1/2-x,1/2+y,-z
1/2-x,1/2-y,-z
1/2+x,1/2-y,z
loop_
_atom_site_type_symbol
_atom_site_label
_atom_site_fract_x
_atom_site_fract_y
_atom_site_fract_z
Si Si1 0.809550 0.821729 0.168043
Si Si2 0.944543 0.323658 0.890519
Si Si3 0.122631 0.825769 0.039987
Si Si4 0.116287 0.582730 0.582288
Si Si5 0.936826 0.917677 0.332904
Si Si6 0.834524 0.082432 0.511218
Si Si7 0.845160 0.667306 0.209065
O O1 0.682566 0.856092 0.160917
O O2 0.904265 0.877687 0.225073
O O3 0.823619 0.748647 0.230146
O O4 0.826182 0.804691 0.055663
O O5 0.919373 0.241878 0.907422
O O6 0.033773 0.338186 0.822517
O O7 0.000000 0.360116 0.000000
O O8 0.229889 0.862360 0.123874
O O9 0.000000 0.870427 0.000000
O O10 0.120710 0.500000 0.605020
O O11 0.213692 0.608362 0.527370
O O12 0.135690 0.622371 0.688863
O O13 0.000000 0.605246 0.500000
O O14 0.847042 0.894399 0.399604
O O15 0.062654 0.889407 0.395060
O O16 0.934410 0.000000 0.310256
O O17 0.847814 0.000000 0.515653
#
# Coordination Sequence:
#
# PCOD8079692 Si02
#       7
#     8   8   8   8   8   8   8
#     4  11  20  32  58  87 109 145 183 228 276 328
#     4  10  17  34  54  79 109 148 188 212 265 339
#     4  10  19  33  56  83 112 149 180 214 281 342
#     4  10  23  41  59  77 109 153 191 226 282 338
#     4   9  19  35  58  82 109 144 184 227 278 328
#     4   8  17  38  58  74 102 148 187 218 271 339
#     4  11  21  36  57  83 109 145 191 232 266 329
#
# _framework density 18.923513
#
# number of rings (size 3 to 8) (size 9 to 14) (size 15 to 20)
#    0.000    2.143    4.286    1.714    4.000    0.000 
#    2.571    1.429    0.000    1.714    0.000    0.000 
#    0.000    0.000    0.000    0.000    0.000    0.000 
#
# Total GULP energy -346905.507299 kJ/mol
# GULP energy per Si atom -12389.482404 kJ/mol
# Density = 1.888044 g / cm^3
# Si number density = 18.923513 Si / 1000 Ang^3
#
#
#
# Elastic Constant Matrix: (Units=GPa)
#
#
# Indices 1 2 3 4 5 6 
#
# 1 144.8324 19.0917 45.4461 0.0000 4.8245 0.0000
# 2 19.0917 38.7106 36.1345 0.0000 7.5485 0.0000
# 3 45.4461 36.1345 101.4058 0.0000 15.4192 0.0000
# 4 0.0000 0.0000 0.0000 23.5824 0.0000 3.6360
# 5 4.8245 7.5485 15.4192 0.0000 29.7579 0.0000
# 6 0.0000 0.0000 0.0000 3.6360 0.0000 15.0193
#
#
#
# Elastic Compliance Matrix: (Units=1/GPa)
#
#
# Indices 1 2 3 4 5 6 
#
# 1 0.008068 -0.000959 -0.003378 0.000000 0.000686 0.000000
# 2 -0.000959 0.039054 -0.013030 0.000000 -0.002999 0.000000
# 3 -0.003378 -0.013030 0.016753 0.000000 -0.004827 0.000000
# 4 0.000000 0.000000 0.000000 0.044049 0.000000 -0.010664
# 5 0.000686 -0.002999 -0.004827 0.000000 0.036756 0.000000
# 6 0.000000 0.000000 0.000000 -0.010664 0.000000 0.069162
#
#
# Mechanical properties :
#
#
# Convention : Reuss Voigt Hill
#
# Bulk Modulus (GPa) = 34.31854 54.03260 44.17557
# Shear Modulus (GPa) = 19.35808 25.95703 22.65756
#
# Velocity S-wave (km/s) = 3.20185 3.70764 3.46399
# Velocity P-wave (km/s) = 5.64304 6.85156 6.27646
#
# Compressibility (1/GPa) = 0.02913877
#
# Stress axis : x y z
#
# Youngs Moduli (GPa) = 123.94336 25.60564 59.69249
#
# Poissons Ratio (x) = 0.02457 0.20166
# Poissons Ratio (y) = 0.11892 0.77781
# Poissons Ratio (z) = 0.41871 0.33365
#
# Static dielectric constant tensor:
#      x y z
#    x 4.461100 0.000000 0.053320 
#    y 0.000000 2.891430 0.000000 
#    z 0.053320 0.000000 3.488080 
# 
# 
# High freq. dielectric constant tensor:
#      x y z
#    x 1.765110 0.000000 0.007740 
#    y 0.000000 1.672160 0.000000 
#    z 0.007740 0.000000 1.735000 
# 
# From -- ./inp_files/133319.got.cif
#   From: 2010.06.25/outbox.cif.g09.slc.cpg/sg12_67_cif.got.tgz:133319.got - 2010.06.28 00:19:55.
