data_PCOD8079954
_publ_section_title
;
Structure prediction by ZEFSAII (Michael W. Deem and Ramdas Pophale) SiO2 
 PCOD8079954
Probable space group: C 2/M
;
_chemical_formula_sum "Si O2"
_cell_formula_units_Z 64
_cell_length_a 28.032083
_cell_length_b 9.013533
_cell_length_c 20.598177
_cell_angle_alpha 90.000000
_cell_angle_beta 127.952084
_cell_angle_gamma 90.000000
_cell_volume 4103.882043
_symmetry_space_group_name_H-M "C 2/M"
_symmetry_group_IT_number 12
_symmetry_cell_setting 'monoclinic'
loop_
_space_group_symop_operation_xyz
x,y,z
-x,y,-z
-x,-y,-z
x,-y,z
1/2+x,1/2+y,z
1/2-x,1/2+y,-z
1/2-x,1/2-y,-z
1/2+x,1/2-y,z
loop_
_atom_site_type_symbol
_atom_site_label
_atom_site_fract_x
_atom_site_fract_y
_atom_site_fract_z
Si Si1 0.160505 0.835982 0.405166
Si Si2 0.711392 0.835456 0.557901
Si Si3 0.623527 0.674498 0.979171
Si Si4 0.804722 0.169316 0.077857
Si Si5 0.610023 0.323670 0.230307
Si Si6 0.504012 0.173246 0.927478
Si Si7 0.228559 0.672982 0.280130
Si Si8 0.264414 0.828743 0.861134
O O1 0.226593 0.840177 0.429294
O O2 0.159317 0.731115 0.467390
O O3 0.115004 0.779329 0.310833
O O4 0.141895 0.000000 0.412979
O O5 0.719898 0.736946 0.629280
O O6 0.691170 0.000000 0.561798
O O7 0.610572 0.500000 0.980076
O O8 0.634009 0.711926 0.910379
O O9 0.568071 0.772954 0.955379
O O10 0.682078 0.721991 0.069786
O O11 0.798472 0.199597 0.150318
O O12 0.793149 0.000000 0.052390
O O13 0.750000 0.250000 0.000000
O O14 0.615149 0.500000 0.226267
O O15 0.546737 0.265906 0.151758
O O16 0.663915 0.250718 0.234593
O O17 0.495381 0.000000 0.905497
O O18 0.500000 0.207189 0.000000
O O19 0.220303 0.500000 0.288107
O O20 0.251251 0.705065 0.226402
O O21 0.285705 0.000000 0.886983
#
# Coordination Sequence:
#
# PCOD8079954 Si02
#       8
#     8   8   8   8   8   8   8   8
#     4   8  15  27  41  57  78 105 137 172 209 247
#     4   9  16  25  39  59  82 109 139 171 205 243
#     4  10  19  30  46  64  82 108 142 181 217 246
#     4   8  15  28  44  62  82 105 136 172 211 252
#     4  10  20  32  45  61  82 110 145 182 213 243
#     4  11  23  35  45  59  83 115 147 177 210 248
#     4  10  18  27  41  61  87 117 143 169 206 250
#     4   9  17  29  44  62  86 114 141 170 208 255
#
# _framework density 15.594991
#
# number of rings (size 3 to 8) (size 9 to 14) (size 15 to 20)
#    0.000    2.625    0.000    3.375    0.000    9.000 
#    0.000    0.000    0.000    0.000    0.000    0.000 
#    0.000    1.000    0.000   11.500    0.000    3.500 
#
# Total GULP energy -396490.608881 kJ/mol
# GULP energy per Si atom -12390.331528 kJ/mol
# Density = 1.555950 g / cm^3
# Si number density = 15.594991 Si / 1000 Ang^3
#
#
#
# Elastic Constant Matrix: (Units=GPa)
#
#
# Indices 1 2 3 4 5 6 
#
# 1 88.2551 35.8089 40.9874 0.0000 -18.1791 0.0000
# 2 35.8089 72.8965 42.2051 0.0000 -10.1045 0.0000
# 3 40.9874 42.2051 92.9821 0.0000 -17.2941 0.0000
# 4 0.0000 0.0000 0.0000 25.9597 0.0000 -5.4224
# 5 -18.1791 -10.1045 -17.2941 0.0000 16.7290 0.0000
# 6 0.0000 0.0000 0.0000 -5.4224 0.0000 -11.6769
#
#
#
# Elastic Compliance Matrix: (Units=1/GPa)
#
#
# Indices 1 2 3 4 5 6 
#
# 1 0.017400 -0.005035 -0.003012 0.000000 0.012752 0.000000
# 2 -0.005035 0.020197 -0.007053 0.000000 -0.000564 0.000000
# 3 -0.003012 -0.007053 0.017187 0.000000 0.010235 0.000000
# 4 0.000000 0.000000 0.000000 0.035115 0.000000 -0.016306
# 5 0.012752 -0.000564 0.010235 0.000000 0.083874 0.000000
# 6 0.000000 0.000000 0.000000 -0.016306 0.000000 -0.078067
#
#
# Mechanical properties :
#
#
# Convention : Reuss Voigt Hill
#
# Bulk Modulus (GPa) = 40.67877 54.68184 47.68030
# Shear Modulus (GPa) = 37.28521 15.21118 26.24820
#
# Velocity S-wave (km/s) = 4.89493 3.12651 4.10703
# Velocity P-wave (km/s) = 7.62157 6.94070 7.28909
#
# Compressibility (1/GPa) = 0.02458285
#
# Stress axis : x y z
#
# Youngs Moduli (GPa) = 57.47224 49.51290 58.18191
#
# Poissons Ratio (x) = 0.24932 0.17527
# Poissons Ratio (y) = 0.28940 0.41033
# Poissons Ratio (z) = 0.17313 0.34920
#
# Static dielectric constant tensor:
#      x y z
#    x 3.085720 0.000000 -0.341110 
#    y 0.000000 3.150600 0.000000 
#    z -0.341110 0.000000 3.013080 
# 
# 
# High freq. dielectric constant tensor:
#      x y z
#    x 1.566620 0.000000 -0.027880 
#    y 0.000000 1.615150 0.000000 
#    z -0.027880 0.000000 1.580860 
# 
# From -- ./inp_files/326956.got.cif
#   From: 2010.06.25/outbox.cif.g09.slc.cpg/sg12_164_cif.got.tgz:326956.got - 2010.06.28 00:19:55.
