data_PCOD8079949
_publ_section_title
;
Structure prediction by ZEFSAII (Michael W. Deem and Ramdas Pophale) SiO2 
 PCOD8079949
Probable space group: C 2/M
;
_chemical_formula_sum "Si O2"
_cell_formula_units_Z 56
_cell_length_a 27.254082
_cell_length_b 9.177207
_cell_length_c 16.255368
_cell_angle_alpha 90.000000
_cell_angle_beta 63.868568
_cell_angle_gamma 90.000000
_cell_volume 3650.158859
_symmetry_space_group_name_H-M "C 2/M"
_symmetry_group_IT_number 12
_symmetry_cell_setting 'monoclinic'
loop_
_space_group_symop_operation_xyz
x,y,z
-x,y,-z
-x,-y,-z
x,-y,z
1/2+x,1/2+y,z
1/2-x,1/2+y,-z
1/2-x,1/2-y,-z
1/2+x,1/2-y,z
loop_
_atom_site_type_symbol
_atom_site_label
_atom_site_fract_x
_atom_site_fract_y
_atom_site_fract_z
Si Si1 0.189935 0.170130 0.452544
Si Si2 0.506709 0.827322 0.187393
Si Si3 0.587348 0.172691 0.459131
Si Si4 0.515671 0.172149 0.363674
Si Si5 0.938754 0.661196 0.012050
Si Si6 0.200981 0.832215 0.632129
Si Si7 0.404951 0.330201 0.185674
O O1 0.143767 0.246677 0.432924
O O2 0.180061 0.205274 0.555907
O O3 0.248184 0.232124 0.380682
O O4 0.188624 0.000000 0.434772
O O5 0.524839 0.771121 0.264069
O O6 0.450409 0.750258 0.205555
O O7 0.495574 0.000000 0.193689
O O8 0.555782 0.787377 0.087384
O O9 0.565621 0.222080 0.384990
O O10 0.542618 0.227338 0.558729
O O11 0.596884 0.000000 0.457245
O O12 0.513467 0.000000 0.367805
O O13 0.912266 0.500000 0.037258
O O14 0.903096 0.772036 0.092863
O O15 0.000000 0.656069 0.000000
O O16 0.153276 0.797055 0.731284
O O17 0.219521 0.000000 0.622915
O O18 0.418859 0.500000 0.174148
#
# Coordination Sequence:
#
# PCOD8079949 Si02
#       7
#     8   8   8   8   8   8   8
#     4  10  19  30  44  62  84 109 138 171 206 243
#     4   9  16  27  42  60  85 114 142 169 198 239
#     4   9  16  28  45  63  85 111 140 172 202 237
#     4   8  15  27  44  64  83 111 146 169 194 240
#     4   8  15  26  39  57  82 111 139 167 201 243
#     4   9  19  32  43  59  83 111 141 169 202 246
#     4  10  18  27  41  61  85 110 137 171 208 244
#
# _framework density 15.341797
#
# number of rings (size 3 to 8) (size 9 to 14) (size 15 to 20)
#    0.000    3.000    0.000    3.429    0.000    4.286 
#    0.000    2.143    0.000    0.000    0.000    1.000 
#    0.000    0.000    0.000    0.000    0.000    0.000 
#
# Total GULP energy -347073.076219 kJ/mol
# GULP energy per Si atom -12395.467008 kJ/mol
# Density = 1.530688 g / cm^3
# Si number density = 15.341797 Si / 1000 Ang^3
#
#
#
# Elastic Constant Matrix: (Units=GPa)
#
#
# Indices 1 2 3 4 5 6 
#
# 1 96.4104 45.5794 56.2942 0.0000 5.5315 0.0000
# 2 45.5794 62.3269 46.1218 0.0000 -3.0795 0.0000
# 3 56.2942 46.1218 128.4556 0.0000 12.4420 0.0000
# 4 0.0000 0.0000 0.0000 21.5818 0.0000 -3.3436
# 5 5.5315 -3.0795 12.4420 0.0000 21.7023 0.0000
# 6 0.0000 0.0000 0.0000 -3.3436 0.0000 20.7907
#
#
#
# Elastic Compliance Matrix: (Units=1/GPa)
#
#
# Indices 1 2 3 4 5 6 
#
# 1 0.017625 -0.010412 -0.003608 0.000000 -0.003902 0.000000
# 2 -0.010412 0.029413 -0.007051 0.000000 0.010870 0.000000
# 3 -0.003608 -0.007051 0.012605 0.000000 -0.007307 0.000000
# 4 0.000000 0.000000 0.000000 0.047519 0.000000 0.007642
# 5 -0.003902 0.010870 -0.007307 0.000000 0.052804 0.000000
# 6 0.000000 0.000000 0.000000 0.007642 0.000000 0.049327
#
#
# Mechanical properties :
#
#
# Convention : Reuss Voigt Hill
#
# Bulk Modulus (GPa) = 57.13431 64.79817 60.96624
# Shear Modulus (GPa) = 19.43480 22.09478 20.76479
#
# Velocity S-wave (km/s) = 3.56306 3.79907 3.68296
# Velocity P-wave (km/s) = 7.36539 7.84678 7.60989
#
# Compressibility (1/GPa) = 0.01750262
#
# Stress axis : x y z
#
# Youngs Moduli (GPa) = 56.73659 33.99800 79.33315
#
# Poissons Ratio (x) = 0.35400 0.28620
# Poissons Ratio (y) = 0.59077 0.55934
# Poissons Ratio (z) = 0.20468 0.23970
#
# Static dielectric constant tensor:
#      x y z
#    x 2.799350 0.000000 0.286120 
#    y 0.000000 2.852700 0.000000 
#    z 0.286120 0.000000 3.388700 
# 
# 
# High freq. dielectric constant tensor:
#      x y z
#    x 1.557400 0.000000 0.007010 
#    y 0.000000 1.580550 0.000000 
#    z 0.007010 0.000000 1.588580 
# 
# From -- ./inp_files/291475.got.cif
#   From: 2010.06.25/outbox.cif.g09.slc.cpg/sg12_146_cif.got.tgz:291475.got - 2010.06.28 00:19:55.
