data_PCOD8079138
_publ_section_title
;
Structure prediction by ZEFSAII (Michael W. Deem and Ramdas Pophale) SiO2 
 PCOD8079138
Probable space group: C 2/M
;
_chemical_formula_sum "Si O2"
_cell_formula_units_Z 44
_cell_length_a 12.722006
_cell_length_b 23.579143
_cell_length_c 10.101967
_cell_angle_alpha 90.000000
_cell_angle_beta 120.073674
_cell_angle_gamma 90.000000
_cell_volume 2622.390093
_symmetry_space_group_name_H-M "C 2/M"
_symmetry_group_IT_number 12
_symmetry_cell_setting 'monoclinic'
loop_
_space_group_symop_operation_xyz
x,y,z
-x,y,-z
-x,-y,-z
x,-y,z
1/2+x,1/2+y,z
1/2-x,1/2+y,-z
1/2-x,1/2-y,-z
1/2+x,1/2-y,z
loop_
_atom_site_type_symbol
_atom_site_label
_atom_site_fract_x
_atom_site_fract_y
_atom_site_fract_z
Si Si1 0.307277 0.831999 0.080922
Si Si2 0.624613 0.062497 0.419828
Si Si3 0.230351 0.777284 0.779946
Si Si4 0.663035 0.938054 0.736777
Si Si5 0.000000 0.258884 0.500000
Si Si6 0.583723 0.177783 0.299382
O O1 0.253249 0.783579 0.141201
O O2 0.274423 0.891740 0.128909
O O3 0.451498 0.825534 0.149328
O O4 0.245139 0.827490 0.897492
O O5 0.481106 0.066061 0.349284
O O6 0.696869 0.070573 0.603718
O O7 0.653241 0.116342 0.343878
O O8 0.658263 0.000000 0.380480
O O9 0.333327 0.780245 0.732966
O O10 0.096556 0.782039 0.632352
O O11 0.707649 0.000000 0.813341
O O12 0.069867 0.299480 0.440602
#
# Coordination Sequence:
#
# PCOD8079138 Si02
#       6
#     8   8   8   8   4   8
#     4   9  18  30  44  67  92 116 145 176 215 266
#     4   8  13  22  40  66  91 113 138 169 213 269
#     4  10  19  30  44  62  92 121 146 179 216 254
#     4   8  13  24  42  63  89 116 138 170 217 264
#     4  10  20  30  43  64  87 116 154 182 210 258
#     4  10  17  29  46  66  92 117 141 178 221 259
#
# _framework density 16.778587999999999
#
# number of rings (size 3 to 8) (size 9 to 14) (size 15 to 20)
#    0.000    2.909    0.000    5.455    0.000    0.000 
#    0.000    0.909    0.000    4.364    0.000    2.545 
#    0.000   34.909    0.000    0.182    0.000    0.000 
#
# Total GULP energy -272615.800117 kJ/mol
# GULP energy per Si atom -12391.627278 kJ/mol
# Density = 1.674040 g / cm^3
# Si number density = 16.778588 Si / 1000 Ang^3
#
#
#
# Elastic Constant Matrix: (Units=GPa)
#
#
# Indices 1 2 3 4 5 6 
#
# 1 52.7895 35.8762 28.0897 0.0000 -10.9723 0.0000
# 2 35.8762 114.5513 56.0001 0.0000 -3.0249 0.0000
# 3 28.0897 56.0001 106.2152 0.0000 4.0759 0.0000
# 4 0.0000 0.0000 0.0000 27.7558 0.0000 1.6181
# 5 -10.9723 -3.0249 4.0759 0.0000 20.8812 0.0000
# 6 0.0000 0.0000 0.0000 1.6181 0.0000 11.6785
#
#
#
# Elastic Compliance Matrix: (Units=1/GPa)
#
#
# Indices 1 2 3 4 5 6 
#
# 1 0.029019 -0.006258 -0.004962 0.000000 0.015310 0.000000
# 2 -0.006258 0.013292 -0.005341 0.000000 -0.000320 0.000000
# 3 -0.004962 -0.005341 0.013776 0.000000 -0.006070 0.000000
# 4 0.000000 0.000000 0.000000 0.036322 0.000000 -0.005033
# 5 0.015310 -0.000320 -0.006070 0.000000 0.057073 0.000000
# 6 0.000000 0.000000 0.000000 -0.005033 0.000000 0.086325
#
#
# Mechanical properties :
#
#
# Convention : Reuss Voigt Hill
#
# Bulk Modulus (GPa) = 43.54536 57.05420 50.29978
# Shear Modulus (GPa) = 18.07763 22.30243 20.19003
#
# Velocity S-wave (km/s) = 3.28597 3.64980 3.47266
# Velocity P-wave (km/s) = 6.35658 7.19996 6.79137
#
# Compressibility (1/GPa) = 0.02296456
#
# Stress axis : x y z
#
# Youngs Moduli (GPa) = 34.46005 75.23236 72.59044
#
# Poissons Ratio (x) = 0.47082 0.36022
# Poissons Ratio (y) = 0.21566 0.38768
# Poissons Ratio (z) = 0.17100 0.40179
#
# Static dielectric constant tensor:
#      x y z
#    x 2.692000 0.000000 -0.052580 
#    y 0.000000 3.476200 0.000000 
#    z -0.052580 0.000000 3.244450 
# 
# 
# High freq. dielectric constant tensor:
#      x y z
#    x 1.589850 0.000000 -0.011180 
#    y 0.000000 1.646340 0.000000 
#    z -0.011180 0.000000 1.644030 
# 
# From -- ./inp_files/50874.got.cif
#   From: 2010.06.25/outbox.cif.g09.slc.cpg/sg12_26_cif.got.tgz:50874.got - 2010.06.28 00:19:55.
