data_PCOD8079222
_publ_section_title
;
Structure prediction by ZEFSAII (Michael W. Deem and Ramdas Pophale) SiO2 
 PCOD8079222
Probable space group: C 2/M
;
_chemical_formula_sum "Si O2"
_cell_formula_units_Z 64
_cell_length_a 29.823171
_cell_length_b 8.767212
_cell_length_c 15.190055
_cell_angle_alpha 90.000000
_cell_angle_beta 100.915458
_cell_angle_gamma 90.000000
_cell_volume 3899.826819
_symmetry_space_group_name_H-M "C 2/M"
_symmetry_group_IT_number 12
_symmetry_cell_setting 'monoclinic'
loop_
_space_group_symop_operation_xyz
x,y,z
-x,y,-z
-x,-y,-z
x,-y,z
1/2+x,1/2+y,z
1/2-x,1/2+y,-z
1/2-x,1/2-y,-z
1/2+x,1/2-y,z
loop_
_atom_site_type_symbol
_atom_site_label
_atom_site_fract_x
_atom_site_fract_y
_atom_site_fract_z
Si Si1 0.561870 0.820344 0.584075
Si Si2 0.057964 0.179803 0.884899
Si Si3 0.709712 0.825543 0.886381
Si Si4 0.536166 0.819115 0.387791
Si Si5 0.810409 0.824536 0.940687
Si Si6 0.379456 0.823349 0.237621
Si Si7 0.457194 0.679849 0.792756
Si Si8 0.902198 0.679157 0.926660
O O1 0.565509 0.763394 0.484304
O O2 0.515775 0.764218 0.614650
O O3 0.604832 0.765915 0.659527
O O4 0.558599 0.000000 0.576349
O O5 0.095325 0.230608 0.828598
O O6 0.008064 0.235805 0.836475
O O7 0.059681 0.000000 0.894975
O O8 0.069020 0.248999 0.983592
O O9 0.761636 0.792436 0.874735
O O10 0.675097 0.798805 0.791861
O O11 0.706019 0.000000 0.919532
O O12 0.694885 0.713442 0.958532
O O13 0.555150 0.730460 0.310645
O O14 0.539644 0.000000 0.372891
O O15 0.848782 0.721242 0.910603
O O16 0.825325 0.000000 0.937593
O O17 0.392992 0.000000 0.230498
O O18 0.452072 0.500000 0.800575
O O19 0.421067 0.760841 0.841846
O O20 0.907676 0.500000 0.934444
#
# Coordination Sequence:
#
# PCOD8079222 Si02
#       8
#     8   8   8   8   8   8   8   8
#     4   8  15  27  48  73  99 127 161 201 236 276
#     4  11  22  34  47  69 100 131 162 199 241 283
#     4   9  18  30  48  73  98 128 164 197 238 291
#     4   9  16  30  49  71  96 129 166 198 236 280
#     4  10  19  32  48  69  99 128 158 203 248 283
#     4  10  17  29  50  74  99 131 166 197 231 281
#     4  11  23  36  49  69  98 130 164 203 246 287
#     4  12  24  36  51  69  91 128 173 205 238 289
#
# _framework density 16.410986000000001
#
# number of rings (size 3 to 8) (size 9 to 14) (size 15 to 20)
#    0.000    2.000    2.500    3.375    0.000    3.500 
#    0.000    1.875    0.000    0.000    0.000    0.875 
#    0.000    0.000    0.000    0.000    0.000    0.000 
#
# Total GULP energy -396723.727785 kJ/mol
# GULP energy per Si atom -12397.616493 kJ/mol
# Density = 1.637363 g / cm^3
# Si number density = 16.410986 Si / 1000 Ang^3
#
#
#
# Elastic Constant Matrix: (Units=GPa)
#
#
# Indices 1 2 3 4 5 6 
#
# 1 67.6568 13.9999 45.1937 0.0000 9.2376 0.0000
# 2 13.9999 46.6091 21.4975 0.0000 0.0910 0.0000
# 3 45.1937 21.4975 120.3246 0.0000 8.4122 0.0000
# 4 0.0000 0.0000 0.0000 7.5670 0.0000 4.0075
# 5 9.2376 0.0910 8.4122 0.0000 25.2422 0.0000
# 6 0.0000 0.0000 0.0000 4.0075 0.0000 18.0771
#
#
#
# Elastic Compliance Matrix: (Units=1/GPa)
#
#
# Indices 1 2 3 4 5 6 
#
# 1 0.020720 -0.003045 -0.006869 0.000000 -0.005283 0.000000
# 2 -0.003045 0.023874 -0.003270 0.000000 0.002118 0.000000
# 3 -0.006869 -0.003270 0.011568 0.000000 -0.001330 0.000000
# 4 0.000000 0.000000 0.000000 0.149734 0.000000 -0.033195
# 5 -0.005283 0.002118 -0.001330 0.000000 0.041985 0.000000
# 6 0.000000 0.000000 0.000000 -0.033195 0.000000 0.062678
#
#
# Mechanical properties :
#
#
# Convention : Reuss Voigt Hill
#
# Bulk Modulus (GPa) = 33.56371 43.99696 38.78033
# Shear Modulus (GPa) = 14.41513 20.43720 17.42616
#
# Velocity S-wave (km/s) = 2.96697 3.53276 3.26215
# Velocity P-wave (km/s) = 5.67746 6.59607 6.15393
#
# Compressibility (1/GPa) = 0.02979409
#
# Stress axis : x y z
#
# Youngs Moduli (GPa) = 48.26168 41.88723 86.44533
#
# Poissons Ratio (x) = 0.12755 0.59381
# Poissons Ratio (y) = 0.14697 0.28264
# Poissons Ratio (z) = 0.33152 0.13696
#
# Static dielectric constant tensor:
#      x y z
#    x 3.172110 0.000000 0.290730 
#    y 0.000000 3.037420 0.000000 
#    z 0.290730 0.000000 3.306120 
# 
# 
# High freq. dielectric constant tensor:
#      x y z
#    x 1.614120 0.000000 0.015550 
#    y 0.000000 1.629240 0.000000 
#    z 0.015550 0.000000 1.620620 
# 
# From -- ./inp_files/248255.got.cif
#   From: 2010.06.25/outbox.cif.g09.slc.cpg/sg12_125_cif.got.tgz:248255.got - 2010.06.28 00:19:55.
