data_PCOD8079839
_publ_section_title
;
Structure prediction by ZEFSAII (Michael W. Deem and Ramdas Pophale) SiO2 
 PCOD8079839
Probable space group: C 2/M
;
_chemical_formula_sum "Si O2"
_cell_formula_units_Z 56
_cell_length_a 20.924390
_cell_length_b 9.207845
_cell_length_c 21.938935
_cell_angle_alpha 90.000000
_cell_angle_beta 52.668995
_cell_angle_gamma 90.000000
_cell_volume 3361.034112
_symmetry_space_group_name_H-M "C 2/M"
_symmetry_group_IT_number 12
_symmetry_cell_setting 'monoclinic'
loop_
_space_group_symop_operation_xyz
x,y,z
-x,y,-z
-x,-y,-z
x,-y,z
1/2+x,1/2+y,z
1/2-x,1/2+y,-z
1/2-x,1/2-y,-z
1/2+x,1/2-y,z
loop_
_atom_site_type_symbol
_atom_site_label
_atom_site_fract_x
_atom_site_fract_y
_atom_site_fract_z
Si Si1 0.984009 0.663691 0.646569
Si Si2 0.258099 0.669569 0.190108
Si Si3 0.381593 0.331889 0.795163
Si Si4 0.833174 0.832297 0.956674
Si Si5 0.333681 0.161057 0.643394
Si Si6 0.414731 0.670498 0.030695
Si Si7 0.076186 0.836726 0.500194
O O1 0.009963 0.500000 0.648624
O O2 0.058860 0.743916 0.570961
O O3 0.958446 0.749932 0.722171
O O4 0.909711 0.662683 0.643830
O O5 0.237489 0.500000 0.190132
O O6 0.202065 0.764696 0.179018
O O7 0.242621 0.707077 0.270603
O O8 0.350190 0.705717 0.121020
O O9 0.384603 0.500000 0.773482
O O10 0.386243 0.313618 0.865200
O O11 0.811953 0.000000 0.981054
O O12 0.750000 0.750000 0.000000
O O13 0.884200 0.766883 0.983575
O O14 0.346773 0.270464 0.579720
O O15 0.321957 0.000000 0.622744
O O16 0.427125 0.500000 0.015849
O O17 0.500000 0.742907 0.000000
O O18 0.000000 0.833200 0.500000
O O19 0.097594 0.000000 0.507285
#
# Coordination Sequence:
#
# PCOD8079839 Si02
#       7
#     8   8   8   8   8   8   8
#     4   9  16  25  37  53  78 112 144 177 215 260
#     4   9  16  27  43  61  83 113 149 185 221 263
#     4  10  18  26  39  62  87 112 144 184 224 264
#     4  10  19  30  47  68  90 117 152 191 229 270
#     4   8  14  22  33  51  75 106 142 176 210 256
#     4   9  17  30  48  68  90 118 154 193 229 267
#     4   9  15  22  33  51  77 109 141 174 213 259
#
# _framework density 16.661538
#
# number of rings (size 3 to 8) (size 9 to 14) (size 15 to 20)
#    0.000    2.857    1.429    2.143    0.000    5.714 
#    0.000    0.000    0.000    1.714    0.000    0.000 
#    0.000    1.143    0.000    2.000    0.000    3.714 
#
# Total GULP energy -347067.911795 kJ/mol
# GULP energy per Si atom -12395.282564 kJ/mol
# Density = 1.662362 g / cm^3
# Si number density = 16.661538 Si / 1000 Ang^3
#
#
#
# Elastic Constant Matrix: (Units=GPa)
#
#
# Indices 1 2 3 4 5 6 
#
# 1 60.0112 24.8308 45.4014 0.0001 -1.6566 -0.0006
# 2 24.8308 95.7056 64.5265 0.0005 2.8841 -0.0013
# 3 45.4014 64.5265 157.2994 0.0001 1.6762 -0.0002
# 4 0.0001 0.0005 0.0001 28.2781 0.0000 2.2704
# 5 -1.6566 2.8841 1.6762 0.0000 10.2907 0.0001
# 6 -0.0006 -0.0013 -0.0002 2.2704 0.0001 8.2154
#
#
#
# Elastic Compliance Matrix: (Units=1/GPa)
#
#
# Indices 1 2 3 4 5 6 
#
# 1 0.021827 -0.002115 -0.005485 0.000000 0.005000 0.000001
# 2 -0.002115 0.014747 -0.005401 0.000000 -0.003594 0.000002
# 3 -0.005485 -0.005401 0.010167 0.000000 -0.001025 -0.000001
# 4 0.000000 0.000000 0.000000 0.036165 0.000000 -0.009995
# 5 0.005000 -0.003594 -0.001025 0.000000 0.099154 -0.000001
# 6 0.000001 0.000002 -0.000001 -0.009995 -0.000001 0.124485
#
#
# Mechanical properties :
#
#
# Convention : Reuss Voigt Hill
#
# Bulk Modulus (GPa) = 48.22042 64.72596 56.47319
# Shear Modulus (GPa) = 14.72922 21.24068 17.98495
#
# Velocity S-wave (km/s) = 2.97648 3.57435 3.28903
# Velocity P-wave (km/s) = 6.38879 7.48108 6.95640
#
# Compressibility (1/GPa) = 0.02073810
#
# Stress axis : x y z
#
# Youngs Moduli (GPa) = 45.81522 67.81035 98.35822
#
# Poissons Ratio (x) = 0.14343 0.53954
# Poissons Ratio (y) = 0.09691 0.53120
# Poissons Ratio (z) = 0.25132 0.36622
#
# Static dielectric constant tensor:
#      x y z
#    x 2.649810 0.000000 0.079100 
#    y 0.000000 3.165100 0.000000 
#    z 0.079100 0.000000 3.523790 
# 
# 
# High freq. dielectric constant tensor:
#      x y z
#    x 1.561180 0.000000 0.009670 
#    y 0.000000 1.636820 0.000000 
#    z 0.009670 0.000000 1.664810 
# 
# From -- ./inp_files/319316.got.cif
#   From: 2010.06.25/outbox.cif.g09.slc.cpg/sg12_160_cif.got.tgz:319316.got - 2010.06.28 00:19:55.
