data_PCOD8079321
_publ_section_title
;
Structure prediction by ZEFSAII (Michael W. Deem and Ramdas Pophale) SiO2 
 PCOD8079321
Probable space group: C 2/M
;
_chemical_formula_sum "Si O2"
_cell_formula_units_Z 40
_cell_length_a 16.639839
_cell_length_b 18.560753
_cell_length_c 8.425483
_cell_angle_alpha 90.000000
_cell_angle_beta 119.662294
_cell_angle_gamma 90.000000
_cell_volume 2261.194895
_symmetry_space_group_name_H-M "C 2/M"
_symmetry_group_IT_number 12
_symmetry_cell_setting 'monoclinic'
loop_
_space_group_symop_operation_xyz
x,y,z
-x,y,-z
-x,-y,-z
x,-y,z
1/2+x,1/2+y,z
1/2-x,1/2+y,-z
1/2-x,1/2-y,-z
1/2+x,1/2-y,z
loop_
_atom_site_type_symbol
_atom_site_label
_atom_site_fract_x
_atom_site_fract_y
_atom_site_fract_z
Si Si1 0.285375 0.146854 0.743578
Si Si2 0.643240 0.000000 0.091690
Si Si3 0.478946 0.000000 0.712773
Si Si4 0.581582 0.149754 0.400512
Si Si5 0.902296 0.784674 0.365018
Si Si6 0.565590 0.763226 0.934734
O O1 0.320974 0.144888 0.597265
O O2 0.178808 0.170567 0.633642
O O3 0.291692 0.070131 0.837127
O O4 0.343515 0.205119 0.897115
O O5 0.576121 0.000000 0.176187
O O6 0.586799 0.000000 0.870230
O O7 0.450162 0.930515 0.578786
O O8 0.594379 0.202065 0.564171
O O9 0.501566 0.175348 0.201361
O O10 0.894762 0.786626 0.166793
O O11 0.000000 0.822667 0.500000
O O12 0.500000 0.721428 0.000000
#
# Coordination Sequence:
#
# PCOD8079321 Si02
#       6
#     8   4   4   8   8   8
#     4  10  17  30  49  69  94 127 160 195 229 285
#     4   9  16  26  50  74  92 125 162 189 231 279
#     4   9  14  28  48  73 101 122 149 191 237 296
#     4   9  17  29  48  72  98 122 151 193 249 283
#     4  10  20  31  43  69 100 126 160 195 235 275
#     4   9  17  30  48  67  89 122 162 195 237 280
#
# _framework density 17.689761000000001
#
# number of rings (size 3 to 8) (size 9 to 14) (size 15 to 20)
#    0.000    2.600    2.000    1.200    0.000    0.000 
#    0.000    6.000    0.000    0.000    0.000    0.700 
#    0.000    0.000    0.000    3.200    0.000    0.000 
#
# Total GULP energy -247842.197412 kJ/mol
# GULP energy per Si atom -12392.109871 kJ/mol
# Density = 1.764950 g / cm^3
# Si number density = 17.689761 Si / 1000 Ang^3
#
#
#
# Elastic Constant Matrix: (Units=GPa)
#
#
# Indices 1 2 3 4 5 6 
#
# 1 111.9401 30.6415 35.2199 0.0000 10.1432 0.0000
# 2 30.6415 60.0241 18.8804 0.0000 11.4971 0.0000
# 3 35.2199 18.8804 58.5089 0.0000 -0.7928 0.0000
# 4 0.0000 0.0000 0.0000 12.2600 0.0000 6.3549
# 5 10.1432 11.4971 -0.7928 0.0000 33.1096 0.0000
# 6 0.0000 0.0000 0.0000 6.3549 0.0000 5.7613
#
#
#
# Elastic Compliance Matrix: (Units=1/GPa)
#
#
# Indices 1 2 3 4 5 6 
#
# 1 0.012121 -0.003777 -0.006112 0.000000 -0.002548 0.000000
# 2 -0.003777 0.021274 -0.004677 0.000000 -0.006342 0.000000
# 3 -0.006112 -0.004677 0.022335 0.000000 0.004031 0.000000
# 4 0.000000 0.000000 0.000000 0.190471 0.000000 -0.210098
# 5 -0.002548 -0.006342 0.004031 0.000000 0.033282 0.000000
# 6 0.000000 0.000000 0.000000 -0.210098 0.000000 0.405321
#
#
# Mechanical properties :
#
#
# Convention : Reuss Voigt Hill
#
# Bulk Modulus (GPa) = 37.59836 44.43964 41.01900
# Shear Modulus (GPa) = 6.91752 19.94159 13.42955
#
# Velocity S-wave (km/s) = 1.97963 3.36116 2.75829
# Velocity P-wave (km/s) = 5.15031 6.34346 5.77777
#
# Compressibility (1/GPa) = 0.02659691
#
# Stress axis : x y z
#
# Youngs Moduli (GPa) = 82.49987 47.00542 44.77347
#
# Poissons Ratio (x) = 0.17754 0.27366
# Poissons Ratio (y) = 0.31161 0.20942
# Poissons Ratio (z) = 0.50425 0.21986
#
# Static dielectric constant tensor:
#      x y z
#    x 3.368120 0.000000 -0.098910 
#    y 0.000000 3.039400 0.000000 
#    z -0.098910 0.000000 3.129640 
# 
# 
# High freq. dielectric constant tensor:
#      x y z
#    x 1.688310 0.000000 -0.010090 
#    y 0.000000 1.642450 0.000000 
#    z -0.010090 0.000000 1.671420 
# 
# From -- ./inp_files/62603.got.cif
#   From: 2010.06.25/outbox.cif.g09.slc.cpg/sg12_32_cif.got.tgz:62603.got - 2010.06.28 00:19:55.
