data_PCOD8079126
_publ_section_title
;
Structure prediction by ZEFSAII (Michael W. Deem and Ramdas Pophale) SiO2 
 PCOD8079126
Probable space group: C 2/M
;
_chemical_formula_sum "Si O2"
_cell_formula_units_Z 64
_cell_length_a 30.619650
_cell_length_b 8.888270
_cell_length_c 31.435802
_cell_angle_alpha 90.000000
_cell_angle_beta 151.871131
_cell_angle_gamma 90.000000
_cell_volume 4033.512796
_symmetry_space_group_name_H-M "C 2/M"
_symmetry_group_IT_number 12
_symmetry_cell_setting 'monoclinic'
loop_
_space_group_symop_operation_xyz
x,y,z
-x,y,-z
-x,-y,-z
x,-y,z
1/2+x,1/2+y,z
1/2-x,1/2+y,-z
1/2-x,1/2-y,-z
1/2+x,1/2-y,z
loop_
_atom_site_type_symbol
_atom_site_label
_atom_site_fract_x
_atom_site_fract_y
_atom_site_fract_z
Si Si1 0.914259 0.821116 0.872649
Si Si2 0.882659 0.178782 0.753572
Si Si3 0.271240 0.321691 0.920439
Si Si4 0.923912 0.179002 0.117958
Si Si5 0.740048 0.674927 0.427445
Si Si6 0.378821 0.679015 0.933353
Si Si7 0.106353 0.174182 0.390534
Si Si8 0.420755 0.821928 0.206919
O O1 0.867207 0.760448 0.788588
O O2 0.859893 0.764313 0.868435
O O3 0.914241 0.000000 0.871846
O O4 0.020156 0.764146 0.965099
O O5 0.797940 0.231941 0.650842
O O6 0.980026 0.239339 0.819234
O O7 0.886760 0.000000 0.756312
O O8 0.278152 0.500000 0.925565
O O9 0.302651 0.257314 0.901097
O O10 0.167210 0.268635 0.840675
O O11 0.340802 0.262912 0.016653
O O12 0.909803 0.249892 0.151634
O O13 0.924863 0.000000 0.123735
O O14 0.767342 0.500000 0.450719
O O15 0.831037 0.770411 0.516374
O O16 0.658881 0.705860 0.391584
O O17 0.377689 0.500000 0.932959
O O18 0.011349 0.265684 0.309269
O O19 0.083572 0.000000 0.376952
O O20 0.424595 0.000000 0.205368
#
# Coordination Sequence:
#
# PCOD8079126 Si02
#       8
#     8   8   8   8   8   8   8   8
#     4   8  12  18  35  60  86 114 142 172 208 258
#     4   9  14  23  40  63  88 115 141 168 214 261
#     4   9  17  27  40  58  87 123 152 179 213 248
#     4  10  17  29  44  60  87 122 153 178 206 248
#     4   9  17  29  45  64  86 111 138 175 221 264
#     4   8  12  20  34  57  87 116 144 174 209 249
#     4  10  19  32  47  63  82 112 145 180 220 259
#     4  11  21  30  41  61  88 120 153 183 212 246
#
# _framework density 15.867063999999999
#
# number of rings (size 3 to 8) (size 9 to 14) (size 15 to 20)
#    0.000    2.750    2.500    1.875    0.000    0.500 
#    0.000    0.625    0.000    0.000    0.000    0.875 
#    0.000   14.000    0.000    0.000    0.000    0.000 
#
# Total GULP energy -396581.004076 kJ/mol
# GULP energy per Si atom -12393.156377 kJ/mol
# Density = 1.583095 g / cm^3
# Si number density = 15.867064 Si / 1000 Ang^3
#
#
#
# Elastic Constant Matrix: (Units=GPa)
#
#
# Indices 1 2 3 4 5 6 
#
# 1 129.2999 19.8887 73.2267 0.0000 -14.4282 0.0000
# 2 19.8887 22.1139 18.4729 -0.0003 -0.0735 -0.0002
# 3 73.2267 18.4729 111.3151 0.0001 -13.5105 0.0001
# 4 0.0000 -0.0003 0.0001 17.7566 0.0001 -0.5361
# 5 -14.4282 -0.0735 -13.5105 0.0001 26.3063 0.0001
# 6 0.0000 -0.0002 0.0001 -0.5361 0.0001 11.5018
#
#
#
# Elastic Compliance Matrix: (Units=1/GPa)
#
#
# Indices 1 2 3 4 5 6 
#
# 1 0.013106 -0.005716 -0.007255 0.000000 0.003446 0.000000
# 2 -0.005716 0.055521 -0.006202 0.000001 -0.006165 0.000001
# 3 -0.007255 -0.006202 0.015251 0.000000 0.003836 0.000000
# 4 0.000000 0.000001 0.000000 0.056397 0.000000 0.002629
# 5 0.003446 -0.006165 0.003836 0.000000 0.041857 0.000000
# 6 0.000000 0.000001 0.000000 0.002629 0.000000 0.087066
#
#
# Mechanical properties :
#
#
# Convention : Reuss Voigt Hill
#
# Bulk Modulus (GPa) = 21.96204 53.98949 37.97577
# Shear Modulus (GPa) = 15.49323 21.18897 18.34110
#
# Velocity S-wave (km/s) = 3.12819 3.65829 3.40357
# Velocity P-wave (km/s) = 5.18833 7.20722 6.27945
#
# Compressibility (1/GPa) = 0.04553310
#
# Stress axis : x y z
#
# Youngs Moduli (GPa) = 76.29829 18.01105 65.56956
#
# Poissons Ratio (x) = 0.10294 0.47571
# Poissons Ratio (y) = 0.43609 0.40668
# Poissons Ratio (z) = 0.55355 0.11171
#
# Static dielectric constant tensor:
#      x y z
#    x 3.302990 0.000000 -0.171620 
#    y 0.000000 2.628230 0.000000 
#    z -0.171620 0.000000 3.134040 
# 
# 
# High freq. dielectric constant tensor:
#      x y z
#    x 1.598160 0.000000 -0.013600 
#    y 0.000000 1.567780 0.000000 
#    z -0.013600 0.000000 1.601510 
# 
# From -- ./inp_files/384571.got.cif
#   From: 2010.06.25/outbox.cif.g09.slc.cpg/sg12_193_cif.got.tgz:384571.got - 2010.06.28 00:19:55.
