data_PCOD8079252
_publ_section_title
;
Structure prediction by ZEFSAII (Michael W. Deem and Ramdas Pophale) SiO2 
 PCOD8079252
Probable space group: C 2/M
;
_chemical_formula_sum "Si O2"
_cell_formula_units_Z 64
_cell_length_a 24.113329
_cell_length_b 9.066445
_cell_length_c 19.541053
_cell_angle_alpha 90.000000
_cell_angle_beta 52.731717
_cell_angle_gamma 90.000000
_cell_volume 3399.780748
_symmetry_space_group_name_H-M "C 2/M"
_symmetry_group_IT_number 12
_symmetry_cell_setting 'monoclinic'
loop_
_space_group_symop_operation_xyz
x,y,z
-x,y,-z
-x,-y,-z
x,-y,z
1/2+x,1/2+y,z
1/2-x,1/2+y,-z
1/2-x,1/2-y,-z
1/2+x,1/2-y,z
loop_
_atom_site_type_symbol
_atom_site_label
_atom_site_fract_x
_atom_site_fract_y
_atom_site_fract_z
Si Si1 0.809596 0.672788 0.097422
Si Si2 0.822915 0.325211 0.853715
Si Si3 0.303101 0.824616 0.257887
Si Si4 0.419809 0.174444 0.658431
Si Si5 0.664474 0.174078 0.408382
Si Si6 0.065748 0.325228 0.600798
Si Si7 0.084231 0.672858 0.091830
Si Si8 0.434676 0.175872 0.244687
O O1 0.793900 0.500000 0.107429
O O2 0.752553 0.751931 0.093252
O O3 0.808823 0.732615 0.175532
O O4 0.884901 0.707328 0.006631
O O5 0.813263 0.500000 0.862825
O O6 0.865587 0.271425 0.755779
O O7 0.863434 0.264005 0.889778
O O8 0.236586 0.757840 0.345165
O O9 0.371046 0.765126 0.246619
O O10 0.297926 0.000000 0.264468
O O11 0.391703 0.227871 0.606035
O O12 0.496006 0.241776 0.617786
O O13 0.425866 0.000000 0.654920
O O14 0.633199 0.218421 0.505611
O O15 0.678131 0.000000 0.391566
O O16 0.057976 0.500000 0.609354
O O17 0.074170 0.263205 0.671348
O O18 0.078212 0.500000 0.109597
O O19 0.006636 0.739507 0.158608
O O20 0.434863 0.000000 0.244248
#
# Coordination Sequence:
#
# PCOD8079252 Si02
#       8
#     8   8   8   8   8   8   8   8
#     4  10  20  32  47  72 102 129 156 192 237 285
#     4  10  17  29  52  76  96 123 156 194 241 289
#     4  10  21  34  48  68  98 132 163 195 233 279
#     4   9  15  26  47  75  98 117 149 195 242 281
#     4  10  19  31  51  76  98 122 155 198 243 285
#     4   9  16  28  49  76  98 118 155 204 244 277
#     4   9  17  30  50  74  97 122 159 202 239 277
#     4   9  17  31  49  70  95 125 162 203 239 272
#
# _framework density 18.824742000000001
#
# number of rings (size 3 to 8) (size 9 to 14) (size 15 to 20)
#    0.000    2.500    2.500    0.750    0.000    2.500 
#    0.000    2.500    0.000    3.750    0.000    1.750 
#    0.000    0.000    0.000    0.000    0.000    0.000 
#
# Total GULP energy -396702.251179 kJ/mol
# GULP energy per Si atom -12396.945349 kJ/mol
# Density = 1.878190 g / cm^3
# Si number density = 18.824742 Si / 1000 Ang^3
#
#
#
# Elastic Constant Matrix: (Units=GPa)
#
#
# Indices 1 2 3 4 5 6 
#
# 1 145.3514 16.6319 70.4428 -0.0008 -16.9210 0.0001
# 2 16.6319 12.5686 18.1009 -0.0042 -4.0152 0.0009
# 3 70.4428 18.1009 143.8414 -0.0025 -13.4556 0.0009
# 4 -0.0008 -0.0042 -0.0025 19.4317 0.0000 -5.2252
# 5 -16.9210 -4.0152 -13.4556 0.0000 21.1254 0.0004
# 6 0.0001 0.0009 0.0009 -5.2252 0.0004 17.9337
#
#
#
# Elastic Compliance Matrix: (Units=1/GPa)
#
#
# Indices 1 2 3 4 5 6 
#
# 1 0.009883 -0.006470 -0.003616 -0.000002 0.004383 0.000000
# 2 -0.006470 0.104043 -0.009101 0.000022 0.008795 0.000001
# 3 -0.003616 -0.009101 0.010033 -0.000001 0.001765 0.000000
# 4 -0.000002 0.000022 -0.000001 0.055837 0.000002 0.016269
# 5 0.004383 0.008795 0.001765 0.000002 0.053643 -0.000001
# 6 0.000000 0.000001 0.000000 0.016269 -0.000001 0.060501
#
#
# Mechanical properties :
#
#
# Convention : Reuss Voigt Hill
#
# Bulk Modulus (GPa) = 11.68442 56.90141 34.29292
# Shear Modulus (GPa) = 13.85651 24.80390 19.33020
#
# Velocity S-wave (km/s) = 2.71602 3.63384 3.20793
# Velocity P-wave (km/s) = 4.00701 6.92091 5.65487
#
# Compressibility (1/GPa) = 0.08558404
#
# Stress axis : x y z
#
# Youngs Moduli (GPa) = 101.18615 9.61145 99.67006
#
# Poissons Ratio (x) = 0.06219 0.36037
# Poissons Ratio (y) = 0.65472 0.90711
# Poissons Ratio (z) = 0.36585 0.08748
#
# Static dielectric constant tensor:
#      x y z
#    x 3.622480 0.000000 0.045660 
#    y 0.000000 2.828860 0.000000 
#    z 0.045660 0.000000 3.667210 
# 
# 
# High freq. dielectric constant tensor:
#      x y z
#    x 1.733340 0.000000 0.000080 
#    y 0.000000 1.662420 0.000000 
#    z 0.000080 0.000000 1.749980 
# 
# From -- ./inp_files/295524.got.cif
#   From: 2010.06.25/outbox.cif.g09.slc.cpg/sg12_148_cif.got.tgz:295524.got - 2010.06.28 00:19:55.
