data_PCOD8079417
_publ_section_title
;
Structure prediction by ZEFSAII (Michael W. Deem and Ramdas Pophale) SiO2 
 PCOD8079417
Probable space group: C 2/M
;
_chemical_formula_sum "Si O2"
_cell_formula_units_Z 64
_cell_length_a 31.032100
_cell_length_b 8.727825
_cell_length_c 14.293796
_cell_angle_alpha 90.000000
_cell_angle_beta 57.186029
_cell_angle_gamma 90.000000
_cell_volume 3253.633578
_symmetry_space_group_name_H-M "C 2/M"
_symmetry_group_IT_number 12
_symmetry_cell_setting 'monoclinic'
loop_
_space_group_symop_operation_xyz
x,y,z
-x,y,-z
-x,-y,-z
x,-y,z
1/2+x,1/2+y,z
1/2-x,1/2+y,-z
1/2-x,1/2-y,-z
1/2+x,1/2-y,z
loop_
_atom_site_type_symbol
_atom_site_label
_atom_site_fract_x
_atom_site_fract_y
_atom_site_fract_z
Si Si1 0.279313 0.818547 0.378423
Si Si2 0.647224 0.679074 0.238787
Si Si3 0.989623 0.682198 0.232040
Si Si4 0.035513 0.680446 0.371428
Si Si5 0.394393 0.182423 0.233334
Si Si6 0.420353 0.180244 0.000663
Si Si7 0.170428 0.823828 0.001034
Si Si8 0.263409 0.177649 0.759485
O O1 0.250000 0.750000 0.500000
O O2 0.337393 0.754618 0.317622
O O3 0.254577 0.768604 0.310227
O O4 0.277785 0.000000 0.386103
O O5 0.650234 0.500000 0.255995
O O6 0.588909 0.732428 0.315926
O O7 0.670949 0.719065 0.109603
O O8 0.680204 0.766644 0.278045
O O9 0.991651 0.500000 0.228031
O O10 0.932544 0.738890 0.271001
O O11 0.004807 0.741133 0.316746
O O12 0.030001 0.750230 0.109404
O O13 0.046842 0.500000 0.352761
O O14 0.000000 0.723872 0.500000
O O15 0.415466 0.249698 0.110348
O O16 0.392984 0.000000 0.229936
O O17 0.426673 0.000000 0.000066
O O18 0.369893 0.215120 0.001389
O O19 0.154079 0.000000 0.005443
O O20 0.225735 0.790192 0.891067
O O21 0.265637 0.000000 0.730273
#
# Coordination Sequence:
#
# PCOD8079417 Si02
#       8
#     8   8   8   8   8   8   8   8
#     4  11  23  40  61  86 118 156 200 246 293 346
#     4  11  23  39  60  87 120 155 193 242 300 361
#     4   9  17  31  54  84 114 143 183 235 287 339
#     4  10  21  37  58  84 114 153 200 243 286 343
#     4   9  18  32  54  85 114 145 187 237 287 338
#     4  10  17  30  57  85 110 144 187 235 288 348
#     4  10  21  36  57  86 120 153 187 236 300 360
#     4  11  23  40  62  87 117 154 197 245 296 354
#
# _framework density 19.670314999999999
#
# number of rings (size 3 to 8) (size 9 to 14) (size 15 to 20)
#    0.000    1.875    2.500    1.875    0.000    3.750 
#    0.000    2.500    0.000    5.250    0.000    0.000 
#    0.000    0.000    0.000    0.000    0.000    0.000 
#
# Total GULP energy -396815.860957 kJ/mol
# GULP energy per Si atom -12400.495655 kJ/mol
# Density = 1.962554 g / cm^3
# Si number density = 19.670315 Si / 1000 Ang^3
#
#
#
# Elastic Constant Matrix: (Units=GPa)
#
#
# Indices 1 2 3 4 5 6 
#
# 1 166.5108 22.2330 71.3393 0.0000 -7.2205 0.0000
# 2 22.2330 34.7535 28.9342 0.0000 1.5915 0.0000
# 3 71.3393 28.9342 146.7855 0.0000 1.8646 0.0000
# 4 0.0000 0.0000 0.0000 23.6774 0.0000 -1.3241
# 5 -7.2205 1.5915 1.8646 0.0000 12.2833 0.0000
# 6 0.0000 0.0000 0.0000 -1.3241 0.0000 27.7670
#
#
#
# Elastic Compliance Matrix: (Units=1/GPa)
#
#
# Indices 1 2 3 4 5 6 
#
# 1 0.008086 -0.002511 -0.003506 0.000000 0.005611 0.000000
# 2 -0.002511 0.035348 -0.005682 0.000000 -0.005193 0.000000
# 3 -0.003506 -0.005682 0.009672 0.000000 -0.002793 0.000000
# 4 0.000000 0.000000 0.000000 0.042347 0.000000 0.002019
# 5 0.005611 -0.005193 -0.002793 0.000000 0.085806 0.000000
# 6 0.000000 0.000000 0.000000 0.002019 0.000000 0.036110
#
#
# Mechanical properties :
#
#
# Convention : Reuss Voigt Hill
#
# Bulk Modulus (GPa) = 33.65933 65.89585 49.77759
# Shear Modulus (GPa) = 19.94640 27.78178 23.86409
#
# Velocity S-wave (km/s) = 3.18785 3.76223 3.48689
# Velocity P-wave (km/s) = 5.54064 7.24192 6.44764
#
# Compressibility (1/GPa) = 0.02970945
#
# Stress axis : x y z
#
# Youngs Moduli (GPa) = 123.66331 28.28979 103.38834
#
# Poissons Ratio (x) = 0.07103 0.36253
# Poissons Ratio (y) = 0.31050 0.58741
# Poissons Ratio (z) = 0.43362 0.16073
#
# Static dielectric constant tensor:
#      x y z
#    x 3.624500 0.000000 -0.071890 
#    y 0.000000 3.290450 0.000000 
#    z -0.071890 0.000000 3.706560 
# 
# 
# High freq. dielectric constant tensor:
#      x y z
#    x 1.779820 0.000000 -0.000720 
#    y 0.000000 1.736480 0.000000 
#    z -0.000720 0.000000 1.770690 
# 
# From -- ./inp_files/249740.got.cif
#   From: 2010.06.25/outbox.cif.g09.slc.cpg/sg12_125_cif.got.tgz:249740.got - 2010.06.28 00:19:55.
