data_PCOD8079297
_publ_section_title
;
Structure prediction by ZEFSAII (Michael W. Deem and Ramdas Pophale) SiO2 
 PCOD8079297
Probable space group: C 2/M
;
_chemical_formula_sum "Si O2"
_cell_formula_units_Z 64
_cell_length_a 13.509609
_cell_length_b 25.930813
_cell_length_c 24.340527
_cell_angle_alpha 90.000000
_cell_angle_beta 155.130348
_cell_angle_gamma 90.000000
_cell_volume 3586.014316
_symmetry_space_group_name_H-M "C 2/M"
_symmetry_group_IT_number 12
_symmetry_cell_setting 'monoclinic'
loop_
_space_group_symop_operation_xyz
x,y,z
-x,y,-z
-x,-y,-z
x,-y,z
1/2+x,1/2+y,z
1/2-x,1/2+y,-z
1/2-x,1/2-y,-z
1/2+x,1/2-y,z
loop_
_atom_site_type_symbol
_atom_site_label
_atom_site_fract_x
_atom_site_fract_y
_atom_site_fract_z
Si Si1 0.950785 0.941887 0.537844
Si Si2 0.343437 0.346103 0.309700
Si Si3 0.638248 0.257429 0.001955
Si Si4 0.127566 0.360605 0.869754
Si Si5 0.846691 0.776586 0.211119
Si Si6 0.780879 0.707933 0.561171
Si Si7 0.505196 0.441692 0.937061
Si Si8 0.478944 0.892745 0.304784
O O1 0.673704 0.936980 0.411392
O O2 0.000000 0.925095 0.500000
O O3 0.098618 0.906494 0.654404
O O4 0.034602 0.000000 0.590622
O O5 0.391487 0.328295 0.270332
O O6 0.517374 0.314444 0.439736
O O7 0.071647 0.338735 0.189320
O O8 0.692580 0.314320 0.052477
O O9 0.748836 0.214496 0.100048
O O10 0.750000 0.250000 0.000000
O O11 0.356793 0.253319 0.857000
O O12 0.015060 0.379781 0.756822
O O13 0.272025 0.407862 0.970720
O O14 0.079515 0.739928 0.321259
O O15 0.750000 0.750000 0.500000
O O16 0.943064 0.659369 0.623934
O O17 0.525833 0.500000 0.924247
O O18 0.266170 0.414512 0.795459
O O19 0.500000 0.442400 0.000000
#
# Coordination Sequence:
#
# PCOD8079297 Si02
#       8
#     8   8   8   8   8   8   8   8
#     4  10  19  29  46  72 102 135 176 223 270 323
#     4  10  20  33  48  71 102 142 175 213 268 316
#     4  11  21  33  53  77 102 138 183 221 271 320
#     4  11  19  30  46  71  99 136 175 211 258 321
#     4  10  20  35  51  72 104 139 179 220 263 314
#     4   9  18  30  47  69 100 139 175 210 251 315
#     4   9  19  30  45  68  97 136 176 218 265 318
#     4  10  17  30  47  65 100 138 177 214 267 322
#
# _framework density 17.847113
#
# number of rings (size 3 to 8) (size 9 to 14) (size 15 to 20)
#    0.000    2.000    3.750    1.125    3.500    1.000 
#    0.000    0.000    0.000    0.000    0.000    2.625 
#    0.000    0.000    0.000    9.875    0.000    0.000 
#
# Total GULP energy -396421.081934 kJ/mol
# GULP energy per Si atom -12388.158810 kJ/mol
# Density = 1.780649 g / cm^3
# Si number density = 17.847113 Si / 1000 Ang^3
#
#
#
# Elastic Constant Matrix: (Units=GPa)
#
#
# Indices 1 2 3 4 5 6 
#
# 1 62.2722 23.4007 26.9247 0.0068 3.4470 0.0011
# 2 23.4007 109.0667 41.6694 0.0089 1.1930 0.0028
# 3 26.9247 41.6694 86.9177 0.0029 14.6806 0.0314
# 4 0.0068 0.0089 0.0029 30.5238 -0.0074 0.7024
# 5 3.4470 1.1930 14.6806 -0.0074 27.9520 0.0056
# 6 0.0011 0.0028 0.0314 0.7024 0.0056 19.6799
#
#
#
# Elastic Compliance Matrix: (Units=1/GPa)
#
#
# Indices 1 2 3 4 5 6 
#
# 1 0.018979 -0.002215 -0.004870 -0.000003 0.000312 0.000007
# 2 -0.002215 0.011655 -0.005337 -0.000002 0.002579 0.000006
# 3 -0.004870 -0.005337 0.016935 0.000000 -0.008066 -0.000024
# 4 -0.000003 -0.000002 0.000000 0.032788 0.000010 -0.001170
# 5 0.000312 0.002579 -0.008066 0.000010 0.039863 0.000001
# 6 0.000007 0.000006 -0.000024 -0.001170 0.000001 0.050855
#
#
# Mechanical properties :
#
#
# Convention : Reuss Voigt Hill
#
# Bulk Modulus (GPa) = 44.00435 49.13846 46.57140
# Shear Modulus (GPa) = 24.57074 26.71524 25.64299
#
# Velocity S-wave (km/s) = 3.71446 3.87317 3.79465
# Velocity P-wave (km/s) = 6.56553 6.89889 6.73427
#
# Compressibility (1/GPa) = 0.02272503
#
# Stress axis : x y z
#
# Youngs Moduli (GPa) = 52.68908 85.80262 59.05049
#
# Poissons Ratio (x) = 0.19004 0.28758
# Poissons Ratio (y) = 0.11670 0.31514
# Poissons Ratio (z) = 0.25660 0.45791
#
# Static dielectric constant tensor:
#      x y z
#    x 2.890700 -0.000450 0.380130 
#    y -0.000450 3.497500 -0.001100 
#    z 0.380130 -0.001100 4.086820 
# 
# 
# High freq. dielectric constant tensor:
#      x y z
#    x 1.629000 0.000000 0.027460 
#    y 0.000000 1.688280 -0.000010 
#    z 0.027460 -0.000010 1.707970 
# 
# From -- ./inp_files/307501.got.cif
#   From: 2010.06.25/outbox.cif.g09.slc.cpg/sg12_154_cif.got.tgz:307501.got - 2010.06.28 00:19:55.
