data_PCOD8079121
_publ_section_title
;
Structure prediction by ZEFSAII (Michael W. Deem and Ramdas Pophale) SiO2 
 PCOD8079121
Probable space group: C 2/M
;
_chemical_formula_sum "Si O2"
_cell_formula_units_Z 56
_cell_length_a 19.778431
_cell_length_b 23.587030
_cell_length_c 11.423897
_cell_angle_alpha 90.000000
_cell_angle_beta 41.540103
_cell_angle_gamma 90.000000
_cell_volume 3534.168780
_symmetry_space_group_name_H-M "C 2/M"
_symmetry_group_IT_number 12
_symmetry_cell_setting 'monoclinic'
loop_
_space_group_symop_operation_xyz
x,y,z
-x,y,-z
-x,-y,-z
x,-y,z
1/2+x,1/2+y,z
1/2-x,1/2+y,-z
1/2-x,1/2-y,-z
1/2+x,1/2-y,z
loop_
_atom_site_type_symbol
_atom_site_label
_atom_site_fract_x
_atom_site_fract_y
_atom_site_fract_z
Si Si1 0.560116 0.744650 0.032927
Si Si2 0.385912 0.820864 0.643686
Si Si3 0.207186 0.306988 0.002137
Si Si4 0.557277 0.436700 0.048302
Si Si5 0.612298 0.313993 0.386893
Si Si6 0.585321 0.653249 0.674986
Si Si7 0.298692 0.352943 0.243350
O O1 0.480286 0.709585 0.214587
O O2 0.500000 0.771020 0.000000
O O3 0.611121 0.794904 0.041061
O O4 0.649343 0.703553 0.874026
O O5 0.500000 0.844955 0.500000
O O6 0.385830 0.753604 0.623926
O O7 0.323001 0.848372 0.617430
O O8 0.333407 0.841652 0.833407
O O9 0.299727 0.338658 0.813848
O O10 0.250000 0.250000 0.000000
O O11 0.575157 0.500000 0.074534
O O12 0.490331 0.400963 0.227883
O O13 0.500000 0.437392 0.000000
O O14 0.664252 0.406423 0.881785
O O15 0.500000 0.337125 0.500000
O O16 0.639172 0.337430 0.480819
O O17 0.674526 0.642411 0.654240
#
# Coordination Sequence:
#
# PCOD8079121 Si02
#       7
#     8   8   8   8   8   8   8
#     4   9  15  26  39  58  83 113 146 187 215 244
#     4  10  19  29  42  61  85 119 157 181 212 253
#     4  10  17  29  41  55  85 119 158 181 204 258
#     4   8  15  28  48  70  88 110 143 186 234 273
#     4  10  19  27  41  62  87 125 152 174 206 266
#     4   9  17  27  43  65  88 111 146 183 228 264
#     4   9  16  27  44  63  86 111 142 191 223 257
#
# _framework density 15.845311000000001
#
# number of rings (size 3 to 8) (size 9 to 14) (size 15 to 20)
#    0.000    2.714    2.857    4.286    2.000    0.571 
#    2.571    0.000    0.000    0.857    0.000    0.000 
#    0.000    0.000    0.000    7.143    0.000    0.000 
#
# Total GULP energy -346963.497579 kJ/mol
# GULP energy per Si atom -12391.553485 kJ/mol
# Density = 1.580925 g / cm^3
# Si number density = 15.845311 Si / 1000 Ang^3
#
#
#
# Elastic Constant Matrix: (Units=GPa)
#
#
# Indices 1 2 3 4 5 6 
#
# 1 108.2625 20.3770 50.6081 0.0001 -9.2039 -0.0001
# 2 20.3770 27.8038 18.0256 0.0000 -0.5022 0.0000
# 3 50.6081 18.0256 115.8833 0.0000 3.4911 -0.0001
# 4 0.0001 0.0000 0.0000 8.7087 -0.0001 0.8855
# 5 -9.2039 -0.5022 3.4911 -0.0001 30.8530 0.0001
# 6 -0.0001 0.0000 -0.0001 0.8855 0.0001 7.8180
#
#
#
# Elastic Compliance Matrix: (Units=1/GPa)
#
#
# Indices 1 2 3 4 5 6 
#
# 1 0.013070 -0.006356 -0.004850 0.000000 0.004344 0.000000
# 2 -0.006356 0.043148 -0.003913 0.000000 -0.000751 0.000000
# 3 -0.004850 -0.003913 0.011441 0.000000 -0.002805 0.000000
# 4 0.000000 0.000000 0.000000 0.116166 0.000000 -0.013158
# 5 0.004344 -0.000751 -0.002805 0.000000 0.034013 0.000000
# 6 0.000000 0.000000 0.000000 -0.013158 0.000000 0.129400
#
#
# Mechanical properties :
#
#
# Convention : Reuss Voigt Hill
#
# Bulk Modulus (GPa) = 26.72366 47.77457 37.24911
# Shear Modulus (GPa) = 12.82222 20.33852 16.58037
#
# Velocity S-wave (km/s) = 2.84775 3.58658 3.23830
# Velocity P-wave (km/s) = 5.26449 6.88240 6.12708
#
# Compressibility (1/GPa) = 0.03742003
#
# Stress axis : x y z
#
# Youngs Moduli (GPa) = 76.51389 23.17607 87.40772
#
# Poissons Ratio (x) = 0.14730 0.42392
# Poissons Ratio (y) = 0.48630 0.34206
# Poissons Ratio (z) = 0.37109 0.09070
#
# Static dielectric constant tensor:
#      x y z
#    x 3.238640 0.000000 0.024420 
#    y 0.000000 2.700350 0.000000 
#    z 0.024420 0.000000 3.339570 
# 
# 
# High freq. dielectric constant tensor:
#      x y z
#    x 1.616620 0.000000 0.001150 
#    y 0.000000 1.532510 0.000000 
#    z 0.001150 0.000000 1.602500 
# 
# From -- ./inp_files/169412.got.cif
#   From: 2010.06.25/outbox.cif.g09.slc.cpg/sg12_85_cif.got.tgz:169412.got - 2010.06.28 00:19:55.
