data_PCOD8079003
_publ_section_title
;
Structure prediction by ZEFSAII (Michael W. Deem and Ramdas Pophale) SiO2 
 PCOD8079003
Probable space group: C 2/M
;
_chemical_formula_sum "Si O2"
_cell_formula_units_Z 48
_cell_length_a 21.591444
_cell_length_b 18.574920
_cell_length_c 12.666646
_cell_angle_alpha 90.000000
_cell_angle_beta 33.962489
_cell_angle_gamma 90.000000
_cell_volume 2837.984980
_symmetry_space_group_name_H-M "C 2/M"
_symmetry_group_IT_number 12
_symmetry_cell_setting 'monoclinic'
loop_
_space_group_symop_operation_xyz
x,y,z
-x,y,-z
-x,-y,-z
x,-y,z
1/2+x,1/2+y,z
1/2-x,1/2+y,-z
1/2-x,1/2-y,-z
1/2+x,1/2-y,z
loop_
_atom_site_type_symbol
_atom_site_label
_atom_site_fract_x
_atom_site_fract_y
_atom_site_fract_z
Si Si1 0.128366 0.421880 0.796066
Si Si2 0.348397 0.081431 0.615484
Si Si3 0.744535 0.282567 0.680883
Si Si4 0.600228 0.917727 0.215714
Si Si5 0.097134 0.715011 0.722433
Si Si6 0.347288 0.827218 0.050712
O O1 0.180191 0.500000 0.693036
O O2 0.148094 0.364955 0.673960
O O3 0.180279 0.392537 0.831085
O O4 0.000000 0.431101 0.000000
O O5 0.256296 0.133967 0.696612
O O6 0.356299 0.095562 0.728852
O O7 0.468392 0.096064 0.393549
O O8 0.310339 0.000000 0.646719
O O9 0.851966 0.258359 0.460361
O O10 0.634901 0.268542 0.764200
O O11 0.740762 0.235561 0.795010
O O12 0.662344 0.859891 0.052942
O O13 0.624981 0.000000 0.145453
O O14 0.965570 0.710815 0.904168
#
# Coordination Sequence:
#
# PCOD8079003 Si02
#       6
#     8   8   8   8   8   8
#     4   8  14  23  38  62  88 115 146 176 222 276
#     4   9  18  31  47  68  93 121 153 190 235 283
#     4  10  18  29  45  65  93 125 159 182 226 281
#     4   9  17  30  48  70  95 118 145 192 245 280
#     4   9  18  29  41  64  95 127 151 190 227 268
#     4  10  17  28  46  67  95 124 149 189 231 271
#
# _framework density 16.913409000000001
#
# number of rings (size 3 to 8) (size 9 to 14) (size 15 to 20)
#    0.000    2.833    1.667    3.000    0.000    2.000 
#    0.000    0.000    0.000    2.000    0.000    0.000 
#    0.000    2.667    0.000    0.000    0.000    0.000 
#
# Total GULP energy -297325.720293 kJ/mol
# GULP energy per Si atom -12388.571679 kJ/mol
# Density = 1.687491 g / cm^3
# Si number density = 16.913409 Si / 1000 Ang^3
#
#
#
# Elastic Constant Matrix: (Units=GPa)
#
#
# Indices 1 2 3 4 5 6 
#
# 1 38.6214 41.3338 19.2391 0.0000 6.3491 0.0000
# 2 41.3338 117.1800 43.4547 0.0000 7.2082 0.0000
# 3 19.2391 43.4547 74.3624 0.0000 23.1574 0.0000
# 4 0.0000 0.0000 0.0000 28.5860 0.0000 3.5098
# 5 6.3491 7.2082 23.1574 0.0000 20.5882 0.0000
# 6 0.0000 0.0000 0.0000 3.5098 0.0000 34.9283
#
#
#
# Elastic Compliance Matrix: (Units=1/GPa)
#
#
# Indices 1 2 3 4 5 6 
#
# 1 0.042878 -0.014612 -0.000046 0.000000 -0.008055 0.000000
# 2 -0.014612 0.016241 -0.008223 0.000000 0.008069 0.000000
# 3 -0.000046 -0.008223 0.026725 0.000000 -0.027167 0.000000
# 4 0.000000 0.000000 0.000000 0.035419 0.000000 -0.003559
# 5 -0.008055 0.008069 -0.027167 0.000000 0.078787 0.000000
# 6 0.000000 0.000000 0.000000 -0.003559 0.000000 0.028988
#
#
# Mechanical properties :
#
#
# Convention : Reuss Voigt Hill
#
# Bulk Modulus (GPa) = 24.94929 48.69099 36.82014
# Shear Modulus (GPa) = 17.35139 25.22959 21.29049
#
# Velocity S-wave (km/s) = 3.20644 3.86643 3.55180
# Velocity P-wave (km/s) = 5.33774 6.98450 6.21590
#
# Compressibility (1/GPa) = 0.04008130
#
# Stress axis : x y z
#
# Youngs Moduli (GPa) = 23.32211 61.57192 37.41810
#
# Poissons Ratio (x) = 0.89969 0.00173
# Poissons Ratio (y) = 0.34078 0.30770
# Poissons Ratio (z) = 0.00108 0.50632
#
# Static dielectric constant tensor:
#      x y z
#    x 2.887590 0.000000 0.277750 
#    y 0.000000 3.441400 0.000000 
#    z 0.277750 0.000000 3.071230 
# 
# 
# High freq. dielectric constant tensor:
#      x y z
#    x 1.619140 0.000000 0.039330 
#    y 0.000000 1.649420 0.000000 
#    z 0.039330 0.000000 1.632010 
# 
# From -- ./inp_files/146693.got.cif
#   From: 2010.06.25/outbox.cif.g09.slc.cpg/sg12_74_cif.got.tgz:146693.got - 2010.06.28 00:19:55.
