data_PCOD8079125
_publ_section_title
;
Structure prediction by ZEFSAII (Michael W. Deem and Ramdas Pophale) SiO2 
 PCOD8079125
Probable space group: C 2/M
;
_chemical_formula_sum "Si O2"
_cell_formula_units_Z 64
_cell_length_a 15.315400
_cell_length_b 30.572727
_cell_length_c 8.024704
_cell_angle_alpha 90.000000
_cell_angle_beta 71.976497
_cell_angle_gamma 90.000000
_cell_volume 3573.057005
_symmetry_space_group_name_H-M "C 2/M"
_symmetry_group_IT_number 12
_symmetry_cell_setting 'monoclinic'
loop_
_space_group_symop_operation_xyz
x,y,z
-x,y,-z
-x,-y,-z
x,-y,z
1/2+x,1/2+y,z
1/2-x,1/2+y,-z
1/2-x,1/2-y,-z
1/2+x,1/2-y,z
loop_
_atom_site_type_symbol
_atom_site_label
_atom_site_fract_x
_atom_site_fract_y
_atom_site_fract_z
Si Si1 0.402869 0.548604 0.268525
Si Si2 0.682778 0.369766 0.560852
Si Si3 0.890234 0.950546 0.883519
Si Si4 0.492696 0.316820 0.308716
Si Si5 0.320218 0.638818 0.819564
Si Si6 0.305459 0.801518 0.618004
Si Si7 0.814153 0.291905 0.973280
Si Si8 0.876873 0.742368 0.264317
O O1 0.375572 0.500000 0.338745
O O2 0.329489 0.578341 0.410707
O O3 0.508988 0.557529 0.255828
O O4 0.393215 0.555023 0.078438
O O5 0.586817 0.351123 0.685703
O O6 0.698804 0.354368 0.363374
O O7 0.768431 0.351173 0.615547
O O8 0.822346 0.913201 0.854146
O O9 0.856586 0.000000 0.857442
O O10 0.500000 0.307078 0.500000
O O11 0.586021 0.336899 0.180880
O O12 0.468327 0.271848 0.227299
O O13 0.240456 0.662855 0.966759
O O14 0.216038 0.770599 0.675267
O O15 0.373343 0.789604 0.426860
O O16 0.360323 0.797408 0.762331
O O17 0.884468 0.284605 0.085647
O O18 0.750000 0.250000 0.000000
#
# Coordination Sequence:
#
# PCOD8079125 Si02
#       8
#     8   8   8   8   8   8   8   8
#     4   9  17  29  41  57  86 118 151 192 238 273
#     4  10  17  29  43  64  81 113 153 191 234 265
#     4   9  18  30  43  59  86 120 153 195 235 270
#     4   9  19  28  46  62  87 118 145 201 238 259
#     4  11  19  31  46  67  90 115 160 200 232 276
#     4   9  17  29  48  58  82 112 143 193 225 272
#     4  10  20  31  47  65  84 118 154 188 232 282
#     4   9  17  33  45  61  84 111 149 187 233 272
#
# _framework density 17.911833000000001
#
# number of rings (size 3 to 8) (size 9 to 14) (size 15 to 20)
#    0.000    2.500    2.500    1.500    5.250    0.500 
#    0.000    1.250    0.000    0.000    0.000    0.000 
#    0.000    0.000    0.000    0.000    0.000    6.250 
#
# Total GULP energy -396573.256714 kJ/mol
# GULP energy per Si atom -12392.914272 kJ/mol
# Density = 1.787106 g / cm^3
# Si number density = 17.911833 Si / 1000 Ang^3
#
#
#
# Elastic Constant Matrix: (Units=GPa)
#
#
# Indices 1 2 3 4 5 6 
#
# 1 23.9463 26.8697 16.6037 0.0000 10.7916 0.0000
# 2 26.8697 113.5884 31.2982 0.0000 7.3832 0.0000
# 3 16.6037 31.2982 79.9250 0.0000 16.7303 0.0000
# 4 0.0000 0.0000 0.0000 27.0836 0.0000 1.9500
# 5 10.7916 7.3832 16.7303 0.0000 13.8536 0.0000
# 6 0.0000 0.0000 0.0000 1.9500 0.0000 27.5566
#
#
#
# Elastic Compliance Matrix: (Units=1/GPa)
#
#
# Indices 1 2 3 4 5 6 
#
# 1 0.087239 -0.017040 0.001170 0.000000 -0.060288 0.000000
# 2 -0.017040 0.013203 -0.003929 0.000000 0.010983 0.000000
# 3 0.001170 -0.003929 0.018147 0.000000 -0.020732 0.000000
# 4 0.000000 0.000000 0.000000 0.037112 0.000000 -0.002626
# 5 -0.060288 0.010983 -0.020732 0.000000 0.138331 0.000000
# 6 0.000000 0.000000 0.000000 -0.002626 0.000000 0.036475
#
#
# Mechanical properties :
#
#
# Convention : Reuss Voigt Hill
#
# Bulk Modulus (GPa) = 12.65986 40.77810 26.71898
# Shear Modulus (GPa) = 12.61231 23.21130 17.91181
#
# Velocity S-wave (km/s) = 2.65643 3.60372 3.16571
# Velocity P-wave (km/s) = 4.06104 6.33491 5.32086
#
# Compressibility (1/GPa) = 0.07898979
#
# Stress axis : x y z
#
# Youngs Moduli (GPa) = 11.46273 75.73751 55.10465
#
# Poissons Ratio (x) = 1.29059 -0.06445
# Poissons Ratio (y) = 0.19533 0.21653
# Poissons Ratio (z) = -0.01341 0.29760
#
# Static dielectric constant tensor:
#      x y z
#    x 2.898380 0.000000 0.326410 
#    y 0.000000 3.417940 0.000000 
#    z 0.326410 0.000000 3.459700 
# 
# 
# High freq. dielectric constant tensor:
#      x y z
#    x 1.627450 0.000000 0.027020 
#    y 0.000000 1.683810 0.000000 
#    z 0.027020 0.000000 1.699700 
# 
# From -- ./inp_files/67845.got.cif
#   From: 2010.06.25/outbox.cif.g09.slc.cpg/sg12_34_cif.got.tgz:67845.got - 2010.06.28 00:19:55.
