data_PCOD8079795
_publ_section_title
;
Structure prediction by ZEFSAII (Michael W. Deem and Ramdas Pophale) SiO2 
 PCOD8079795
Probable space group: C 2/M
;
_chemical_formula_sum "Si O2"
_cell_formula_units_Z 56
_cell_length_a 25.670894
_cell_length_b 13.104001
_cell_length_c 11.883396
_cell_angle_alpha 90.000000
_cell_angle_beta 101.325540
_cell_angle_gamma 90.000000
_cell_volume 3919.630548
_symmetry_space_group_name_H-M "C 2/M"
_symmetry_group_IT_number 12
_symmetry_cell_setting 'monoclinic'
loop_
_space_group_symop_operation_xyz
x,y,z
-x,y,-z
-x,-y,-z
x,-y,z
1/2+x,1/2+y,z
1/2-x,1/2+y,-z
1/2-x,1/2-y,-z
1/2+x,1/2-y,z
loop_
_atom_site_type_symbol
_atom_site_label
_atom_site_fract_x
_atom_site_fract_y
_atom_site_fract_z
Si Si1 0.838628 0.380251 0.518671
Si Si2 0.779376 0.298445 0.295160
Si Si3 0.377092 0.118053 0.213832
Si Si4 0.556318 0.881556 0.555373
Si Si5 0.723431 0.385968 0.073424
Si Si6 0.327188 0.182330 0.986608
Si Si7 0.703964 0.882691 0.260781
O O1 0.837040 0.500000 0.494765
O O2 0.789256 0.332566 0.427751
O O3 0.895261 0.335739 0.498967
O O4 0.831346 0.352239 0.645957
O O5 0.834472 0.306327 0.251656
O O6 0.736602 0.369140 0.211495
O O7 0.758196 0.182417 0.281075
O O8 0.432082 0.134411 0.305556
O O9 0.379268 0.150037 0.082575
O O10 0.358919 0.000000 0.219067
O O11 0.500000 0.828201 0.500000
O O12 0.552018 0.000000 0.523213
O O13 0.701199 0.500000 0.046189
O O14 0.775839 0.370359 0.020630
O O15 0.678629 0.305117 0.016329
O O16 0.333047 0.138910 0.863192
O O17 0.721561 0.000000 0.273835
#
# Coordination Sequence:
#
# PCOD8079795 Si02
#       7
#     8   8   8   8   8   8   8
#     4   9  16  25  37  53  73  96 121 148 180 215
#     4   9  15  24  36  50  69  97 128 151 171 200
#     4   9  15  24  39  55  72  94 122 153 178 205
#     4   8  14  25  41  57  69  86 117 154 183 206
#     4   9  15  23  35  49  68  95 128 158 172 190
#     4   9  16  23  33  50  71  98 124 143 174 214
#     4  10  18  24  32  49  77 107 124 140 171 212
#
# _framework density 14.28706
#
# number of rings (size 3 to 8) (size 9 to 14) (size 15 to 20)
#    0.000    3.000    0.000    5.571    0.000    0.000 
#    0.000    0.000    0.000    0.857    0.000    5.000 
#    0.000   14.286    0.000    5.143    0.000    0.571 
#
# Total GULP energy -346889.327589 kJ/mol
# GULP energy per Si atom -12388.904557 kJ/mol
# Density = 1.425454 g / cm^3
# Si number density = 14.287060 Si / 1000 Ang^3
#
#
#
# Elastic Constant Matrix: (Units=GPa)
#
#
# Indices 1 2 3 4 5 6 
#
# 1 44.0052 23.9403 40.7213 0.0000 13.1122 0.0000
# 2 23.9403 70.5884 34.4186 0.0000 3.8770 0.0000
# 3 40.7213 34.4186 136.9009 0.0000 8.1607 0.0000
# 4 0.0000 0.0000 0.0000 18.8309 0.0000 0.3011
# 5 13.1122 3.8770 8.1607 0.0000 19.0523 0.0000
# 6 0.0000 0.0000 0.0000 0.3011 0.0000 8.3397
#
#
#
# Elastic Compliance Matrix: (Units=1/GPa)
#
#
# Indices 1 2 3 4 5 6 
#
# 1 0.043194 -0.008849 -0.009193 0.000000 -0.023989 0.000000
# 2 -0.008849 0.018006 -0.002093 0.000000 0.003323 0.000000
# 3 -0.009193 -0.002093 0.010429 0.000000 0.002286 0.000000
# 4 0.000000 0.000000 0.000000 0.053135 0.000000 -0.001918
# 5 -0.023989 0.003323 0.002286 0.000000 0.067341 0.000000
# 6 0.000000 0.000000 0.000000 -0.001918 0.000000 0.119978
#
#
# Mechanical properties :
#
#
# Convention : Reuss Voigt Hill
#
# Bulk Modulus (GPa) = 31.88956 49.96167 40.92561
# Shear Modulus (GPa) = 13.78147 19.40553 16.59350
#
# Velocity S-wave (km/s) = 3.10919 3.68946 3.41168
# Velocity P-wave (km/s) = 5.93788 7.29351 6.65033
#
# Compressibility (1/GPa) = 0.03135822
#
# Stress axis : x y z
#
# Youngs Moduli (GPa) = 23.15137 55.53765 95.88646
#
# Poissons Ratio (x) = 0.49146 0.88152
# Poissons Ratio (y) = 0.20487 0.20067
# Poissons Ratio (z) = 0.21284 0.11623
#
# Static dielectric constant tensor:
#      x y z
#    x 2.505880 0.000000 0.108080 
#    y 0.000000 2.689890 0.000000 
#    z 0.108080 0.000000 3.234940 
# 
# 
# High freq. dielectric constant tensor:
#      x y z
#    x 1.483360 0.000000 0.005610 
#    y 0.000000 1.525430 0.000000 
#    z 0.005610 0.000000 1.567170 
# 
# From -- ./inp_files/174002.got.cif
#   From: 2010.06.25/outbox.cif.g09.slc.cpg/sg12_88_cif.got.tgz:174002.got - 2010.06.28 00:19:55.
