data_PCOD8079859
_publ_section_title
;
Structure prediction by ZEFSAII (Michael W. Deem and Ramdas Pophale) SiO2 
 PCOD8079859
Probable space group: C 2/M
;
_chemical_formula_sum "Si O2"
_cell_formula_units_Z 64
_cell_length_a 19.223206
_cell_length_b 9.494926
_cell_length_c 20.517543
_cell_angle_alpha 90.000000
_cell_angle_beta 84.707491
_cell_angle_gamma 90.000000
_cell_volume 3728.956351
_symmetry_space_group_name_H-M "C 2/M"
_symmetry_group_IT_number 12
_symmetry_cell_setting 'monoclinic'
loop_
_space_group_symop_operation_xyz
x,y,z
-x,y,-z
-x,-y,-z
x,-y,z
1/2+x,1/2+y,z
1/2-x,1/2+y,-z
1/2-x,1/2-y,-z
1/2+x,1/2-y,z
loop_
_atom_site_type_symbol
_atom_site_label
_atom_site_fract_x
_atom_site_fract_y
_atom_site_fract_z
Si Si1 0.633217 0.336984 0.116636
Si Si2 0.687441 0.658967 0.980834
Si Si3 0.970417 0.839980 0.768279
Si Si4 0.428482 0.838855 0.316311
Si Si5 0.477101 0.834499 0.573079
Si Si6 0.629472 0.661563 0.342747
Si Si7 0.735457 0.665523 0.842943
Si Si8 0.279428 0.162713 0.282818
O O1 0.652975 0.500000 0.131445
O O2 0.559607 0.300807 0.157607
O O3 0.692225 0.234862 0.140209
O O4 0.624105 0.315785 0.038353
O O5 0.713717 0.500000 0.984806
O O6 0.675502 0.689632 0.904741
O O7 0.750000 0.750000 0.000000
O O8 0.907850 0.812143 0.722918
O O9 0.037251 0.745618 0.746436
O O10 0.996462 0.000000 0.763078
O O11 0.460918 0.790696 0.382572
O O12 0.345324 0.813885 0.325006
O O13 0.447145 0.000000 0.301446
O O14 0.500000 0.782472 0.500000
O O15 0.405445 0.756838 0.598499
O O16 0.462061 0.000000 0.575182
O O17 0.623303 0.500000 0.365496
O O18 0.710098 0.707898 0.327946
O O19 0.747554 0.500000 0.828142
O O20 0.707819 0.740545 0.780922
O O21 0.273223 0.000000 0.260985
#
# Coordination Sequence:
#
# PCOD8079859 Si02
#       8
#     8   8   8   8   8   8   8   8
#     4   9  15  27  45  64  91 126 160 195 240 288
#     4   8  15  25  38  60  90 121 155 195 238 284
#     4   9  16  28  47  69  92 120 156 198 238 275
#     4   9  19  33  50  70  94 126 159 191 230 282
#     4   9  18  34  54  75  99 125 152 186 232 279
#     4   9  17  30  49  72  94 121 159 194 225 269
#     4  10  18  26  41  68  96 122 156 200 243 280
#     4  10  19  33  49  67  95 129 161 192 235 285
#
# _framework density 17.162979
#
# number of rings (size 3 to 8) (size 9 to 14) (size 15 to 20)
#    0.000    2.875    1.250    0.375    0.000    2.250 
#    0.000    0.625    0.000    0.750    0.000    5.250 
#    0.000    0.000    0.000    0.000    0.000    0.000 
#
# Total GULP energy -396519.581799 kJ/mol
# GULP energy per Si atom -12391.236931 kJ/mol
# Density = 1.712392 g / cm^3
# Si number density = 17.162979 Si / 1000 Ang^3
#
#
#
# Elastic Constant Matrix: (Units=GPa)
#
#
# Indices 1 2 3 4 5 6 
#
# 1 94.3097 35.2863 51.5899 0.0000 -16.1167 0.0000
# 2 35.2863 58.6220 47.7412 0.0000 -10.3360 0.0000
# 3 51.5899 47.7412 120.5106 0.0000 -28.2518 0.0000
# 4 0.0000 0.0000 0.0000 24.5639 0.0000 -6.2287
# 5 -16.1167 -10.3360 -28.2518 0.0000 24.2664 0.0000
# 6 0.0000 0.0000 0.0000 -6.2287 0.0000 21.6926
#
#
#
# Elastic Compliance Matrix: (Units=1/GPa)
#
#
# Indices 1 2 3 4 5 6 
#
# 1 0.015243 -0.005781 -0.003355 0.000000 0.003756 0.000000
# 2 -0.005781 0.027402 -0.009001 0.000000 -0.002648 0.000000
# 3 -0.003355 -0.009001 0.016338 0.000000 0.012959 0.000000
# 4 0.000000 0.000000 0.000000 0.043907 0.000000 0.012607
# 5 0.003756 -0.002648 0.012959 0.000000 0.057664 0.000000
# 6 0.000000 0.000000 0.000000 0.012607 0.000000 0.049719
#
#
# Mechanical properties :
#
#
# Convention : Reuss Voigt Hill
#
# Bulk Modulus (GPa) = 44.03533 60.29748 52.16640
# Shear Modulus (GPa) = 19.67592 23.35956 21.51774
#
# Velocity S-wave (km/s) = 3.38955 3.69323 3.54465
# Velocity P-wave (km/s) = 6.40559 7.30720 6.87120
#
# Compressibility (1/GPa) = 0.02270904
#
# Stress axis : x y z
#
# Youngs Moduli (GPa) = 65.60200 36.49364 61.20560
#
# Poissons Ratio (x) = 0.21097 0.20534
# Poissons Ratio (y) = 0.37925 0.55094
# Poissons Ratio (z) = 0.22009 0.32849
#
# Static dielectric constant tensor:
#      x y z
#    x 3.054850 0.000000 -0.243640 
#    y 0.000000 3.239220 0.000000 
#    z -0.243640 0.000000 3.466140 
# 
# 
# High freq. dielectric constant tensor:
#      x y z
#    x 1.629980 0.000000 -0.022620 
#    y 0.000000 1.664700 0.000000 
#    z -0.022620 0.000000 1.657860 
# 
# From -- ./inp_files/314131.got.cif
#   From: 2010.06.25/outbox.cif.g09.slc.cpg/sg12_158_cif.got.tgz:314131.got - 2010.06.28 00:19:55.
