data_PCOD8079742
_publ_section_title
;
Structure prediction by ZEFSAII (Michael W. Deem and Ramdas Pophale) SiO2 
 PCOD8079742
Probable space group: C 2/M
;
_chemical_formula_sum "Si O2"
_cell_formula_units_Z 64
_cell_length_a 11.824765
_cell_length_b 28.672732
_cell_length_c 18.306265
_cell_angle_alpha 90.000000
_cell_angle_beta 29.366636
_cell_angle_gamma 90.000000
_cell_volume 3043.747137
_symmetry_space_group_name_H-M "C 2/M"
_symmetry_group_IT_number 12
_symmetry_cell_setting 'monoclinic'
loop_
_space_group_symop_operation_xyz
x,y,z
-x,y,-z
-x,-y,-z
x,-y,z
1/2+x,1/2+y,z
1/2-x,1/2+y,-z
1/2-x,1/2-y,-z
1/2+x,1/2-y,z
loop_
_atom_site_type_symbol
_atom_site_label
_atom_site_fract_x
_atom_site_fract_y
_atom_site_fract_z
Si Si1 0.661043 0.210306 0.841823
Si Si2 0.112252 0.805569 0.792493
Si Si3 0.636414 0.329160 0.622793
Si Si4 0.136145 0.070171 0.677797
Si Si5 0.146428 0.449028 0.986748
Si Si6 0.368179 0.144500 0.922355
Si Si7 0.445722 0.144580 0.710599
Si Si8 0.424454 0.948474 0.652206
O O1 0.625662 0.251417 0.803923
O O2 0.582545 0.162226 0.849171
O O3 0.927382 0.203661 0.714193
O O4 0.500000 0.223458 0.000000
O O5 0.236502 0.809420 0.643301
O O6 0.225794 0.835442 0.792768
O O7 0.854333 0.825874 0.928064
O O8 0.558018 0.381480 0.685168
O O9 0.830437 0.330564 0.450661
O O10 0.323001 0.043411 0.524031
O O11 0.250558 0.076441 0.693435
O O12 0.905694 0.040556 0.814040
O O13 0.052642 0.500000 0.067031
O O14 0.152170 0.410729 0.048456
O O15 0.000000 0.430917 0.000000
O O16 0.425920 0.155727 0.806367
O O17 0.447613 0.088087 0.705091
O O18 0.335460 0.000000 0.727238
#
# Coordination Sequence:
#
# PCOD8079742 Si02
#       8
#     8   8   8   8   8   8   8   8
#     4  12  25  43  70  93 121 169 220 260 313 383
#     4  12  24  43  68  92 125 167 215 262 316 381
#     4  11  23  43  66  91 129 168 207 264 315 375
#     4  10  17  35  60  90 120 159 210 255 306 367
#     4  11  22  37  63  95 125 165 217 264 312 373
#     4  12  24  43  65  92 130 171 212 264 314 379
#     4  11  25  41  61  95 135 167 206 262 329 375
#     4  10  19  33  60  91 123 163 205 255 314 374
#
# _framework density 21.026712
#
# number of rings (size 3 to 8) (size 9 to 14) (size 15 to 20)
#    0.000    0.875    3.750    4.500    1.750    1.500 
#    2.250    0.000    0.000    3.000    0.000    7.000 
#    0.000    0.000    0.000    0.000    0.000    0.000 
#
# Total GULP energy -396667.484521 kJ/mol
# GULP energy per Si atom -12395.858891 kJ/mol
# Density = 2.097885 g / cm^3
# Si number density = 21.026712 Si / 1000 Ang^3
#
#
#
# Elastic Constant Matrix: (Units=GPa)
#
#
# Indices 1 2 3 4 5 6 
#
# 1 87.5123 24.1708 37.1398 -0.0224 -0.4818 -0.0039
# 2 24.1708 112.4155 20.2732 0.0265 2.6704 0.0006
# 3 37.1398 20.2732 80.5457 -0.0177 1.9305 -0.0471
# 4 -0.0224 0.0265 -0.0177 12.6415 0.0795 3.9743
# 5 -0.4818 2.6704 1.9305 0.0795 26.4736 0.0070
# 6 -0.0039 0.0006 -0.0471 3.9743 0.0070 47.1791
#
#
#
# Elastic Compliance Matrix: (Units=1/GPa)
#
#
# Indices 1 2 3 4 5 6 
#
# 1 0.014656 -0.002043 -0.006266 0.000018 0.000930 -0.000007
# 2 -0.002043 0.009619 -0.001457 -0.000020 -0.000901 0.000000
# 3 -0.006266 -0.001457 0.015698 0.000016 -0.001112 0.000014
# 4 0.000018 -0.000020 0.000016 0.081258 -0.000241 -0.006845
# 5 0.000930 -0.000901 -0.001112 -0.000241 0.037963 0.000014
# 6 -0.000007 0.000000 0.000014 -0.006845 0.000014 0.021772
#
#
# Mechanical properties :
#
#
# Convention : Reuss Voigt Hill
#
# Bulk Modulus (GPa) = 48.92383 49.29345 49.10864
# Shear Modulus (GPa) = 24.11818 30.51816 27.31817
#
# Velocity S-wave (km/s) = 3.39045 3.81386 3.60837
# Velocity P-wave (km/s) = 6.21650 6.54890 6.38486
#
# Compressibility (1/GPa) = 0.02043994
#
# Stress axis : x y z
#
# Youngs Moduli (GPa) = 68.23342 103.95947 63.70270
#
# Poissons Ratio (x) = 0.21242 0.39914
# Poissons Ratio (y) = 0.13942 0.09284
# Poissons Ratio (z) = 0.42753 0.15151
#
# Static dielectric constant tensor:
#      x y z
#    x 3.662410 -0.000030 -0.090120 
#    y -0.000030 3.783180 0.000080 
#    z -0.090120 0.000080 3.743440 
# 
# 
# High freq. dielectric constant tensor:
#      x y z
#    x 1.814660 0.000000 -0.011670 
#    y 0.000000 1.837800 0.000010 
#    z -0.011670 0.000010 1.809750 
# 
# From -- ./inp_files/266260.got.cif
#   From: 2010.06.25/outbox.cif.g09.slc.cpg/sg12_134_cif.got.tgz:266260.got - 2010.06.28 00:19:55.
