data_PCOD8079442
_publ_section_title
;
Structure prediction by ZEFSAII (Michael W. Deem and Ramdas Pophale) SiO2 
 PCOD8079442
Probable space group: C 2/M
;
_chemical_formula_sum "Si O2"
_cell_formula_units_Z 48
_cell_length_a 17.895050
_cell_length_b 13.181520
_cell_length_c 14.381765
_cell_angle_alpha 90.000000
_cell_angle_beta 49.594504
_cell_angle_gamma 90.000000
_cell_volume 2583.252710
_symmetry_space_group_name_H-M "C 2/M"
_symmetry_group_IT_number 12
_symmetry_cell_setting 'monoclinic'
loop_
_space_group_symop_operation_xyz
x,y,z
-x,y,-z
-x,-y,-z
x,-y,z
1/2+x,1/2+y,z
1/2-x,1/2+y,-z
1/2-x,1/2-y,-z
1/2+x,1/2-y,z
loop_
_atom_site_type_symbol
_atom_site_label
_atom_site_fract_x
_atom_site_fract_y
_atom_site_fract_z
Si Si1 0.901127 0.617211 0.796763
Si Si2 0.386313 0.799199 0.000068
Si Si3 0.614945 0.196541 0.625072
Si Si4 0.211850 0.881831 0.624669
Si Si5 0.401933 0.115664 0.171751
Si Si6 0.211642 0.884260 0.840248
O O1 0.930785 0.500000 0.785579
O O2 0.826242 0.633647 0.772578
O O3 0.000156 0.680166 0.696657
O O4 0.846421 0.656447 0.934879
O O5 0.341023 0.859417 0.126617
O O6 0.357559 0.681793 0.036472
O O7 0.503476 0.811033 0.903489
O O8 0.676740 0.149668 0.490572
O O9 0.636455 0.316471 0.622325
O O10 0.654511 0.139400 0.687034
O O11 0.195547 0.855484 0.745986
O O12 0.193326 0.000000 0.619637
O O13 0.437082 0.000000 0.141427
O O14 0.182222 0.000000 0.883817
#
# Coordination Sequence:
#
# PCOD8079442 Si02
#       6
#     8   8   8   8   8   8
#     4  10  20  34  54  77 103 134 172 216 252 297
#     4  10  17  31  49  75 101 134 164 207 257 293
#     4  10  19  34  55  79  98 134 173 212 257 295
#     4  10  20  35  54  77 105 134 169 212 255 304
#     4  10  18  30  52  78 102 126 169 220 254 292
#     4  10  21  35  50  75 109 139 167 204 255 309
#
# _framework density 18.581225
#
# number of rings (size 3 to 8) (size 9 to 14) (size 15 to 20)
#    0.000    2.000    1.667    5.000    0.000    0.667 
#    0.000    7.500    0.000    3.000    0.000    2.333 
#    0.000    0.000    0.000    0.000    0.000    0.000 
#
# Total GULP energy -297466.552073 kJ/mol
# GULP energy per Si atom -12394.439670 kJ/mol
# Density = 1.853893 g / cm^3
# Si number density = 18.581225 Si / 1000 Ang^3
#
#
#
# Elastic Constant Matrix: (Units=GPa)
#
#
# Indices 1 2 3 4 5 6 
#
# 1 46.0415 42.8995 12.2985 0.0000 -4.6219 0.0000
# 2 42.8995 121.1838 41.4248 0.0000 -12.7976 0.0000
# 3 12.2985 41.4248 57.6113 0.0000 -6.5763 0.0000
# 4 0.0000 0.0000 0.0000 29.7751 0.0000 0.1280
# 5 -4.6219 -12.7976 -6.5763 0.0000 19.1559 0.0000
# 6 0.0000 0.0000 0.0000 0.1280 0.0000 24.5619
#
#
#
# Elastic Compliance Matrix: (Units=1/GPa)
#
#
# Indices 1 2 3 4 5 6 
#
# 1 0.032548 -0.012094 0.001792 0.000000 0.000389 0.000000
# 2 -0.012094 0.015875 -0.008280 0.000000 0.004845 0.000000
# 3 0.001792 -0.008280 0.023258 0.000000 0.002885 0.000000
# 4 0.000000 0.000000 0.000000 0.033586 0.000000 -0.000175
# 5 0.000389 0.004845 0.002885 0.000000 0.056524 0.000000
# 6 0.000000 0.000000 0.000000 -0.000175 0.000000 0.040714
#
#
# Mechanical properties :
#
#
# Convention : Reuss Voigt Hill
#
# Bulk Modulus (GPa) = 28.97027 46.45358 37.71192
# Shear Modulus (GPa) = 19.90633 23.24616 21.57625
#
# Velocity S-wave (km/s) = 3.27664 3.54087 3.41131
# Velocity P-wave (km/s) = 5.47176 6.46309 5.98798
#
# Compressibility (1/GPa) = 0.03451815
#
# Stress axis : x y z
#
# Youngs Moduli (GPa) = 30.72361 62.99097 42.99541
#
# Poissons Ratio (x) = 0.76179 -0.07705
# Poissons Ratio (y) = 0.37156 0.35601
# Poissons Ratio (z) = -0.05506 0.52158
#
# Static dielectric constant tensor:
#      x y z
#    x 3.293060 0.000000 0.425650 
#    y 0.000000 3.465070 0.000000 
#    z 0.425650 0.000000 3.653410 
# 
# 
# High freq. dielectric constant tensor:
#      x y z
#    x 1.692080 0.000000 0.021420 
#    y 0.000000 1.725990 0.000000 
#    z 0.021420 0.000000 1.719720 
# 
# From -- ./inp_files/231679.got.cif
#   From: 2010.06.25/outbox.cif.g09.slc.cpg/sg12_116_cif.got.tgz:231679.got - 2010.06.28 00:19:55.
