data_PCOD8079212
_publ_section_title
;
Structure prediction by ZEFSAII (Michael W. Deem and Ramdas Pophale) SiO2 
 PCOD8079212
Probable space group: C 2/M
;
_chemical_formula_sum "Si O2"
_cell_formula_units_Z 64
_cell_length_a 9.314151
_cell_length_b 26.939613
_cell_length_c 14.240759
_cell_angle_alpha 90.000000
_cell_angle_beta 90.686814
_cell_angle_gamma 90.000000
_cell_volume 3573.029161
_symmetry_space_group_name_H-M "C 2/M"
_symmetry_group_IT_number 12
_symmetry_cell_setting 'monoclinic'
loop_
_space_group_symop_operation_xyz
x,y,z
-x,y,-z
-x,-y,-z
x,-y,z
1/2+x,1/2+y,z
1/2-x,1/2+y,-z
1/2-x,1/2-y,-z
1/2+x,1/2-y,z
loop_
_atom_site_type_symbol
_atom_site_label
_atom_site_fract_x
_atom_site_fract_y
_atom_site_fract_z
Si Si1 0.229858 0.222527 0.169132
Si Si2 0.062586 0.197635 0.596989
Si Si3 0.581464 0.944215 0.904396
Si Si4 0.641907 0.216539 0.336195
Si Si5 0.634027 0.393899 0.064363
Si Si6 0.519636 0.658402 0.791500
Si Si7 0.507891 0.847052 0.813075
Si Si8 0.742869 0.183613 0.071662
O O1 0.247321 0.257610 0.260614
O O2 0.061081 0.208271 0.172354
O O3 0.333531 0.175680 0.178775
O O4 0.266395 0.256409 0.077796
O O5 0.236267 0.201983 0.586044
O O6 0.000000 0.175504 0.500000
O O7 0.980039 0.249474 0.617648
O O8 0.030445 0.157545 0.679110
O O9 0.748298 0.936548 0.932719
O O10 0.526791 0.906666 0.822672
O O11 0.558612 0.000000 0.866597
O O12 0.500000 0.934519 0.000000
O O13 0.565567 0.168917 0.286024
O O14 0.578325 0.386749 0.170527
O O15 0.500000 0.410607 0.000000
O O16 0.703012 0.340419 0.026643
O O17 0.672300 0.655718 0.843520
O O18 0.422263 0.828008 0.904630
#
# Coordination Sequence:
#
# PCOD8079212 Si02
#       8
#     8   8   8   8   8   8   8   8
#     4  10  17  29  50  69 103 139 179 210 250 291
#     4  11  20  32  50  76 112 150 176 205 257 314
#     4  11  23  39  54  75 103 138 184 228 266 312
#     4  10  19  33  49  75 106 144 176 216 248 306
#     4  10  21  35  52  74 101 138 178 216 268 308
#     4  10  19  32  45  69 104 140 175 219 243 299
#     4  11  18  33  54  71 103 143 179 214 266 292
#     4  10  18  30  48  73 104 141 180 208 251 298
#
# _framework density 17.911974000000001
#
# number of rings (size 3 to 8) (size 9 to 14) (size 15 to 20)
#    0.000    1.625    6.250    1.875    0.000    0.750 
#    0.000    1.875    0.000    0.000    0.000    0.000 
#    0.000    5.500    0.000    0.000    0.000    0.000 
#
# Total GULP energy -396497.382494 kJ/mol
# GULP energy per Si atom -12390.543203 kJ/mol
# Density = 1.787121 g / cm^3
# Si number density = 17.911974 Si / 1000 Ang^3
#
#
#
# Elastic Constant Matrix: (Units=GPa)
#
#
# Indices 1 2 3 4 5 6 
#
# 1 84.6436 17.1862 18.1797 0.0000 9.9386 0.0000
# 2 17.1862 78.4285 15.7100 0.0000 4.7829 0.0000
# 3 18.1797 15.7100 83.1561 0.0000 11.3142 0.0000
# 4 0.0000 0.0000 0.0000 14.4592 0.0000 10.1878
# 5 9.9386 4.7829 11.3142 0.0000 24.5162 0.0000
# 6 0.0000 0.0000 0.0000 10.1878 0.0000 52.7941
#
#
#
# Elastic Compliance Matrix: (Units=1/GPa)
#
#
# Indices 1 2 3 4 5 6 
#
# 1 0.013152 -0.002256 -0.001903 0.000000 -0.004013 0.000000
# 2 -0.002256 0.013693 -0.001979 0.000000 -0.000843 0.000000
# 3 -0.001903 -0.001979 0.013506 0.000000 -0.005075 0.000000
# 4 0.000000 0.000000 0.000000 0.080043 0.000000 -0.015446
# 5 -0.004013 -0.000843 -0.005075 0.000000 0.044923 0.000000
# 6 0.000000 0.000000 0.000000 -0.015446 0.000000 0.021922
#
#
# Mechanical properties :
#
#
# Convention : Reuss Voigt Hill
#
# Bulk Modulus (GPa) = 35.61898 38.70888 37.16393
# Shear Modulus (GPa) = 23.93788 31.36407 27.65097
#
# Velocity S-wave (km/s) = 3.65967 4.18905 3.93328
# Velocity P-wave (km/s) = 6.14706 6.71230 6.43589
#
# Compressibility (1/GPa) = 0.02807492
#
# Stress axis : x y z
#
# Youngs Moduli (GPa) = 76.03225 73.03170 74.04096
#
# Poissons Ratio (x) = 0.16477 0.14091
# Poissons Ratio (y) = 0.17154 0.14652
# Poissons Ratio (z) = 0.14470 0.14452
#
# Static dielectric constant tensor:
#      x y z
#    x 3.535410 0.000000 0.011920 
#    y 0.000000 2.908600 0.000000 
#    z 0.011920 0.000000 3.206060 
# 
# 
# High freq. dielectric constant tensor:
#      x y z
#    x 1.723960 0.000000 0.002160 
#    y 0.000000 1.631690 0.000000 
#    z 0.002160 0.000000 1.666860 
# 
# From -- ./inp_files/200596.got.cif
#   From: 2010.06.25/outbox.cif.g09.slc.cpg/sg12_101_cif.got.tgz:200596.got - 2010.06.28 00:19:55.
