data_PCOD8079408
_publ_section_title
;
Structure prediction by ZEFSAII (Michael W. Deem and Ramdas Pophale) SiO2 
 PCOD8079408
Probable space group: C 2/M
;
_chemical_formula_sum "Si O2"
_cell_formula_units_Z 52
_cell_length_a 18.434369
_cell_length_b 13.191521
_cell_length_c 11.637289
_cell_angle_alpha 90.000000
_cell_angle_beta 100.627792
_cell_angle_gamma 90.000000
_cell_volume 2781.380762
_symmetry_space_group_name_H-M "C 2/M"
_symmetry_group_IT_number 12
_symmetry_cell_setting 'monoclinic'
loop_
_space_group_symop_operation_xyz
x,y,z
-x,y,-z
-x,-y,-z
x,-y,z
1/2+x,1/2+y,z
1/2-x,1/2+y,-z
1/2-x,1/2-y,-z
1/2+x,1/2-y,z
loop_
_atom_site_type_symbol
_atom_site_label
_atom_site_fract_x
_atom_site_fract_y
_atom_site_fract_z
Si Si1 0.147667 0.112209 0.951183
Si Si2 0.854223 0.735718 0.256428
Si Si3 0.791451 0.117594 0.785135
Si Si4 0.000000 0.178498 0.000000
Si Si5 0.061682 0.217829 0.247568
Si Si6 0.003005 0.615613 0.637835
Si Si7 0.453924 0.384122 0.379970
O O1 0.158340 0.207146 0.869000
O O2 0.164280 0.000000 0.900845
O O3 0.201146 0.129683 0.075614
O O4 0.064372 0.106094 0.972772
O O5 0.781543 0.677462 0.275009
O O6 0.921938 0.655763 0.279616
O O7 0.876334 0.824135 0.353130
O O8 0.858434 0.166430 0.733307
O O9 0.784616 0.000000 0.747968
O O10 0.033320 0.248166 0.111714
O O11 0.063907 0.318810 0.326742
O O12 0.002193 0.136772 0.280092
O O13 0.991968 0.500000 0.670634
O O14 0.000000 0.628456 0.500000
O O15 0.500000 0.341377 0.500000
O O16 0.433814 0.500000 0.388681
#
# Coordination Sequence:
#
# PCOD8079408 Si02
#       7
#     8   8   8   4   8   8   8
#     4  10  19  31  52  81 113 148 185 223 271 330
#     4  11  19  34  55  79 112 145 188 224 274 329
#     4  10  22  35  52  80 115 151 183 222 276 336
#     4  10  17  30  55  84 112 138 181 226 281 326
#     4  10  19  35  57  81 111 141 185 234 276 328
#     4  10  21  39  61  80 104 146 193 230 271 329
#     4  10  20  35  57  84 110 142 188 239 282 318
#
# _framework density 18.695751000000001
#
# number of rings (size 3 to 8) (size 9 to 14) (size 15 to 20)
#    0.000    1.846    3.077    3.923    0.000    1.231 
#    0.000    5.000    0.000    3.692    0.000    0.000 
#    0.000    0.000    0.000    0.000    0.000    0.000 
#
# Total GULP energy -322160.125175 kJ/mol
# GULP energy per Si atom -12390.774045 kJ/mol
# Density = 1.865320 g / cm^3
# Si number density = 18.695751 Si / 1000 Ang^3
#
#
#
# Elastic Constant Matrix: (Units=GPa)
#
#
# Indices 1 2 3 4 5 6 
#
# 1 110.0255 59.0726 34.0481 0.0000 10.7995 0.0000
# 2 59.0726 147.2644 44.4334 0.0000 2.7577 0.0000
# 3 34.0481 44.4334 85.2543 0.0000 3.8097 0.0000
# 4 0.0000 0.0000 0.0000 31.3069 0.0000 0.4965
# 5 10.7995 2.7577 3.8097 0.0000 21.5020 0.0000
# 6 0.0000 0.0000 0.0000 0.4965 0.0000 26.2035
#
#
#
# Elastic Compliance Matrix: (Units=1/GPa)
#
#
# Indices 1 2 3 4 5 6 
#
# 1 0.012682 -0.004190 -0.002642 0.000000 -0.005364 0.000000
# 2 -0.004190 0.009444 -0.003315 0.000000 0.001481 0.000000
# 3 -0.002642 -0.003315 0.014549 0.000000 -0.000826 0.000000
# 4 0.000000 0.000000 0.000000 0.031951 0.000000 -0.000605
# 5 -0.005364 0.001481 -0.000826 0.000000 0.049158 0.000000
# 6 0.000000 0.000000 0.000000 -0.000605 0.000000 0.038174
#
#
# Mechanical properties :
#
#
# Convention : Reuss Voigt Hill
#
# Bulk Modulus (GPa) = 61.03980 68.62805 64.83393
# Shear Modulus (GPa) = 27.51607 29.46848 28.49228
#
# Velocity S-wave (km/s) = 3.84054 3.97446 3.90808
# Velocity P-wave (km/s) = 7.23784 7.60587 7.42414
#
# Compressibility (1/GPa) = 0.01638275
#
# Stress axis : x y z
#
# Youngs Moduli (GPa) = 78.85005 105.89190 68.73285
#
# Poissons Ratio (x) = 0.44367 0.18156
# Poissons Ratio (y) = 0.33037 0.22783
# Poissons Ratio (z) = 0.20829 0.35100
#
# Static dielectric constant tensor:
#      x y z
#    x 3.250670 0.000000 0.135090 
#    y 0.000000 3.468460 0.000000 
#    z 0.135090 0.000000 3.591450 
# 
# 
# High freq. dielectric constant tensor:
#      x y z
#    x 1.699530 0.000000 0.015710 
#    y 0.000000 1.726190 0.000000 
#    z 0.015710 0.000000 1.728170 
# 
# From -- ./inp_files/155417.got.cif
#   From: 2010.06.25/outbox.cif.g09.slc.cpg/sg12_78_cif.got.tgz:155417.got - 2010.06.28 00:19:55.
