data_PCOD8079246
_publ_section_title
;
Structure prediction by ZEFSAII (Michael W. Deem and Ramdas Pophale) SiO2 
 PCOD8079246
Probable space group: C 2/M
;
_chemical_formula_sum "Si O2"
_cell_formula_units_Z 48
_cell_length_a 24.166784
_cell_length_b 20.821606
_cell_length_c 12.494182
_cell_angle_alpha 90.000000
_cell_angle_beta 153.935231
_cell_angle_gamma 90.000000
_cell_volume 2762.409186
_symmetry_space_group_name_H-M "C 2/M"
_symmetry_group_IT_number 12
_symmetry_cell_setting 'monoclinic'
loop_
_space_group_symop_operation_xyz
x,y,z
-x,y,-z
-x,-y,-z
x,-y,z
1/2+x,1/2+y,z
1/2-x,1/2+y,-z
1/2-x,1/2-y,-z
1/2+x,1/2-y,z
loop_
_atom_site_type_symbol
_atom_site_label
_atom_site_fract_x
_atom_site_fract_y
_atom_site_fract_z
Si Si1 0.997140 0.424947 0.369903
Si Si2 0.867697 0.803326 0.124736
Si Si3 0.875481 0.809313 0.520064
Si Si4 0.802777 0.668348 0.369335
Si Si5 0.711202 0.165802 0.044575
Si Si6 0.858265 0.198879 0.720232
O O1 0.009569 0.500000 0.371305
O O2 0.000000 0.407250 0.500000
O O3 0.105326 0.391976 0.485951
O O4 0.862518 0.400678 0.094261
O O5 0.833984 0.832339 0.181846
O O6 0.000111 0.834256 0.322952
O O7 0.760986 0.822068 0.855623
O O8 0.877280 0.725577 0.144606
O O9 0.881448 0.731655 0.538393
O O10 0.752495 0.829986 0.240229
O O11 0.874066 0.840613 0.636640
O O12 0.697336 0.655871 0.279004
O O13 0.750000 0.250000 0.500000
O O14 0.000000 0.225163 0.000000
#
# Coordination Sequence:
#
# PCOD8079246 Si02
#       6
#     8   8   8   8   8   8
#     4  11  22  37  56  78 110 149 189 228 270 334
#     4  10  17  29  51  79 113 138 170 220 285 330
#     4  10  19  30  51  82 112 144 172 225 287 337
#     4  10  19  32  52  78 111 140 185 221 277 331
#     4  10  20  30  51  80 111 143 176 223 276 339
#     4  10  20  32  52  81 117 150 182 224 283 344
#
# _framework density 17.376137
#
# number of rings (size 3 to 8) (size 9 to 14) (size 15 to 20)
#    0.000    1.833    5.000    0.500    0.000    0.000 
#    0.000    0.000    0.000    5.500    0.000    0.000 
#    0.000    0.000    0.000    0.000    0.000    0.000 
#
# Total GULP energy -297370.250118 kJ/mol
# GULP energy per Si atom -12390.427088 kJ/mol
# Density = 1.733659 g / cm^3
# Si number density = 17.376137 Si / 1000 Ang^3
#
#
#
# Elastic Constant Matrix: (Units=GPa)
#
#
# Indices 1 2 3 4 5 6 
#
# 1 121.6082 29.9095 40.3055 0.0000 -0.2242 0.0000
# 2 29.9095 54.0106 23.8738 0.0000 1.6475 0.0000
# 3 40.3055 23.8738 78.7609 0.0000 0.1745 0.0000
# 4 0.0000 0.0000 0.0000 18.5712 0.0000 4.2085
# 5 -0.2242 1.6475 0.1745 0.0000 33.6599 0.0000
# 6 0.0000 0.0000 0.0000 4.2085 0.0000 15.3188
#
#
#
# Elastic Compliance Matrix: (Units=1/GPa)
#
#
# Indices 1 2 3 4 5 6 
#
# 1 0.010608 -0.004022 -0.004210 0.000000 0.000289 0.000000
# 2 -0.004022 0.022939 -0.004892 0.000000 -0.001124 0.000000
# 3 -0.004210 -0.004892 0.016334 0.000000 0.000127 0.000000
# 4 0.000000 0.000000 0.000000 0.057422 0.000000 -0.015775
# 5 0.000289 -0.001124 0.000127 0.000000 0.029765 0.000000
# 6 0.000000 0.000000 0.000000 -0.015775 0.000000 0.069613
#
#
# Mechanical properties :
#
#
# Convention : Reuss Voigt Hill
#
# Bulk Modulus (GPa) = 42.31625 49.17304 45.74465
# Shear Modulus (GPa) = 20.76337 24.19605 22.47971
#
# Velocity S-wave (km/s) = 3.46053 3.73565 3.60072
# Velocity P-wave (km/s) = 6.35398 6.85328 6.60834
#
# Compressibility (1/GPa) = 0.02363158
#
# Stress axis : x y z
#
# Youngs Moduli (GPa) = 94.26502 43.59351 61.22263
#
# Poissons Ratio (x) = 0.17535 0.25776
# Poissons Ratio (y) = 0.37918 0.29952
# Poissons Ratio (z) = 0.39687 0.21327
#
# Static dielectric constant tensor:
#      x y z
#    x 3.769150 0.000000 -0.062440 
#    y 0.000000 2.671020 0.000000 
#    z -0.062440 0.000000 3.242590 
# 
# 
# High freq. dielectric constant tensor:
#      x y z
#    x 1.694510 0.000000 0.000800 
#    y 0.000000 1.592270 0.000000 
#    z 0.000800 0.000000 1.681230 
# 
# From -- ./inp_files/131251.got.cif
#   From: 2010.06.25/outbox.cif.g09.slc.cpg/sg12_66_cif.got.tgz:131251.got - 2010.06.28 00:19:55.
