data_PCOD8079240
_publ_section_title
;
Structure prediction by ZEFSAII (Michael W. Deem and Ramdas Pophale) SiO2 
 PCOD8079240
Probable space group: C 2/M
;
_chemical_formula_sum "Si O2"
_cell_formula_units_Z 56
_cell_length_a 10.024107
_cell_length_b 25.005716
_cell_length_c 15.445661
_cell_angle_alpha 90.000000
_cell_angle_beta 62.331537
_cell_angle_gamma 90.000000
_cell_volume 3428.887972
_symmetry_space_group_name_H-M "C 2/M"
_symmetry_group_IT_number 12
_symmetry_cell_setting 'monoclinic'
loop_
_space_group_symop_operation_xyz
x,y,z
-x,y,-z
-x,-y,-z
x,-y,z
1/2+x,1/2+y,z
1/2-x,1/2+y,-z
1/2-x,1/2-y,-z
1/2+x,1/2-y,z
loop_
_atom_site_type_symbol
_atom_site_label
_atom_site_fract_x
_atom_site_fract_y
_atom_site_fract_z
Si Si1 0.352670 0.500000 0.916875
Si Si2 0.787936 0.107904 0.215700
Si Si3 0.388770 0.601332 0.801383
Si Si4 0.332019 0.305826 0.069943
Si Si5 0.163563 0.561079 0.414368
Si Si6 0.331565 0.184481 0.060575
Si Si7 0.805653 0.000000 0.121654
Si Si8 0.031717 0.061972 0.586537
O O1 0.311627 0.550129 0.869012
O O2 0.522099 0.500000 0.900438
O O3 0.260223 0.500000 0.033975
O O4 0.752094 0.160170 0.169910
O O5 0.687862 0.104934 0.332280
O O6 0.962217 0.112568 0.188502
O O7 0.738786 0.054906 0.178437
O O8 0.270078 0.649683 0.843661
O O9 0.429750 0.592509 0.688212
O O10 0.336461 0.244246 0.098741
O O11 0.500000 0.327470 0.000000
O O12 0.235483 0.314623 0.014298
O O13 0.178342 0.500000 0.374145
O O14 0.290600 0.569771 0.449138
O O15 0.000000 0.572386 0.500000
O O16 0.500000 0.161134 0.000000
O O17 0.000000 0.084932 0.500000
O O18 0.985624 0.000000 0.605937
#
# Coordination Sequence:
#
# PCOD8079240 Si02
#       8
#     4   8   8   8   8   8   4   8
#     4   9  16  24  44  70 100 128 157 196 239 286
#     4  10  17  29  51  76  97 130 167 202 245 294
#     4  10  17  31  51  72  98 132 168 204 239 293
#     4  10  19  34  53  73  96 133 174 203 239 296
#     4   9  17  31  49  74 104 125 156 207 254 291
#     4  10  21  34  49  72 103 134 167 206 246 284
#     4   9  16  22  41  78 102 118 157 201 240 287
#     4   9  17  31  52  72  95 132 170 197 236 302
#
# _framework density 16.331826
#
# number of rings (size 3 to 8) (size 9 to 14) (size 15 to 20)
#    0.000    2.429    2.857    0.857    2.000    0.000 
#    2.571    0.357    0.000    0.857    0.000    4.000 
#    0.000    0.000    0.000    0.000    0.000    0.000 
#
# Total GULP energy -347045.434364 kJ/mol
# GULP energy per Si atom -12394.479799 kJ/mol
# Density = 1.629465 g / cm^3
# Si number density = 16.331826 Si / 1000 Ang^3
#
#
#
# Elastic Constant Matrix: (Units=GPa)
#
#
# Indices 1 2 3 4 5 6 
#
# 1 65.5058 28.9371 51.3140 0.0000 -3.9632 0.0000
# 2 28.9371 81.0983 55.6326 0.0000 0.8690 0.0000
# 3 51.3140 55.6326 110.4711 0.0000 5.4088 0.0000
# 4 0.0000 0.0000 0.0000 18.3813 0.0000 -5.3491
# 5 -3.9632 0.8690 5.4088 0.0000 27.8450 0.0000
# 6 0.0000 0.0000 0.0000 -5.3491 0.0000 -6.0430
#
#
#
# Elastic Compliance Matrix: (Units=1/GPa)
#
#
# Indices 1 2 3 4 5 6 
#
# 1 0.024990 -0.001255 -0.011259 0.000000 0.005783 0.000000
# 2 -0.001255 0.018946 -0.009006 0.000000 0.000979 0.000000
# 3 -0.011259 -0.009006 0.019063 0.000000 -0.005024 0.000000
# 4 0.000000 0.000000 0.000000 0.043260 0.000000 -0.038293
# 5 0.005783 0.000979 -0.005024 0.000000 0.037682 0.000000
# 6 0.000000 0.000000 0.000000 -0.038293 0.000000 -0.131585
#
#
# Mechanical properties :
#
#
# Convention : Reuss Voigt Hill
#
# Bulk Modulus (GPa) = 50.10279 58.76031 54.43155
# Shear Modulus (GPa) = 80.58255 16.11609 48.34932
#
# Velocity S-wave (km/s) = 7.03192 3.14473 5.44689
# Velocity P-wave (km/s) = 9.83235 7.01733 8.54161
#
# Compressibility (1/GPa) = 0.01995897
#
# Stress axis : x y z
#
# Youngs Moduli (GPa) = 40.01632 52.78104 52.45698
#
# Poissons Ratio (x) = 0.06626 0.59060
# Poissons Ratio (y) = 0.05023 0.47243
# Poissons Ratio (z) = 0.45053 0.47535
#
# Static dielectric constant tensor:
#      x y z
#    x 2.979930 0.000000 0.093560 
#    y 0.000000 3.056680 0.000000 
#    z 0.093560 0.000000 3.023880 
# 
# 
# High freq. dielectric constant tensor:
#      x y z
#    x 1.611240 0.000000 0.008890 
#    y 0.000000 1.611840 0.000000 
#    z 0.008890 0.000000 1.619820 
# 
# From -- ./inp_files/199739.got.cif
#   From: 2010.06.25/outbox.cif.g09.slc.cpg/sg12_100_cif.got.tgz:199739.got - 2010.06.28 00:19:55.
