data_PCOD8079080
_publ_section_title
;
Structure prediction by ZEFSAII (Michael W. Deem and Ramdas Pophale) SiO2 
 PCOD8079080
Probable space group: C 2/M
;
_chemical_formula_sum "Si O2"
_cell_formula_units_Z 48
_cell_length_a 27.532057
_cell_length_b 24.664539
_cell_length_c 11.657592
_cell_angle_alpha 90.000000
_cell_angle_beta 20.948631
_cell_angle_gamma 90.000000
_cell_volume 2830.309770
_symmetry_space_group_name_H-M "C 2/M"
_symmetry_group_IT_number 12
_symmetry_cell_setting 'monoclinic'
loop_
_space_group_symop_operation_xyz
x,y,z
-x,y,-z
-x,-y,-z
x,-y,z
1/2+x,1/2+y,z
1/2-x,1/2+y,-z
1/2-x,1/2-y,-z
1/2+x,1/2-y,z
loop_
_atom_site_type_symbol
_atom_site_label
_atom_site_fract_x
_atom_site_fract_y
_atom_site_fract_z
Si Si1 0.639966 0.000000 0.563363
Si Si2 0.817645 0.500000 0.279862
Si Si3 0.860594 0.691356 0.365631
Si Si4 0.659689 0.060931 0.166363
Si Si5 0.121956 0.608655 0.479604
Si Si6 0.697736 0.900367 0.837971
Si Si7 0.645895 0.315781 0.641371
O O1 0.679338 0.945550 0.411257
O O2 0.726441 0.000000 0.490387
O O3 0.478946 0.000000 0.928906
O O4 0.759517 0.447776 0.343427
O O5 0.829527 0.660485 0.553795
O O6 0.739327 0.679615 0.546667
O O7 0.871227 0.754916 0.368567
O O8 0.000000 0.669499 0.000000
O O9 0.500000 0.056050 0.500000
O O10 0.686638 0.104623 0.209070
O O11 0.713381 0.000000 0.077487
O O12 0.732434 0.082419 0.891336
O O13 0.960078 0.612891 0.828477
O O14 0.789687 0.848712 0.605788
O O15 0.500000 0.339297 0.000000
#
# Coordination Sequence:
#
# PCOD8079080 Si02
#       7
#     4   4   8   8   8   8   8
#     4   9  16  21  39  75 106 119 151 211 264 298
#     4   9  16  23  42  71  98 130 159 200 253 308
#     4  10  19  34  53  75 102 133 173 218 258 296
#     4   9  16  28  46  76 108 135 163 208 260 303
#     4  10  17  28  49  77 105 130 167 210 260 302
#     4  10  17  30  49  72 105 138 166 205 258 305
#     4  10  21  34  51  74 103 139 173 208 256 305
#
# _framework density 16.959274000000001
#
# number of rings (size 3 to 8) (size 9 to 14) (size 15 to 20)
#    0.000    2.333    3.333    1.000    2.333    0.000 
#    0.000    1.250    0.000    1.000    0.000    1.167 
#    0.000    0.000    0.000    0.000    0.000    0.000 
#
# Total GULP energy -297472.407615 kJ/mol
# GULP energy per Si atom -12394.683651 kJ/mol
# Density = 1.692067 g / cm^3
# Si number density = 16.959274 Si / 1000 Ang^3
#
#
#
# Elastic Constant Matrix: (Units=GPa)
#
#
# Indices 1 2 3 4 5 6 
#
# 1 105.5205 52.1901 40.8518 0.0000 28.1325 0.0002
# 2 52.1901 91.2852 33.4765 0.0006 18.2220 0.0001
# 3 40.8518 33.4765 58.2501 -0.0016 11.0724 0.0025
# 4 0.0000 0.0006 -0.0016 18.9272 0.0015 4.5596
# 5 28.1325 18.2220 11.0724 0.0015 27.6324 -0.0010
# 6 0.0002 0.0001 0.0025 4.5596 -0.0010 23.7389
#
#
#
# Elastic Compliance Matrix: (Units=1/GPa)
#
#
# Indices 1 2 3 4 5 6 
#
# 1 0.018165 -0.005256 -0.007428 0.000001 -0.012052 0.000000
# 2 -0.005256 0.016550 -0.005161 -0.000001 -0.003495 0.000001
# 3 -0.007428 -0.005161 0.025176 0.000003 0.000878 -0.000003
# 4 0.000001 -0.000001 0.000003 0.055397 -0.000005 -0.010640
# 5 -0.012052 -0.003495 0.000878 -0.000005 0.050412 0.000003
# 6 0.000000 0.000001 -0.000003 -0.010640 0.000003 0.044169
#
#
# Mechanical properties :
#
#
# Convention : Reuss Voigt Hill
#
# Bulk Modulus (GPa) = 41.32045 56.45474 48.88759
# Shear Modulus (GPa) = 19.71409 22.62887 21.17148
#
# Velocity S-wave (km/s) = 3.41315 3.65678 3.53706
# Velocity P-wave (km/s) = 6.32062 7.15472 6.75057
#
# Compressibility (1/GPa) = 0.02420109
#
# Stress axis : x y z
#
# Youngs Moduli (GPa) = 55.05059 60.42387 39.72022
#
# Poissons Ratio (x) = 0.31757 0.29505
# Poissons Ratio (y) = 0.28933 0.20500
# Poissons Ratio (z) = 0.40893 0.31185
#
# Static dielectric constant tensor:
#      x y z
#    x 3.312300 0.000000 0.228570 
#    y 0.000000 3.213970 0.000010 
#    z 0.228570 0.000010 2.848790 
# 
# 
# High freq. dielectric constant tensor:
#      x y z
#    x 1.651610 0.000000 0.018910 
#    y 0.000000 1.653050 0.000000 
#    z 0.018910 0.000000 1.606770 
# 
# From -- ./inp_files/170131.got.cif
#   From: 2010.06.25/outbox.cif.g09.slc.cpg/sg12_86_cif.got.tgz:170131.got - 2010.06.28 00:19:55.
