data_PCOD8079570
_publ_section_title
;
Structure prediction by ZEFSAII (Michael W. Deem and Ramdas Pophale) SiO2 
 PCOD8079570
Probable space group: C 2/M
;
_chemical_formula_sum "Si O2"
_cell_formula_units_Z 44
_cell_length_a 16.430201
_cell_length_b 17.910213
_cell_length_c 15.635725
_cell_angle_alpha 90.000000
_cell_angle_beta 147.126586
_cell_angle_gamma 90.000000
_cell_volume 2497.407004
_symmetry_space_group_name_H-M "C 2/M"
_symmetry_group_IT_number 12
_symmetry_cell_setting 'monoclinic'
loop_
_space_group_symop_operation_xyz
x,y,z
-x,y,-z
-x,-y,-z
x,-y,z
1/2+x,1/2+y,z
1/2-x,1/2+y,-z
1/2-x,1/2-y,-z
1/2+x,1/2-y,z
loop_
_atom_site_type_symbol
_atom_site_label
_atom_site_fract_x
_atom_site_fract_y
_atom_site_fract_z
Si Si1 0.890134 0.218834 0.175076
Si Si2 0.652484 0.224773 0.293495
Si Si3 0.041535 0.686223 0.440712
Si Si4 0.431387 0.915580 0.686377
Si Si5 0.000000 0.336181 0.000000
Si Si6 0.705958 0.915943 0.049599
O O1 0.855605 0.132869 0.167325
O O2 0.040402 0.225606 0.251948
O O3 0.909698 0.265456 0.280149
O O4 0.750000 0.250000 0.000000
O O5 0.810227 0.264281 0.430658
O O6 0.672845 0.141862 0.352375
O O7 0.587878 0.218405 0.141375
O O8 0.064288 0.609056 0.408942
O O9 0.000000 0.664300 0.500000
O O10 0.368602 0.000000 0.638578
O O11 0.599135 0.909804 0.872467
O O12 0.117045 0.388816 0.054598
O O13 0.760515 0.000000 0.113153
#
# Coordination Sequence:
#
# PCOD8079570 Si02
#       6
#     8   8   8   8   4   8
#     4  11  18  36  55  76 108 142 180 214 261 316
#     4  10  21  34  56  80 107 139 181 219 264 319
#     4  11  22  35  55  82 109 138 179 226 265 312
#     4   9  18  34  54  76 105 142 180 215 259 317
#     4  10  17  32  54  80 109 140 176 216 265 318
#     4  10  19  31  53  81 109 140 175 216 263 319
#
# _framework density 17.618274
#
# number of rings (size 3 to 8) (size 9 to 14) (size 15 to 20)
#    0.000    1.818    5.455    3.545    0.000    1.091 
#    0.000    3.636    0.000    2.182    0.000    3.818 
#    0.000    0.000    0.000    0.000    0.000    0.000 
#
# Total GULP energy -272756.257228 kJ/mol
# GULP energy per Si atom -12398.011692 kJ/mol
# Density = 1.757817 g / cm^3
# Si number density = 17.618274 Si / 1000 Ang^3
#
#
#
# Elastic Constant Matrix: (Units=GPa)
#
#
# Indices 1 2 3 4 5 6 
#
# 1 97.0575 49.8835 39.1725 0.0014 -16.8869 0.0005
# 2 49.8835 116.7098 24.8707 0.0002 0.8515 0.0002
# 3 39.1725 24.8707 66.3970 0.0029 -20.2721 0.0018
# 4 0.0014 0.0002 0.0029 20.7049 0.0020 2.4819
# 5 -16.8869 0.8515 -20.2721 0.0020 34.0685 0.0010
# 6 0.0005 0.0002 0.0018 2.4819 0.0010 19.6732
#
#
#
# Elastic Compliance Matrix: (Units=1/GPa)
#
#
# Indices 1 2 3 4 5 6 
#
# 1 0.016604 -0.005813 -0.006185 -0.000001 0.004695 0.000000
# 2 -0.005813 0.011574 -0.002290 0.000001 -0.004533 0.000000
# 3 -0.006185 -0.002290 0.022789 -0.000004 0.010552 -0.000002
# 4 -0.000001 0.000001 -0.000004 0.049039 -0.000005 -0.006187
# 5 0.004695 -0.004533 0.010552 -0.000005 0.038072 -0.000002
# 6 0.000000 0.000000 -0.000002 -0.006187 -0.000002 0.051611
#
#
# Mechanical properties :
#
#
# Convention : Reuss Voigt Hill
#
# Bulk Modulus (GPa) = 44.65974 56.44641 50.55307
# Shear Modulus (GPa) = 22.15042 25.97182 24.06112
#
# Velocity S-wave (km/s) = 3.54961 3.84362 3.69953
# Velocity P-wave (km/s) = 6.49640 7.19764 6.85599
#
# Compressibility (1/GPa) = 0.02239153
#
# Stress axis : x y z
#
# Youngs Moduli (GPa) = 60.22638 86.40149 43.88017
#
# Poissons Ratio (x) = 0.50226 0.27140
# Poissons Ratio (y) = 0.35010 0.10048
# Poissons Ratio (z) = 0.37250 0.19784
#
# Static dielectric constant tensor:
#      x y z
#    x 3.341880 0.000000 -0.171920 
#    y 0.000000 3.536730 0.000000 
#    z -0.171920 0.000000 3.432280 
# 
# 
# High freq. dielectric constant tensor:
#      x y z
#    x 1.671900 0.000000 -0.016360 
#    y 0.000000 1.672910 0.000000 
#    z -0.016360 0.000000 1.682110 
# 
# From -- ./inp_files/226626.got.cif
#   From: 2010.06.25/outbox.cif.g09.slc.cpg/sg12_114_cif.got.tgz:226626.got - 2010.06.28 00:19:55.
