data_PCOD8079268
_publ_section_title
;
Structure prediction by ZEFSAII (Michael W. Deem and Ramdas Pophale) SiO2 
 PCOD8079268
Probable space group: C 2/M
;
_chemical_formula_sum "Si O2"
_cell_formula_units_Z 40
_cell_length_a 26.006187
_cell_length_b 13.134394
_cell_length_c 18.916069
_cell_angle_alpha 90.000000
_cell_angle_beta 162.641412
_cell_angle_gamma 90.000000
_cell_volume 1927.725208
_symmetry_space_group_name_H-M "C 2/M"
_symmetry_group_IT_number 12
_symmetry_cell_setting 'monoclinic'
loop_
_space_group_symop_operation_xyz
x,y,z
-x,y,-z
-x,-y,-z
x,-y,z
1/2+x,1/2+y,z
1/2-x,1/2+y,-z
1/2-x,1/2-y,-z
1/2+x,1/2-y,z
loop_
_atom_site_type_symbol
_atom_site_label
_atom_site_fract_x
_atom_site_fract_y
_atom_site_fract_z
Si Si1 0.281990 0.882172 0.163649
Si Si2 0.855325 0.118434 0.757447
Si Si3 0.626386 0.803290 0.568171
Si Si4 0.898494 0.119867 0.658576
Si Si5 0.203864 0.383578 0.266348
O O1 0.419435 0.808038 0.305694
O O2 0.285349 0.865765 0.252472
O O3 0.326601 0.000000 0.206124
O O4 0.092233 0.852294 0.887589
O O5 0.672849 0.141726 0.555070
O O6 0.856981 0.168628 0.681167
O O7 0.892099 0.000000 0.798223
O O8 0.000000 0.167962 0.000000
O O9 0.698991 0.687021 0.663916
O O10 0.766811 0.157042 0.425688
O O11 0.879596 0.000000 0.641789
O O12 0.258336 0.500000 0.322445
O O13 0.000000 0.371011 0.000000
#
# Coordination Sequence:
#
# PCOD8079268 Si02
#       5
#     8   8   8   8   8
#     4  10  20  36  59  91 124 146 172 228 305 362
#     4  10  17  29  53  89 120 142 178 231 291 356
#     4  11  20  33  56  87 115 153 185 225 287 351
#     4   9  19  36  59  84 116 151 186 234 289 338
#     4  10  23  42  59  77 110 159 207 245 273 311
#
# _framework density 20.749844
#
# number of rings (size 3 to 8) (size 9 to 14) (size 15 to 20)
#    0.000    2.000    2.000    3.000    0.000    1.600 
#    0.000    2.000    0.000    0.000    0.000    0.000 
#    0.000    0.000    0.000    0.000    0.000    0.000 
#
# Total GULP energy -247893.574618 kJ/mol
# GULP energy per Si atom -12394.678731 kJ/mol
# Density = 2.070262 g / cm^3
# Si number density = 20.749844 Si / 1000 Ang^3
#
#
#
# Elastic Constant Matrix: (Units=GPa)
#
#
# Indices 1 2 3 4 5 6 
#
# 1 101.7449 24.7569 67.8206 -0.0004 12.7533 0.0002
# 2 24.7569 73.9606 15.6542 -0.0011 12.7254 -0.0004
# 3 67.8206 15.6542 141.9349 -0.0030 -4.5527 -0.0008
# 4 -0.0004 -0.0011 -0.0030 -3.1254 -0.0020 16.5971
# 5 12.7533 12.7254 -4.5527 -0.0020 29.7420 -0.0005
# 6 0.0002 -0.0004 -0.0008 16.5971 -0.0005 29.8731
#
#
#
# Elastic Compliance Matrix: (Units=1/GPa)
#
#
# Indices 1 2 3 4 5 6 
#
# 1 0.016636 -0.002660 -0.007887 0.000002 -0.007202 -0.000002
# 2 -0.002660 0.015503 -0.000618 0.000000 -0.005587 0.000000
# 3 -0.007887 -0.000618 0.011053 -0.000003 0.005338 0.000002
# 4 0.000002 0.000000 -0.000003 -0.080994 -0.000006 0.044999
# 5 -0.007202 -0.005587 0.005338 -0.000006 0.039918 0.000004
# 6 -0.000002 0.000000 0.000002 0.044999 0.000004 0.008474
#
#
# Mechanical properties :
#
#
# Convention : Reuss Voigt Hill
#
# Bulk Modulus (GPa) = 47.93222 59.34488 53.63855
# Shear Modulus (GPa) = 125.39651 25.25852 75.32752
#
# Velocity S-wave (km/s) = 7.78227 3.49275 6.03171
# Velocity P-wave (km/s) = 10.19322 6.70283 8.62641
#
# Compressibility (1/GPa) = 0.02086279
#
# Stress axis : x y z
#
# Youngs Moduli (GPa) = 60.11232 64.50279 90.47053
#
# Poissons Ratio (x) = 0.17157 0.71350
# Poissons Ratio (y) = 0.15990 0.05592
# Poissons Ratio (z) = 0.47408 0.03987
#
# Static dielectric constant tensor:
#      x y z
#    x 3.861330 0.000000 -0.125200 
#    y 0.000000 3.676260 0.000000 
#    z -0.125200 0.000000 3.864630 
# 
# 
# High freq. dielectric constant tensor:
#      x y z
#    x 1.800800 0.000000 0.004830 
#    y 0.000000 1.806530 0.000000 
#    z 0.004830 0.000000 1.808130 
# 
# From -- ./inp_files/289962.got.cif
#   From: 2010.06.25/outbox.cif.g09.slc.cpg/sg12_145_cif.got.tgz:289962.got - 2010.06.28 00:19:55.
