data_PCOD8079305
_publ_section_title
;
Structure prediction by ZEFSAII (Michael W. Deem and Ramdas Pophale) SiO2 
 PCOD8079305
Probable space group: C 2/M
;
_chemical_formula_sum "Si O2"
_cell_formula_units_Z 56
_cell_length_a 24.830615
_cell_length_b 16.396367
_cell_length_c 9.637625
_cell_angle_alpha 90.000000
_cell_angle_beta 57.404629
_cell_angle_gamma 90.000000
_cell_volume 3305.772315
_symmetry_space_group_name_H-M "C 2/M"
_symmetry_group_IT_number 12
_symmetry_cell_setting 'monoclinic'
loop_
_space_group_symop_operation_xyz
x,y,z
-x,y,-z
-x,-y,-z
x,-y,z
1/2+x,1/2+y,z
1/2-x,1/2+y,-z
1/2-x,1/2-y,-z
1/2+x,1/2-y,z
loop_
_atom_site_type_symbol
_atom_site_label
_atom_site_fract_x
_atom_site_fract_y
_atom_site_fract_z
Si Si1 0.309188 0.804924 0.594144
Si Si2 0.990902 0.091892 0.848435
Si Si3 0.750708 0.591935 0.432728
Si Si4 0.214339 0.678054 0.868602
Si Si5 0.135815 0.176512 0.942045
Si Si6 0.879546 0.169946 0.363699
Si Si7 0.239903 0.594768 0.120361
O O1 0.273690 0.842176 0.511236
O O2 0.264340 0.740045 0.731992
O O3 0.372275 0.757572 0.453204
O O4 0.318748 0.876113 0.696563
O O5 0.051854 0.133399 0.690207
O O6 0.983278 0.000000 0.802258
O O7 0.928021 0.143357 0.895197
O O8 0.000000 0.090046 0.000000
O O9 0.761702 0.500000 0.470784
O O10 0.791340 0.604046 0.233804
O O11 0.675339 0.607166 0.510035
O O12 0.149632 0.731449 0.978785
O O13 0.238561 0.644626 0.980336
O O14 0.125588 0.182543 0.792693
O O15 0.193106 0.113192 0.895686
O O16 0.232105 0.500000 0.099816
#
# Coordination Sequence:
#
# PCOD8079305 Si02
#       7
#     8   8   8   8   8   8   8
#     4  10  18  31  49  70  97 133 163 200 247 290
#     4   9  18  28  45  74 103 130 160 193 234 286
#     4  11  18  28  49  73 100 128 161 205 252 282
#     4  10  19  33  46  70 100 135 161 199 245 295
#     4  10  17  31  48  69 101 135 159 194 238 293
#     4  10  17  30  47  72 103 129 161 196 238 292
#     4  11  21  31  49  75 101 128 164 204 246 290
#
# _framework density 16.940065000000001
#
# number of rings (size 3 to 8) (size 9 to 14) (size 15 to 20)
#    0.000    1.857    4.286    4.286    0.000    1.143 
#    0.000    0.000    0.000    7.714    0.000   20.000 
#    0.000    0.000    0.000    0.000    0.000    0.000 
#
# Total GULP energy -346960.950320 kJ/mol
# GULP energy per Si atom -12391.462511 kJ/mol
# Density = 1.690151 g / cm^3
# Si number density = 16.940065 Si / 1000 Ang^3
#
#
#
# Elastic Constant Matrix: (Units=GPa)
#
#
# Indices 1 2 3 4 5 6 
#
# 1 51.3664 44.8546 44.9594 0.0000 -9.9405 0.0000
# 2 44.8546 109.3153 45.7366 0.0000 -17.8639 0.0000
# 3 44.9594 45.7366 79.7836 0.0000 -3.8326 0.0000
# 4 0.0000 0.0000 0.0000 27.2587 0.0000 -0.5547
# 5 -9.9405 -17.8639 -3.8326 0.0000 29.2423 0.0000
# 6 0.0000 0.0000 0.0000 -0.5547 0.0000 24.4455
#
#
#
# Elastic Compliance Matrix: (Units=1/GPa)
#
#
# Indices 1 2 3 4 5 6 
#
# 1 0.047666 -0.009505 -0.021045 0.000000 0.007639 0.000000
# 2 -0.009505 0.015291 -0.003136 0.000000 0.005699 0.000000
# 3 -0.021045 -0.003136 0.025918 0.000000 -0.005673 0.000000
# 4 0.000000 0.000000 0.000000 0.036702 0.000000 0.000833
# 5 0.007639 0.005699 -0.005673 0.000000 0.039532 0.000000
# 6 0.000000 0.000000 0.000000 0.000833 0.000000 0.040926
#
#
# Mechanical properties :
#
#
# Convention : Reuss Voigt Hill
#
# Bulk Modulus (GPa) = 46.50285 56.84073 51.67179
# Shear Modulus (GPa) = 17.82045 23.18362 20.50204
#
# Velocity S-wave (km/s) = 3.24693 3.70343 3.48267
# Velocity P-wave (km/s) = 6.44730 7.20514 6.83673
#
# Compressibility (1/GPa) = 0.02150406
#
# Stress axis : x y z
#
# Youngs Moduli (GPa) = 20.97909 65.39609 38.58305
#
# Poissons Ratio (x) = 0.62162 0.81198
# Poissons Ratio (y) = 0.19941 0.12098
# Poissons Ratio (z) = 0.44150 0.20506
#
# Static dielectric constant tensor:
#      x y z
#    x 2.956380 0.000000 -0.080290 
#    y 0.000000 3.530130 0.000000 
#    z -0.080290 0.000000 3.406000 
# 
# 
# High freq. dielectric constant tensor:
#      x y z
#    x 1.608500 0.000000 0.011700 
#    y 0.000000 1.659900 0.000000 
#    z 0.011700 0.000000 1.647340 
# 
# From -- ./inp_files/97621.got.cif
#   From: 2010.06.25/outbox.cif.g09.slc.cpg/sg12_49_cif.got.tgz:97621.got - 2010.06.28 00:19:55.
