data_PCOD8079351
_publ_section_title
;
Structure prediction by ZEFSAII (Michael W. Deem and Ramdas Pophale) SiO2 
 PCOD8079351
Probable space group: C 2/M
;
_chemical_formula_sum "Si O2"
_cell_formula_units_Z 56
_cell_length_a 24.149486
_cell_length_b 15.741389
_cell_length_c 8.813549
_cell_angle_alpha 90.000000
_cell_angle_beta 70.033509
_cell_angle_gamma 90.000000
_cell_volume 3149.052817
_symmetry_space_group_name_H-M "C 2/M"
_symmetry_group_IT_number 12
_symmetry_cell_setting 'monoclinic'
loop_
_space_group_symop_operation_xyz
x,y,z
-x,y,-z
-x,-y,-z
x,-y,z
1/2+x,1/2+y,z
1/2-x,1/2+y,-z
1/2-x,1/2-y,-z
1/2+x,1/2-y,z
loop_
_atom_site_type_symbol
_atom_site_label
_atom_site_fract_x
_atom_site_fract_y
_atom_site_fract_z
Si Si1 0.367896 0.259059 0.669784
Si Si2 0.775846 0.841055 0.944121
Si Si3 0.937706 0.650744 0.033518
Si Si4 0.155002 0.406888 0.109800
Si Si5 0.593015 0.277893 0.697356
Si Si6 0.627414 0.597611 0.918071
Si Si7 0.538403 0.688813 0.195337
O O1 0.317739 0.328631 0.758434
O O2 0.354931 0.165884 0.754588
O O3 0.370387 0.255359 0.487079
O O4 0.430289 0.293343 0.673649
O O5 0.750000 0.750000 0.000000
O O6 0.720016 0.902326 0.972636
O O7 0.814234 0.875435 0.047088
O O8 0.890440 0.595145 0.988352
O O9 0.952765 0.732335 0.921539
O O10 0.912589 0.686080 0.216192
O O11 0.000000 0.600413 0.000000
O O12 0.147947 0.500000 0.193203
O O13 0.628201 0.345075 0.766534
O O14 0.530930 0.323659 0.714146
O O15 0.630821 0.500000 0.866113
O O16 0.569186 0.610498 0.077601
#
# Coordination Sequence:
#
# PCOD8079351 Si02
#       7
#     8   8   8   8   8   8   8
#     4   9  18  32  52  75  98 129 171 208 243 296
#     4   9  18  35  54  69  90 131 177 201 232 298
#     4   8  16  31  51  74  98 129 166 196 236 301
#     4  10  19  34  54  72  95 129 169 211 252 294
#     4  10  17  30  51  74 103 134 164 203 249 296
#     4  10  19  31  49  75 104 132 168 211 247 283
#     4   8  16  30  50  71  96 138 175 194 230 298
#
# _framework density 17.783124000000001
#
# number of rings (size 3 to 8) (size 9 to 14) (size 15 to 20)
#    0.000    2.857    0.000    4.714    0.000    1.429 
#    0.000   10.714    0.000   15.429    0.000    0.000 
#    0.000    0.000    0.000    0.000    0.000    0.000 
#
# Total GULP energy -346923.157599 kJ/mol
# GULP energy per Si atom -12390.112771 kJ/mol
# Density = 1.774265 g / cm^3
# Si number density = 17.783124 Si / 1000 Ang^3
#
#
#
# Elastic Constant Matrix: (Units=GPa)
#
#
# Indices 1 2 3 4 5 6 
#
# 1 117.0751 35.7927 41.9482 0.0000 -8.2883 0.0000
# 2 35.7927 83.1443 34.3119 0.0000 4.0450 0.0000
# 3 41.9482 34.3119 116.6624 0.0000 6.6157 0.0000
# 4 0.0000 0.0000 0.0000 13.7936 0.0000 0.7886
# 5 -8.2883 4.0450 6.6157 0.0000 15.2190 0.0000
# 6 0.0000 0.0000 0.0000 0.7886 0.0000 2.8859
#
#
#
# Elastic Compliance Matrix: (Units=1/GPa)
#
#
# Indices 1 2 3 4 5 6 
#
# 1 0.011660 -0.004001 -0.003523 0.000000 0.008945 0.000000
# 2 -0.004001 0.015117 -0.002723 0.000000 -0.005013 0.000000
# 3 -0.003523 -0.002723 0.010978 0.000000 -0.005967 0.000000
# 4 0.000000 0.000000 0.000000 0.073648 0.000000 -0.020124
# 5 0.008945 -0.005013 -0.005967 0.000000 0.074505 0.000000
# 6 0.000000 0.000000 0.000000 -0.020124 0.000000 0.352016
#
#
# Mechanical properties :
#
#
# Convention : Reuss Voigt Hill
#
# Bulk Modulus (GPa) = 57.93500 60.10972 59.02236
# Shear Modulus (GPa) = 8.86253 20.03496 14.44875
#
# Velocity S-wave (km/s) = 2.23484 3.36017 2.85353
# Velocity P-wave (km/s) = 6.26966 6.99494 6.64221
#
# Compressibility (1/GPa) = 0.01726072
#
# Stress axis : x y z
#
# Youngs Moduli (GPa) = 85.76073 66.14910 91.09171
#
# Poissons Ratio (x) = 0.26465 0.32094
# Poissons Ratio (y) = 0.34312 0.24807
# Poissons Ratio (z) = 0.30216 0.18015
#
# Static dielectric constant tensor:
#      x y z
#    x 4.145770 0.000000 -0.015440 
#    y 0.000000 3.141740 0.000000 
#    z -0.015440 0.000000 3.105400 
# 
# 
# High freq. dielectric constant tensor:
#      x y z
#    x 1.705790 0.000000 0.000630 
#    y 0.000000 1.664920 0.000000 
#    z 0.000630 0.000000 1.659650 
# 
# From -- ./inp_files/96265.got.cif
#   From: 2010.06.25/outbox.cif.g09.slc.cpg/sg12_49_cif.got.tgz:96265.got - 2010.06.28 00:19:55.
