data_PCOD8079923
_publ_section_title
;
Structure prediction by ZEFSAII (Michael W. Deem and Ramdas Pophale) SiO2 
 PCOD8079923
Probable space group: C 2/M
;
_chemical_formula_sum "Si O2"
_cell_formula_units_Z 56
_cell_length_a 24.376971
_cell_length_b 9.142741
_cell_length_c 17.698891
_cell_angle_alpha 90.000000
_cell_angle_beta 63.689025
_cell_angle_gamma 90.000000
_cell_volume 3535.939357
_symmetry_space_group_name_H-M "C 2/M"
_symmetry_group_IT_number 12
_symmetry_cell_setting 'monoclinic'
loop_
_space_group_symop_operation_xyz
x,y,z
-x,y,-z
-x,-y,-z
x,-y,z
1/2+x,1/2+y,z
1/2-x,1/2+y,-z
1/2-x,1/2-y,-z
1/2+x,1/2-y,z
loop_
_atom_site_type_symbol
_atom_site_label
_atom_site_fract_x
_atom_site_fract_y
_atom_site_fract_z
Si Si1 0.163635 0.169841 0.014564
Si Si2 0.796028 0.670276 0.868492
Si Si3 0.856283 0.665261 0.218387
Si Si4 0.698265 0.832896 0.429967
Si Si5 0.214510 0.170615 0.276381
Si Si6 0.816611 0.333428 0.399605
Si Si7 0.568536 0.672743 0.948003
O O1 0.160863 0.263820 0.092576
O O2 0.158521 0.000000 0.039412
O O3 0.225580 0.201855 0.931131
O O4 0.108071 0.223459 0.995927
O O5 0.810231 0.500000 0.851813
O O6 0.812143 0.749517 0.780650
O O7 0.869323 0.500000 0.184593
O O8 0.786219 0.707214 0.241886
O O9 0.867186 0.685605 0.302308
O O10 0.903334 0.768028 0.146608
O O11 0.677848 0.731979 0.372133
O O12 0.765615 0.788796 0.416796
O O13 0.655923 0.813726 0.531823
O O14 0.698496 0.000000 0.401708
O O15 0.201495 0.000000 0.276791
O O16 0.789287 0.500000 0.408468
O O17 0.569299 0.500000 0.940514
O O18 0.500000 0.733502 0.000000
#
# Coordination Sequence:
#
# PCOD8079923 Si02
#       7
#     8   8   8   8   8   8   8
#     4   9  18  31  44  61  85 111 141 179 221 256
#     4  10  18  28  45  65  84 111 146 178 213 259
#     4   9  17  28  42  59  82 112 146 179 214 254
#     4   9  15  23  37  56  81 111 143 174 207 250
#     4  10  18  27  40  60  88 116 143 175 213 255
#     4   8  15  26  37  54  80 111 142 175 212 251
#     4  10  20  33  47  63  85 113 147 184 219 255
#
# _framework density 15.837375
#
# number of rings (size 3 to 8) (size 9 to 14) (size 15 to 20)
#    0.000    2.714    1.429    2.143    0.000    4.286 
#    0.000    0.000    0.000    0.000    0.000    0.000 
#    0.000    1.143    0.000   13.143    0.000    4.286 
#
# Total GULP energy -347016.540367 kJ/mol
# GULP energy per Si atom -12393.447870 kJ/mol
# Density = 1.580133 g / cm^3
# Si number density = 15.837375 Si / 1000 Ang^3
#
#
#
# Elastic Constant Matrix: (Units=GPa)
#
#
# Indices 1 2 3 4 5 6 
#
# 1 61.8476 27.7071 49.3046 0.0000 12.7271 -0.0001
# 2 27.7071 67.2095 52.4141 0.0000 17.7192 -0.0001
# 3 49.3046 52.4141 123.6548 0.0000 33.9616 0.0000
# 4 0.0000 0.0000 0.0000 28.9537 0.0000 8.0168
# 5 12.7271 17.7192 33.9616 0.0000 24.4102 0.0000
# 6 -0.0001 -0.0001 0.0000 8.0168 0.0000 15.9448
#
#
#
# Elastic Compliance Matrix: (Units=1/GPa)
#
#
# Indices 1 2 3 4 5 6 
#
# 1 0.024366 -0.003847 -0.008679 0.000000 0.002163 0.000000
# 2 -0.003847 0.023201 -0.006839 0.000000 -0.005320 0.000000
# 3 -0.008679 -0.006839 0.019162 0.000000 -0.017171 0.000000
# 4 0.000000 0.000000 0.000000 0.040124 0.000000 -0.020174
# 5 0.002163 -0.005320 -0.017171 0.000000 0.067590 0.000000
# 6 0.000000 0.000000 0.000000 -0.020174 0.000000 0.072860
#
#
# Mechanical properties :
#
#
# Convention : Reuss Voigt Hill
#
# Bulk Modulus (GPa) = 35.71498 56.84040 46.27769
# Shear Modulus (GPa) = 16.92817 22.08080 19.50448
#
# Velocity S-wave (km/s) = 3.27291 3.73798 3.51315
# Velocity P-wave (km/s) = 6.07311 7.38904 6.76316
#
# Compressibility (1/GPa) = 0.02799945
#
# Stress axis : x y z
#
# Youngs Moduli (GPa) = 41.04136 43.10154 52.18528
#
# Poissons Ratio (x) = 0.16580 0.45291
# Poissons Ratio (y) = 0.15788 0.35691
# Poissons Ratio (z) = 0.35619 0.29478
#
# Static dielectric constant tensor:
#      x y z
#    x 2.664260 0.000000 0.322530 
#    y 0.000000 3.040210 0.000000 
#    z 0.322530 0.000000 3.243870 
# 
# 
# High freq. dielectric constant tensor:
#      x y z
#    x 1.543970 0.000000 0.040960 
#    y 0.000000 1.618620 0.000000 
#    z 0.040960 0.000000 1.611880 
# 
# From -- ./inp_files/287350.got.cif
#   From: 2010.06.25/outbox.cif.g09.slc.cpg/sg12_144_cif.got.tgz:287350.got - 2010.06.28 00:19:55.
