data_PCOD8079784
_publ_section_title
;
Structure prediction by ZEFSAII (Michael W. Deem and Ramdas Pophale) SiO2 
 PCOD8079784
Probable space group: C 2/M
;
_chemical_formula_sum "Si O2"
_cell_formula_units_Z 56
_cell_length_a 19.687670
_cell_length_b 14.788190
_cell_length_c 17.545931
_cell_angle_alpha 90.000000
_cell_angle_beta 31.700513
_cell_angle_gamma 90.000000
_cell_volume 2684.363637
_symmetry_space_group_name_H-M "C 2/M"
_symmetry_group_IT_number 12
_symmetry_cell_setting 'monoclinic'
loop_
_space_group_symop_operation_xyz
x,y,z
-x,y,-z
-x,-y,-z
x,-y,z
1/2+x,1/2+y,z
1/2-x,1/2+y,-z
1/2-x,1/2-y,-z
1/2+x,1/2-y,z
loop_
_atom_site_type_symbol
_atom_site_label
_atom_site_fract_x
_atom_site_fract_y
_atom_site_fract_z
Si Si1 0.340741 0.396406 0.905336
Si Si2 0.121001 0.861614 0.603520
Si Si3 0.972436 0.331220 0.324261
Si Si4 0.752176 0.759887 0.099374
Si Si5 0.240159 0.401153 0.376364
Si Si6 0.139856 0.245067 0.842433
Si Si7 0.865459 0.600163 0.275883
O O1 0.291578 0.500000 0.966149
O O2 0.475992 0.399947 0.730564
O O3 0.237992 0.335779 0.955265
O O4 0.354484 0.336305 0.970665
O O5 0.122480 0.753998 0.595032
O O6 0.160670 0.892937 0.649067
O O7 0.218205 0.899722 0.447480
O O8 0.906471 0.391446 0.452841
O O9 0.968411 0.379060 0.245245
O O10 0.113119 0.305880 0.219035
O O11 0.778352 0.731679 0.160553
O O12 0.253521 0.500000 0.326475
O O13 0.274189 0.329752 0.279853
O O14 0.118547 0.332354 0.810014
O O15 0.000000 0.206828 0.000000
O O16 0.895417 0.500000 0.216243
#
# Coordination Sequence:
#
# PCOD8079784 Si02
#       7
#     8   8   8   8   8   8   8
#     4  10  21  39  64  92 120 159 211 258 301 364
#     4  10  17  37  66  92 119 156 206 256 300 357
#     4  10  19  40  65  91 122 161 210 252 305 359
#     4  10  25  40  62  90 128 169 201 253 314 368
#     4  11  21  37  64  93 122 159 204 255 306 362
#     4  12  26  43  59  88 131 166 203 252 314 376
#     4  11  22  39  67  96 123 162 209 258 305 363
#
# _framework density 20.861554999999999
#
# number of rings (size 3 to 8) (size 9 to 14) (size 15 to 20)
#    0.000    1.429    2.857    4.286    4.000    3.429 
#    0.000    0.714    0.000    2.571    0.000    0.000 
#    0.000    0.000    0.000    0.000    0.000    0.000 
#
# Total GULP energy -347055.774255 kJ/mol
# GULP energy per Si atom -12394.849081 kJ/mol
# Density = 2.081407 g / cm^3
# Si number density = 20.861555 Si / 1000 Ang^3
#
#
#
# Elastic Constant Matrix: (Units=GPa)
#
#
# Indices 1 2 3 4 5 6 
#
# 1 91.6424 23.9536 41.9527 -0.0001 14.0581 0.0001
# 2 23.9536 122.3661 5.3625 -0.0001 12.2200 0.0003
# 3 41.9527 5.3625 67.6031 -0.0002 0.0253 0.0004
# 4 -0.0001 -0.0001 -0.0002 15.0227 0.0001 -1.3420
# 5 14.0581 12.2200 0.0253 0.0001 36.4555 -0.0002
# 6 0.0001 0.0003 0.0004 -1.3420 -0.0002 20.7327
#
#
#
# Elastic Compliance Matrix: (Units=1/GPa)
#
#
# Indices 1 2 3 4 5 6 
#
# 1 0.017227 -0.002327 -0.010504 0.000000 -0.005856 0.000000
# 2 -0.002327 0.008800 0.000747 0.000000 -0.002053 0.000000
# 3 -0.010504 0.000747 0.021250 0.000000 0.003785 0.000000
# 4 0.000000 0.000000 0.000000 0.066953 0.000000 0.004334
# 5 -0.005856 -0.002053 0.003785 0.000000 0.030374 0.000000
# 6 0.000000 0.000000 0.000000 0.004334 0.000000 0.048514
#
#
# Mechanical properties :
#
#
# Convention : Reuss Voigt Hill
#
# Bulk Modulus (GPa) = 43.27358 47.12771 45.20065
# Shear Modulus (GPa) = 22.22326 28.46502 25.34414
#
# Velocity S-wave (km/s) = 3.26739 3.69788 3.48928
# Velocity P-wave (km/s) = 5.91800 6.39314 6.16015
#
# Compressibility (1/GPa) = 0.02310879
#
# Stress axis : x y z
#
# Youngs Moduli (GPa) = 58.04809 113.63600 47.05884
#
# Poissons Ratio (x) = 0.26445 0.49430
# Poissons Ratio (y) = 0.13509 -0.03515
# Poissons Ratio (z) = 0.60973 -0.08487
#
# Static dielectric constant tensor:
#      x y z
#    x 3.505790 0.000000 0.054950 
#    y 0.000000 3.991220 0.000000 
#    z 0.054950 0.000000 3.906610 
# 
# 
# High freq. dielectric constant tensor:
#      x y z
#    x 1.786750 0.000000 -0.007110 
#    y 0.000000 1.824470 0.000000 
#    z -0.007110 0.000000 1.824160 
# 
# From -- ./inp_files/284479.got.cif
#   From: 2010.06.25/outbox.cif.g09.slc.cpg/sg12_143_cif.got.tgz:284479.got - 2010.06.28 00:19:55.
