data_PCOD8079535
_publ_section_title
;
Structure prediction by ZEFSAII (Michael W. Deem and Ramdas Pophale) SiO2 
 PCOD8079535
Probable space group: C 2/M
;
_chemical_formula_sum "Si O2"
_cell_formula_units_Z 56
_cell_length_a 24.732072
_cell_length_b 14.617564
_cell_length_c 29.408391
_cell_angle_alpha 90.000000
_cell_angle_beta 161.925492
_cell_angle_gamma 90.000000
_cell_volume 3298.552905
_symmetry_space_group_name_H-M "C 2/M"
_symmetry_group_IT_number 12
_symmetry_cell_setting 'monoclinic'
loop_
_space_group_symop_operation_xyz
x,y,z
-x,y,-z
-x,-y,-z
x,-y,z
1/2+x,1/2+y,z
1/2-x,1/2+y,-z
1/2-x,1/2-y,-z
1/2+x,1/2-y,z
loop_
_atom_site_type_symbol
_atom_site_label
_atom_site_fract_x
_atom_site_fract_y
_atom_site_fract_z
Si Si1 0.001892 0.605501 0.551184
Si Si2 0.854862 0.158581 0.579139
Si Si3 0.054473 0.395772 0.280855
Si Si4 0.192934 0.105132 0.140072
Si Si5 0.077597 0.742785 0.890891
Si Si6 0.677413 0.773250 0.837738
Si Si7 0.669657 0.396201 0.338227
O O1 0.956363 0.500000 0.507956
O O2 0.855967 0.643329 0.469633
O O3 0.000000 0.654280 0.500000
O O4 0.192927 0.619762 0.723833
O O5 0.750000 0.250000 0.500000
O O6 0.756025 0.102939 0.460007
O O7 0.842848 0.105830 0.617250
O O8 0.055519 0.185240 0.727980
O O9 0.992228 0.500000 0.224614
O O10 0.039122 0.343202 0.219880
O O11 0.928533 0.344309 0.215500
O O12 0.265586 0.173543 0.161023
O O13 0.203643 0.000000 0.131148
O O14 0.000000 0.132847 0.000000
O O15 0.976019 0.836988 0.802898
O O16 0.250000 0.750000 0.000000
O O17 0.144725 0.735027 0.996520
O O18 0.638600 0.500000 0.297770
#
# Coordination Sequence:
#
# PCOD8079535 Si02
#       7
#     8   8   8   8   8   8   8
#     4   9  19  33  48  71 101 136 177 212 245 296
#     4  10  17  32  50  71  99 133 171 214 251 305
#     4  10  19  32  52  74 102 138 171 210 262 310
#     4  10  21  34  50  74 103 139 181 213 247 307
#     4  10  20  34  46  74 104 136 171 214 251 310
#     4  10  20  34  49  70 108 140 167 210 257 304
#     4  11  20  31  52  74 103 142 175 209 256 305
#
# _framework density 16.977141
#
# number of rings (size 3 to 8) (size 9 to 14) (size 15 to 20)
#    0.000    2.000    4.286    2.571    2.000    4.000 
#    0.000    0.000    0.000    0.000    0.000    0.000 
#    0.000    9.143    0.000    0.000    0.000    0.000 
#
# Total GULP energy -346961.523808 kJ/mol
# GULP energy per Si atom -12391.482993 kJ/mol
# Density = 1.693850 g / cm^3
# Si number density = 16.977141 Si / 1000 Ang^3
#
#
#
# Elastic Constant Matrix: (Units=GPa)
#
#
# Indices 1 2 3 4 5 6 
#
# 1 79.9892 28.4193 44.6953 -0.0029 -0.6825 0.0017
# 2 28.4193 68.7460 38.3214 0.0423 -0.4114 -0.0131
# 3 44.6953 38.3214 131.8780 0.1729 -4.1990 -0.0006
# 4 -0.0029 0.0423 0.1729 23.6032 0.0028 0.1548
# 5 -0.6825 -0.4114 -4.1990 0.0028 27.7891 0.0095
# 6 0.0017 -0.0131 -0.0006 0.1548 0.0095 21.3274
#
#
#
# Elastic Compliance Matrix: (Units=1/GPa)
#
#
# Indices 1 2 3 4 5 6 
#
# 1 0.016475 -0.004409 -0.004313 0.000042 -0.000312 -0.000004
# 2 -0.004409 0.018545 -0.003908 -0.000005 -0.000424 0.000012
# 3 -0.004313 -0.003908 0.010224 -0.000069 0.001381 -0.000002
# 4 0.000042 -0.000005 -0.000069 0.042370 -0.000014 -0.000307
# 5 -0.000312 -0.000424 0.001381 -0.000014 0.036180 -0.000016
# 6 -0.000004 0.000012 -0.000002 -0.000307 -0.000016 0.046890
#
#
# Mechanical properties :
#
#
# Convention : Reuss Voigt Hill
#
# Bulk Modulus (GPa) = 50.03688 55.94279 52.98984
# Shear Modulus (GPa) = 24.67863 25.82242 25.25053
#
# Velocity S-wave (km/s) = 3.81680 3.90425 3.86077
# Velocity P-wave (km/s) = 6.99721 7.30394 7.15222
#
# Compressibility (1/GPa) = 0.01998526
#
# Stress axis : x y z
#
# Youngs Moduli (GPa) = 60.69773 53.92340 97.80859
#
# Poissons Ratio (x) = 0.23773 0.42180
# Poissons Ratio (y) = 0.26759 0.38225
# Poissons Ratio (z) = 0.26176 0.21074
#
# Static dielectric constant tensor:
#      x y z
#    x 3.043270 -0.000340 -0.167080 
#    y -0.000340 3.155690 0.000480 
#    z -0.167080 0.000480 3.854760 
# 
# 
# High freq. dielectric constant tensor:
#      x y z
#    x 1.620700 0.000000 -0.012850 
#    y 0.000000 1.624200 -0.000020 
#    z -0.012850 -0.000020 1.677520 
# 
# From -- ./inp_files/352035.got.cif
#   From: 2010.06.25/outbox.cif.g09.slc.cpg/sg12_177_cif.got.tgz:352035.got - 2010.06.28 00:19:55.
