data_PCOD8079172
_publ_section_title
;
Structure prediction by ZEFSAII (Michael W. Deem and Ramdas Pophale) SiO2 
 PCOD8079172
Probable space group: C 2/M
;
_chemical_formula_sum "Si O2"
_cell_formula_units_Z 48
_cell_length_a 23.695406
_cell_length_b 13.063632
_cell_length_c 19.982562
_cell_angle_alpha 90.000000
_cell_angle_beta 153.763904
_cell_angle_gamma 90.000000
_cell_volume 2734.458391
_symmetry_space_group_name_H-M "C 2/M"
_symmetry_group_IT_number 12
_symmetry_cell_setting 'monoclinic'
loop_
_space_group_symop_operation_xyz
x,y,z
-x,y,-z
-x,-y,-z
x,-y,z
1/2+x,1/2+y,z
1/2-x,1/2+y,-z
1/2-x,1/2-y,-z
1/2+x,1/2-y,z
loop_
_atom_site_type_symbol
_atom_site_label
_atom_site_fract_x
_atom_site_fract_y
_atom_site_fract_z
Si Si1 0.656603 0.381730 0.111465
Si Si2 0.923697 0.615347 0.760582
Si Si3 0.826609 0.114594 0.593232
Si Si4 0.717690 0.879521 0.891449
Si Si5 0.558259 0.253981 0.809378
Si Si6 0.377628 0.300516 0.787923
O O1 0.650668 0.500000 0.123894
O O2 0.759959 0.360601 0.163633
O O3 0.697021 0.322250 0.222363
O O4 0.518653 0.347735 0.939434
O O5 0.959895 0.500000 0.819113
O O6 0.810032 0.619886 0.586271
O O7 0.885365 0.677337 0.786863
O O8 0.044906 0.672517 0.856167
O O9 0.807203 0.150609 0.649134
O O10 0.924620 0.186985 0.656953
O O11 0.881733 0.000000 0.650826
O O12 0.594761 0.812025 0.782271
O O13 0.696766 0.000000 0.884063
O O14 0.836490 0.839348 0.061467
#
# Coordination Sequence:
#
# PCOD8079172 Si02
#       6
#     8   8   8   8   8   8
#     4  10  18  29  48  72  97 126 156 194 238 287
#     4  10  20  32  49  71  97 127 163 202 237 273
#     4  10  18  31  52  74  94 123 162 204 240 277
#     4  10  19  30  47  70  99 129 154 190 238 289
#     4  10  18  30  48  69  99 125 158 194 238 283
#     4  10  17  29  48  70  98 123 159 196 240 282
#
# _framework density 17.553750999999998
#
# number of rings (size 3 to 8) (size 9 to 14) (size 15 to 20)
#    0.000    2.000    3.333    5.000    0.000    0.000 
#    0.000    1.667    0.000    4.000    0.000   14.000 
#    0.000    0.000    0.000    0.000    0.000    0.000 
#
# Total GULP energy -297472.232283 kJ/mol
# GULP energy per Si atom -12394.676345 kJ/mol
# Density = 1.751380 g / cm^3
# Si number density = 17.553751 Si / 1000 Ang^3
#
#
#
# Elastic Constant Matrix: (Units=GPa)
#
#
# Indices 1 2 3 4 5 6 
#
# 1 99.0224 61.5985 16.1623 0.0000 -17.3195 0.0000
# 2 61.5985 132.3635 6.7910 0.0000 -9.4410 0.0000
# 3 16.1623 6.7910 16.9151 0.0000 -7.5248 0.0000
# 4 0.0000 0.0000 0.0000 27.0653 0.0000 -0.8187
# 5 -17.3195 -9.4410 -7.5248 0.0000 20.0583 0.0000
# 6 0.0000 0.0000 0.0000 -0.8187 0.0000 28.9767
#
#
#
# Elastic Compliance Matrix: (Units=1/GPa)
#
#
# Indices 1 2 3 4 5 6 
#
# 1 0.017602 -0.007089 -0.010438 0.000000 0.007946 0.000000
# 2 -0.007089 0.010719 0.002391 0.000000 -0.000179 0.000000
# 3 -0.010438 0.002391 0.077568 0.000000 0.021212 0.000000
# 4 0.000000 0.000000 0.000000 0.036979 0.000000 0.001045
# 5 0.007946 -0.000179 0.021212 0.000000 0.064589 0.000000
# 6 0.000000 0.000000 0.000000 0.001045 0.000000 0.034540
#
#
# Mechanical properties :
#
#
# Convention : Reuss Voigt Hill
#
# Bulk Modulus (GPa) = 13.22457 46.37828 29.80142
# Shear Modulus (GPa) = 16.80808 26.13668 21.47238
#
# Velocity S-wave (km/s) = 3.09774 3.86288 3.50127
# Velocity P-wave (km/s) = 4.51052 6.80984 5.77575
#
# Compressibility (1/GPa) = 0.07561685
#
# Stress axis : x y z
#
# Youngs Moduli (GPa) = 56.81093 93.29494 12.89184
#
# Poissons Ratio (x) = 0.66140 0.13456
# Poissons Ratio (y) = 0.40275 -0.03082
# Poissons Ratio (z) = 0.59297 -0.22304
#
# Static dielectric constant tensor:
#      x y z
#    x 3.430890 0.000000 -0.073020 
#    y 0.000000 3.718730 0.000000 
#    z -0.073020 0.000000 2.947450 
# 
# 
# High freq. dielectric constant tensor:
#      x y z
#    x 1.668880 0.000000 -0.001360 
#    y 0.000000 1.697470 0.000000 
#    z -0.001360 0.000000 1.641080 
# 
# From -- ./inp_files/289652.got.cif
#   From: 2010.06.25/outbox.cif.g09.slc.cpg/sg12_145_cif.got.tgz:289652.got - 2010.06.28 00:19:55.
