data_PCOD8079369
_publ_section_title
;
Structure prediction by ZEFSAII (Michael W. Deem and Ramdas Pophale) SiO2 
 PCOD8079369
Probable space group: C 2/M
;
_chemical_formula_sum "Si O2"
_cell_formula_units_Z 56
_cell_length_a 25.350557
_cell_length_b 9.229796
_cell_length_c 25.743414
_cell_angle_alpha 90.000000
_cell_angle_beta 33.848521
_cell_angle_gamma 90.000000
_cell_volume 3355.059842
_symmetry_space_group_name_H-M "C 2/M"
_symmetry_group_IT_number 12
_symmetry_cell_setting 'monoclinic'
loop_
_space_group_symop_operation_xyz
x,y,z
-x,y,-z
-x,-y,-z
x,-y,z
1/2+x,1/2+y,z
1/2-x,1/2+y,-z
1/2-x,1/2-y,-z
1/2+x,1/2-y,z
loop_
_atom_site_type_symbol
_atom_site_label
_atom_site_fract_x
_atom_site_fract_y
_atom_site_fract_z
Si Si1 0.126947 0.171560 0.267808
Si Si2 0.779437 0.331997 0.895842
Si Si3 0.098394 0.832253 0.706324
Si Si4 0.896226 0.171725 0.596794
Si Si5 0.924837 0.171704 0.391837
Si Si6 0.223812 0.172016 0.401867
Si Si7 0.386772 0.334821 0.894859
O O1 0.210006 0.248716 0.167281
O O2 0.138625 0.220695 0.317929
O O3 0.025819 0.229007 0.329577
O O4 0.136944 0.000000 0.253324
O O5 0.801156 0.500000 0.869609
O O6 0.854617 0.270983 0.875537
O O7 0.672878 0.305672 0.004008
O O8 0.094560 0.772333 0.650429
O O9 0.173213 0.741752 0.678062
O O10 0.996957 0.807979 0.816759
O O11 0.127977 0.000000 0.682513
O O12 0.821788 0.226741 0.614797
O O13 0.000000 0.237850 0.500000
O O14 0.904382 0.000000 0.587302
O O15 0.841763 0.228768 0.497275
O O16 0.928474 0.000000 0.390398
O O17 0.234092 0.000000 0.394761
O O18 0.371087 0.500000 0.887998
#
# Coordination Sequence:
#
# PCOD8079369 Si02
#       7
#     8   8   8   8   8   8   8
#     4  10  17  30  52  73  97 130 162 195 240 292
#     4  10  19  30  48  76 101 122 155 204 250 284
#     4  10  19  32  48  68  97 134 162 185 234 301
#     4   9  16  29  52  74  92 124 170 207 235 277
#     4   9  16  28  48  70  96 128 160 191 231 286
#     4  10  19  31  48  73  98 124 164 207 236 272
#     4   9  18  33  51  69  96 131 164 194 235 296
#
# _framework density 16.691208
#
# number of rings (size 3 to 8) (size 9 to 14) (size 15 to 20)
#    0.000    2.429    2.857    0.857    0.000    1.143 
#    0.000    1.429    0.000    1.714    0.000    6.000 
#    0.000    0.000    0.000    0.000    0.000    0.000 
#
# Total GULP energy -347182.231586 kJ/mol
# GULP energy per Si atom -12399.365414 kJ/mol
# Density = 1.665322 g / cm^3
# Si number density = 16.691208 Si / 1000 Ang^3
#
#
#
# Elastic Constant Matrix: (Units=GPa)
#
#
# Indices 1 2 3 4 5 6 
#
# 1 127.6022 34.4501 69.3510 -0.0003 1.1912 0.0000
# 2 34.4501 43.2227 43.0650 -0.0012 2.6792 0.0002
# 3 69.3510 43.0650 132.6699 -0.0003 5.7261 0.0003
# 4 -0.0003 -0.0012 -0.0003 25.6233 0.0004 -1.7743
# 5 1.1912 2.6792 5.7261 0.0004 24.2636 -0.0001
# 6 0.0000 0.0002 0.0003 -1.7743 -0.0001 21.6589
#
#
#
# Elastic Compliance Matrix: (Units=1/GPa)
#
#
# Indices 1 2 3 4 5 6 
#
# 1 0.011589 -0.004760 -0.004558 0.000000 0.001032 0.000000
# 2 -0.004760 0.036183 -0.009188 0.000002 -0.001593 0.000000
# 3 -0.004558 -0.009188 0.012981 0.000000 -0.001825 0.000000
# 4 0.000000 0.000002 0.000000 0.039250 -0.000001 0.003215
# 5 0.001032 -0.001593 -0.001825 -0.000001 0.041770 0.000000
# 6 0.000000 0.000000 0.000000 0.003215 0.000000 0.046434
#
#
# Mechanical properties :
#
#
# Convention : Reuss Voigt Hill
#
# Bulk Modulus (GPa) = 42.11914 66.35855 54.23885
# Shear Modulus (GPa) = 21.44695 24.75106 23.09901
#
# Velocity S-wave (km/s) = 3.58847 3.85500 3.72412
# Velocity P-wave (km/s) = 6.51603 7.72383 7.14549
#
# Compressibility (1/GPa) = 0.02374218
#
# Stress axis : x y z
#
# Youngs Moduli (GPa) = 86.28583 27.63691 77.03488
#
# Poissons Ratio (x) = 0.13156 0.35109
# Poissons Ratio (y) = 0.41075 0.70781
# Poissons Ratio (z) = 0.39325 0.25393
#
# Static dielectric constant tensor:
#      x y z
#    x 3.063460 0.000000 0.098900 
#    y 0.000000 2.838340 0.000000 
#    z 0.098900 0.000000 3.323820 
# 
# 
# High freq. dielectric constant tensor:
#      x y z
#    x 1.623590 0.000000 0.003890 
#    y 0.000000 1.614180 0.000000 
#    z 0.003890 0.000000 1.649900 
# 
# From -- ./inp_files/243007.got.cif
#   From: 2010.06.25/outbox.cif.g09.slc.cpg/sg12_122_cif.got.tgz:243007.got - 2010.06.28 00:19:55.
