data_PCOD8079165
_publ_section_title
;
Structure prediction by ZEFSAII (Michael W. Deem and Ramdas Pophale) SiO2 
 PCOD8079165
Probable space group: C 2/M
;
_chemical_formula_sum "Si O2"
_cell_formula_units_Z 56
_cell_length_a 25.356746
_cell_length_b 8.896866
_cell_length_c 17.067960
_cell_angle_alpha 90.000000
_cell_angle_beta 120.681446
_cell_angle_gamma 90.000000
_cell_volume 3311.459916
_symmetry_space_group_name_H-M "C 2/M"
_symmetry_group_IT_number 12
_symmetry_cell_setting 'monoclinic'
loop_
_space_group_symop_operation_xyz
x,y,z
-x,y,-z
-x,-y,-z
x,-y,z
1/2+x,1/2+y,z
1/2-x,1/2+y,-z
1/2-x,1/2-y,-z
1/2+x,1/2-y,z
loop_
_atom_site_type_symbol
_atom_site_label
_atom_site_fract_x
_atom_site_fract_y
_atom_site_fract_z
Si Si1 0.511264 0.821560 0.722042
Si Si2 0.942631 0.320567 0.405887
Si Si3 0.672849 0.821916 0.587841
Si Si4 0.404139 0.822090 0.894267
Si Si5 0.309392 0.322069 0.716622
Si Si6 0.027478 0.678179 0.904555
Si Si7 0.871076 0.677880 0.613459
O O1 0.550393 0.759901 0.678089
O O2 0.539430 0.759715 0.825650
O O3 0.441254 0.769053 0.660733
O O4 0.513374 0.000000 0.723650
O O5 0.942409 0.500000 0.406874
O O6 0.879675 0.255465 0.394604
O O7 0.000000 0.261255 0.500000
O O8 0.738969 0.766652 0.667641
O O9 0.662424 0.767356 0.490972
O O10 0.667804 0.000000 0.585204
O O11 0.342851 0.739627 0.819464
O O12 0.460461 0.768379 0.882292
O O13 0.394067 0.000000 0.881166
O O14 0.419339 0.769263 0.995025
O O15 0.313551 0.500000 0.718061
O O16 0.339559 0.258839 0.661596
O O17 0.026156 0.500000 0.904459
O O18 0.866181 0.500000 0.622878
#
# Coordination Sequence:
#
# PCOD8079165 Si02
#       7
#     8   8   8   8   8   8   8
#     4   9  14  22  44  72  92 108 140 190 233 259
#     4   9  14  23  41  67  93 115 143 186 230 260
#     4   9  18  29  41  63  95 125 150 181 221 264
#     4   9  16  29  48  65  88 117 149 187 227 265
#     4  11  21  30  41  64  99 127 148 177 219 273
#     4   8  14  25  44  70  90 109 143 193 233 257
#     4  10  17  29  48  67  90 120 152 183 218 264
#
# _framework density 16.910969999999999
#
# number of rings (size 3 to 8) (size 9 to 14) (size 15 to 20)
#    0.000    2.714    2.857    1.714    0.000    0.000 
#    0.000    2.143    0.000    0.857    0.000    4.000 
#    0.000    0.000    0.000    0.000    0.000    0.143 
#
# Total GULP energy -347020.154483 kJ/mol
# GULP energy per Si atom -12393.576946 kJ/mol
# Density = 1.687248 g / cm^3
# Si number density = 16.910970 Si / 1000 Ang^3
#
#
#
# Elastic Constant Matrix: (Units=GPa)
#
#
# Indices 1 2 3 4 5 6 
#
# 1 95.9920 20.1880 74.1545 0.0000 5.1107 0.0000
# 2 20.1880 21.4176 21.5331 0.0000 3.6913 0.0000
# 3 74.1545 21.5331 170.8598 0.0000 -0.2106 0.0000
# 4 0.0000 0.0000 0.0000 18.1297 0.0000 4.1770
# 5 5.1107 3.6913 -0.2106 0.0000 28.4622 0.0000
# 6 0.0000 0.0000 0.0000 4.1770 0.0000 12.2421
#
#
#
# Elastic Compliance Matrix: (Units=1/GPa)
#
#
# Indices 1 2 3 4 5 6 
#
# 1 0.017486 -0.009755 -0.006362 0.000000 -0.001922 0.000000
# 2 -0.009755 0.060332 -0.003377 0.000000 -0.006098 0.000000
# 3 -0.006362 -0.003377 0.009042 0.000000 0.001647 0.000000
# 4 0.000000 0.000000 0.000000 0.059864 0.000000 -0.020426
# 5 -0.001922 -0.006098 0.001647 0.000000 0.036282 0.000000
# 6 0.000000 0.000000 0.000000 -0.020426 0.000000 0.088655
#
#
# Mechanical properties :
#
#
# Convention : Reuss Voigt Hill
#
# Bulk Modulus (GPa) = 20.88940 57.78009 39.33474
# Shear Modulus (GPa) = 15.30896 23.25972 19.28434
#
# Velocity S-wave (km/s) = 3.01203 3.71269 3.38056
# Velocity P-wave (km/s) = 4.94731 7.25398 6.20870
#
# Compressibility (1/GPa) = 0.04787118
#
# Stress axis : x y z
#
# Youngs Moduli (GPa) = 57.18816 16.57504 110.59920
#
# Poissons Ratio (x) = 0.16168 0.70365
# Poissons Ratio (y) = 0.55785 0.37354
# Poissons Ratio (z) = 0.36384 0.05598
#
# Static dielectric constant tensor:
#      x y z
#    x 3.330330 0.000000 -0.121490 
#    y 0.000000 2.640240 0.000000 
#    z -0.121490 0.000000 3.601230 
# 
# 
# High freq. dielectric constant tensor:
#      x y z
#    x 1.635730 0.000000 -0.005750 
#    y 0.000000 1.595030 0.000000 
#    z -0.005750 0.000000 1.665040 
# 
# From -- ./inp_files/287899.got.cif
#   From: 2010.06.25/outbox.cif.g09.slc.cpg/sg12_144_cif.got.tgz:287899.got - 2010.06.28 00:19:55.
