data_PCOD8079658
_publ_section_title
;
Structure prediction by ZEFSAII (Michael W. Deem and Ramdas Pophale) SiO2 
 PCOD8079658
Probable space group: C 2/M
;
_chemical_formula_sum "Si O2"
_cell_formula_units_Z 56
_cell_length_a 19.592989
_cell_length_b 24.351151
_cell_length_c 9.322357
_cell_angle_alpha 90.000000
_cell_angle_beta 39.816212
_cell_angle_gamma 90.000000
_cell_volume 2848.051087
_symmetry_space_group_name_H-M "C 2/M"
_symmetry_group_IT_number 12
_symmetry_cell_setting 'monoclinic'
loop_
_space_group_symop_operation_xyz
x,y,z
-x,y,-z
-x,-y,-z
x,-y,z
1/2+x,1/2+y,z
1/2-x,1/2+y,-z
1/2-x,1/2-y,-z
1/2+x,1/2-y,z
loop_
_atom_site_type_symbol
_atom_site_label
_atom_site_fract_x
_atom_site_fract_y
_atom_site_fract_z
Si Si1 0.266372 0.634312 0.805314
Si Si2 0.564799 0.626900 0.706056
Si Si3 0.232873 0.254036 0.286889
Si Si4 0.708803 0.561739 0.660455
Si Si5 0.100027 0.246993 0.749562
Si Si6 0.382483 0.063288 0.138128
Si Si7 0.317986 0.633744 0.039078
O O1 0.366761 0.617333 0.547295
O O2 0.266889 0.700771 0.815027
O O3 0.158849 0.605147 0.918764
O O4 0.283090 0.612743 0.939448
O O5 0.597252 0.579586 0.766314
O O6 0.592400 0.681446 0.750129
O O7 0.443675 0.626430 0.853552
O O8 0.119088 0.268485 0.552595
O O9 0.302583 0.234853 0.309286
O O10 0.281768 0.303397 0.117992
O O11 0.694603 0.500000 0.735008
O O12 0.806679 0.569994 0.396213
O O13 0.740000 0.596857 0.749416
O O14 0.000000 0.271382 0.000000
O O15 0.381361 0.000000 0.083739
O O16 0.500000 0.080856 0.000000
#
# Coordination Sequence:
#
# PCOD8079658 Si02
#       7
#     8   8   8   8   8   8   8
#     4  10  23  37  57  86 115 147 189 232 280 341
#     4  10  19  37  58  82 111 154 189 223 280 334
#     4  10  21  33  54  82 115 150 189 230 277 325
#     4  10  21  37  60  88 112 142 192 235 272 334
#     4  10  17  33  56  81 105 148 196 234 264 322
#     4   9  20  43  66  82 105 144 192 241 283 325
#     4  12  21  37  55  83 124 153 178 227 290 335
#
# _framework density 19.662569000000001
#
# number of rings (size 3 to 8) (size 9 to 14) (size 15 to 20)
#    0.000    1.857    2.857    1.286    2.000    2.286 
#    0.000    0.714    0.000    6.857    0.000    0.000 
#    0.000    0.000    0.000    0.000    0.000    0.000 
#
# Total GULP energy -346964.610964 kJ/mol
# GULP energy per Si atom -12391.593249 kJ/mol
# Density = 1.961782 g / cm^3
# Si number density = 19.662569 Si / 1000 Ang^3
#
#
#
# Elastic Constant Matrix: (Units=GPa)
#
#
# Indices 1 2 3 4 5 6 
#
# 1 107.7715 47.2732 55.4796 0.0000 12.2679 0.0000
# 2 47.2732 76.6815 30.2567 0.0000 4.8237 0.0000
# 3 55.4796 30.2567 88.0343 -0.0002 -7.2518 0.0000
# 4 0.0000 0.0000 -0.0002 24.8171 0.0000 -0.4529
# 5 12.2679 4.8237 -7.2518 0.0000 32.7424 0.0000
# 6 0.0000 0.0000 0.0000 -0.4529 0.0000 16.9953
#
#
#
# Elastic Compliance Matrix: (Units=1/GPa)
#
#
# Indices 1 2 3 4 5 6 
#
# 1 0.018250 -0.006884 -0.009794 0.000000 -0.007993 0.000000
# 2 -0.006884 0.018072 -0.001915 0.000000 -0.000507 0.000000
# 3 -0.009794 -0.001915 0.018859 0.000000 0.008128 0.000000
# 4 0.000000 0.000000 0.000000 0.040314 0.000000 0.001074
# 5 -0.007993 -0.000507 0.008128 0.000000 0.035411 0.000000
# 6 0.000000 0.000000 0.000000 0.001074 0.000000 0.058869
#
#
# Mechanical properties :
#
#
# Convention : Reuss Voigt Hill
#
# Bulk Modulus (GPa) = 55.56667 59.83404 57.70035
# Shear Modulus (GPa) = 21.46304 24.20948 22.83626
#
# Velocity S-wave (km/s) = 3.30747 3.51272 3.41164
# Velocity P-wave (km/s) = 6.55037 6.85192 6.70284
#
# Compressibility (1/GPa) = 0.01799640
#
# Stress axis : x y z
#
# Youngs Moduli (GPa) = 54.79485 55.33377 53.02517
#
# Poissons Ratio (x) = 0.38090 0.51931
# Poissons Ratio (y) = 0.37719 0.10154
# Poissons Ratio (z) = 0.53664 0.10596
#
# Static dielectric constant tensor:
#      x y z
#    x 3.390440 0.000000 0.010480 
#    y 0.000000 3.538650 0.000000 
#    z 0.010480 0.000000 3.979300 
# 
# 
# High freq. dielectric constant tensor:
#      x y z
#    x 1.744810 0.000000 0.005910 
#    y 0.000000 1.754390 0.000000 
#    z 0.005910 0.000000 1.779880 
# 
# From -- ./inp_files/66561.got.cif
#   From: 2010.06.25/outbox.cif.g09.slc.cpg/sg12_34_cif.got.tgz:66561.got - 2010.06.28 00:19:55.
