data_PCOD8079529
_publ_section_title
;
Structure prediction by ZEFSAII (Michael W. Deem and Ramdas Pophale) SiO2 
 PCOD8079529
Probable space group: C 2/M
;
_chemical_formula_sum "Si O2"
_cell_formula_units_Z 64
_cell_length_a 28.948052
_cell_length_b 19.737058
_cell_length_c 18.404933
_cell_angle_alpha 90.000000
_cell_angle_beta 19.160410
_cell_angle_gamma 90.000000
_cell_volume 3451.382876
_symmetry_space_group_name_H-M "C 2/M"
_symmetry_group_IT_number 12
_symmetry_cell_setting 'monoclinic'
loop_
_space_group_symop_operation_xyz
x,y,z
-x,y,-z
-x,-y,-z
x,-y,z
1/2+x,1/2+y,z
1/2-x,1/2+y,-z
1/2-x,1/2-y,-z
1/2+x,1/2-y,z
loop_
_atom_site_type_symbol
_atom_site_label
_atom_site_fract_x
_atom_site_fract_y
_atom_site_fract_z
Si Si1 0.301112 0.326250 0.932536
Si Si2 0.131645 0.422861 0.464574
Si Si3 0.571857 0.285054 0.593601
Si Si4 0.881893 0.799822 0.311691
Si Si5 0.838478 0.728433 0.103936
Si Si6 0.094964 0.649666 0.125859
Si Si7 0.849349 0.924074 0.257533
Si Si8 0.347487 0.169729 0.705739
O O1 0.469719 0.331231 0.694574
O O2 0.250000 0.250000 0.000000
O O3 0.248221 0.359901 0.936167
O O4 0.222385 0.361964 0.118081
O O5 0.158980 0.500000 0.403800
O O6 0.254719 0.394198 0.333185
O O7 0.130823 0.385069 0.389093
O O8 0.990376 0.416847 0.723337
O O9 0.581670 0.315825 0.659128
O O10 0.730982 0.287066 0.327882
O O11 0.505091 0.210065 0.693251
O O12 0.750000 0.750000 0.500000
O O13 0.845276 0.871433 0.329833
O O14 0.023394 0.765305 0.067717
O O15 0.759663 0.771902 0.159344
O O16 0.886790 0.660388 0.988070
O O17 0.799567 0.000000 0.356966
O O18 0.000000 0.930511 0.000000
O O19 0.500000 0.200966 0.500000
#
# Coordination Sequence:
#
# PCOD8079529 Si02
#       8
#     8   8   8   8   8   8   8   8
#     4  10  17  32  48  79 112 145 177 215 281 335
#     4  11  23  37  53  78 113 151 188 228 272 337
#     4  10  20  33  52  81 111 138 181 232 286 327
#     4  11  23  35  54  81 113 148 187 242 287 328
#     4  11  21  33  56  83 113 146 179 234 284 335
#     4  10  19  33  53  79 111 143 181 222 275 335
#     4  10  22  38  57  77 108 152 190 226 283 348
#     4  12  19  31  56  80 116 146 175 225 275 340
#
# _framework density 18.543292000000001
#
# number of rings (size 3 to 8) (size 9 to 14) (size 15 to 20)
#    0.000    1.375    6.250    3.000    1.750    0.250 
#    0.000    0.000    0.000    1.500    0.000    3.500 
#    0.000    0.000    0.000    0.000    0.000    0.000 
#
# Total GULP energy -396515.577623 kJ/mol
# GULP energy per Si atom -12391.111801 kJ/mol
# Density = 1.850109 g / cm^3
# Si number density = 18.543292 Si / 1000 Ang^3
#
#
#
# Elastic Constant Matrix: (Units=GPa)
#
#
# Indices 1 2 3 4 5 6 
#
# 1 81.2653 35.3750 26.0878 -0.0002 -10.8160 -0.0004
# 2 35.3750 47.3315 20.0573 -0.0046 -0.8165 -0.0008
# 3 26.0878 20.0573 113.9769 -0.0070 -10.2981 -0.0017
# 4 -0.0002 -0.0046 -0.0070 24.3839 0.0001 -3.3067
# 5 -10.8160 -0.8165 -10.2981 0.0001 42.0010 0.0004
# 6 -0.0004 -0.0008 -0.0017 -3.3067 0.0004 24.5019
#
#
#
# Elastic Compliance Matrix: (Units=1/GPa)
#
#
# Indices 1 2 3 4 5 6 
#
# 1 0.019374 -0.013714 -0.001630 -0.000003 0.004323 -0.000001
# 2 -0.013714 0.032551 -0.002916 0.000005 -0.003614 0.000001
# 3 -0.001630 -0.002916 0.009835 0.000002 0.001935 0.000001
# 4 -0.000003 0.000005 0.000002 0.041775 0.000000 0.005638
# 5 0.004323 -0.003614 0.001935 0.000000 0.025326 0.000000
# 6 -0.000001 0.000001 0.000001 0.005638 0.000000 0.041574
#
#
# Mechanical properties :
#
#
# Convention : Reuss Voigt Hill
#
# Bulk Modulus (GPa) = 39.62193 45.06821 42.34507
# Shear Modulus (GPa) = 23.21596 28.91427 26.06511
#
# Velocity S-wave (km/s) = 3.54218 3.95306 3.75325
# Velocity P-wave (km/s) = 6.17601 6.72255 6.45506
#
# Compressibility (1/GPa) = 0.02523855
#
# Stress axis : x y z
#
# Youngs Moduli (GPa) = 51.61543 30.72123 101.67970
#
# Poissons Ratio (x) = 0.42132 0.16579
# Poissons Ratio (y) = 0.70788 0.29646
# Poissons Ratio (z) = 0.08416 0.08957
#
# Static dielectric constant tensor:
#      x y z
#    x 3.560130 -0.000030 -0.216040 
#    y -0.000030 3.228560 0.000010 
#    z -0.216040 0.000010 3.648890 
# 
# 
# High freq. dielectric constant tensor:
#      x y z
#    x 1.730670 0.000000 -0.017990 
#    y 0.000000 1.659370 0.000000 
#    z -0.017990 0.000000 1.728910 
# 
# From -- ./inp_files/294127.got.cif
#   From: 2010.06.25/outbox.cif.g09.slc.cpg/sg12_148_cif.got.tgz:294127.got - 2010.06.28 00:19:55.
