data_PCOD8079515
_publ_section_title
;
Structure prediction by ZEFSAII (Michael W. Deem and Ramdas Pophale) SiO2 
 PCOD8079515
Probable space group: C 2/M
;
_chemical_formula_sum "Si O2"
_cell_formula_units_Z 48
_cell_length_a 30.059383
_cell_length_b 16.872404
_cell_length_c 10.328574
_cell_angle_alpha 90.000000
_cell_angle_beta 26.906025
_cell_angle_gamma 90.000000
_cell_volume 2370.518312
_symmetry_space_group_name_H-M "C 2/M"
_symmetry_group_IT_number 12
_symmetry_cell_setting 'monoclinic'
loop_
_space_group_symop_operation_xyz
x,y,z
-x,y,-z
-x,-y,-z
x,-y,z
1/2+x,1/2+y,z
1/2-x,1/2+y,-z
1/2-x,1/2-y,-z
1/2+x,1/2-y,z
loop_
_atom_site_type_symbol
_atom_site_label
_atom_site_fract_x
_atom_site_fract_y
_atom_site_fract_z
Si Si1 0.481120 0.345869 0.688135
Si Si2 0.770516 0.909184 0.292897
Si Si3 0.023946 0.334701 0.299832
Si Si4 0.736121 0.172536 0.629270
Si Si5 0.569336 0.146219 0.707920
Si Si6 0.573249 0.668549 0.704775
O O1 0.500000 0.388968 0.500000
O O2 0.513375 0.255083 0.590513
O O3 0.550702 0.376848 0.626362
O O4 0.366819 0.356549 0.018892
O O5 0.740213 0.902129 0.521913
O O6 0.683023 0.874761 0.431709
O O7 0.791014 0.000000 0.204026
O O8 0.000000 0.376639 0.500000
O O9 0.964518 0.384809 0.345273
O O10 0.137197 0.330062 0.966435
O O11 0.750000 0.250000 0.500000
O O12 0.815983 0.161393 0.534323
O O13 0.546968 0.239283 0.760605
O O14 0.500000 0.108251 0.000000
O O15 0.500000 0.629799 0.000000
#
# Coordination Sequence:
#
# PCOD8079515 Si02
#       6
#     8   8   8   8   8   8
#     4  10  21  37  56  89 121 152 189 242 297 341
#     4  12  24  37  58  87 120 159 197 233 286 356
#     4  10  20  34  60  92 120 141 190 255 300 332
#     4  12  18  37  61  85 116 154 198 245 284 337
#     4  10  18  34  58  88 114 147 194 239 287 341
#     4  10  17  31  63  89 110 147 193 243 289 335
#
# _framework density 20.248736000000001
#
# number of rings (size 3 to 8) (size 9 to 14) (size 15 to 20)
#    0.000    1.333    6.667    1.000    0.000    2.000 
#    0.000    6.667    0.000    4.000    0.000    0.000 
#    0.000    0.000    0.000    0.000    0.000    0.000 
#
# Total GULP energy -297363.906105 kJ/mol
# GULP energy per Si atom -12390.162754 kJ/mol
# Density = 2.020265 g / cm^3
# Si number density = 20.248736 Si / 1000 Ang^3
#
#
#
# Elastic Constant Matrix: (Units=GPa)
#
#
# Indices 1 2 3 4 5 6 
#
# 1 236.6810 10.6545 90.2057 0.0000 9.0289 0.0000
# 2 10.6545 25.8068 0.6451 0.0000 7.7330 0.0000
# 3 90.2057 0.6451 118.2083 0.0000 13.8391 0.0000
# 4 0.0000 0.0000 0.0000 6.9694 0.0000 1.6768
# 5 9.0289 7.7330 13.8391 0.0000 45.1564 0.0000
# 6 0.0000 0.0000 0.0000 1.6768 0.0000 5.8944
#
#
#
# Elastic Compliance Matrix: (Units=1/GPa)
#
#
# Indices 1 2 3 4 5 6 
#
# 1 0.006122 -0.002611 -0.004737 0.000000 0.000675 0.000000
# 2 -0.002611 0.042003 0.002639 0.000000 -0.007480 0.000000
# 3 -0.004737 0.002639 0.012448 0.000000 -0.003320 0.000000
# 4 0.000000 0.000000 0.000000 0.154027 0.000000 -0.043815
# 5 0.000675 -0.007480 -0.003320 0.000000 0.024309 0.000000
# 6 0.000000 0.000000 0.000000 -0.043815 0.000000 0.182115
#
#
# Mechanical properties :
#
#
# Convention : Reuss Voigt Hill
#
# Bulk Modulus (GPa) = 19.54804 64.85632 42.20218
# Shear Modulus (GPa) = 11.17335 30.21676 20.69505
#
# Velocity S-wave (km/s) = 2.35160 3.86719 3.20041
# Velocity P-wave (km/s) = 4.12896 7.21385 5.87741
#
# Compressibility (1/GPa) = 0.05115603
#
# Stress axis : x y z
#
# Youngs Moduli (GPa) = 163.34094 23.80786 80.33117
#
# Poissons Ratio (x) = 0.06217 0.38050
# Poissons Ratio (y) = 0.42654 -0.21201
# Poissons Ratio (z) = 0.77368 -0.06283
#
# Static dielectric constant tensor:
#      x y z
#    x 4.237050 0.000000 0.326020 
#    y 0.000000 3.147970 0.000000 
#    z 0.326020 0.000000 3.652230 
# 
# 
# High freq. dielectric constant tensor:
#      x y z
#    x 1.816120 0.000000 0.002400 
#    y 0.000000 1.726570 0.000000 
#    z 0.002400 0.000000 1.785390 
# 
# From -- ./inp_files/112728.got.cif
#   From: 2010.06.25/outbox.cif.g09.slc.cpg/sg12_57_cif.got.tgz:112728.got - 2010.06.28 00:19:55.
