data_PCOD8079085
_publ_section_title
;
Structure prediction by ZEFSAII (Michael W. Deem and Ramdas Pophale) SiO2 
 PCOD8079085
Probable space group: C 2/M
;
_chemical_formula_sum "Si O2"
_cell_formula_units_Z 64
_cell_length_a 26.867129
_cell_length_b 12.466226
_cell_length_c 12.246966
_cell_angle_alpha 90.000000
_cell_angle_beta 110.265869
_cell_angle_gamma 90.000000
_cell_volume 3847.971017
_symmetry_space_group_name_H-M "C 2/M"
_symmetry_group_IT_number 12
_symmetry_cell_setting 'monoclinic'
loop_
_space_group_symop_operation_xyz
x,y,z
-x,y,-z
-x,-y,-z
x,-y,z
1/2+x,1/2+y,z
1/2-x,1/2+y,-z
1/2-x,1/2-y,-z
1/2+x,1/2-y,z
loop_
_atom_site_type_symbol
_atom_site_label
_atom_site_fract_x
_atom_site_fract_y
_atom_site_fract_z
Si Si1 0.816308 0.626662 0.074734
Si Si2 0.000516 0.122479 0.629522
Si Si3 0.058172 0.876076 0.014603
Si Si4 0.670881 0.622543 0.701049
Si Si5 0.402461 0.712707 0.181326
Si Si6 0.234183 0.243852 0.155508
Si Si7 0.846602 0.876674 0.757563
Si Si8 0.115934 0.126815 0.444140
O O1 0.820543 0.500000 0.058526
O O2 0.873525 0.670533 0.161526
O O3 0.768446 0.651456 0.121924
O O4 0.803154 0.689317 0.953830
O O5 0.943692 0.167253 0.624909
O O6 0.000000 0.122794 0.500000
O O7 0.043035 0.206981 0.709127
O O8 0.012466 0.000000 0.680343
O O9 0.095327 0.858148 0.147150
O O10 0.051961 0.000000 0.977944
O O11 0.085882 0.818383 0.933914
O O12 0.000000 0.828325 0.000000
O O13 0.681830 0.500000 0.683785
O O14 0.638908 0.632492 0.790628
O O15 0.727713 0.676272 0.751928
O O16 0.639334 0.675577 0.574522
O O17 0.197828 0.191852 0.218625
O O18 0.848184 0.840867 0.632009
O O19 0.830187 0.000000 0.756248
O O20 0.111558 0.000000 0.455075
#
# Coordination Sequence:
#
# PCOD8079085 Si02
#       8
#     8   8   8   8   8   8   8   8
#     4  10  21  36  52  74 103 131 169 218 259 301
#     4  10  17  28  49  79 110 133 161 203 251 302
#     4  10  19  30  47  75 107 133 163 203 251 308
#     4  10  19  31  50  77 105 133 170 208 248 301
#     4  11  19  31  52  77 102 136 168 202 256 308
#     4  10  20  34  52  76  96 133 173 209 259 300
#     4  10  19  32  48  70 105 137 163 200 251 307
#     4   9  18  31  47  74 108 137 162 201 253 300
#
# _framework density 16.632142000000002
#
# number of rings (size 3 to 8) (size 9 to 14) (size 15 to 20)
#    0.000    2.000    2.500    2.625    0.000    2.500 
#    0.000    0.000    0.000    0.750    0.000    0.875 
#    0.000    0.000    0.000    0.000    0.000    0.000 
#
# Total GULP energy -396671.286037 kJ/mol
# GULP energy per Si atom -12395.977689 kJ/mol
# Density = 1.659429 g / cm^3
# Si number density = 16.632142 Si / 1000 Ang^3
#
#
#
# Elastic Constant Matrix: (Units=GPa)
#
#
# Indices 1 2 3 4 5 6 
#
# 1 118.2108 41.2362 44.1184 0.0000 -2.3651 0.0000
# 2 41.2362 56.0823 28.9139 0.0000 -0.1268 0.0000
# 3 44.1184 28.9139 77.9846 0.0000 0.1742 0.0000
# 4 0.0000 0.0000 0.0000 19.4726 0.0000 1.8330
# 5 -2.3651 -0.1268 0.1742 0.0000 32.1317 0.0000
# 6 0.0000 0.0000 0.0000 1.8330 0.0000 23.3728
#
#
#
# Elastic Compliance Matrix: (Units=1/GPa)
#
#
# Indices 1 2 3 4 5 6 
#
# 1 0.012589 -0.006901 -0.004566 0.000000 0.000924 0.000000
# 2 -0.006901 0.025828 -0.005671 0.000000 -0.000375 0.000000
# 3 -0.004566 -0.005671 0.017510 0.000000 -0.000453 0.000000
# 4 0.000000 0.000000 0.000000 0.051736 0.000000 -0.004057
# 5 0.000924 -0.000375 -0.000453 0.000000 0.031191 0.000000
# 6 0.000000 0.000000 0.000000 -0.004057 0.000000 0.043103
#
#
# Mechanical properties :
#
#
# Convention : Reuss Voigt Hill
#
# Bulk Modulus (GPa) = 46.18595 53.42385 49.80490
# Shear Modulus (GPa) = 22.37647 24.19603 23.28625
#
# Velocity S-wave (km/s) = 3.67192 3.81829 3.74582
# Velocity P-wave (km/s) = 6.76806 7.18538 6.97984
#
# Compressibility (1/GPa) = 0.02165161
#
# Stress axis : x y z
#
# Youngs Moduli (GPa) = 79.43373 38.71788 57.11111
#
# Poissons Ratio (x) = 0.26717 0.26075
# Poissons Ratio (y) = 0.54814 0.32390
# Poissons Ratio (z) = 0.36267 0.21958
#
# Static dielectric constant tensor:
#      x y z
#    x 3.276090 0.000000 0.076660 
#    y 0.000000 2.745690 0.000000 
#    z 0.076660 0.000000 3.323730 
# 
# 
# High freq. dielectric constant tensor:
#      x y z
#    x 1.651650 0.000000 0.000690 
#    y 0.000000 1.587340 0.000000 
#    z 0.000690 0.000000 1.652380 
# 
# From -- ./inp_files/175296.got.cif
#   From: 2010.06.25/outbox.cif.g09.slc.cpg/sg12_88_cif.got.tgz:175296.got - 2010.06.28 00:19:55.
