data_PCOD8079750
_publ_section_title
;
Structure prediction by ZEFSAII (Michael W. Deem and Ramdas Pophale) SiO2 
 PCOD8079750
Probable space group: C 2/M
;
_chemical_formula_sum "Si O2"
_cell_formula_units_Z 52
_cell_length_a 17.932546
_cell_length_b 19.061399
_cell_length_c 9.189516
_cell_angle_alpha 90.000000
_cell_angle_beta 109.308970
_cell_angle_gamma 90.000000
_cell_volume 2964.462485
_symmetry_space_group_name_H-M "C 2/M"
_symmetry_group_IT_number 12
_symmetry_cell_setting 'monoclinic'
loop_
_space_group_symop_operation_xyz
x,y,z
-x,y,-z
-x,-y,-z
x,-y,z
1/2+x,1/2+y,z
1/2-x,1/2+y,-z
1/2-x,1/2-y,-z
1/2+x,1/2-y,z
loop_
_atom_site_type_symbol
_atom_site_label
_atom_site_fract_x
_atom_site_fract_y
_atom_site_fract_z
Si Si1 0.577968 0.352302 0.145704
Si Si2 0.235949 0.849932 0.639292
Si Si3 0.176885 0.500000 0.592973
Si Si4 0.268906 0.500000 0.382965
Si Si5 0.839693 0.349153 0.423172
Si Si6 0.146907 0.000000 0.278588
Si Si7 0.074367 0.217131 0.451680
Si Si8 0.272891 0.272244 0.854730
O O1 0.599203 0.431924 0.197893
O O2 0.561504 0.306375 0.278424
O O3 0.647926 0.318056 0.096039
O O4 0.500000 0.351689 0.000000
O O5 0.231448 0.927792 0.710399
O O6 0.269580 0.855328 0.497298
O O7 0.148342 0.820691 0.571857
O O8 0.288660 0.798298 0.770455
O O9 0.188339 0.500000 0.425624
O O10 0.130075 0.427781 0.600837
O O11 0.263415 0.500000 0.728712
O O12 0.345708 0.500000 0.540196
O O13 0.910998 0.301568 0.530627
O O14 0.801038 0.315380 0.255657
O O15 0.000000 0.195861 0.500000
O O16 0.250000 0.250000 0.000000
#
# Coordination Sequence:
#
# PCOD8079750 Si02
#       8
#     8   8   4   4   8   4   8   8
#     4  12  23  36  52  80 118 152 175 218 277 326
#     4  10  17  36  59  76 103 139 181 232 267 313
#     4   8  14  29  62  82  94 131 185 231 271 310
#     4   8  14  29  60  82  96 130 184 226 272 308
#     4  10  17  36  61  78 101 140 185 233 268 315
#     4  10  17  36  53  80 110 147 182 216 262 335
#     4  11  21  34  54  82 110 141 183 226 268 316
#     4  11  21  34  54  81 108 140 187 226 262 317
#
# _framework density 17.541122000000001
#
# number of rings (size 3 to 8) (size 9 to 14) (size 15 to 20)
#    0.462    1.231    6.154    1.154    4.308    0.000 
#    0.000    3.462    0.000    0.000    0.000    1.077 
#    0.000    0.000    0.000    0.000    0.000    0.000 
#
# Total GULP energy -322199.141799 kJ/mol
# GULP energy per Si atom -12392.274685 kJ/mol
# Density = 1.750120 g / cm^3
# Si number density = 17.541122 Si / 1000 Ang^3
#
#
#
# Elastic Constant Matrix: (Units=GPa)
#
#
# Indices 1 2 3 4 5 6 
#
# 1 54.0282 12.3671 17.3124 0.0000 -6.2260 0.0000
# 2 12.3671 163.7804 45.6404 0.0000 4.2949 0.0000
# 3 17.3124 45.6404 68.6372 0.0000 -1.8514 0.0000
# 4 0.0000 0.0000 0.0000 18.0708 0.0000 7.2040
# 5 -6.2260 4.2949 -1.8514 0.0000 25.4162 0.0000
# 6 0.0000 0.0000 0.0000 7.2040 0.0000 13.3672
#
#
#
# Elastic Compliance Matrix: (Units=1/GPa)
#
#
# Indices 1 2 3 4 5 6 
#
# 1 0.020695 -0.000330 -0.004872 0.000000 0.004770 0.000000
# 2 -0.000330 0.007568 -0.004996 0.000000 -0.001724 0.000000
# 3 -0.004872 -0.004996 0.019148 0.000000 0.001046 0.000000
# 4 0.000000 0.000000 0.000000 0.070481 0.000000 -0.037985
# 5 0.004770 -0.001724 0.001046 0.000000 0.040881 0.000000
# 6 0.000000 0.000000 0.000000 -0.037985 0.000000 0.095281
#
#
# Mechanical properties :
#
#
# Convention : Reuss Voigt Hill
#
# Bulk Modulus (GPa) = 37.01451 48.56505 42.78978
# Shear Modulus (GPa) = 17.63949 25.44589 21.54269
#
# Velocity S-wave (km/s) = 3.17457 3.81286 3.50826
# Velocity P-wave (km/s) = 5.88087 6.86516 6.39199
#
# Compressibility (1/GPa) = 0.02701643
#
# Stress axis : x y z
#
# Youngs Moduli (GPa) = 48.32027 132.13589 52.22438
#
# Poissons Ratio (x) = 0.04363 0.25442
# Poissons Ratio (y) = 0.01596 0.26089
# Poissons Ratio (z) = 0.23540 0.66009
#
# Static dielectric constant tensor:
#      x y z
#    x 2.937140 0.000000 0.062400 
#    y 0.000000 3.799430 0.000000 
#    z 0.062400 0.000000 3.055190 
# 
# 
# High freq. dielectric constant tensor:
#      x y z
#    x 1.642180 0.000000 0.005530 
#    y 0.000000 1.704060 0.000000 
#    z 0.005530 0.000000 1.647810 
# 
# From -- ./inp_files/76999.got.cif
#   From: 2010.06.25/outbox.cif.g09.slc.cpg/sg12_39_cif.got.tgz:76999.got - 2010.06.28 00:19:55.
