data_PCOD8079048
_publ_section_title
;
Structure prediction by ZEFSAII (Michael W. Deem and Ramdas Pophale) SiO2 
 PCOD8079048
Probable space group: C 2/M
;
_chemical_formula_sum "Si O2"
_cell_formula_units_Z 40
_cell_length_a 8.477151
_cell_length_b 17.857221
_cell_length_c 18.214990
_cell_angle_alpha 90.000000
_cell_angle_beta 133.960305
_cell_angle_gamma 90.000000
_cell_volume 1984.801949
_symmetry_space_group_name_H-M "C 2/M"
_symmetry_group_IT_number 12
_symmetry_cell_setting 'monoclinic'
loop_
_space_group_symop_operation_xyz
x,y,z
-x,y,-z
-x,-y,-z
x,-y,z
1/2+x,1/2+y,z
1/2-x,1/2+y,-z
1/2-x,1/2-y,-z
1/2+x,1/2-y,z
loop_
_atom_site_type_symbol
_atom_site_label
_atom_site_fract_x
_atom_site_fract_y
_atom_site_fract_z
Si Si1 0.804488 0.586498 0.489940
Si Si2 0.977496 0.344717 0.688658
Si Si3 0.727385 0.818634 0.101766
Si Si4 0.098197 0.153640 0.102652
Si Si5 0.112043 0.180499 0.690708
O O1 0.745691 0.500000 0.459842
O O2 0.872088 0.599931 0.595717
O O3 0.593944 0.634332 0.402801
O O4 0.000000 0.612032 0.500000
O O5 0.806794 0.327264 0.696697
O O6 0.193219 0.386581 0.792079
O O7 0.050127 0.267670 0.673577
O O8 0.695941 0.730354 0.101252
O O9 0.805546 0.852702 0.204665
O O10 0.912099 0.832653 0.101751
O O11 0.500000 0.855993 0.000000
O O12 0.000000 0.108837 0.000000
#
# Coordination Sequence:
#
# PCOD8079048 Si02
#       5
#     8   8   8   8   8
#     4  11  24  41  58  77 105 141 180 223 272 323
#     4  11  21  35  56  82 111 142 180 222 266 316
#     4  10  17  28  47  75 109 141 175 215 264 314
#     4  10  17  28  47  75 109 141 175 215 264 314
#     4  11  21  35  56  82 111 142 180 222 266 316
#
# _framework density 20.153143
#
# number of rings (size 3 to 8) (size 9 to 14) (size 15 to 20)
#    0.000    1.400    0.000   12.000    0.000    1.600 
#    0.000    0.000    0.000    1.200    0.000    0.000 
#    0.000    0.000    0.000    0.000    0.000    0.000 
#
# Total GULP energy -247971.359547 kJ/mol
# GULP energy per Si atom -12398.567977 kJ/mol
# Density = 2.010727 g / cm^3
# Si number density = 20.153143 Si / 1000 Ang^3
#
#
#
# Elastic Constant Matrix: (Units=GPa)
#
#
# Indices 1 2 3 4 5 6 
#
# 1 122.8390 3.9624 26.6611 0.0001 -2.7215 0.0000
# 2 3.9624 23.3597 15.5318 0.0000 5.7563 0.0000
# 3 26.6611 15.5318 175.1176 0.0000 9.0281 0.0000
# 4 0.0001 0.0000 0.0000 -19.7391 0.0000 -8.6593
# 5 -2.7215 5.7563 9.0281 0.0000 45.0677 0.0000
# 6 0.0000 0.0000 0.0000 -8.6593 0.0000 14.8879
#
#
#
# Elastic Compliance Matrix: (Units=1/GPa)
#
#
# Indices 1 2 3 4 5 6 
#
# 1 0.008460 -0.000810 -0.001261 0.000000 0.000867 0.000000
# 2 -0.000810 0.046738 -0.003750 0.000000 -0.005267 0.000000
# 3 -0.001261 -0.003750 0.006279 0.000000 -0.000855 0.000000
# 4 0.000000 0.000000 0.000000 -0.040362 0.000000 -0.023476
# 5 0.000867 -0.005267 -0.000855 0.000000 0.023085 0.000000
# 6 0.000000 0.000000 0.000000 -0.023476 0.000000 0.053514
#
#
# Mechanical properties :
#
#
# Convention : Reuss Voigt Hill
#
# Bulk Modulus (GPa) = 20.06678 45.95855 33.01266
# Shear Modulus (GPa) = 39.69251 26.38734 33.03992
#
# Velocity S-wave (km/s) = 4.44277 3.62241 4.05340
# Velocity P-wave (km/s) = 6.02465 6.35216 6.19057
#
# Compressibility (1/GPa) = 0.04983361
#
# Stress axis : x y z
#
# Youngs Moduli (GPa) = 118.20712 21.39593 159.25806
#
# Poissons Ratio (x) = 0.01734 0.20079
# Poissons Ratio (y) = 0.09579 0.59729
# Poissons Ratio (z) = 0.14903 0.08024
#
# Static dielectric constant tensor:
#      x y z
#    x 3.458430 0.000000 0.282750 
#    y 0.000000 3.079560 0.000000 
#    z 0.282750 0.000000 4.576080 
# 
# 
# High freq. dielectric constant tensor:
#      x y z
#    x 1.812340 0.000000 0.002640 
#    y 0.000000 1.713740 0.000000 
#    z 0.002640 0.000000 1.824010 
# 
# From -- ./inp_files/195090.got.cif
#   From: 2010.06.25/outbox.cif.g09.slc.cpg/sg12_98_cif.got.tgz:195090.got - 2010.06.28 00:19:55.
