data_PCOD8079626
_publ_section_title
;
Structure prediction by ZEFSAII (Michael W. Deem and Ramdas Pophale) SiO2 
 PCOD8079626
Probable space group: C 2/M
;
_chemical_formula_sum "Si O2"
_cell_formula_units_Z 36
_cell_length_a 16.224641
_cell_length_b 18.066735
_cell_length_c 7.798809
_cell_angle_alpha 90.000000
_cell_angle_beta 131.891915
_cell_angle_gamma 90.000000
_cell_volume 1701.738362
_symmetry_space_group_name_H-M "C 2/M"
_symmetry_group_IT_number 12
_symmetry_cell_setting 'monoclinic'
loop_
_space_group_symop_operation_xyz
x,y,z
-x,y,-z
-x,-y,-z
x,-y,z
1/2+x,1/2+y,z
1/2-x,1/2+y,-z
1/2-x,1/2-y,-z
1/2+x,1/2-y,z
loop_
_atom_site_type_symbol
_atom_site_label
_atom_site_fract_x
_atom_site_fract_y
_atom_site_fract_z
Si Si1 0.000000 0.166834 0.000000
Si Si2 0.207473 0.223562 0.704654
Si Si3 0.932519 0.274540 0.204447
Si Si4 0.773583 0.864305 0.581931
Si Si5 0.459606 0.918370 0.752099
O O1 0.997520 0.219898 0.165178
O O2 0.109481 0.114529 0.162176
O O3 0.089518 0.238544 0.636636
O O4 0.196606 0.150063 0.575222
O O5 0.228781 0.291483 0.610007
O O6 0.308261 0.208586 0.971579
O O7 0.994069 0.353768 0.306034
O O8 0.674744 0.923777 0.450561
O O9 0.504322 0.000000 0.760927
O O10 0.500000 0.898450 0.000000
#
# Coordination Sequence:
#
# PCOD8079626 Si02
#       5
#     4   8   8   8   8
#     4  10  20  32  54  76 112 134 178 232 278 312
#     4   9  18  30  56  76 116 134 173 232 282 313
#     4  10  17  33  52  86 106 141 176 227 278 325
#     4  10  19  35  49  80 106 145 178 224 270 325
#     4  11  21  35  55  78 112 150 180 216 264 333
#
# _framework density 21.154838999999999
#
# number of rings (size 3 to 8) (size 9 to 14) (size 15 to 20)
#    0.000    2.000    3.333    2.667    0.000    3.556 
#    0.000    2.778    0.000    0.000    0.000    4.667 
#    0.000    0.000    0.000    0.000    0.000    0.000 
#
# Total GULP energy -223009.406388 kJ/mol
# GULP energy per Si atom -12389.411466 kJ/mol
# Density = 2.110669 g / cm^3
# Si number density = 21.154839 Si / 1000 Ang^3
#
#
#
# Elastic Constant Matrix: (Units=GPa)
#
#
# Indices 1 2 3 4 5 6 
#
# 1 124.2614 30.2765 36.2837 0.0000 3.0438 0.0000
# 2 30.2765 53.0219 18.5380 0.0000 7.7187 0.0000
# 3 36.2837 18.5380 46.1814 0.0000 23.2291 0.0000
# 4 0.0000 0.0000 0.0000 10.5201 0.0000 5.6682
# 5 3.0438 7.7187 23.2291 0.0000 54.8255 0.0000
# 6 0.0000 0.0000 0.0000 5.6682 0.0000 19.8725
#
#
#
# Elastic Compliance Matrix: (Units=1/GPa)
#
#
# Indices 1 2 3 4 5 6 
#
# 1 0.011716 -0.003898 -0.009644 0.000000 0.003985 0.000000
# 2 -0.003898 0.023265 -0.006021 0.000000 -0.000508 0.000000
# 3 -0.009644 -0.006021 0.039335 0.000000 -0.015283 0.000000
# 4 0.000000 0.000000 0.000000 0.112318 0.000000 -0.032037
# 5 0.003985 -0.000508 -0.015283 0.000000 0.024565 0.000000
# 6 0.000000 0.000000 0.000000 -0.032037 0.000000 0.059459
#
#
# Mechanical properties :
#
#
# Convention : Reuss Voigt Hill
#
# Bulk Modulus (GPa) = 28.41750 43.74014 36.07882
# Shear Modulus (GPa) = 15.55143 26.26805 20.90974
#
# Velocity S-wave (km/s) = 2.71426 3.52761 3.14732
# Velocity P-wave (km/s) = 4.82547 6.10844 5.50446
#
# Compressibility (1/GPa) = 0.03518958
#
# Stress axis : x y z
#
# Youngs Moduli (GPa) = 85.35473 42.98304 25.42259
#
# Poissons Ratio (x) = 0.16755 0.24518
# Poissons Ratio (y) = 0.33272 0.15306
# Poissons Ratio (z) = 0.82319 0.25879
#
# Static dielectric constant tensor:
#      x y z
#    x 4.175680 0.000000 0.158980 
#    y 0.000000 3.174650 0.000000 
#    z 0.158980 0.000000 4.290500 
# 
# 
# High freq. dielectric constant tensor:
#      x y z
#    x 1.836870 0.000000 0.016830 
#    y 0.000000 1.755480 0.000000 
#    z 0.016830 0.000000 1.864100 
# 
# From -- ./inp_files/62357.got.cif
#   From: 2010.06.25/outbox.cif.g09.slc.cpg/sg12_32_cif.got.tgz:62357.got - 2010.06.28 00:19:55.
