data_PCOD8079550
_publ_section_title
;
Structure prediction by ZEFSAII (Michael W. Deem and Ramdas Pophale) SiO2 
 PCOD8079550
Probable space group: C 2/M
;
_chemical_formula_sum "Si O2"
_cell_formula_units_Z 64
_cell_length_a 29.952946
_cell_length_b 8.839815
_cell_length_c 30.624829
_cell_angle_alpha 90.000000
_cell_angle_beta 28.759207
_cell_angle_gamma 90.000000
_cell_volume 3901.382307
_symmetry_space_group_name_H-M "C 2/M"
_symmetry_group_IT_number 12
_symmetry_cell_setting 'monoclinic'
loop_
_space_group_symop_operation_xyz
x,y,z
-x,y,-z
-x,-y,-z
x,-y,z
1/2+x,1/2+y,z
1/2-x,1/2+y,-z
1/2-x,1/2-y,-z
1/2+x,1/2-y,z
loop_
_atom_site_type_symbol
_atom_site_label
_atom_site_fract_x
_atom_site_fract_y
_atom_site_fract_z
Si Si1 0.584938 0.679020 0.875232
Si Si2 0.266625 0.176004 0.082505
Si Si3 0.424958 0.179722 0.882034
Si Si4 0.884831 0.675481 0.237889
Si Si5 0.416920 0.821549 0.790414
Si Si6 0.889357 0.322941 0.058786
Si Si7 0.896678 0.824983 0.385469
Si Si8 0.718529 0.826461 0.588791
O O1 0.584665 0.500000 0.880827
O O2 0.637740 0.727870 0.785879
O O3 0.638124 0.752962 0.870843
O O4 0.480366 0.740745 0.962280
O O5 0.171075 0.264660 0.160920
O O6 0.305366 0.205931 0.097696
O O7 0.248207 0.000000 0.090085
O O8 0.339191 0.239652 0.984457
O O9 0.521025 0.237417 0.820472
O O10 0.414639 0.243904 0.841826
O O11 0.426349 0.000000 0.880315
O O12 0.895512 0.500000 0.215720
O O13 0.799576 0.700890 0.344434
O O14 0.509218 0.766235 0.686603
O O15 0.416433 0.000000 0.791436
O O16 0.911727 0.500000 0.044067
O O17 0.825526 0.788705 0.486106
O O18 0.850258 0.778261 0.379665
O O19 0.922160 0.000000 0.361469
O O20 0.695148 0.000000 0.596201
#
# Coordination Sequence:
#
# PCOD8079550 Si02
#       8
#     8   8   8   8   8   8   8   8
#     4  11  21  31  47  74 103 124 157 206 249 288
#     4  10  20  34  50  69  93 127 171 210 237 276
#     4   9  17  31  48  67  95 131 169 201 229 276
#     4  10  17  32  52  70  96 132 168 196 236 297
#     4  11  21  33  49  69  97 135 169 201 243 287
#     4  10  19  34  53  69  92 132 169 198 243 294
#     4  10  19  31  48  72  98 127 163 205 246 286
#     4   9  18  32  51  71  96 128 163 203 245 289
#
# _framework density 16.404442
#
# number of rings (size 3 to 8) (size 9 to 14) (size 15 to 20)
#    0.000    2.000    2.500    3.375    0.000    2.000 
#    0.000    0.625    0.000    0.000    0.000    0.875 
#    0.000    7.000    0.000    0.000    0.000    0.000 
#
# Total GULP energy -396833.718296 kJ/mol
# GULP energy per Si atom -12401.053697 kJ/mol
# Density = 1.636710 g / cm^3
# Si number density = 16.404442 Si / 1000 Ang^3
#
#
#
# Elastic Constant Matrix: (Units=GPa)
#
#
# Indices 1 2 3 4 5 6 
#
# 1 95.3504 41.0201 57.9246 -0.0181 6.8030 0.0177
# 2 41.0201 68.1995 37.9468 -0.0310 1.3380 0.0650
# 3 57.9246 37.9468 112.0009 -0.0073 2.1304 0.0153
# 4 -0.0181 -0.0310 -0.0073 22.4154 0.0005 -0.5097
# 5 6.8030 1.3380 2.1304 0.0005 24.3744 -0.0065
# 6 0.0177 0.0650 0.0153 -0.5097 -0.0065 24.4029
#
#
#
# Elastic Compliance Matrix: (Units=1/GPa)
#
#
# Indices 1 2 3 4 5 6 
#
# 1 0.017891 -0.006872 -0.006848 0.000003 -0.004018 0.000009
# 2 -0.006872 0.020714 -0.003485 0.000021 0.001085 -0.000047
# 3 -0.006848 -0.003485 0.013634 -0.000006 0.000911 0.000006
# 4 0.000003 0.000021 -0.000006 0.044633 -0.000002 0.000932
# 5 -0.004018 0.001085 0.000911 -0.000002 0.042009 0.000011
# 6 0.000009 -0.000047 0.000006 0.000932 0.000011 0.040998
#
#
# Mechanical properties :
#
#
# Convention : Reuss Voigt Hill
#
# Bulk Modulus (GPa) = 56.08855 61.03710 58.56282
# Shear Modulus (GPa) = 22.70353 23.48250 23.09301
#
# Velocity S-wave (km/s) = 3.72423 3.78758 3.75604
# Velocity P-wave (km/s) = 7.26351 7.51107 7.38832
#
# Compressibility (1/GPa) = 0.01782895
#
# Stress axis : x y z
#
# Youngs Moduli (GPa) = 55.89528 48.27741 73.34855
#
# Poissons Ratio (x) = 0.33174 0.50230
# Poissons Ratio (y) = 0.38409 0.25560
# Poissons Ratio (z) = 0.38278 0.16824
#
# Static dielectric constant tensor:
#      x y z
#    x 3.029910 -0.000080 0.160750 
#    y -0.000080 3.029080 0.000060 
#    z 0.160750 0.000060 3.144170 
# 
# 
# High freq. dielectric constant tensor:
#      x y z
#    x 1.611550 -0.000010 0.012240 
#    y -0.000010 1.628770 0.000010 
#    z 0.012240 0.000010 1.620320 
# 
# From -- ./inp_files/384511.got.cif
#   From: 2010.06.25/outbox.cif.g09.slc.cpg/sg12_193_cif.got.tgz:384511.got - 2010.06.28 00:19:55.
