data_PCOD8079554
_publ_section_title
;
Structure prediction by ZEFSAII (Michael W. Deem and Ramdas Pophale) SiO2 
 PCOD8079554
Probable space group: C 2/M
;
_chemical_formula_sum "Si O2"
_cell_formula_units_Z 36
_cell_length_a 5.032493
_cell_length_b 30.006927
_cell_length_c 13.242628
_cell_angle_alpha 90.000000
_cell_angle_beta 109.591988
_cell_angle_gamma 90.000000
_cell_volume 1883.986951
_symmetry_space_group_name_H-M "C 2/M"
_symmetry_group_IT_number 12
_symmetry_cell_setting 'monoclinic'
loop_
_space_group_symop_operation_xyz
x,y,z
-x,y,-z
-x,-y,-z
x,-y,z
1/2+x,1/2+y,z
1/2-x,1/2+y,-z
1/2-x,1/2-y,-z
1/2+x,1/2-y,z
loop_
_atom_site_type_symbol
_atom_site_label
_atom_site_fract_x
_atom_site_fract_y
_atom_site_fract_z
Si Si1 0.664728 0.586989 0.114544
Si Si2 0.663797 0.394238 0.615335
Si Si3 0.795853 0.642010 0.838123
Si Si4 0.500000 0.781272 0.000000
Si Si5 0.793422 0.550123 0.335112
O O1 0.483632 0.628207 0.136424
O O2 0.717932 0.550080 0.206472
O O3 0.960285 0.605797 0.111340
O O4 0.500000 0.564592 0.000000
O O5 0.500000 0.371677 0.500000
O O6 0.727622 0.356779 0.708722
O O7 0.478442 0.434208 0.637635
O O8 0.949430 0.416470 0.609623
O O9 0.901513 0.689506 0.891372
O O10 0.750000 0.750000 0.000000
O O11 0.871348 0.500000 0.377500
#
# Coordination Sequence:
#
# PCOD8079554 Si02
#       5
#     8   8   8   4   8
#     4  10  17  32  53  70 103 146 173 206 257 305
#     4  10  21  36  55  73  99 145 182 211 255 300
#     4  10  20  35  53  78 106 132 171 208 246 317
#     4  12  22  34  58  86 109 128 155 206 270 308
#     4  10  21  32  48  78 106 135 181 228 263 292
#
# _framework density 19.108412000000001
#
# number of rings (size 3 to 8) (size 9 to 14) (size 15 to 20)
#    0.000    1.778    2.222    2.667    0.000    3.111 
#    0.000    0.000    0.000    9.333    0.000    0.000 
#    0.000    0.000    0.000    0.000    0.000    0.000 
#
# Total GULP energy -223187.045443 kJ/mol
# GULP energy per Si atom -12399.280302 kJ/mol
# Density = 1.906492 g / cm^3
# Si number density = 19.108412 Si / 1000 Ang^3
#
#
#
# Elastic Constant Matrix: (Units=GPa)
#
#
# Indices 1 2 3 4 5 6 
#
# 1 91.3574 17.1024 14.1228 0.0000 1.6885 0.0000
# 2 17.1024 73.8508 32.6869 0.0000 0.9575 0.0000
# 3 14.1228 32.6869 141.4364 0.0000 27.6934 0.0000
# 4 0.0000 0.0000 0.0000 10.8952 0.0000 1.7648
# 5 1.6885 0.9575 27.6934 0.0000 29.0782 0.0000
# 6 0.0000 0.0000 0.0000 1.7648 0.0000 19.1959
#
#
#
# Elastic Compliance Matrix: (Units=1/GPa)
#
#
# Indices 1 2 3 4 5 6 
#
# 1 0.011487 -0.002400 -0.000587 0.000000 -0.000029 0.000000
# 2 -0.002400 0.015876 -0.004123 0.000000 0.003543 0.000000
# 3 -0.000587 -0.004123 0.009893 0.000000 -0.009252 0.000000
# 4 0.000000 0.000000 0.000000 0.093171 0.000000 -0.008566
# 5 -0.000029 0.003543 -0.009252 0.000000 0.043087 0.000000
# 6 0.000000 0.000000 0.000000 -0.008566 0.000000 0.052882
#
#
# Mechanical properties :
#
#
# Convention : Reuss Voigt Hill
#
# Bulk Modulus (GPa) = 43.41012 48.27432 45.84222
# Shear Modulus (GPa) = 20.13744 28.01601 24.07673
#
# Velocity S-wave (km/s) = 3.24983 3.83320 3.55351
# Velocity P-wave (km/s) = 6.07034 6.70145 6.39369
#
# Compressibility (1/GPa) = 0.02303611
#
# Stress axis : x y z
#
# Youngs Moduli (GPa) = 87.05841 62.98975 101.07755
#
# Poissons Ratio (x) = 0.15118 0.05929
# Poissons Ratio (y) = 0.20895 0.41675
# Poissons Ratio (z) = 0.05106 0.25971
#
# Static dielectric constant tensor:
#      x y z
#    x 3.698590 0.000000 0.063150 
#    y 0.000000 3.007670 0.000000 
#    z 0.063150 0.000000 3.978410 
# 
# 
# High freq. dielectric constant tensor:
#      x y z
#    x 1.769710 0.000000 0.003910 
#    y 0.000000 1.677960 0.000000 
#    z 0.003910 0.000000 1.760430 
# 
# From -- ./inp_files/115336.got.cif
#   From: 2010.06.25/outbox.cif.g09.slc.cpg/sg12_58_cif.got.tgz:115336.got - 2010.06.28 00:19:55.
