data_PCOD8079810
_publ_section_title
;
Structure prediction by ZEFSAII (Michael W. Deem and Ramdas Pophale) SiO2 
 PCOD8079810
Probable space group: C 2/M
;
_chemical_formula_sum "Si O2"
_cell_formula_units_Z 56
_cell_length_a 27.975260
_cell_length_b 30.226153
_cell_length_c 5.153382
_cell_angle_alpha 90.000000
_cell_angle_beta 96.486346
_cell_angle_gamma 90.000000
_cell_volume 4329.725909
_symmetry_space_group_name_H-M "C 2/M"
_symmetry_group_IT_number 12
_symmetry_cell_setting 'monoclinic'
loop_
_space_group_symop_operation_xyz
x,y,z
-x,y,-z
-x,-y,-z
x,-y,z
1/2+x,1/2+y,z
1/2-x,1/2+y,-z
1/2-x,1/2-y,-z
1/2+x,1/2-y,z
loop_
_atom_site_type_symbol
_atom_site_label
_atom_site_fract_x
_atom_site_fract_y
_atom_site_fract_z
Si Si1 0.445251 0.789649 0.885175
Si Si2 0.753606 0.808480 0.763303
Si Si3 0.840892 0.356384 0.296824
Si Si4 0.030889 0.550135 0.275813
Si Si5 0.103696 0.264550 0.649811
Si Si6 0.302020 0.283777 0.293077
Si Si7 0.110205 0.618669 0.177522
O O1 0.436072 0.765410 0.604371
O O2 0.423417 0.838488 0.856924
O O3 0.500000 0.795455 0.000000
O O4 0.421568 0.758531 0.088717
O O5 0.715947 0.848561 0.779524
O O6 0.725394 0.762553 0.734527
O O7 0.783183 0.814227 0.515978
O O8 0.791674 0.809832 0.021103
O O9 0.867648 0.309950 0.320064
O O10 0.848291 0.378403 0.580850
O O11 0.862961 0.387294 0.082343
O O12 0.046144 0.500000 0.353781
O O13 0.078813 0.577121 0.246022
O O14 0.000000 0.569861 0.500000
O O15 0.000000 0.552246 0.000000
O O16 0.141040 0.224346 0.632899
#
# Coordination Sequence:
#
# PCOD8079810 Si02
#       7
#     8   8   8   8   8   8   8
#     4  10  18  26  36  48  64  85 109 137 168 202
#     4   9  15  23  35  50  65  83 103 121 150 186
#     4   9  17  26  37  53  69  83 101 126 155 199
#     4  10  20  32  44  56  68  84 110 140 169 207
#     4   9  17  26  34  48  65  83 108 132 158 191
#     4   9  15  23  35  47  64  85 103 126 150 182
#     4  10  18  28  40  52  68  85 103 131 169 204
#
# _framework density 12.933845
#
# number of rings (size 3 to 8) (size 9 to 14) (size 15 to 20)
#    0.000    2.571    0.000    3.429    0.000    9.143 
#    0.000    0.000    0.000    0.000    0.000    0.000 
#    0.000    0.000    0.000    0.000    0.000    0.000 
#
# Total GULP energy -347051.123369 kJ/mol
# GULP energy per Si atom -12394.682977 kJ/mol
# Density = 1.290441 g / cm^3
# Si number density = 12.933845 Si / 1000 Ang^3
#
#
#
# Elastic Constant Matrix: (Units=GPa)
#
#
# Indices 1 2 3 4 5 6 
#
# 1 50.0183 26.4290 32.8235 0.0000 -5.7482 0.0000
# 2 26.4290 23.7331 17.4061 0.0000 -0.4236 0.0000
# 3 32.8235 17.4061 103.8896 0.0000 -4.7285 0.0000
# 4 0.0000 0.0000 0.0000 14.8669 0.0000 0.0764
# 5 -5.7482 -0.4236 -4.7285 0.0000 26.5994 0.0000
# 6 0.0000 0.0000 0.0000 0.0764 0.0000 19.9006
#
#
#
# Elastic Compliance Matrix: (Units=1/GPa)
#
#
# Indices 1 2 3 4 5 6 
#
# 1 0.056199 -0.056678 -0.007811 0.000000 0.009854 0.000000
# 2 -0.056678 0.105211 -0.000203 0.000000 -0.010609 0.000000
# 3 -0.007811 -0.000203 0.012149 0.000000 0.000468 0.000000
# 4 0.000000 0.000000 0.000000 0.067265 0.000000 -0.000258
# 5 0.009854 -0.010609 0.000468 0.000000 0.039639 0.000000
# 6 0.000000 0.000000 0.000000 -0.000258 0.000000 0.050251
#
#
# Mechanical properties :
#
#
# Convention : Reuss Voigt Hill
#
# Bulk Modulus (GPa) = 22.63778 36.77313 29.70546
# Shear Modulus (GPa) = 10.53028 19.00555 14.76792
#
# Velocity S-wave (km/s) = 2.85645 3.83749 3.38272
# Velocity P-wave (km/s) = 5.33103 6.93747 6.18661
#
# Compressibility (1/GPa) = 0.04417394
#
# Stress axis : x y z
#
# Youngs Moduli (GPa) = 17.79396 9.50475 82.31194
#
# Poissons Ratio (x) = 0.53871 0.64296
# Poissons Ratio (y) = 1.00852 0.01672
# Poissons Ratio (z) = 0.13899 0.00193
#
# Static dielectric constant tensor:
#      x y z
#    x 2.602470 0.000000 -0.124520 
#    y 0.000000 2.218270 0.000000 
#    z -0.124520 0.000000 2.907270 
# 
# 
# High freq. dielectric constant tensor:
#      x y z
#    x 1.481020 0.000000 -0.009290 
#    y 0.000000 1.418220 0.000000 
#    z -0.009290 0.000000 1.517510 
# 
# From -- ./inp_files/26327.got.cif
#   From: 2010.06.25/outbox.cif.g09.slc.cpg/sg12_14_cif.got.tgz:26327.got - 2010.06.28 00:19:55.
