data_PCOD8079500
_publ_section_title
;
Structure prediction by ZEFSAII (Michael W. Deem and Ramdas Pophale) SiO2 
 PCOD8079500
Probable space group: C 2/M
;
_chemical_formula_sum "Si O2"
_cell_formula_units_Z 44
_cell_length_a 16.356076
_cell_length_b 17.660121
_cell_length_c 8.586403
_cell_angle_alpha 90.000000
_cell_angle_beta 75.233737
_cell_angle_gamma 90.000000
_cell_volume 2398.273424
_symmetry_space_group_name_H-M "C 2/M"
_symmetry_group_IT_number 12
_symmetry_cell_setting 'monoclinic'
loop_
_space_group_symop_operation_xyz
x,y,z
-x,y,-z
-x,-y,-z
x,-y,z
1/2+x,1/2+y,z
1/2-x,1/2+y,-z
1/2-x,1/2-y,-z
1/2+x,1/2-y,z
loop_
_atom_site_type_symbol
_atom_site_label
_atom_site_fract_x
_atom_site_fract_y
_atom_site_fract_z
Si Si1 0.756441 0.913211 0.027343
Si Si2 0.000000 0.237311 0.500000
Si Si3 0.253164 0.674742 0.319531
Si Si4 0.095069 0.660266 0.986847
Si Si5 0.363273 0.288947 0.805220
Si Si6 0.134374 0.299845 0.634365
O O1 0.777702 0.896088 0.199037
O O2 0.775924 0.000000 0.982435
O O3 0.655910 0.896773 0.052044
O O4 0.819991 0.865075 0.888616
O O5 0.069125 0.189844 0.365306
O O6 0.041476 0.293323 0.606679
O O7 0.210838 0.737573 0.228086
O O8 0.190405 0.649955 0.488532
O O9 0.333428 0.712819 0.364407
O O10 0.137880 0.661082 0.797756
O O11 0.092968 0.742496 0.073129
O O12 0.000000 0.630311 0.000000
#
# Coordination Sequence:
#
# PCOD8079500 Si02
#       6
#     8   4   8   8   8   8
#     4  11  22  37  54  79 117 154 181 216 273 339
#     4  10  20  28  55  90 109 130 176 246 284 304
#     4   9  18  33  57  78 108 140 189 232 269 316
#     4  11  19  34  60  84 109 137 189 234 271 318
#     4  10  18  34  55  85 106 141 188 232 273 317
#     4  10  17  31  56  86 104 132 178 242 277 308
#
# _framework density 18.346533000000001
#
# number of rings (size 3 to 8) (size 9 to 14) (size 15 to 20)
#    0.000    1.818    5.455    1.091    0.000    0.364 
#    0.000    1.364    0.000    6.000    0.000    0.000 
#    0.000    0.000    0.000    0.000    0.000    0.000 
#
# Total GULP energy -272591.357215 kJ/mol
# GULP energy per Si atom -12390.516237 kJ/mol
# Density = 1.830477 g / cm^3
# Si number density = 18.346533 Si / 1000 Ang^3
#
#
#
# Elastic Constant Matrix: (Units=GPa)
#
#
# Indices 1 2 3 4 5 6 
#
# 1 53.4902 4.3044 7.7555 0.0000 3.6111 0.0000
# 2 4.3044 73.3603 31.7914 0.0000 -7.6538 0.0000
# 3 7.7555 31.7914 119.7105 0.0000 -3.9699 0.0000
# 4 0.0000 0.0000 0.0000 15.7804 0.0000 -0.2860
# 5 3.6111 -7.6538 -3.9699 0.0000 31.2267 0.0000
# 6 0.0000 0.0000 0.0000 -0.2860 0.0000 11.9810
#
#
#
# Elastic Compliance Matrix: (Units=1/GPa)
#
#
# Indices 1 2 3 4 5 6 
#
# 1 0.019099 -0.000922 -0.001078 0.000000 -0.002572 0.000000
# 2 -0.000922 0.015788 -0.004018 0.000000 0.003466 0.000000
# 3 -0.001078 -0.004018 0.009502 0.000000 0.000348 0.000000
# 4 0.000000 0.000000 0.000000 0.063397 0.000000 0.001514
# 5 -0.002572 0.003466 0.000348 0.000000 0.033215 0.000000
# 6 0.000000 0.000000 0.000000 0.001514 0.000000 0.083502
#
#
# Mechanical properties :
#
#
# Convention : Reuss Voigt Hill
#
# Bulk Modulus (GPa) = 30.90848 37.14038 34.02443
# Shear Modulus (GPa) = 20.21644 25.31161 22.76403
#
# Velocity S-wave (km/s) = 3.32312 3.71838 3.52629
# Velocity P-wave (km/s) = 5.62208 6.22277 5.93004
#
# Compressibility (1/GPa) = 0.03235358
#
# Stress axis : x y z
#
# Youngs Moduli (GPa) = 52.35855 63.33781 105.24136
#
# Poissons Ratio (x) = 0.05839 0.11343
# Poissons Ratio (y) = 0.04827 0.42289
# Poissons Ratio (z) = 0.05643 0.25451
#
# Static dielectric constant tensor:
#      x y z
#    x 3.583530 0.000000 0.068230 
#    y 0.000000 2.743850 0.000000 
#    z 0.068230 0.000000 3.733760 
# 
# 
# High freq. dielectric constant tensor:
#      x y z
#    x 1.719800 0.000000 0.006000 
#    y 0.000000 1.629160 0.000000 
#    z 0.006000 0.000000 1.740210 
# 
# From -- ./inp_files/74408.got.cif
#   From: 2010.06.25/outbox.cif.g09.slc.cpg/sg12_38_cif.got.tgz:74408.got - 2010.06.28 00:19:55.
