data_PCOD8079879
_publ_section_title
;
Structure prediction by ZEFSAII (Michael W. Deem and Ramdas Pophale) SiO2 
 PCOD8079879
Probable space group: C 2/M
;
_chemical_formula_sum "Si O2"
_cell_formula_units_Z 64
_cell_length_a 28.405965
_cell_length_b 39.295870
_cell_length_c 5.220445
_cell_angle_alpha 90.000000
_cell_angle_beta 100.590098
_cell_angle_gamma 90.000000
_cell_volume 5727.999535
_symmetry_space_group_name_H-M "C 2/M"
_symmetry_group_IT_number 12
_symmetry_cell_setting 'monoclinic'
loop_
_space_group_symop_operation_xyz
x,y,z
-x,y,-z
-x,-y,-z
x,-y,z
1/2+x,1/2+y,z
1/2-x,1/2+y,-z
1/2-x,1/2-y,-z
1/2+x,1/2-y,z
loop_
_atom_site_type_symbol
_atom_site_label
_atom_site_fract_x
_atom_site_fract_y
_atom_site_fract_z
Si Si1 0.302242 0.224579 0.802242
Si Si2 0.661437 0.333099 0.161431
Si Si3 0.895536 0.236911 0.895542
Si Si4 0.556196 0.717094 0.556187
Si Si5 0.943084 0.922098 0.443083
Si Si6 0.056932 0.038229 0.056933
Si Si7 0.245054 0.294854 0.745052
Si Si8 0.613189 0.352946 0.613180
O O1 0.359149 0.231288 0.859148
O O2 0.274085 0.259896 0.774081
O O3 0.288372 0.202846 0.538375
O O4 0.288373 0.202847 0.038376
O O5 0.634512 0.297453 0.134510
O O6 0.718378 0.326553 0.218373
O O7 0.647096 0.354292 0.398438
O O8 0.647097 0.354291 0.895736
O O9 0.928542 0.238649 0.677206
O O10 0.928539 0.238649 0.179900
O O11 0.500000 0.711236 0.500000
O O12 0.580527 0.680364 0.580516
O O13 0.924525 0.942288 0.673198
O O14 0.921970 0.884633 0.421972
O O15 0.000000 0.918570 0.500000
O O16 0.924525 0.942287 0.175846
O O17 0.077910 0.000000 0.077909
O O18 0.000000 0.036807 0.000000
#
# Coordination Sequence:
#
# PCOD8079879 Si02
#       8
#     8   8   8   8   8   8   8   8
#     4   9  15  23  35  48  60  72  93 121 145 172
#     4   9  17  26  35  47  64  81  96 116 142 172
#     4   9  17  26  35  47  60  76  98 124 148 169
#     4  10  18  27  36  45  61  83 103 121 145 176
#     4  10  18  27  39  52  64  80 101 121 145 176
#     4   9  17  28  40  52  64  76  93 121 153 180
#     4   9  15  23  35  48  60  76  93 113 145 176
#     4  10  18  27  36  48  65  82 101 121 139 169
#
# _framework density 11.173185
#
# number of rings (size 3 to 8) (size 9 to 14) (size 15 to 20)
#    0.000    2.625    0.000    3.375    0.000    7.500 
#    0.000    3.750    0.000    0.000    0.000    0.000 
#    0.000    0.000    0.000    0.000    0.000    0.000 
#
# Total GULP energy -396766.055095 kJ/mol
# GULP energy per Si atom -12398.939222 kJ/mol
# Density = 1.114775 g / cm^3
# Si number density = 11.173185 Si / 1000 Ang^3
#
#
#
# Elastic Constant Matrix: (Units=GPa)
#
#
# Indices 1 2 3 4 5 6 
#
# 1 47.2202 27.4634 38.6795 0.0000 -7.7715 0.0000
# 2 27.4634 29.4307 29.1631 0.0000 -0.5639 0.0000
# 3 38.6795 29.1631 115.0713 0.0000 -14.7336 0.0000
# 4 0.0000 0.0000 0.0000 12.6366 0.0000 -1.3449
# 5 -7.7715 -0.5639 -14.7336 0.0000 18.2948 0.0000
# 6 0.0000 0.0000 0.0000 -1.3449 0.0000 8.5819
#
#
#
# Elastic Compliance Matrix: (Units=1/GPa)
#
#
# Indices 1 2 3 4 5 6 
#
# 1 0.054745 -0.046513 -0.004259 0.000000 0.018392 0.000000
# 2 -0.046513 0.086189 -0.009364 0.000000 -0.024643 0.000000
# 3 -0.004259 -0.009364 0.013632 0.000000 0.008881 0.000000
# 4 0.000000 0.000000 0.000000 0.080478 0.000000 0.012612
# 5 0.018392 -0.024643 0.008881 0.000000 0.068866 0.000000
# 6 0.000000 0.000000 0.000000 0.012612 0.000000 0.118500
#
#
# Mechanical properties :
#
#
# Convention : Reuss Voigt Hill
#
# Bulk Modulus (GPa) = 29.15945 42.48158 35.82052
# Shear Modulus (GPa) = 9.02344 14.33040 11.67692
#
# Velocity S-wave (km/s) = 2.84491 3.58518 3.23628
# Velocity P-wave (km/s) = 6.07830 7.43247 6.78923
#
# Compressibility (1/GPa) = 0.03429420
#
# Stress axis : x y z
#
# Youngs Moduli (GPa) = 18.26646 11.60244 73.35689
#
# Poissons Ratio (x) = 0.53967 0.31241
# Poissons Ratio (y) = 0.84963 0.68690
# Poissons Ratio (z) = 0.07779 0.10864
#
# Static dielectric constant tensor:
#      x y z
#    x 2.278990 0.000000 -0.125960 
#    y 0.000000 2.096110 0.000000 
#    z -0.125960 0.000000 2.658790 
# 
# 
# High freq. dielectric constant tensor:
#      x y z
#    x 1.398700 0.000000 -0.014900 
#    y 0.000000 1.373250 0.000000 
#    z -0.014900 0.000000 1.443610 
# 
# From -- ./inp_files/29848.got.cif
#   From: 2010.06.25/outbox.cif.g09.slc.cpg/sg12_15_cif.got.tgz:29848.got - 2010.06.28 00:19:55.
