data_PCOD8079983
_publ_section_title
;
Structure prediction by ZEFSAII (Michael W. Deem and Ramdas Pophale) SiO2 
 PCOD8079983
Probable space group: C 2/M
;
_chemical_formula_sum "Si O2"
_cell_formula_units_Z 56
_cell_length_a 27.567229
_cell_length_b 9.046313
_cell_length_c 14.548773
_cell_angle_alpha 90.000000
_cell_angle_beta 75.643061
_cell_angle_gamma 90.000000
_cell_volume 3514.889530
_symmetry_space_group_name_H-M "C 2/M"
_symmetry_group_IT_number 12
_symmetry_cell_setting 'monoclinic'
loop_
_space_group_symop_operation_xyz
x,y,z
-x,y,-z
-x,-y,-z
x,-y,z
1/2+x,1/2+y,z
1/2-x,1/2+y,-z
1/2-x,1/2-y,-z
1/2+x,1/2-y,z
loop_
_atom_site_type_symbol
_atom_site_label
_atom_site_fract_x
_atom_site_fract_y
_atom_site_fract_z
Si Si1 0.291443 0.830900 0.101614
Si Si2 0.711747 0.327804 0.400705
Si Si3 0.814546 0.825408 0.781912
Si Si4 0.862293 0.825639 0.936973
Si Si5 0.624496 0.169141 0.787343
Si Si6 0.684698 0.327756 0.614207
Si Si7 0.943342 0.175189 0.040870
O O1 0.238098 0.763289 0.155387
O O2 0.326977 0.815489 0.172661
O O3 0.288193 0.000000 0.070367
O O4 0.312403 0.734996 0.008196
O O5 0.727252 0.500000 0.385885
O O6 0.678308 0.276476 0.327944
O O7 0.679237 0.299215 0.507311
O O8 0.762489 0.234993 0.376539
O O9 0.859471 0.774614 0.830272
O O10 0.810875 0.000000 0.786391
O O11 0.912144 0.768567 0.965665
O O12 0.860506 0.000000 0.945637
O O13 0.637866 0.247180 0.684485
O O14 0.609617 0.000000 0.775785
O O15 0.577483 0.249581 0.857133
O O16 0.682819 0.500000 0.639504
O O17 0.939447 0.000000 0.055194
O O18 0.000000 0.227709 0.000000
#
# Coordination Sequence:
#
# PCOD8079983 Si02
#       7
#     8   8   8   8   8   8   8
#     4   9  16  26  39  56  83 115 140 170 207 241
#     4   9  17  29  42  58  86 120 149 179 211 244
#     4   9  15  26  41  58  83 115 146 172 203 245
#     4   9  17  27  42  61  81 110 144 172 206 255
#     4  10  18  29  46  64  87 116 146 178 212 256
#     4  10  18  27  42  63  86 115 149 180 212 250
#     4   9  18  32  47  66  91 111 135 179 225 259
#
# _framework density 15.932221
#
# number of rings (size 3 to 8) (size 9 to 14) (size 15 to 20)
#    0.000    2.714    1.429    1.286    0.000    1.429 
#    0.000    0.714    0.000    0.000    0.000    1.000 
#    0.000    8.000    0.000    0.000    0.000    0.000 
#
# Total GULP energy -346991.806337 kJ/mol
# GULP energy per Si atom -12392.564512 kJ/mol
# Density = 1.589596 g / cm^3
# Si number density = 15.932221 Si / 1000 Ang^3
#
#
#
# Elastic Constant Matrix: (Units=GPa)
#
#
# Indices 1 2 3 4 5 6 
#
# 1 70.3569 21.7966 61.2727 0.0000 0.6246 0.0000
# 2 21.7966 42.6762 38.1491 0.0000 -3.5856 0.0000
# 3 61.2727 38.1491 131.2273 0.0000 9.9391 0.0000
# 4 0.0000 0.0000 0.0000 21.8567 0.0000 -3.2061
# 5 0.6246 -3.5856 9.9391 0.0000 24.9113 0.0000
# 6 0.0000 0.0000 0.0000 -3.2061 0.0000 13.1769
#
#
#
# Elastic Compliance Matrix: (Units=1/GPa)
#
#
# Indices 1 2 3 4 5 6 
#
# 1 0.024512 -0.002388 -0.011011 0.000000 0.003435 0.000000
# 2 -0.002388 0.033733 -0.009346 0.000000 0.008644 0.000000
# 3 -0.011011 -0.009346 0.016045 0.000000 -0.007471 0.000000
# 4 0.000000 0.000000 0.000000 0.047446 0.000000 0.011544
# 5 0.003435 0.008644 -0.007471 0.000000 0.044281 0.000000
# 6 0.000000 0.000000 0.000000 0.011544 0.000000 0.078699
#
#
# Mechanical properties :
#
#
# Convention : Reuss Voigt Hill
#
# Bulk Modulus (GPa) = 34.72332 54.07745 44.40038
# Shear Modulus (GPa) = 16.67750 20.19178 18.43464
#
# Velocity S-wave (km/s) = 3.23891 3.56386 3.40526
# Velocity P-wave (km/s) = 5.98574 7.13797 6.58710
#
# Compressibility (1/GPa) = 0.02879909
#
# Stress axis : x y z
#
# Youngs Moduli (GPa) = 40.79658 29.64471 62.32632
#
# Poissons Ratio (x) = 0.07078 0.68628
# Poissons Ratio (y) = 0.09741 0.58252
# Poissons Ratio (z) = 0.44922 0.27707
#
# Static dielectric constant tensor:
#      x y z
#    x 2.971710 0.000000 0.300670 
#    y 0.000000 2.960760 0.000000 
#    z 0.300670 0.000000 3.275540 
# 
# 
# High freq. dielectric constant tensor:
#      x y z
#    x 1.572580 0.000000 0.018430 
#    y 0.000000 1.603660 0.000000 
#    z 0.018430 0.000000 1.612100 
# 
# From -- ./inp_files/243276.got.cif
#   From: 2010.06.25/outbox.cif.g09.slc.cpg/sg12_122_cif.got.tgz:243276.got - 2010.06.28 00:19:55.
