data_PCOD8079282
_publ_section_title
;
Structure prediction by ZEFSAII (Michael W. Deem and Ramdas Pophale) SiO2 
 PCOD8079282
Probable space group: C 2/M
;
_chemical_formula_sum "Si O2"
_cell_formula_units_Z 64
_cell_length_a 13.344380
_cell_length_b 21.599362
_cell_length_c 19.824347
_cell_angle_alpha 90.000000
_cell_angle_beta 132.306935
_cell_angle_gamma 90.000000
_cell_volume 4225.766912
_symmetry_space_group_name_H-M "C 2/M"
_symmetry_group_IT_number 12
_symmetry_cell_setting 'monoclinic'
loop_
_space_group_symop_operation_xyz
x,y,z
-x,y,-z
-x,-y,-z
x,-y,z
1/2+x,1/2+y,z
1/2-x,1/2+y,-z
1/2-x,1/2-y,-z
1/2+x,1/2-y,z
loop_
_atom_site_type_symbol
_atom_site_label
_atom_site_fract_x
_atom_site_fract_y
_atom_site_fract_z
Si Si1 0.007607 0.664311 0.395131
Si Si2 0.604365 0.926851 0.104349
Si Si3 0.132603 0.645731 0.242572
Si Si4 0.782654 0.664303 0.395098
Si Si5 0.113215 0.071309 0.395204
Si Si6 0.030365 0.250004 0.280354
Si Si7 0.677254 0.071309 0.395243
Si Si8 0.147464 0.854250 0.757450
O O1 0.857928 0.654224 0.357904
O O2 0.007318 0.720180 0.342574
O O3 0.111294 0.684225 0.500018
O O4 0.052639 0.600097 0.380885
O O5 0.554919 0.899583 0.154531
O O6 0.754142 0.899559 0.154502
O O7 0.613231 0.000000 0.113186
O O8 0.500000 0.904972 0.000000
O O9 0.192659 0.606627 0.331829
O O10 0.262395 0.675509 0.262392
O O11 0.026849 0.698376 0.219627
O O12 0.709143 0.600085 0.380861
O O13 0.677808 0.720159 0.342501
O O14 0.182643 0.078966 0.499978
O O15 0.971007 0.106642 0.331792
O O16 0.089739 0.000000 0.366270
O O17 0.912373 0.198410 0.219603
O O18 0.642849 0.000000 0.366318
#
# Coordination Sequence:
#
# PCOD8079282 Si02
#       8
#     8   8   8   8   8   8   8   8
#     4   9  17  27  40  58  85 124 161 189 220 261
#     4   9  18  34  53  71  91 115 147 186 230 280
#     4   9  19  30  47  68  91 121 150 184 229 268
#     4   9  17  27  40  58  85 124 161 189 220 261
#     4   9  17  28  42  64  93 121 154 192 227 267
#     4  10  17  30  43  64  90 118 150 192 222 270
#     4   9  17  28  42  64  93 121 154 192 227 267
#     4   9  19  30  47  68  91 121 150 184 229 268
#
# _framework density 15.14518
#
# number of rings (size 3 to 8) (size 9 to 14) (size 15 to 20)
#    0.750    2.125    0.000    1.875    0.000    2.000 
#    0.000    4.375    0.000    0.000    0.000    0.000 
#    0.000    0.000    0.000   32.750    0.000    0.250 
#
# Total GULP energy -396546.071246 kJ/mol
# GULP energy per Si atom -12392.064726 kJ/mol
# Density = 1.511071 g / cm^3
# Si number density = 15.145180 Si / 1000 Ang^3
#
#
#
# Elastic Constant Matrix: (Units=GPa)
#
#
# Indices 1 2 3 4 5 6 
#
# 1 97.7150 37.6198 41.4091 0.0000 2.2968 0.0000
# 2 37.6198 88.7922 40.3012 0.0000 -0.1073 0.0000
# 3 41.4091 40.3012 73.4930 0.0000 -0.9970 0.0000
# 4 0.0000 0.0000 0.0000 18.2297 0.0000 0.3037
# 5 2.2968 -0.1073 -0.9970 0.0000 6.2492 0.0000
# 6 0.0000 0.0000 0.0000 0.3037 0.0000 24.0800
#
#
#
# Elastic Compliance Matrix: (Units=1/GPa)
#
#
# Indices 1 2 3 4 5 6 
#
# 1 0.014321 -0.003160 -0.006422 0.000000 -0.006342 0.000000
# 2 -0.003160 0.015699 -0.006823 0.000000 0.000343 0.000000
# 3 -0.006422 -0.006823 0.021043 0.000000 0.005600 0.000000
# 4 0.000000 0.000000 0.000000 0.054867 0.000000 -0.000692
# 5 -0.006342 0.000343 0.005600 0.000000 0.163250 0.000000
# 6 0.000000 0.000000 0.000000 -0.000692 0.000000 0.041537
#
#
# Mechanical properties :
#
#
# Convention : Reuss Voigt Hill
#
# Bulk Modulus (GPa) = 54.79132 55.40669 55.09901
# Shear Modulus (GPa) = 14.30157 19.08978 16.69567
#
# Velocity S-wave (km/s) = 3.07628 3.55414 3.32381
# Velocity P-wave (km/s) = 6.99099 7.31476 7.15470
#
# Compressibility (1/GPa) = 0.01825107
#
# Stress axis : x y z
#
# Youngs Moduli (GPa) = 69.82645 63.69971 47.52198
#
# Poissons Ratio (x) = 0.20132 0.30519
# Poissons Ratio (y) = 0.22068 0.32426
# Poissons Ratio (z) = 0.44844 0.43464
#
# Static dielectric constant tensor:
#      x y z
#    x 2.949130 0.000000 0.015120 
#    y 0.000000 2.953190 0.000000 
#    z 0.015120 0.000000 2.655050 
# 
# 
# High freq. dielectric constant tensor:
#      x y z
#    x 1.579000 0.000000 0.001830 
#    y 0.000000 1.587450 0.000000 
#    z 0.001830 0.000000 1.543430 
# 
# From -- ./inp_files/306636.got.cif
#   From: 2010.06.25/outbox.cif.g09.slc.cpg/sg12_154_cif.got.tgz:306636.got - 2010.06.28 00:19:55.
