data_PCOD8079729
_publ_section_title
;
Structure prediction by ZEFSAII (Michael W. Deem and Ramdas Pophale) SiO2 
 PCOD8079729
Probable space group: C 2/M
;
_chemical_formula_sum "Si O2"
_cell_formula_units_Z 48
_cell_length_a 23.007043
_cell_length_b 19.445700
_cell_length_c 17.288462
_cell_angle_alpha 90.000000
_cell_angle_beta 158.775399
_cell_angle_gamma 90.000000
_cell_volume 2800.135993
_symmetry_space_group_name_H-M "C 2/M"
_symmetry_group_IT_number 12
_symmetry_cell_setting 'monoclinic'
loop_
_space_group_symop_operation_xyz
x,y,z
-x,y,-z
-x,-y,-z
x,-y,z
1/2+x,1/2+y,z
1/2-x,1/2+y,-z
1/2-x,1/2-y,-z
1/2+x,1/2-y,z
loop_
_atom_site_type_symbol
_atom_site_label
_atom_site_fract_x
_atom_site_fract_y
_atom_site_fract_z
Si Si1 0.212313 0.248760 0.132525
Si Si2 0.500000 0.276295 0.000000
Si Si3 0.970738 0.580215 0.300678
Si Si4 0.704192 0.322994 0.904712
Si Si5 0.500000 0.148497 0.500000
Si Si6 0.757621 0.664415 0.428825
Si Si7 0.556476 0.301953 0.314130
O O1 0.290150 0.312860 0.181776
O O2 0.347384 0.195955 0.327915
O O3 0.112513 0.272296 0.085267
O O4 0.088294 0.209276 0.924489
O O5 0.609263 0.326796 0.186785
O O6 0.941812 0.500000 0.256890
O O7 0.972456 0.600470 0.392354
O O8 0.138495 0.598687 0.466822
O O9 0.824491 0.617078 0.076369
O O10 0.522748 0.341116 0.709816
O O11 0.750000 0.250000 0.000000
O O12 0.693330 0.655035 0.437863
O O13 0.872198 0.730671 0.566564
#
# Coordination Sequence:
#
# PCOD8079729 Si02
#       7
#     8   4   8   8   4   8   8
#     4  10  18  29  54  76 107 134 182 234 261 302
#     4  10  20  28  49  82 107 134 168 230 280 310
#     4  12  23  35  52  78 115 150 178 214 274 335
#     4  10  17  35  54  77  99 139 192 229 255 308
#     4  12  19  34  50  78 113 142 182 218 265 320
#     4  10  18  33  49  76 107 138 178 224 266 317
#     4   9  17  31  55  71 100 137 182 233 259 303
#
# _framework density 17.142023999999999
#
# number of rings (size 3 to 8) (size 9 to 14) (size 15 to 20)
#    0.000    1.667    8.333    0.250    0.000    0.000 
#    0.000    1.250    0.000    0.000    0.000    1.167 
#    0.000    0.000    0.000    0.000    0.000    0.000 
#
# Total GULP energy -297368.930465 kJ/mol
# GULP energy per Si atom -12390.372103 kJ/mol
# Density = 1.710301 g / cm^3
# Si number density = 17.142024 Si / 1000 Ang^3
#
#
#
# Elastic Constant Matrix: (Units=GPa)
#
#
# Indices 1 2 3 4 5 6 
#
# 1 164.8303 49.6869 24.5494 0.0000 36.2853 0.0003
# 2 49.6869 76.5814 36.8151 0.0000 0.1652 0.0000
# 3 24.5494 36.8151 65.5350 0.0001 17.2523 0.0008
# 4 0.0000 0.0000 0.0001 18.1844 0.0000 -4.9940
# 5 36.2853 0.1652 17.2523 0.0000 27.8942 0.0005
# 6 0.0003 0.0000 0.0008 -4.9940 0.0005 -88.4759
#
#
#
# Elastic Compliance Matrix: (Units=1/GPa)
#
#
# Indices 1 2 3 4 5 6 
#
# 1 0.013673 -0.012634 0.007929 0.000000 -0.022615 0.000000
# 2 -0.012634 0.030900 -0.020191 0.000000 0.028740 0.000000
# 3 0.007929 -0.020191 0.031433 0.000000 -0.029636 0.000000
# 4 0.000000 0.000000 0.000000 0.054153 0.000000 -0.003057
# 5 -0.022615 0.028740 -0.029636 0.000000 0.083427 0.000000
# 6 0.000000 0.000000 0.000000 -0.003057 0.000000 -0.011130
#
#
# Mechanical properties :
#
#
# Convention : Reuss Voigt Hill
#
# Bulk Modulus (GPa) = 38.14921 58.78325 48.46623
# Shear Modulus (GPa) = 19.15816 4.58024 11.86920
#
# Velocity S-wave (km/s) = 3.34670 1.63638 2.63421
# Velocity P-wave (km/s) = 6.10221 6.15927 6.13081
#
# Compressibility (1/GPa) = 0.02621286
#
# Stress axis : x y z
#
# Youngs Moduli (GPa) = 73.13844 32.36285 31.81342
#
# Poissons Ratio (x) = 0.40887 -0.25224
# Poissons Ratio (y) = 0.92402 0.64236
# Poissons Ratio (z) = -0.57990 0.65345
#
# Static dielectric constant tensor:
#      x y z
#    x 4.664980 0.000000 0.277270 
#    y 0.000000 2.633030 0.000000 
#    z 0.277270 0.000000 3.579390 
# 
# 
# High freq. dielectric constant tensor:
#      x y z
#    x 1.692200 0.000000 0.020530 
#    y 0.000000 1.581290 0.000000 
#    z 0.020530 0.000000 1.667210 
# 
# From -- ./inp_files/290596.got.cif
#   From: 2010.06.25/outbox.cif.g09.slc.cpg/sg12_146_cif.got.tgz:290596.got - 2010.06.28 00:19:55.
