data_PCOD8079065
_publ_section_title
;
Structure prediction by ZEFSAII (Michael W. Deem and Ramdas Pophale) SiO2 
 PCOD8079065
Probable space group: C 2/M
;
_chemical_formula_sum "Si O2"
_cell_formula_units_Z 56
_cell_length_a 17.185910
_cell_length_b 13.370776
_cell_length_c 12.904550
_cell_angle_alpha 90.000000
_cell_angle_beta 105.277804
_cell_angle_gamma 90.000000
_cell_volume 2860.527238
_symmetry_space_group_name_H-M "C 2/M"
_symmetry_group_IT_number 12
_symmetry_cell_setting 'monoclinic'
loop_
_space_group_symop_operation_xyz
x,y,z
-x,y,-z
-x,-y,-z
x,-y,z
1/2+x,1/2+y,z
1/2-x,1/2+y,-z
1/2-x,1/2-y,-z
1/2+x,1/2-y,z
loop_
_atom_site_type_symbol
_atom_site_label
_atom_site_fract_x
_atom_site_fract_y
_atom_site_fract_z
Si Si1 0.347067 0.615957 0.293460
Si Si2 0.325597 0.384049 0.515531
Si Si3 0.931823 0.612235 0.267133
Si Si4 0.667273 0.115009 0.965466
Si Si5 0.511694 0.711208 0.385243
Si Si6 0.733911 0.115479 0.678866
Si Si7 0.729157 0.746320 0.137936
O O1 0.328105 0.500000 0.268085
O O2 0.311724 0.654270 0.393306
O O3 0.443333 0.632853 0.324378
O O4 0.304285 0.679447 0.188915
O O5 0.347636 0.500000 0.515087
O O6 0.400260 0.333639 0.601424
O O7 0.246705 0.364717 0.560191
O O8 0.960046 0.500000 0.302105
O O9 0.908991 0.622082 0.137934
O O10 0.856655 0.642764 0.315817
O O11 0.005003 0.686394 0.316921
O O12 0.745514 0.161094 0.935839
O O13 0.683226 0.000000 0.002070
O O14 0.656936 0.183935 0.065807
O O15 0.500000 0.739374 0.500000
O O16 0.795616 0.185644 0.766780
O O17 0.752064 0.000000 0.712067
#
# Coordination Sequence:
#
# PCOD8079065 Si02
#       7
#     8   8   8   8   8   8   8
#     4  10  18  29  45  71 102 129 162 200 239 287
#     4   9  19  32  49  71 102 136 160 193 244 295
#     4   9  17  32  52  73  97 124 164 207 241 284
#     4   9  17  29  47  72  96 121 157 204 252 288
#     4  10  18  31  47  72  97 133 167 195 237 285
#     4   9  17  32  51  72  98 130 162 198 246 292
#     4  10  17  28  48  74  97 121 160 205 249 283
#
# _framework density 19.576812
#
# number of rings (size 3 to 8) (size 9 to 14) (size 15 to 20)
#    0.000    2.571    2.857    2.143    0.000    2.571 
#    0.000    0.000    0.000    2.571    0.000    4.000 
#    0.000    0.000    0.000    0.000    0.000    0.000 
#
# Total GULP energy -346956.105410 kJ/mol
# GULP energy per Si atom -12391.289479 kJ/mol
# Density = 1.953225 g / cm^3
# Si number density = 19.576812 Si / 1000 Ang^3
#
#
#
# Elastic Constant Matrix: (Units=GPa)
#
#
# Indices 1 2 3 4 5 6 
#
# 1 22.7999 -1.1536 6.9635 0.0000 2.2962 0.0000
# 2 -1.1536 65.1445 17.5215 0.0000 1.3609 0.0000
# 3 6.9635 17.5215 55.2658 0.0000 3.6825 0.0000
# 4 0.0000 0.0000 0.0000 32.0506 0.0000 1.5021
# 5 2.2962 1.3609 3.6825 0.0000 17.8892 0.0000
# 6 0.0000 0.0000 0.0000 1.5021 0.0000 20.2355
#
#
#
# Elastic Compliance Matrix: (Units=1/GPa)
#
#
# Indices 1 2 3 4 5 6 
#
# 1 0.046424 0.002634 -0.006362 0.000000 -0.004850 0.000000
# 2 0.002634 0.016932 -0.005669 0.000000 -0.000459 0.000000
# 3 -0.006362 -0.005669 0.020897 0.000000 -0.003054 0.000000
# 4 0.000000 0.000000 0.000000 0.031310 0.000000 -0.002324
# 5 -0.004850 -0.000459 -0.003054 0.000000 0.057186 0.000000
# 6 0.000000 0.000000 0.000000 -0.002324 0.000000 0.049591
#
#
# Mechanical properties :
#
#
# Convention : Reuss Voigt Hill
#
# Bulk Modulus (GPa) = 15.27653 21.09702 18.18677
# Shear Modulus (GPa) = 19.01489 22.02698 20.52094
#
# Velocity S-wave (km/s) = 3.11994 3.35797 3.24115
# Velocity P-wave (km/s) = 4.56060 5.08277 4.82875
#
# Compressibility (1/GPa) = 0.06545989
#
# Stress axis : x y z
#
# Youngs Moduli (GPa) = 21.54038 59.06124 47.85412
#
# Poissons Ratio (x) = -0.15559 0.30443
# Poissons Ratio (y) = -0.05675 0.27130
# Poissons Ratio (z) = 0.13703 0.33484
#
# Static dielectric constant tensor:
#      x y z
#    x 2.995950 0.000000 -0.035130 
#    y 0.000000 3.846110 0.000000 
#    z -0.035130 0.000000 3.789750 
# 
# 
# High freq. dielectric constant tensor:
#      x y z
#    x 1.689660 0.000000 0.001160 
#    y 0.000000 1.790450 0.000000 
#    z 0.001160 0.000000 1.763570 
# 
# From -- ./inp_files/156173.got.cif
#   From: 2010.06.25/outbox.cif.g09.slc.cpg/sg12_79_cif.got.tgz:156173.got - 2010.06.28 00:19:55.
