data_PCOD8079112
_publ_section_title
;
Structure prediction by ZEFSAII (Michael W. Deem and Ramdas Pophale) SiO2 
 PCOD8079112
Probable space group: C 2/M
;
_chemical_formula_sum "Si O2"
_cell_formula_units_Z 56
_cell_length_a 17.317387
_cell_length_b 16.671254
_cell_length_c 12.105675
_cell_angle_alpha 90.000000
_cell_angle_beta 125.931227
_cell_angle_gamma 90.000000
_cell_volume 2829.929051
_symmetry_space_group_name_H-M "C 2/M"
_symmetry_group_IT_number 12
_symmetry_cell_setting 'monoclinic'
loop_
_space_group_symop_operation_xyz
x,y,z
-x,y,-z
-x,-y,-z
x,-y,z
1/2+x,1/2+y,z
1/2-x,1/2+y,-z
1/2-x,1/2-y,-z
1/2+x,1/2-y,z
loop_
_atom_site_type_symbol
_atom_site_label
_atom_site_fract_x
_atom_site_fract_y
_atom_site_fract_z
Si Si1 0.107267 0.405685 0.595375
Si Si2 0.709272 0.592924 0.612551
Si Si3 0.049122 0.828867 0.335210
Si Si4 0.654811 0.405939 0.810448
Si Si5 0.904542 0.089566 0.851446
Si Si6 0.752801 0.094075 0.890500
Si Si7 0.167096 0.314785 0.437107
O O1 0.111248 0.500000 0.574241
O O2 0.147946 0.386134 0.753067
O O3 0.170879 0.362865 0.555500
O O4 0.000000 0.372963 0.500000
O O5 0.699677 0.500000 0.577329
O O6 0.614645 0.635703 0.487265
O O7 0.712213 0.608993 0.746183
O O8 0.809067 0.624362 0.643561
O O9 0.085665 0.860188 0.249826
O O10 0.065439 0.731928 0.342921
O O11 0.940047 0.851781 0.266473
O O12 0.625931 0.500000 0.799466
O O13 0.726087 0.374945 0.967718
O O14 0.826784 0.131765 0.864962
O O15 0.872752 0.000000 0.790044
O O16 0.000000 0.086636 0.000000
O O17 0.771416 0.000000 0.909207
O O18 0.250000 0.250000 0.500000
#
# Coordination Sequence:
#
# PCOD8079112 Si02
#       7
#     8   8   8   8   8   8   8
#     4  10  21  39  65  87 106 143 200 253 284 319
#     4  10  20  34  54  79 113 154 195 229 267 334
#     4  11  20  32  52  81 119 150 182 228 286 347
#     4  10  19  32  55  87 117 145 178 225 289 350
#     4  10  17  28  52  83 117 151 183 228 281 339
#     4   9  17  31  54  85 114 140 180 238 292 331
#     4  10  22  36  55  78 111 152 189 231 282 334
#
# _framework density 19.788482999999999
#
# number of rings (size 3 to 8) (size 9 to 14) (size 15 to 20)
#    0.000    2.000    1.429    3.857    0.000    4.571 
#    0.000    0.000    3.143    5.143    0.000    5.000 
#    0.000    0.000    0.000    0.000    0.000    0.000 
#
# Total GULP energy -346999.102172 kJ/mol
# GULP energy per Si atom -12392.825078 kJ/mol
# Density = 1.974344 g / cm^3
# Si number density = 19.788483 Si / 1000 Ang^3
#
#
#
# Elastic Constant Matrix: (Units=GPa)
#
#
# Indices 1 2 3 4 5 6 
#
# 1 91.6073 38.1287 60.2980 0.0000 -9.2241 0.0000
# 2 38.1287 45.8572 41.4281 0.0000 -1.6803 0.0000
# 3 60.2980 41.4281 132.7773 0.0000 -15.2244 0.0000
# 4 0.0000 0.0000 0.0000 8.0030 0.0000 6.4721
# 5 -9.2241 -1.6803 -15.2244 0.0000 36.9898 0.0000
# 6 0.0000 0.0000 0.0000 6.4721 0.0000 29.6897
#
#
#
# Elastic Compliance Matrix: (Units=1/GPa)
#
#
# Indices 1 2 3 4 5 6 
#
# 1 0.019080 -0.011400 -0.004850 0.000000 0.002244 0.000000
# 2 -0.011400 0.037426 -0.006960 0.000000 -0.004007 0.000000
# 3 -0.004850 -0.006960 0.012312 0.000000 0.003542 0.000000
# 4 0.000000 0.000000 0.000000 0.151696 0.000000 -0.033068
# 5 0.002244 -0.004007 0.003542 0.000000 0.028870 0.000000
# 6 0.000000 0.000000 0.000000 -0.033068 0.000000 0.040890
#
#
# Mechanical properties :
#
#
# Convention : Reuss Voigt Hill
#
# Bulk Modulus (GPa) = 44.64835 61.10571 52.87703
# Shear Modulus (GPa) = 14.52813 23.62896 19.07854
#
# Velocity S-wave (km/s) = 2.71250 3.45929 3.10840
# Velocity P-wave (km/s) = 5.69403 6.84851 6.29778
#
# Compressibility (1/GPa) = 0.02239725
#
# Stress axis : x y z
#
# Youngs Moduli (GPa) = 52.41206 26.71916 81.22282
#
# Poissons Ratio (x) = 0.30459 0.39397
# Poissons Ratio (y) = 0.59749 0.56531
# Poissons Ratio (z) = 0.25422 0.18596
#
# Static dielectric constant tensor:
#      x y z
#    x 3.700200 0.000000 -0.077930 
#    y 0.000000 3.749040 0.000000 
#    z -0.077930 0.000000 3.663730 
# 
# 
# High freq. dielectric constant tensor:
#      x y z
#    x 1.766410 0.000000 -0.014040 
#    y 0.000000 1.751900 0.000000 
#    z -0.014040 0.000000 1.769000 
# 
# From -- ./inp_files/146228.got.cif
#   From: 2010.06.25/outbox.cif.g09.slc.cpg/sg12_74_cif.got.tgz:146228.got - 2010.06.28 00:19:55.
