data_PCOD8079265
_publ_section_title
;
Structure prediction by ZEFSAII (Michael W. Deem and Ramdas Pophale) SiO2 
 PCOD8079265
Probable space group: C 2/M
;
_chemical_formula_sum "Si O2"
_cell_formula_units_Z 56
_cell_length_a 9.527030
_cell_length_b 26.020069
_cell_length_c 19.069520
_cell_angle_alpha 90.000000
_cell_angle_beta 139.256008
_cell_angle_gamma 90.000000
_cell_volume 3085.362879
_symmetry_space_group_name_H-M "C 2/M"
_symmetry_group_IT_number 12
_symmetry_cell_setting 'monoclinic'
loop_
_space_group_symop_operation_xyz
x,y,z
-x,y,-z
-x,-y,-z
x,-y,z
1/2+x,1/2+y,z
1/2-x,1/2+y,-z
1/2-x,1/2-y,-z
1/2+x,1/2-y,z
loop_
_atom_site_type_symbol
_atom_site_label
_atom_site_fract_x
_atom_site_fract_y
_atom_site_fract_z
Si Si1 0.808842 0.362164 0.374750
Si Si2 0.988945 0.647923 0.165739
Si Si3 0.121431 0.811041 0.759147
Si Si4 0.771740 0.943090 0.889155
Si Si5 0.571637 0.558046 0.200479
Si Si6 0.354377 0.656937 0.078601
Si Si7 0.820632 0.305390 0.239094
O O1 0.627713 0.326800 0.343199
O O2 0.700935 0.416920 0.314201
O O3 0.899426 0.333614 0.339807
O O4 0.000000 0.372943 0.500000
O O5 0.927457 0.588994 0.156970
O O6 0.969409 0.680405 0.229557
O O7 0.232713 0.649790 0.230858
O O8 0.834261 0.670363 0.046434
O O9 0.191050 0.812115 0.867013
O O10 0.163816 0.755210 0.742855
O O11 0.762435 0.944350 0.801654
O O12 0.753593 0.000000 0.915128
O O13 0.000000 0.918206 0.000000
O O14 0.491665 0.500000 0.188744
O O15 0.371804 0.595597 0.104000
O O16 0.578995 0.676085 0.130402
#
# Coordination Sequence:
#
# PCOD8079265 Si02
#       7
#     8   8   8   8   8   8   8
#     4  10  22  41  57  76 101 132 181 232 277 321
#     4  12  18  32  53  80 113 143 178 211 253 303
#     4  10  23  35  50  78 111 140 173 224 267 304
#     4  10  17  29  53  82 108 142 179 206 246 312
#     4   9  17  33  56  79 102 134 179 213 248 314
#     4  10  20  32  49  82 115 147 174 202 246 316
#     4  10  20  36  54  75 105 146 184 209 253 319
#
# _framework density 18.150214999999999
#
# number of rings (size 3 to 8) (size 9 to 14) (size 15 to 20)
#    0.000    2.143    4.286    2.571    0.000    4.286 
#    0.000    3.571    0.000    4.286    0.000    2.000 
#    0.000    0.000    0.000    0.000    0.000    0.000 
#
# Total GULP energy -347121.197732 kJ/mol
# GULP energy per Si atom -12397.185633 kJ/mol
# Density = 1.810890 g / cm^3
# Si number density = 18.150215 Si / 1000 Ang^3
#
#
#
# Elastic Constant Matrix: (Units=GPa)
#
#
# Indices 1 2 3 4 5 6 
#
# 1 81.2593 12.1627 22.4010 0.0000 -1.7272 0.0000
# 2 12.1627 102.3151 17.4083 0.0001 2.1476 0.0000
# 3 22.4010 17.4083 81.8301 0.0002 -2.1846 0.0000
# 4 0.0000 0.0001 0.0002 12.7107 0.0000 -5.0731
# 5 -1.7272 2.1476 -2.1846 0.0000 15.9918 0.0000
# 6 0.0000 0.0000 0.0000 -5.0731 0.0000 20.9238
#
#
#
# Elastic Compliance Matrix: (Units=1/GPa)
#
#
# Indices 1 2 3 4 5 6 
#
# 1 0.013430 -0.001037 -0.003426 0.000000 0.001122 0.000000
# 2 -0.001037 0.010265 -0.001947 0.000000 -0.001756 0.000000
# 3 -0.003426 -0.001947 0.013619 0.000000 0.001752 0.000000
# 4 0.000000 0.000000 0.000000 0.087103 0.000000 0.021119
# 5 0.001122 -0.001756 0.001752 0.000000 0.063128 0.000000
# 6 0.000000 0.000000 0.000000 0.021119 0.000000 0.052913
#
#
# Mechanical properties :
#
#
# Convention : Reuss Voigt Hill
#
# Bulk Modulus (GPa) = 40.82520 41.03872 40.93196
# Shear Modulus (GPa) = 19.12469 24.15411 21.63940
#
# Velocity S-wave (km/s) = 3.24958 3.65196 3.45663
# Velocity P-wave (km/s) = 6.05157 6.35941 6.20740
#
# Compressibility (1/GPa) = 0.02449467
#
# Stress axis : x y z
#
# Youngs Moduli (GPa) = 74.46148 97.41731 73.42592
#
# Poissons Ratio (x) = 0.10103 0.25154
# Poissons Ratio (y) = 0.07723 0.14294
# Poissons Ratio (z) = 0.25509 0.18965
#
# Static dielectric constant tensor:
#      x y z
#    x 3.277360 0.000000 -0.170580 
#    y 0.000000 3.506180 0.000000 
#    z -0.170580 0.000000 2.999860 
# 
# 
# High freq. dielectric constant tensor:
#      x y z
#    x 1.694140 0.000000 -0.020440 
#    y 0.000000 1.708470 0.000000 
#    z -0.020440 0.000000 1.664860 
# 
# From -- ./inp_files/259582.got.cif
#   From: 2010.06.25/outbox.cif.g09.slc.cpg/sg12_130_cif.got.tgz:259582.got - 2010.06.28 00:19:55.
