data_PCOD8079517
_publ_section_title
;
Structure prediction by ZEFSAII (Michael W. Deem and Ramdas Pophale) SiO2 
 PCOD8079517
Probable space group: C 2/M
;
_chemical_formula_sum "Si O2"
_cell_formula_units_Z 48
_cell_length_a 21.286591
_cell_length_b 13.256235
_cell_length_c 25.813528
_cell_angle_alpha 90.000000
_cell_angle_beta 21.774621
_cell_angle_gamma 90.000000
_cell_volume 2702.070613
_symmetry_space_group_name_H-M "C 2/M"
_symmetry_group_IT_number 12
_symmetry_cell_setting 'monoclinic'
loop_
_space_group_symop_operation_xyz
x,y,z
-x,y,-z
-x,-y,-z
x,-y,z
1/2+x,1/2+y,z
1/2-x,1/2+y,-z
1/2-x,1/2-y,-z
1/2+x,1/2-y,z
loop_
_atom_site_type_symbol
_atom_site_label
_atom_site_fract_x
_atom_site_fract_y
_atom_site_fract_z
Si Si1 0.082112 0.200724 0.106358
Si Si2 0.579625 0.109692 0.754335
Si Si3 0.153827 0.119085 0.624128
Si Si4 0.026641 0.887478 0.537524
Si Si5 0.523568 0.254617 0.629961
Si Si6 0.659799 0.112533 0.159362
O O1 0.971757 0.296310 0.169361
O O2 0.978958 0.136512 0.227562
O O3 0.250000 0.250000 0.000000
O O4 0.149678 0.128587 0.008935
O O5 0.778591 0.108735 0.594460
O O6 0.492161 0.130776 0.765675
O O7 0.518341 0.000000 0.823057
O O8 0.325184 0.180912 0.504307
O O9 0.080102 0.158426 0.626454
O O10 0.192383 0.000000 0.589930
O O11 0.940988 0.810541 0.643383
O O12 0.000000 0.845646 0.500000
O O13 0.946611 0.000000 0.602441
O O14 0.371458 0.189066 0.769984
O O15 0.649948 0.000000 0.188713
#
# Coordination Sequence:
#
# PCOD8079517 Si02
#       6
#     8   8   8   8   8   8
#     4  10  17  32  45  76 108 138 163 188 246 311
#     4   9  16  30  50  73 103 132 163 201 245 295
#     4  11  20  30  50  76 104 133 165 200 246 307
#     4  10  20  34  53  74  97 132 173 210 251 293
#     4  11  19  33  48  75 105 127 164 209 259 288
#     4  10  19  31  51  78 109 135 158 198 256 310
#
# _framework density 17.764154999999999
#
# number of rings (size 3 to 8) (size 9 to 14) (size 15 to 20)
#    0.000    1.833    5.000    2.500    0.000    2.000 
#    0.000    0.000    0.000    3.000    0.000    4.667 
#    0.000    0.000    0.000    0.000    0.000    0.000 
#
# Total GULP energy -297399.067574 kJ/mol
# GULP energy per Si atom -12391.627816 kJ/mol
# Density = 1.772372 g / cm^3
# Si number density = 17.764155 Si / 1000 Ang^3
#
#
#
# Elastic Constant Matrix: (Units=GPa)
#
#
# Indices 1 2 3 4 5 6 
#
# 1 76.6727 54.7564 28.6701 -0.0035 25.6719 -0.0035
# 2 54.7564 126.9107 32.7443 0.0203 18.4836 0.0063
# 3 28.6701 32.7443 76.4053 -0.0030 27.9686 0.0130
# 4 -0.0035 0.0203 -0.0030 26.7431 0.0062 6.8442
# 5 25.6719 18.4836 27.9686 0.0062 18.7105 -0.0069
# 6 -0.0035 0.0063 0.0130 6.8442 -0.0069 21.3892
#
#
#
# Elastic Compliance Matrix: (Units=1/GPa)
#
#
# Indices 1 2 3 4 5 6 
#
# 1 0.033425 -0.009551 0.010788 0.000032 -0.052551 -0.000025
# 2 -0.009551 0.011997 -0.004453 -0.000014 0.007909 0.000005
# 3 0.010788 -0.004453 0.032588 0.000034 -0.059115 -0.000047
# 4 0.000032 -0.000014 0.000034 0.040728 -0.000099 -0.013032
# 5 -0.052551 0.007909 -0.059115 -0.000099 0.206102 0.000123
# 6 -0.000025 0.000005 -0.000047 -0.013032 0.000123 0.050923
#
#
# Mechanical properties :
#
#
# Convention : Reuss Voigt Hill
#
# Bulk Modulus (GPa) = 13.97081 56.92559 35.44820
# Shear Modulus (GPa) = 12.31361 24.28976 18.30168
#
# Velocity S-wave (km/s) = 2.63567 3.70178 3.21325
# Velocity P-wave (km/s) = 4.14054 7.09828 5.81075
#
# Compressibility (1/GPa) = 0.07157780
#
# Stress axis : x y z
#
# Youngs Moduli (GPa) = 29.91769 83.35112 30.68632
#
# Poissons Ratio (x) = 0.79609 -0.33103
# Poissons Ratio (y) = 0.28575 0.13664
# Poissons Ratio (z) = -0.32274 0.37114
#
# Static dielectric constant tensor:
#      x y z
#    x 2.873570 0.000010 0.239100 
#    y 0.000010 3.911170 0.000150 
#    z 0.239100 0.000150 3.524860 
# 
# 
# High freq. dielectric constant tensor:
#      x y z
#    x 1.624690 0.000000 0.021700 
#    y 0.000000 1.711500 0.000010 
#    z 0.021700 0.000010 1.676640 
# 
# From -- ./inp_files/382772.got.cif
#   From: 2010.06.25/outbox.cif.g09.slc.cpg/sg12_192_cif.got.tgz:382772.got - 2010.06.28 00:19:55.
