data_PCOD8079164
_publ_section_title
;
Structure prediction by ZEFSAII (Michael W. Deem and Ramdas Pophale) SiO2 
 PCOD8079164
Probable space group: C 2/M
;
_chemical_formula_sum "Si O2"
_cell_formula_units_Z 64
_cell_length_a 29.257379
_cell_length_b 13.600603
_cell_length_c 30.943026
_cell_angle_alpha 90.000000
_cell_angle_beta 19.585514
_cell_angle_gamma 90.000000
_cell_volume 4127.410921
_symmetry_space_group_name_H-M "C 2/M"
_symmetry_group_IT_number 12
_symmetry_cell_setting 'monoclinic'
loop_
_space_group_symop_operation_xyz
x,y,z
-x,y,-z
-x,-y,-z
x,-y,z
1/2+x,1/2+y,z
1/2-x,1/2+y,-z
1/2-x,1/2-y,-z
1/2+x,1/2-y,z
loop_
_atom_site_type_symbol
_atom_site_label
_atom_site_fract_x
_atom_site_fract_y
_atom_site_fract_z
Si Si1 0.380606 0.384172 0.160824
Si Si2 0.312666 0.383317 0.129061
Si Si3 0.868081 0.884693 0.935116
Si Si4 0.179665 0.107861 0.544048
Si Si5 0.347748 0.808024 0.470591
Si Si6 0.341946 0.382995 0.289679
Si Si7 0.368446 0.609974 0.839336
Si Si8 0.335194 0.795896 0.816593
O O1 0.385887 0.500000 0.156525
O O2 0.290182 0.353349 0.199600
O O3 0.320520 0.344480 0.259507
O O4 0.536026 0.349459 0.018330
O O5 0.287048 0.500000 0.143777
O O6 0.214034 0.315832 0.188210
O O7 0.823494 0.849241 0.926690
O O8 0.014532 0.840008 0.819640
O O9 0.888214 0.000000 0.915017
O O10 0.749020 0.861782 0.074908
O O11 0.284155 0.127614 0.489301
O O12 0.191270 0.192402 0.497694
O O13 0.031022 0.108831 0.697347
O O14 0.210764 0.000000 0.495961
O O15 0.289206 0.843173 0.568292
O O16 0.507697 0.826442 0.323418
O O17 0.342863 0.500000 0.290743
O O18 0.311606 0.500000 0.880386
O O19 0.315208 0.682034 0.848894
#
# Coordination Sequence:
#
# PCOD8079164 Si02
#       8
#     8   8   8   8   8   8   8   8
#     4   8  15  28  47  66  87 119 152 177 209 270
#     4   9  16  28  45  69  94 113 144 184 222 265
#     4  10  18  29  46  66  92 122 150 180 219 265
#     4   9  17  32  47  61  87 124 158 183 214 265
#     4  10  20  29  45  68  89 118 154 187 222 260
#     4  10  17  29  48  67  89 123 156 177 210 268
#     4   9  18  32  47  63  87 123 159 186 213 260
#     4  11  20  29  45  69  94 116 145 192 232 256
#
# _framework density 15.506088
#
# number of rings (size 3 to 8) (size 9 to 14) (size 15 to 20)
#    0.000    2.500    2.500    1.875    0.000    2.000 
#    0.000    0.625    0.000    2.250    0.000    2.625 
#    0.000    4.000    0.000    0.000    0.000    0.000 
#
# Total GULP energy -396539.314884 kJ/mol
# GULP energy per Si atom -12391.853590 kJ/mol
# Density = 1.547080 g / cm^3
# Si number density = 15.506088 Si / 1000 Ang^3
#
#
#
# Elastic Constant Matrix: (Units=GPa)
#
#
# Indices 1 2 3 4 5 6 
#
# 1 106.5138 42.3694 32.4912 -0.0021 9.9573 -0.0033
# 2 42.3694 47.5901 14.9650 -0.0374 0.4062 0.0129
# 3 32.4912 14.9650 62.0135 -0.0212 14.8375 0.0058
# 4 -0.0021 -0.0374 -0.0212 18.0533 0.0002 0.5103
# 5 9.9573 0.4062 14.8375 0.0002 21.4338 0.0014
# 6 -0.0033 0.0129 0.0058 0.5103 0.0014 20.1613
#
#
#
# Elastic Compliance Matrix: (Units=1/GPa)
#
#
# Indices 1 2 3 4 5 6 
#
# 1 0.016355 -0.013153 -0.004359 -0.000031 -0.004331 0.000013
# 2 -0.013153 0.033612 -0.003031 0.000065 0.007572 -0.000025
# 3 -0.004359 -0.003031 0.022343 0.000020 -0.013385 -0.000005
# 4 -0.000031 0.000065 0.000020 0.055431 -0.000001 -0.001403
# 5 -0.004331 0.007572 -0.013385 -0.000001 0.057789 -0.000006
# 6 0.000013 -0.000025 -0.000005 -0.001403 -0.000006 0.049635
#
#
# Mechanical properties :
#
#
# Convention : Reuss Voigt Hill
#
# Bulk Modulus (GPa) = 32.02703 43.97431 38.00067
# Shear Modulus (GPa) = 17.44223 20.34914 18.89568
#
# Velocity S-wave (km/s) = 3.35754 3.62654 3.49463
# Velocity P-wave (km/s) = 5.97746 6.77914 6.39088
#
# Compressibility (1/GPa) = 0.03122362
#
# Stress axis : x y z
#
# Youngs Moduli (GPa) = 61.14282 29.75141 44.75658
#
# Poissons Ratio (x) = 0.39133 0.19508
# Poissons Ratio (y) = 0.80424 0.13567
# Poissons Ratio (z) = 0.26650 0.09018
#
# Static dielectric constant tensor:
#      x y z
#    x 3.178810 -0.000010 0.199390 
#    y -0.000010 2.889370 0.000050 
#    z 0.199390 0.000050 2.997540 
# 
# 
# High freq. dielectric constant tensor:
#      x y z
#    x 1.586980 0.000000 0.006670 
#    y 0.000000 1.565620 0.000000 
#    z 0.006670 0.000000 1.587550 
# 
# From -- ./inp_files/385203.got.cif
#   From: 2010.06.25/outbox.cif.g09.slc.cpg/sg12_193_cif.got.tgz:385203.got - 2010.06.28 00:19:55.
