data_PCOD8079380
_publ_section_title
;
Structure prediction by ZEFSAII (Michael W. Deem and Ramdas Pophale) SiO2 
 PCOD8079380
Probable space group: C 2/M
;
_chemical_formula_sum "Si O2"
_cell_formula_units_Z 52
_cell_length_a 8.763688
_cell_length_b 28.178083
_cell_length_c 11.184882
_cell_angle_alpha 90.000000
_cell_angle_beta 79.973886
_cell_angle_gamma 90.000000
_cell_volume 2719.858237
_symmetry_space_group_name_H-M "C 2/M"
_symmetry_group_IT_number 12
_symmetry_cell_setting 'monoclinic'
loop_
_space_group_symop_operation_xyz
x,y,z
-x,y,-z
-x,-y,-z
x,-y,z
1/2+x,1/2+y,z
1/2-x,1/2+y,-z
1/2-x,1/2-y,-z
1/2+x,1/2-y,z
loop_
_atom_site_type_symbol
_atom_site_label
_atom_site_fract_x
_atom_site_fract_y
_atom_site_fract_z
Si Si1 0.185343 0.199281 0.473065
Si Si2 0.201780 0.053720 0.241730
Si Si3 0.271307 0.052537 0.959977
Si Si4 0.860291 0.946340 0.267075
Si Si5 0.625506 0.147517 0.744651
Si Si6 0.131516 0.371070 0.391616
Si Si7 0.000000 0.627656 0.000000
O O1 0.250000 0.250000 0.500000
O O2 0.250599 0.183399 0.332962
O O3 0.246546 0.164618 0.566968
O O4 0.000000 0.199515 0.500000
O O5 0.316282 0.092877 0.281677
O O6 0.026083 0.067626 0.301235
O O7 0.245810 0.000000 0.278396
O O8 0.196097 0.056261 0.099605
O O9 0.140870 0.060926 0.876787
O O10 0.347309 0.000000 0.932131
O O11 0.400842 0.093138 0.927268
O O12 0.723123 0.917231 0.343112
O O13 0.824004 0.000000 0.306262
O O14 0.457465 0.154186 0.706411
O O15 0.602295 0.158592 0.891065
O O16 0.000000 0.387952 0.500000
#
# Coordination Sequence:
#
# PCOD8079380 Si02
#       7
#     8   8   8   8   8   8   4
#     4  11  23  43  69  88 105 137 184 233 279 340
#     4   9  18  30  48  77 114 155 194 232 272 323
#     4   9  16  26  45  73 110 155 199 229 267 320
#     4  10  18  30  47  73 112 155 196 235 274 320
#     4  10  20  35  57  88 116 150 189 229 282 329
#     4  10  21  36  55  80 110 143 189 233 275 332
#     4  10  17  30  52  84 120 152 180 238 277 328
#
# _framework density 19.118642999999999
#
# number of rings (size 3 to 8) (size 9 to 14) (size 15 to 20)
#    0.000    2.154    1.538    3.000    0.000    3.385 
#    0.000    2.308    0.000   12.000    0.000    0.000 
#    0.000    0.000    0.000    0.000    0.000    0.000 
#
# Total GULP energy -322185.056282 kJ/mol
# GULP energy per Si atom -12391.732934 kJ/mol
# Density = 1.907513 g / cm^3
# Si number density = 19.118643 Si / 1000 Ang^3
#
#
#
# Elastic Constant Matrix: (Units=GPa)
#
#
# Indices 1 2 3 4 5 6 
#
# 1 119.8648 41.5341 36.7334 0.0000 -6.6179 0.0000
# 2 41.5341 70.5200 45.2420 0.0000 -9.3843 0.0000
# 3 36.7334 45.2420 90.5121 0.0000 -9.2798 0.0000
# 4 0.0000 0.0000 0.0000 20.8012 0.0000 1.6146
# 5 -6.6179 -9.3843 -9.2798 0.0000 28.1980 0.0000
# 6 0.0000 0.0000 0.0000 1.6146 0.0000 31.9237
#
#
#
# Elastic Compliance Matrix: (Units=1/GPa)
#
#
# Indices 1 2 3 4 5 6 
#
# 1 0.010668 -0.005138 -0.001738 0.000000 0.000222 0.000000
# 2 -0.005138 0.023716 -0.009400 0.000000 0.003593 0.000000
# 3 -0.001738 -0.009400 0.016652 0.000000 0.001944 0.000000
# 4 0.000000 0.000000 0.000000 0.048264 0.000000 -0.002441
# 5 0.000222 0.003593 0.001944 0.000000 0.037351 0.000000
# 6 0.000000 0.000000 0.000000 -0.002441 0.000000 0.031448
#
#
# Mechanical properties :
#
#
# Convention : Reuss Voigt Hill
#
# Bulk Modulus (GPa) = 54.10933 58.65731 56.38332
# Shear Modulus (GPa) = 24.17639 26.67708 25.42673
#
# Velocity S-wave (km/s) = 3.55990 3.73948 3.65080
# Velocity P-wave (km/s) = 6.72759 7.02796 6.87942
#
# Compressibility (1/GPa) = 0.01848110
#
# Stress axis : x y z
#
# Youngs Moduli (GPa) = 93.73612 42.16613 60.05372
#
# Poissons Ratio (x) = 0.21667 0.10440
# Poissons Ratio (y) = 0.48166 0.56453
# Poissons Ratio (z) = 0.16295 0.39638
#
# Static dielectric constant tensor:
#      x y z
#    x 3.688110 0.000000 0.062550 
#    y 0.000000 3.644400 0.000000 
#    z 0.062550 0.000000 3.587660 
# 
# 
# High freq. dielectric constant tensor:
#      x y z
#    x 1.752060 0.000000 -0.002110 
#    y 0.000000 1.710750 0.000000 
#    z -0.002110 0.000000 1.738650 
# 
# From -- ./inp_files/123583.got.cif
#   From: 2010.06.25/outbox.cif.g09.slc.cpg/sg12_62_cif.got.tgz:123583.got - 2010.06.28 00:19:55.
