data_PCOD8079456
_publ_section_title
;
Structure prediction by ZEFSAII (Michael W. Deem and Ramdas Pophale) SiO2 
 PCOD8079456
Probable space group: C 2/M
;
_chemical_formula_sum "Si O2"
_cell_formula_units_Z 48
_cell_length_a 22.299164
_cell_length_b 17.876312
_cell_length_c 13.276720
_cell_angle_alpha 90.000000
_cell_angle_beta 34.346533
_cell_angle_gamma 90.000000
_cell_volume 2985.986972
_symmetry_space_group_name_H-M "C 2/M"
_symmetry_group_IT_number 12
_symmetry_cell_setting 'monoclinic'
loop_
_space_group_symop_operation_xyz
x,y,z
-x,y,-z
-x,-y,-z
x,-y,z
1/2+x,1/2+y,z
1/2-x,1/2+y,-z
1/2-x,1/2-y,-z
1/2+x,1/2-y,z
loop_
_atom_site_type_symbol
_atom_site_label
_atom_site_fract_x
_atom_site_fract_y
_atom_site_fract_z
Si Si1 0.087064 0.917015 0.108176
Si Si2 0.727720 0.915060 0.989867
Si Si3 0.734917 0.292946 0.219774
Si Si4 0.053109 0.801268 0.621614
Si Si5 0.913367 0.311537 0.694062
Si Si6 0.049031 0.219747 0.041302
O O1 0.193106 0.916426 0.026378
O O2 0.989343 0.886829 0.312675
O O3 0.060698 0.000000 0.106118
O O4 0.099115 0.862783 0.993904
O O5 0.775449 0.869709 0.829079
O O6 0.700645 0.000000 0.993514
O O7 0.621654 0.873049 0.175931
O O8 0.671213 0.300801 0.413304
O O9 0.689768 0.222475 0.219367
O O10 0.857556 0.280296 0.077222
O O11 0.971145 0.758561 0.663959
O O12 0.044220 0.764253 0.746244
O O13 0.000000 0.350125 0.500000
O O14 0.000000 0.224558 0.000000
#
# Coordination Sequence:
#
# PCOD8079456 Si02
#       6
#     8   8   8   8   8   8
#     4   9  18  32  47  73 107 125 157 200 246 304
#     4  11  19  30  51  76 104 133 156 194 257 308
#     4  11  18  33  52  74 103 126 165 209 241 295
#     4   9  19  31  52  75  97 130 163 202 253 284
#     4  10  17  31  52  72 100 131 162 206 247 290
#     4  10  20  34  53  73  93 136 173 204 242 276
#
# _framework density 16.075088000000001
#
# number of rings (size 3 to 8) (size 9 to 14) (size 15 to 20)
#    1.000    1.000    5.000    0.500    0.000    2.000 
#    0.000    1.667    0.000    0.500    0.000    0.000 
#    0.000    0.000    0.000    0.000    0.000    0.000 
#
# Total GULP energy -297356.183042 kJ/mol
# GULP energy per Si atom -12389.840960 kJ/mol
# Density = 1.603850 g / cm^3
# Si number density = 16.075088 Si / 1000 Ang^3
#
#
#
# Elastic Constant Matrix: (Units=GPa)
#
#
# Indices 1 2 3 4 5 6 
#
# 1 76.8951 12.6133 26.3875 0.0000 6.1410 0.0000
# 2 12.6133 68.4464 24.3260 0.0000 -5.4840 0.0000
# 3 26.3875 24.3260 96.7369 0.0000 16.2453 0.0000
# 4 0.0000 0.0000 0.0000 11.2362 0.0000 0.8354
# 5 6.1410 -5.4840 16.2453 0.0000 17.2005 0.0000
# 6 0.0000 0.0000 0.0000 0.8354 0.0000 13.2008
#
#
#
# Elastic Compliance Matrix: (Units=1/GPa)
#
#
# Indices 1 2 3 4 5 6 
#
# 1 0.014579 -0.001850 -0.003017 0.000000 -0.002946 0.000000
# 2 -0.001850 0.018091 -0.006090 0.000000 0.012181 0.000000
# 3 -0.003017 -0.006090 0.015257 0.000000 -0.015274 0.000000
# 4 0.000000 0.000000 0.000000 0.089419 0.000000 -0.005659
# 5 -0.002946 0.012181 -0.015274 0.000000 0.077499 0.000000
# 6 0.000000 0.000000 0.000000 -0.005659 0.000000 0.076111
#
#
# Mechanical properties :
#
#
# Convention : Reuss Voigt Hill
#
# Bulk Modulus (GPa) = 38.44349 40.97024 39.70686
# Shear Modulus (GPa) = 15.55014 20.24428 17.89721
#
# Velocity S-wave (km/s) = 3.11359 3.55259 3.34031
# Velocity P-wave (km/s) = 6.07394 6.50922 6.29535
#
# Compressibility (1/GPa) = 0.02601221
#
# Stress axis : x y z
#
# Youngs Moduli (GPa) = 68.59296 55.27506 65.54506
#
# Poissons Ratio (x) = 0.10228 0.19773
# Poissons Ratio (y) = 0.12693 0.39918
# Poissons Ratio (z) = 0.20693 0.33663
#
# Static dielectric constant tensor:
#      x y z
#    x 2.715140 0.000000 0.164180 
#    y 0.000000 3.020460 0.000000 
#    z 0.164180 0.000000 3.168260 
# 
# 
# High freq. dielectric constant tensor:
#      x y z
#    x 1.588120 0.000000 0.010000 
#    y 0.000000 1.603090 0.000000 
#    z 0.010000 0.000000 1.618320 
# 
# From -- ./inp_files/241005.got.cif
#   From: 2010.06.25/outbox.cif.g09.slc.cpg/sg12_121_cif.got.tgz:241005.got - 2010.06.28 00:19:55.
