data_PCOD8079806
_publ_section_title
;
Structure prediction by ZEFSAII (Michael W. Deem and Ramdas Pophale) SiO2 
 PCOD8079806
Probable space group: C 2/M
;
_chemical_formula_sum "Si O2"
_cell_formula_units_Z 64
_cell_length_a 5.328128
_cell_length_b 26.858313
_cell_length_c 27.745703
_cell_angle_alpha 90.000000
_cell_angle_beta 95.509911
_cell_angle_gamma 90.000000
_cell_volume 3952.190327
_symmetry_space_group_name_H-M "C 2/M"
_symmetry_group_IT_number 12
_symmetry_cell_setting 'monoclinic'
loop_
_space_group_symop_operation_xyz
x,y,z
-x,y,-z
-x,-y,-z
x,-y,z
1/2+x,1/2+y,z
1/2-x,1/2+y,-z
1/2-x,1/2-y,-z
1/2+x,1/2-y,z
loop_
_atom_site_type_symbol
_atom_site_label
_atom_site_fract_x
_atom_site_fract_y
_atom_site_fract_z
Si Si1 0.548008 0.199205 0.096022
Si Si2 0.317759 0.941150 0.635496
Si Si3 0.118810 0.857714 0.237612
Si Si4 0.654326 0.558913 0.308683
Si Si5 0.897399 0.311655 0.794805
Si Si6 0.263325 0.059402 0.526650
Si Si7 0.028093 0.191343 0.056192
Si Si8 0.352179 0.264566 0.704365
O O1 0.576314 0.213724 0.152626
O O2 0.290784 0.168213 0.081263
O O3 0.532337 0.249441 0.064687
O O4 0.790470 0.168213 0.081262
O O5 0.582895 0.923226 0.662660
O O6 0.290612 0.919257 0.581223
O O7 0.079811 0.923223 0.662665
O O8 0.316203 0.000000 0.632416
O O9 0.128177 0.914480 0.256349
O O10 0.357734 0.846614 0.208024
O O11 0.142689 0.822838 0.285370
O O12 0.850299 0.846613 0.208023
O O13 0.649808 0.500000 0.299652
O O14 0.877487 0.267610 0.754980
O O15 0.500000 0.079404 0.500000
O O16 0.000000 0.079404 0.500000
O O17 0.263317 0.000000 0.526630
O O18 0.000000 0.178143 0.000000
O O19 0.587194 0.250000 0.674395
#
# Coordination Sequence:
#
# PCOD8079806 Si02
#       8
#     8   8   8   8   8   8   8   8
#     4  10  18  25  41  52  76 105 137 171 188 225
#     4   9  17  28  42  58  78 107 145 174 199 244
#     4  10  19  29  41  58  81 100 141 183 209 237
#     4  10  19  31  44  57  78 114 151 178 203 237
#     4  10  19  28  42  62  79 103 138 175 209 243
#     4   9  15  23  37  58  81 101 127 168 208 237
#     4  10  19  27  37  55  79 109 145 161 184 231
#     4   8  16  25  39  54  79  95 125 164 207 238
#
# _framework density 16.193553999999999
#
# number of rings (size 3 to 8) (size 9 to 14) (size 15 to 20)
#    0.000    2.500    0.000    4.125   10.500    3.000 
#    0.000    0.000    0.000    0.000    0.000    0.000 
#    0.000    0.000    0.000    0.000    0.000  466.250 
#
# Total GULP energy -396502.820359 kJ/mol
# GULP energy per Si atom -12390.713136 kJ/mol
# Density = 1.615670 g / cm^3
# Si number density = 16.193554 Si / 1000 Ang^3
#
#
#
# Elastic Constant Matrix: (Units=GPa)
#
#
# Indices 1 2 3 4 5 6 
#
# 1 175.8872 15.2935 24.2961 0.0000 2.1587 0.0000
# 2 15.2935 27.2408 15.8776 0.0000 -0.0116 0.0000
# 3 24.2961 15.8776 54.0224 0.0000 0.4411 0.0000
# 4 0.0000 0.0000 0.0000 7.2030 0.0000 0.0589
# 5 2.1587 -0.0116 0.4411 0.0000 25.2403 0.0000
# 6 0.0000 0.0000 0.0000 0.0589 0.0000 9.9893
#
#
#
# Elastic Compliance Matrix: (Units=1/GPa)
#
#
# Indices 1 2 3 4 5 6 
#
# 1 0.006178 -0.002234 -0.002118 0.000000 -0.000492 0.000000
# 2 -0.002234 0.045108 -0.012256 0.000000 0.000426 0.000000
# 3 -0.002118 -0.012256 0.023067 0.000000 -0.000228 0.000000
# 4 0.000000 0.000000 0.000000 0.138838 0.000000 -0.000819
# 5 -0.000492 0.000426 -0.000228 0.000000 0.039665 0.000000
# 6 0.000000 0.000000 0.000000 -0.000819 0.000000 0.100111
#
#
# Mechanical properties :
#
#
# Convention : Reuss Voigt Hill
#
# Bulk Modulus (GPa) = 24.30917 40.89829 32.60373
# Shear Modulus (GPa) = 12.50320 21.93208 17.21764
#
# Velocity S-wave (km/s) = 2.78170 3.68417 3.26427
# Velocity P-wave (km/s) = 5.03601 6.58849 5.86385
#
# Compressibility (1/GPa) = 0.04113675
#
# Stress axis : x y z
#
# Youngs Moduli (GPa) = 161.85560 22.16908 43.35124
#
# Poissons Ratio (x) = 0.04953 0.09182
# Poissons Ratio (y) = 0.36165 0.53132
# Poissons Ratio (z) = 0.34280 0.27171
#
# Static dielectric constant tensor:
#      x y z
#    x 4.595280 0.000000 0.037470 
#    y 0.000000 2.451480 0.000000 
#    z 0.037470 0.000000 2.838710 
# 
# 
# High freq. dielectric constant tensor:
#      x y z
#    x 1.668740 0.000000 0.001600 
#    y 0.000000 1.539220 0.000000 
#    z 0.001600 0.000000 1.593990 
# 
# From -- ./inp_files/331547.got.cif
#   From: 2010.06.25/outbox.cif.g09.slc.cpg/sg12_166_cif.got.tgz:331547.got - 2010.06.28 00:19:55.
