data_PCOD8079137
_publ_section_title
;
Structure prediction by ZEFSAII (Michael W. Deem and Ramdas Pophale) SiO2 
 PCOD8079137
Probable space group: C 2/M
;
_chemical_formula_sum "Si O2"
_cell_formula_units_Z 32
_cell_length_a 27.330651
_cell_length_b 5.301682
_cell_length_c 20.143707
_cell_angle_alpha 90.000000
_cell_angle_beta 145.705068
_cell_angle_gamma 90.000000
_cell_volume 1644.601658
_symmetry_space_group_name_H-M "C 2/M"
_symmetry_group_IT_number 12
_symmetry_cell_setting 'monoclinic'
loop_
_space_group_symop_operation_xyz
x,y,z
-x,y,-z
-x,-y,-z
x,-y,z
1/2+x,1/2+y,z
1/2-x,1/2+y,-z
1/2-x,1/2-y,-z
1/2+x,1/2-y,z
loop_
_atom_site_type_symbol
_atom_site_label
_atom_site_fract_x
_atom_site_fract_y
_atom_site_fract_z
Si Si1 0.789950 0.000000 0.126234
Si Si2 0.152161 0.500000 0.591863
Si Si3 0.559099 0.000000 0.361405
Si Si4 0.639069 0.000000 0.854323
Si Si5 0.181763 0.000000 0.318953
Si Si6 0.660652 0.500000 0.443776
Si Si7 0.679854 0.000000 0.275377
Si Si8 0.206381 0.000000 0.716031
O O1 0.844586 0.750388 0.170580
O O2 0.767671 0.000000 0.178671
O O3 0.698759 0.000000 0.986245
O O4 0.066187 0.500000 0.449968
O O5 0.231840 0.500000 0.629058
O O6 0.151878 0.251217 0.637298
O O7 0.601467 0.252212 0.379247
O O8 0.458708 0.000000 0.229106
O O9 0.209624 0.000000 0.427149
O O10 0.126645 0.249629 0.236950
O O11 0.729471 0.500000 0.580567
O O12 0.703140 0.000000 0.223833
#
# Coordination Sequence:
#
# PCOD8079137 Si02
#       8
#     4   4   4   4   4   4   4   4
#     4  10  21  42  62  76  94 130 182 223 257 315
#     4  10  19  32  48  80 116 135 168 205 251 311
#     4  12  21  34  50  77 113 139 161 222 265 305
#     4  10  23  40  59  79  99 127 176 229 263 299
#     4  10  18  28  46  74 109 148 178 199 234 297
#     4  12  19  30  50  74 113 147 174 203 247 310
#     4  10  17  29  45  74 107 137 175 208 237 294
#     4  10  18  33  55  76 102 137 169 212 256 307
#
# _framework density 19.457598999999998
#
# number of rings (size 3 to 8) (size 9 to 14) (size 15 to 20)
#    0.000    1.500    5.000    3.000    0.000    0.000 
#    0.000    3.750    0.000    0.000    0.000   21.000 
#    0.000    0.000    0.000    0.000    0.000    0.000 
#
# Total GULP energy -198298.913065 kJ/mol
# GULP energy per Si atom -12393.682067 kJ/mol
# Density = 1.941331 g / cm^3
# Si number density = 19.457599 Si / 1000 Ang^3
#
#
#
# Elastic Constant Matrix: (Units=GPa)
#
#
# Indices 1 2 3 4 5 6 
#
# 1 98.2178 44.0031 33.8677 -0.0005 -27.7593 -0.0005
# 2 44.0031 211.8847 26.0562 0.0016 -9.2186 -0.0026
# 3 33.8677 26.0562 45.8538 -0.0010 -4.4776 0.0000
# 4 -0.0005 0.0016 -0.0010 9.7159 0.0002 -3.5511
# 5 -27.7593 -9.2186 -4.4776 0.0002 19.5416 0.0000
# 6 -0.0005 -0.0026 0.0000 -3.5511 0.0000 15.9251
#
#
#
# Elastic Compliance Matrix: (Units=1/GPa)
#
#
# Indices 1 2 3 4 5 6 
#
# 1 0.024657 -0.002053 -0.014034 0.000000 0.030842 0.000000
# 2 -0.002053 0.005306 -0.001574 -0.000001 -0.000774 0.000001
# 3 -0.014034 -0.001574 0.031760 0.000003 -0.013400 0.000000
# 4 0.000000 -0.000001 0.000003 0.112058 -0.000001 0.024988
# 5 0.030842 -0.000774 -0.013400 -0.000001 0.091549 0.000000
# 6 0.000000 0.000001 0.000000 0.024988 0.000000 0.068366
#
#
# Mechanical properties :
#
#
# Convention : Reuss Voigt Hill
#
# Bulk Modulus (GPa) = 37.87720 62.64561 50.26140
# Shear Modulus (GPa) = 13.23389 25.83846 19.53618
#
# Velocity S-wave (km/s) = 2.61078 3.64804 3.17209
# Velocity P-wave (km/s) = 5.34762 7.07178 6.26926
#
# Compressibility (1/GPa) = 0.02640111
#
# Stress axis : x y z
#
# Youngs Moduli (GPa) = 40.55595 188.47221 31.48654
#
# Poissons Ratio (x) = 0.38695 0.44187
# Poissons Ratio (y) = 0.08326 0.04957
# Poissons Ratio (z) = 0.56914 0.29669
#
# Static dielectric constant tensor:
#      x y z
#    x 3.355670 0.000000 -0.234870 
#    y 0.000000 5.381140 0.000000 
#    z -0.234870 0.000000 3.026480 
# 
# 
# High freq. dielectric constant tensor:
#      x y z
#    x 1.746130 0.000000 -0.026810 
#    y 0.000000 1.806710 0.000000 
#    z -0.026810 0.000000 1.691530 
# 
# From -- ./inp_files/326480.got.cif
#   From: 2010.06.25/outbox.cif.g09.slc.cpg/sg12_164_cif.got.tgz:326480.got - 2010.06.28 00:19:55.
