data_PCOD8079980
_publ_section_title
;
Structure prediction by ZEFSAII (Michael W. Deem and Ramdas Pophale) SiO2 
 PCOD8079980
Probable space group: C 2/M
;
_chemical_formula_sum "Si O2"
_cell_formula_units_Z 64
_cell_length_a 27.837793
_cell_length_b 9.250656
_cell_length_c 16.263251
_cell_angle_alpha 90.000000
_cell_angle_beta 84.415832
_cell_angle_gamma 90.000000
_cell_volume 4168.202131
_symmetry_space_group_name_H-M "C 2/M"
_symmetry_group_IT_number 12
_symmetry_cell_setting 'monoclinic'
loop_
_space_group_symop_operation_xyz
x,y,z
-x,y,-z
-x,-y,-z
x,-y,z
1/2+x,1/2+y,z
1/2-x,1/2+y,-z
1/2-x,1/2-y,-z
1/2+x,1/2-y,z
loop_
_atom_site_type_symbol
_atom_site_label
_atom_site_fract_x
_atom_site_fract_y
_atom_site_fract_z
Si Si1 0.214529 0.830475 0.066577
Si Si2 0.240048 0.831659 0.245192
Si Si3 0.709595 0.163370 0.401901
Si Si4 0.011017 0.840681 0.094118
Si Si5 0.818841 0.836903 0.444676
Si Si6 0.079365 0.668736 0.863853
Si Si7 0.889505 0.169585 0.980554
Si Si8 0.654547 0.166145 0.711539
O O1 0.225495 0.779792 0.157080
O O2 0.159905 0.786277 0.055020
O O3 0.223489 0.000000 0.054835
O O4 0.250000 0.750000 0.000000
O O5 0.207399 0.742544 0.314515
O O6 0.296484 0.796892 0.247695
O O7 0.228927 0.000000 0.261004
O O8 0.763690 0.164775 0.426140
O O9 0.675356 0.248351 0.471549
O O10 0.690434 0.000000 0.395627
O O11 0.067106 0.790901 0.090605
O O12 0.974634 0.729077 0.143556
O O13 0.003760 0.000000 0.134716
O O14 0.000000 0.847082 0.000000
O O15 0.851171 0.762913 0.368828
O O16 0.837195 0.000000 0.455629
O O17 0.076106 0.500000 0.883949
O O18 0.109713 0.701198 0.777310
O O19 0.105882 0.744303 0.935382
O O20 0.891680 0.000000 0.002037
O O21 0.655136 0.000000 0.683148
#
# Coordination Sequence:
#
# PCOD8079980 Si02
#       8
#     8   8   8   8   8   8   8   8
#     4  10  20  32  45  61  83 112 145 179 211 242
#     4   9  17  29  42  56  78 109 142 172 201 236
#     4   9  16  26  40  57  78 104 134 168 203 237
#     4   8  15  28  43  58  78 105 136 170 209 252
#     4   9  16  25  39  58  78 104 136 165 196 238
#     4  10  18  27  42  63  84 107 137 173 212 250
#     4   9  18  31  44  58  80 111 143 174 210 249
#     4   9  17  27  38  56  84 111 133 163 204 245
#
# _framework density 15.354341
#
# number of rings (size 3 to 8) (size 9 to 14) (size 15 to 20)
#    0.000    2.875    0.000    2.625    0.000    8.250 
#    0.000    2.500    0.000    0.000    0.000    0.000 
#    0.000    1.000    0.000   11.500    0.000    3.375 
#
# Total GULP energy -396732.986483 kJ/mol
# GULP energy per Si atom -12397.905828 kJ/mol
# Density = 1.531939 g / cm^3
# Si number density = 15.354341 Si / 1000 Ang^3
#
#
#
# Elastic Constant Matrix: (Units=GPa)
#
#
# Indices 1 2 3 4 5 6 
#
# 1 88.4760 41.8761 49.2823 0.0000 -13.2801 0.0000
# 2 41.8761 91.7577 64.7068 0.0000 -15.7404 0.0000
# 3 49.2823 64.7068 112.4346 0.0000 -16.2904 0.0000
# 4 0.0000 0.0000 0.0000 27.9859 0.0000 -7.2052
# 5 -13.2801 -15.7404 -16.2904 0.0000 17.1299 0.0000
# 6 0.0000 0.0000 0.0000 -7.2052 0.0000 19.2535
#
#
#
# Elastic Compliance Matrix: (Units=1/GPa)
#
#
# Indices 1 2 3 4 5 6 
#
# 1 0.016118 -0.003383 -0.004358 0.000000 0.005242 0.000000
# 2 -0.003383 0.020024 -0.008995 0.000000 0.007223 0.000000
# 3 -0.004358 -0.008995 0.016578 0.000000 0.004122 0.000000
# 4 0.000000 0.000000 0.000000 0.039542 0.000000 0.014798
# 5 0.005242 0.007223 0.004122 0.000000 0.072999 0.000000
# 6 0.000000 0.000000 0.000000 0.014798 0.000000 0.057476
#
#
# Mechanical properties :
#
#
# Convention : Reuss Voigt Hill
#
# Bulk Modulus (GPa) = 51.95275 67.15543 59.55409
# Shear Modulus (GPa) = 19.03845 21.99407 20.51626
#
# Velocity S-wave (km/s) = 3.52510 3.78886 3.65935
# Velocity P-wave (km/s) = 7.10477 7.93553 7.53161
#
# Compressibility (1/GPa) = 0.01924826
#
# Stress axis : x y z
#
# Youngs Moduli (GPa) = 62.04115 49.93910 60.32072
#
# Poissons Ratio (x) = 0.16896 0.26290
# Poissons Ratio (y) = 0.20990 0.54256
# Poissons Ratio (z) = 0.27040 0.44918
#
# Static dielectric constant tensor:
#      x y z
#    x 2.980990 0.000000 -0.147920 
#    y 0.000000 3.047760 0.000000 
#    z -0.147920 0.000000 2.847900 
# 
# 
# High freq. dielectric constant tensor:
#      x y z
#    x 1.556040 0.000000 -0.021920 
#    y 0.000000 1.596950 0.000000 
#    z -0.021920 0.000000 1.571630 
# 
# From -- ./inp_files/248422.got.cif
#   From: 2010.06.25/outbox.cif.g09.slc.cpg/sg12_125_cif.got.tgz:248422.got - 2010.06.28 00:19:55.
