data_PCOD8079959
_publ_section_title
;
Structure prediction by ZEFSAII (Michael W. Deem and Ramdas Pophale) SiO2 
 PCOD8079959
Probable space group: C 2/M
;
_chemical_formula_sum "Si O2"
_cell_formula_units_Z 56
_cell_length_a 32.499684
_cell_length_b 9.044068
_cell_length_c 22.719993
_cell_angle_alpha 90.000000
_cell_angle_beta 148.953365
_cell_angle_gamma 90.000000
_cell_volume 3444.119774
_symmetry_space_group_name_H-M "C 2/M"
_symmetry_group_IT_number 12
_symmetry_cell_setting 'monoclinic'
loop_
_space_group_symop_operation_xyz
x,y,z
-x,y,-z
-x,-y,-z
x,-y,z
1/2+x,1/2+y,z
1/2-x,1/2+y,-z
1/2-x,1/2-y,-z
1/2+x,1/2-y,z
loop_
_atom_site_type_symbol
_atom_site_label
_atom_site_fract_x
_atom_site_fract_y
_atom_site_fract_z
Si Si1 0.319609 0.829462 0.155683
Si Si2 0.338902 0.827708 0.043672
Si Si3 0.273212 0.833194 0.439620
Si Si4 0.002935 0.173676 0.787453
Si Si5 0.136478 0.332990 0.326401
Si Si6 0.484884 0.170806 0.413810
Si Si7 0.914454 0.826892 0.559069
O O1 0.344512 0.791664 0.119651
O O2 0.393418 0.788517 0.287842
O O3 0.294328 0.000000 0.130306
O O4 0.245188 0.729955 0.084769
O O5 0.409611 0.741984 0.097550
O O6 0.347460 0.000000 0.040687
O O7 0.189148 0.747480 0.341012
O O8 0.315771 0.832136 0.554461
O O9 0.329079 0.752520 0.460554
O O10 0.256881 0.000000 0.398338
O O11 0.946181 0.245426 0.767212
O O12 0.970734 0.213023 0.683095
O O13 0.006098 0.000000 0.802370
O O14 0.118438 0.500000 0.283913
O O15 0.500000 0.205793 0.500000
O O16 0.544265 0.271627 0.449504
O O17 0.501485 0.000000 0.418173
O O18 0.898493 0.000000 0.535503
#
# Coordination Sequence:
#
# PCOD8079959 Si02
#       7
#     8   8   8   8   8   8   8
#     4   9  18  31  45  63  87 114 147 186 227 269
#     4  10  18  28  45  65  87 116 149 185 224 268
#     4   9  16  26  40  57  82 115 149 182 218 263
#     4  10  18  27  41  62  89 119 150 182 220 267
#     4   9  16  25  38  58  85 115 147 181 218 261
#     4  10  20  34  50  66  87 117 153 191 230 270
#     4  10  19  29  43  62  86 116 151 187 225 267
#
# _framework density 16.259596999999999
#
# number of rings (size 3 to 8) (size 9 to 14) (size 15 to 20)
#    0.000    2.429    1.429    2.143    0.000    6.000 
#    0.000    0.000    0.000    0.000    0.000    0.000 
#    0.000    1.143    0.000   12.286    0.000    6.000 
#
# Total GULP energy -347254.129768 kJ/mol
# GULP energy per Si atom -12401.933206 kJ/mol
# Density = 1.622259 g / cm^3
# Si number density = 16.259597 Si / 1000 Ang^3
#
#
#
# Elastic Constant Matrix: (Units=GPa)
#
#
# Indices 1 2 3 4 5 6 
#
# 1 80.0860 57.9105 49.6926 0.0000 32.1311 0.0000
# 2 57.9105 109.7418 41.8217 0.0000 27.0663 0.0000
# 3 49.6926 41.8217 77.1994 0.0000 21.2719 0.0000
# 4 0.0000 0.0000 0.0000 21.8237 0.0000 12.2942
# 5 32.1311 27.0663 21.2719 0.0000 31.2589 0.0000
# 6 0.0000 0.0000 0.0000 12.2942 0.0000 30.6410
#
#
#
# Elastic Compliance Matrix: (Units=1/GPa)
#
#
# Indices 1 2 3 4 5 6 
#
# 1 0.033662 -0.008551 -0.011743 0.000000 -0.019206 0.000000
# 2 -0.008551 0.015063 -0.001827 0.000000 -0.003010 0.000000
# 3 -0.011743 -0.001827 0.021834 0.000000 -0.001206 0.000000
# 4 0.000000 0.000000 0.000000 0.059204 0.000000 -0.023755
# 5 -0.019206 -0.003010 -0.001206 0.000000 0.055159 0.000000
# 6 0.000000 0.000000 0.000000 -0.023755 0.000000 0.042167
#
#
# Mechanical properties :
#
#
# Convention : Reuss Voigt Hill
#
# Bulk Modulus (GPa) = 37.99807 62.87521 50.43664
# Shear Modulus (GPa) = 17.85046 24.58489 21.21767
#
# Velocity S-wave (km/s) = 3.31696 3.89269 3.61630
# Velocity P-wave (km/s) = 6.17171 7.67839 6.96590
#
# Compressibility (1/GPa) = 0.02631713
#
# Stress axis : x y z
#
# Youngs Moduli (GPa) = 29.70692 66.38669 45.79935
#
# Poissons Ratio (x) = 0.56770 0.53784
# Poissons Ratio (y) = 0.25403 0.08365
# Poissons Ratio (z) = 0.34886 0.12126
#
# Static dielectric constant tensor:
#      x y z
#    x 2.896830 0.000000 0.333910 
#    y 0.000000 3.179000 0.000000 
#    z 0.333910 0.000000 2.809640 
# 
# 
# High freq. dielectric constant tensor:
#      x y z
#    x 1.603750 0.000000 0.044220 
#    y 0.000000 1.641050 0.000000 
#    z 0.044220 0.000000 1.585280 
# 
# From -- ./inp_files/237450.got.cif
#   From: 2010.06.25/outbox.cif.g09.slc.cpg/sg12_119_cif.got.tgz:237450.got - 2010.06.28 00:19:55.
