data_PCOD8079520
_publ_section_title
;
Structure prediction by ZEFSAII (Michael W. Deem and Ramdas Pophale) SiO2 
 PCOD8079520
Probable space group: C 2/M
;
_chemical_formula_sum "Si O2"
_cell_formula_units_Z 64
_cell_length_a 9.148721
_cell_length_b 25.536213
_cell_length_c 22.752874
_cell_angle_alpha 90.000000
_cell_angle_beta 135.944025
_cell_angle_gamma 90.000000
_cell_volume 3696.267039
_symmetry_space_group_name_H-M "C 2/M"
_symmetry_group_IT_number 12
_symmetry_cell_setting 'monoclinic'
loop_
_space_group_symop_operation_xyz
x,y,z
-x,y,-z
-x,-y,-z
x,-y,z
1/2+x,1/2+y,z
1/2-x,1/2+y,-z
1/2-x,1/2-y,-z
1/2+x,1/2-y,z
loop_
_atom_site_type_symbol
_atom_site_label
_atom_site_fract_x
_atom_site_fract_y
_atom_site_fract_z
Si Si1 0.713085 0.861748 0.209121
Si Si2 0.422137 0.709315 0.722997
Si Si3 0.902785 0.371700 0.353895
Si Si4 0.580935 0.813989 0.959519
Si Si5 0.470252 0.174735 0.248534
Si Si6 0.059522 0.060596 0.310968
Si Si7 0.181514 0.442691 0.506092
Si Si8 0.485479 0.705396 0.878160
O O1 0.888649 0.815592 0.260102
O O2 0.550339 0.861040 0.107262
O O3 0.587691 0.858854 0.233674
O O4 0.826297 0.917323 0.235165
O O5 0.194456 0.681616 0.644419
O O6 0.406877 0.770676 0.703245
O O7 0.479182 0.696694 0.806840
O O8 0.960358 0.361369 0.303153
O O9 0.720009 0.414817 0.309613
O O10 0.118253 0.394571 0.444907
O O11 0.537754 0.766142 0.902843
O O12 0.500000 0.797958 0.000000
O O13 0.828458 0.828047 0.036926
O O14 0.236215 0.188775 0.157581
O O15 0.118213 0.073112 0.396287
O O16 0.057334 0.000000 0.296377
O O17 0.216675 0.500000 0.484418
O O18 0.000000 0.451720 0.500000
#
# Coordination Sequence:
#
# PCOD8079520 Si02
#       8
#     8   8   8   8   8   8   8   8
#     4  11  20  31  49  75 105 140 166 210 258 309
#     4  10  17  32  46  71 108 146 174 200 242 298
#     4   9  18  29  55  78 100 135 170 211 250 304
#     4  11  19  28  48  76 104 135 179 215 250 288
#     4  11  19  31  45  75 112 143 169 200 247 300
#     4   9  19  37  60  78  95 124 169 220 265 311
#     4   8  14  31  58  83  96 113 163 225 264 297
#     4  10  19  29  46  72 106 141 176 211 242 282
#
# _framework density 17.314767
#
# number of rings (size 3 to 8) (size 9 to 14) (size 15 to 20)
#    0.000    2.125    3.750    1.875    1.750    0.000 
#    0.000    1.875    0.000   22.125    0.000    0.875 
#    0.000    0.000    0.000    0.000    0.000    0.000 
#
# Total GULP energy -396535.322023 kJ/mol
# GULP energy per Si atom -12391.728813 kJ/mol
# Density = 1.727536 g / cm^3
# Si number density = 17.314767 Si / 1000 Ang^3
#
#
#
# Elastic Constant Matrix: (Units=GPa)
#
#
# Indices 1 2 3 4 5 6 
#
# 1 81.8067 29.6544 20.5971 0.0000 -8.1144 0.0000
# 2 29.6544 89.7424 48.3100 0.0000 -0.4090 0.0000
# 3 20.5971 48.3100 82.6325 0.0000 3.1958 0.0000
# 4 0.0000 0.0000 0.0000 63.9519 0.0000 10.6838
# 5 -8.1144 -0.4090 3.1958 0.0000 19.9476 0.0000
# 6 0.0000 0.0000 0.0000 10.6838 0.0000 8.8470
#
#
#
# Elastic Compliance Matrix: (Units=1/GPa)
#
#
# Indices 1 2 3 4 5 6 
#
# 1 0.014669 -0.003974 -0.001571 0.000000 0.006137 0.000000
# 2 -0.003974 0.017406 -0.009194 0.000000 0.000214 0.000000
# 3 -0.001571 -0.009194 0.018012 0.000000 -0.003713 0.000000
# 4 0.000000 0.000000 0.000000 0.019589 0.000000 -0.023655
# 5 0.006137 0.000214 -0.003713 0.000000 0.053227 0.000000
# 6 0.000000 0.000000 0.000000 -0.023655 0.000000 0.141599
#
#
# Mechanical properties :
#
#
# Convention : Reuss Voigt Hill
#
# Bulk Modulus (GPa) = 48.51937 50.14495 49.33216
# Shear Modulus (GPa) = 16.61968 28.92399 22.77183
#
# Velocity S-wave (km/s) = 3.10151 4.09159 3.63046
# Velocity P-wave (km/s) = 6.39599 7.16555 6.79168
#
# Compressibility (1/GPa) = 0.02061033
#
# Stress axis : x y z
#
# Youngs Moduli (GPa) = 68.17324 57.44997 55.51814
#
# Poissons Ratio (x) = 0.22829 0.08719
# Poissons Ratio (y) = 0.27090 0.51045
# Poissons Ratio (z) = 0.10707 0.52821
#
# Static dielectric constant tensor:
#      x y z
#    x 3.225970 0.000000 0.248190 
#    y 0.000000 3.120600 0.000000 
#    z 0.248190 0.000000 3.597520 
# 
# 
# High freq. dielectric constant tensor:
#      x y z
#    x 1.665070 0.000000 0.006810 
#    y 0.000000 1.638740 0.000000 
#    z 0.006810 0.000000 1.656790 
# 
# From -- ./inp_files/302658.got.cif
#   From: 2010.06.25/outbox.cif.g09.slc.cpg/sg12_152_cif.got.tgz:302658.got - 2010.06.28 00:19:55.
