data_PCOD8079863
_publ_section_title
;
Structure prediction by ZEFSAII (Michael W. Deem and Ramdas Pophale) SiO2 
 PCOD8079863
Probable space group: C 2/M
;
_chemical_formula_sum "Si O2"
_cell_formula_units_Z 64
_cell_length_a 21.468955
_cell_length_b 23.481683
_cell_length_c 11.616064
_cell_angle_alpha 90.000000
_cell_angle_beta 44.301913
_cell_angle_gamma 90.000000
_cell_volume 4090.041521
_symmetry_space_group_name_H-M "C 2/M"
_symmetry_group_IT_number 12
_symmetry_cell_setting 'monoclinic'
loop_
_space_group_symop_operation_xyz
x,y,z
-x,y,-z
-x,-y,-z
x,-y,z
1/2+x,1/2+y,z
1/2-x,1/2+y,-z
1/2-x,1/2-y,-z
1/2+x,1/2-y,z
loop_
_atom_site_type_symbol
_atom_site_label
_atom_site_fract_x
_atom_site_fract_y
_atom_site_fract_z
Si Si1 0.420764 0.729684 0.835016
Si Si2 0.733395 0.162120 0.453195
Si Si3 0.624745 0.066098 0.725786
Si Si4 0.319673 0.847543 0.958642
Si Si5 0.422145 0.935106 0.957189
Si Si6 0.837182 0.205613 0.715160
Si Si7 0.737185 0.323614 0.839740
Si Si8 0.623260 0.723051 0.588841
O O1 0.381263 0.792778 0.898197
O O2 0.415661 0.712650 0.706145
O O3 0.519441 0.728161 0.757346
O O4 0.364891 0.684629 0.984996
O O5 0.694249 0.106903 0.568912
O O6 0.757256 0.144785 0.290421
O O7 0.662620 0.213458 0.545819
O O8 0.824937 0.181647 0.392716
O O9 0.527360 0.072933 0.799538
O O10 0.656347 0.000000 0.675259
O O11 0.614387 0.086676 0.871361
O O12 0.374505 0.902734 0.918046
O O13 0.292850 0.858101 0.861475
O O14 0.230112 0.843587 0.153944
O O15 0.395068 0.000000 0.981175
O O16 0.779309 0.261795 0.778238
O O17 0.874982 0.193161 0.538939
#
# Coordination Sequence:
#
# PCOD8079863 Si02
#       8
#     8   8   8   8   8   8   8   8
#     4   9  16  27  43  63  87 118 147 171 212 261
#     4  10  19  30  41  63  93 116 145 178 214 257
#     4   9  18  32  47  63  87 116 143 176 215 255
#     4   9  15  28  46  61  87 121 143 169 215 259
#     4   9  17  29  47  69  86 106 144 183 211 247
#     4   8  15  27  42  62  86 113 147 177 209 257
#     4   8  17  29  41  60  88 119 146 172 205 257
#     4  10  18  26  42  66  90 114 143 185 220 247
#
# _framework density 15.647764
#
# number of rings (size 3 to 8) (size 9 to 14) (size 15 to 20)
#    0.000    3.000    0.000    4.125    0.000    1.500 
#    0.000    2.500    0.000    1.500    0.000    5.250 
#    0.000   13.000    0.000    0.000    0.000    0.000 
#
# Total GULP energy -396575.143460 kJ/mol
# GULP energy per Si atom -12392.973233 kJ/mol
# Density = 1.561215 g / cm^3
# Si number density = 15.647764 Si / 1000 Ang^3
#
#
#
# Elastic Constant Matrix: (Units=GPa)
#
#
# Indices 1 2 3 4 5 6 
#
# 1 101.2701 38.9563 50.6183 0.0000 -5.6036 0.0000
# 2 38.9563 48.3054 28.3410 0.0000 1.2097 0.0000
# 3 50.6183 28.3410 77.5059 0.0000 1.1738 0.0000
# 4 0.0000 0.0000 0.0000 21.1895 0.0000 -0.8739
# 5 -5.6036 1.2097 1.1738 0.0000 27.3557 0.0000
# 6 0.0000 0.0000 0.0000 -0.8739 0.0000 24.7687
#
#
#
# Elastic Compliance Matrix: (Units=1/GPa)
#
#
# Indices 1 2 3 4 5 6 
#
# 1 0.018016 -0.009801 -0.008250 0.000000 0.004478 0.000000
# 2 -0.009801 0.031703 -0.005143 0.000000 -0.003189 0.000000
# 3 -0.008250 -0.005143 0.020206 0.000000 -0.002330 0.000000
# 4 0.000000 0.000000 0.000000 0.047262 0.000000 0.001668
# 5 0.004478 -0.003189 -0.002330 0.000000 0.037714 0.000000
# 6 0.000000 0.000000 0.000000 0.001668 0.000000 0.040432
#
#
# Mechanical properties :
#
#
# Convention : Reuss Voigt Hill
#
# Bulk Modulus (GPa) = 42.48699 51.43471 46.96085
# Shear Modulus (GPa) = 20.03452 21.94050 20.98751
#
# Velocity S-wave (km/s) = 3.58207 3.74859 3.66628
# Velocity P-wave (km/s) = 6.65728 7.18871 6.92809
#
# Compressibility (1/GPa) = 0.02353661
#
# Stress axis : x y z
#
# Youngs Moduli (GPa) = 55.50507 31.54238 49.48934
#
# Poissons Ratio (x) = 0.30915 0.40830
# Poissons Ratio (y) = 0.54401 0.25454
# Poissons Ratio (z) = 0.45793 0.16223
#
# Static dielectric constant tensor:
#      x y z
#    x 3.097100 0.000000 0.205210 
#    y 0.000000 2.615470 0.000000 
#    z 0.205210 0.000000 3.130650 
# 
# 
# High freq. dielectric constant tensor:
#      x y z
#    x 1.606950 0.000000 0.005160 
#    y 0.000000 1.557310 0.000000 
#    z 0.005160 0.000000 1.596100 
# 
# From -- ./inp_files/160052.got.cif
#   From: 2010.06.25/outbox.cif.g09.slc.cpg/sg12_81_cif.got.tgz:160052.got - 2010.06.28 00:19:55.
