data_PCOD8079175
_publ_section_title
;
Structure prediction by ZEFSAII (Michael W. Deem and Ramdas Pophale) SiO2 
 PCOD8079175
Probable space group: C 2/M
;
_chemical_formula_sum "Si O2"
_cell_formula_units_Z 48
_cell_length_a 18.666421
_cell_length_b 17.687219
_cell_length_c 6.302833
_cell_angle_alpha 90.000000
_cell_angle_beta 123.150643
_cell_angle_gamma 90.000000
_cell_volume 1742.224621
_symmetry_space_group_name_H-M "C 2/M"
_symmetry_group_IT_number 12
_symmetry_cell_setting 'monoclinic'
loop_
_space_group_symop_operation_xyz
x,y,z
-x,y,-z
-x,-y,-z
x,-y,z
1/2+x,1/2+y,z
1/2-x,1/2+y,-z
1/2-x,1/2-y,-z
1/2+x,1/2-y,z
loop_
_atom_site_type_symbol
_atom_site_label
_atom_site_fract_x
_atom_site_fract_y
_atom_site_fract_z
Si Si1 0.641789 0.589321 0.426053
Si Si2 0.861489 0.413914 0.123515
Si Si3 0.518108 0.663358 0.761032
Si Si4 0.522095 0.834261 0.271404
Si Si5 0.183722 0.414561 0.436648
Si Si6 0.297040 0.668679 0.054692
O O1 0.645210 0.500000 0.491569
O O2 0.545680 0.612999 0.187858
O O3 0.715195 0.605442 0.365745
O O4 0.662546 0.642688 0.658868
O O5 0.885697 0.500000 0.205592
O O6 0.946533 0.363705 0.306518
O O7 0.831297 0.398493 0.835974
O O8 0.778649 0.390521 0.136104
O O9 0.500000 0.628343 0.500000
O O10 0.475522 0.745135 0.709878
O O11 0.620631 0.667405 0.975089
O O12 0.617540 0.866554 0.476172
O O13 0.500000 0.863798 0.000000
O O14 0.161893 0.500000 0.459881
O O15 0.250000 0.750000 0.000000
#
# Coordination Sequence:
#
# PCOD8079175 Si02
#       6
#     8   8   8   8   8   8
#     4   9  19  34  52  77 104 135 180 223 259 306
#     4   9  16  27  47  74 100 129 171 218 258 300
#     4  10  21  33  50  76 108 142 168 216 267 310
#     4  10  18  30  50  77 105 133 173 215 265 311
#     4   8  15  28  48  73  99 127 168 219 254 296
#     4  10  17  29  48  73 104 135 166 215 265 298
#
# _framework density 27.550982999999999
#
# number of rings (size 3 to 8) (size 9 to 14) (size 15 to 20)
#    0.000    2.667    1.667    2.000    0.000    6.333 
#    0.000    0.000    0.000    2.500    0.000    0.000 
#    0.000    0.000    0.000    0.000    0.000    0.000 
#
# Total GULP energy -297394.389906 kJ/mol
# GULP energy per Si atom -12391.432913 kJ/mol
# Density = 2.748828 g / cm^3
# Si number density = 27.550983 Si / 1000 Ang^3
#
#
#
# Elastic Constant Matrix: (Units=GPa)
#
#
# Indices 1 2 3 4 5 6 
#
# 1 284.2016 68.4709 59.7213 0.0000 46.4262 0.0000
# 2 68.4709 138.2270 19.8943 0.0000 51.0672 0.0000
# 3 59.7213 19.8943 115.8007 0.0000 37.3404 0.0000
# 4 0.0000 0.0000 0.0000 25.2750 0.0000 21.5508
# 5 46.4262 51.0672 37.3404 0.0000 44.3553 0.0000
# 6 0.0000 0.0000 0.0000 21.5508 0.0000 48.9348
#
#
#
# Elastic Compliance Matrix: (Units=1/GPa)
#
#
# Indices 1 2 3 4 5 6 
#
# 1 0.004450 -0.001258 -0.001433 0.000000 -0.002003 0.000000
# 2 -0.001258 0.014034 0.004150 0.000000 -0.018334 0.000000
# 3 -0.001433 0.004150 0.013340 0.000000 -0.014508 0.000000
# 4 0.000000 0.000000 0.000000 0.063355 0.000000 -0.027901
# 5 -0.002003 -0.018334 -0.014508 0.000000 0.057964 0.000000
# 6 0.000000 0.000000 0.000000 -0.027901 0.000000 0.032723
#
#
# Mechanical properties :
#
#
# Convention : Reuss Voigt Hill
#
# Bulk Modulus (GPa) = 28.78443 92.71135 60.74789
# Shear Modulus (GPa) = 25.70322 49.72255 37.71288
#
# Velocity S-wave (km/s) = 3.05771 4.25284 3.70380
# Velocity P-wave (km/s) = 4.78921 7.60522 6.35515
#
# Compressibility (1/GPa) = 0.03474100
#
# Stress axis : x y z
#
# Youngs Moduli (GPa) = 224.71591 71.25616 74.96391
#
# Poissons Ratio (x) = 0.08965 0.10742
# Poissons Ratio (y) = 0.28272 -0.31108
# Poissons Ratio (z) = 0.32202 -0.29570
#
# Static dielectric constant tensor:
#      x y z
#    x 6.361280 0.000000 0.343880 
#    y 0.000000 4.487640 0.000000 
#    z 0.343880 0.000000 5.461790 
# 
# 
# High freq. dielectric constant tensor:
#      x y z
#    x 2.164490 0.000000 0.005790 
#    y 0.000000 2.074840 0.000000 
#    z 0.005790 0.000000 2.160340 
# 
# From -- ./inp_files/88155.got.cif
#   From: 2010.06.25/outbox.cif.g09.slc.cpg/sg12_45_cif.got.tgz:88155.got - 2010.06.28 00:19:55.
