data_PCOD8079821
_publ_section_title
;
Structure prediction by ZEFSAII (Michael W. Deem and Ramdas Pophale) SiO2 
 PCOD8079821
Probable space group: C 2/M
;
_chemical_formula_sum "Si O2"
_cell_formula_units_Z 64
_cell_length_a 31.803233
_cell_length_b 8.991576
_cell_length_c 16.150996
_cell_angle_alpha 90.000000
_cell_angle_beta 109.843689
_cell_angle_gamma 90.000000
_cell_volume 4344.318178
_symmetry_space_group_name_H-M "C 2/M"
_symmetry_group_IT_number 12
_symmetry_cell_setting 'monoclinic'
loop_
_space_group_symop_operation_xyz
x,y,z
-x,y,-z
-x,-y,-z
x,-y,z
1/2+x,1/2+y,z
1/2-x,1/2+y,-z
1/2-x,1/2-y,-z
1/2+x,1/2-y,z
loop_
_atom_site_type_symbol
_atom_site_label
_atom_site_fract_x
_atom_site_fract_y
_atom_site_fract_z
Si Si1 0.293226 0.329512 0.997952
Si Si2 0.835274 0.174822 0.186962
Si Si3 0.914344 0.674835 0.336094
Si Si4 0.003589 0.167497 0.404303
Si Si5 0.319602 0.327030 0.519005
Si Si6 0.243290 0.171130 0.374752
Si Si7 0.246765 0.172174 0.191123
Si Si8 0.592653 0.825218 0.477402
O O1 0.283886 0.500000 0.008156
O O2 0.295478 0.296695 0.900209
O O3 0.250000 0.250000 0.000000
O O4 0.334350 0.286009 0.086577
O O5 0.875864 0.265521 0.251529
O O6 0.789130 0.225321 0.198795
O O7 0.842328 0.000000 0.208400
O O8 0.919305 0.500000 0.328395
O O9 0.960700 0.749088 0.338088
O O10 0.902501 0.716875 0.422698
O O11 0.000000 0.168848 0.500000
O O12 0.048516 0.252673 0.407830
O O13 0.005112 0.000000 0.370417
O O14 0.329344 0.500000 0.511163
O O15 0.285351 0.272841 0.425925
O O16 0.299075 0.293621 0.595722
O O17 0.365342 0.237323 0.544221
O O18 0.229195 0.207769 0.271351
O O19 0.258250 0.000000 0.395788
O O20 0.262096 0.000000 0.194576
O O21 0.589397 0.000000 0.462365
#
# Coordination Sequence:
#
# PCOD8079821 Si02
#       8
#     8   8   8   8   8   8   8   8
#     4   8  15  26  39  55  76 102 131 164 199 235
#     4  10  18  26  38  59  83 105 133 167 200 234
#     4  10  19  29  41  58  81 109 137 162 192 233
#     4   9  17  29  44  61  80 102 130 165 200 231
#     4  10  19  29  41  58  80 105 135 171 205 234
#     4   9  18  30  42  57  78 105 137 171 204 237
#     4   9  16  28  43  56  75 106 139 167 200 240
#     4  10  19  30  43  58  79 108 138 164 194 235
#
# _framework density 14.731885999999999
#
# number of rings (size 3 to 8) (size 9 to 14) (size 15 to 20)
#    0.000    2.625    0.000    2.625    0.000    7.500 
#    0.000    0.000    0.000    0.000    0.000    0.000 
#    0.000    1.000    0.000   11.750    0.000    2.250 
#
# Total GULP energy -396567.773728 kJ/mol
# GULP energy per Si atom -12392.742929 kJ/mol
# Density = 1.469836 g / cm^3
# Si number density = 14.731886 Si / 1000 Ang^3
#
#
#
# Elastic Constant Matrix: (Units=GPa)
#
#
# Indices 1 2 3 4 5 6 
#
# 1 83.8404 37.7301 41.2186 0.0000 9.9512 0.0000
# 2 37.7301 65.5256 31.8252 0.0000 7.3064 0.0000
# 3 41.2186 31.8252 99.2223 0.0000 3.6777 0.0000
# 4 0.0000 0.0000 0.0000 18.5624 0.0000 4.8097
# 5 9.9512 7.3064 3.6777 0.0000 19.7767 0.0000
# 6 0.0000 0.0000 0.0000 4.8097 0.0000 25.8539
#
#
#
# Elastic Compliance Matrix: (Units=1/GPa)
#
#
# Indices 1 2 3 4 5 6 
#
# 1 0.018471 -0.007568 -0.005040 0.000000 -0.005561 0.000000
# 2 -0.007568 0.021825 -0.003724 0.000000 -0.003563 0.000000
# 3 -0.005040 -0.003724 0.013313 0.000000 0.001436 0.000000
# 4 0.000000 0.000000 0.000000 0.056601 0.000000 -0.010530
# 5 -0.005561 -0.003563 0.001436 0.000000 0.054412 0.000000
# 6 0.000000 0.000000 0.000000 -0.010530 0.000000 0.040638
#
#
# Mechanical properties :
#
#
# Convention : Reuss Voigt Hill
#
# Bulk Modulus (GPa) = 47.74334 52.23734 49.99034
# Shear Modulus (GPa) = 20.41609 22.02623 21.22116
#
# Velocity S-wave (km/s) = 3.72673 3.87090 3.79950
# Velocity P-wave (km/s) = 7.14119 7.45078 7.29763
#
# Compressibility (1/GPa) = 0.02094533
#
# Stress axis : x y z
#
# Youngs Moduli (GPa) = 54.13956 45.81900 75.11294
#
# Poissons Ratio (x) = 0.34675 0.37854
# Poissons Ratio (y) = 0.40972 0.27975
# Poissons Ratio (z) = 0.27284 0.17065
#
# Static dielectric constant tensor:
#      x y z
#    x 2.680930 0.000000 0.048350 
#    y 0.000000 2.978720 0.000000 
#    z 0.048350 0.000000 3.168610 
# 
# 
# High freq. dielectric constant tensor:
#      x y z
#    x 1.530790 0.000000 0.011000 
#    y 0.000000 1.580000 0.000000 
#    z 0.011000 0.000000 1.551630 
# 
# From -- ./inp_files/294591.got.cif
#   From: 2010.06.25/outbox.cif.g09.slc.cpg/sg12_148_cif.got.tgz:294591.got - 2010.06.28 00:19:55.
