data_PCOD8079886
_publ_section_title
;
Structure prediction by ZEFSAII (Michael W. Deem and Ramdas Pophale) SiO2 
 PCOD8079886
Probable space group: C 2/M
;
_chemical_formula_sum "Si O2"
_cell_formula_units_Z 64
_cell_length_a 25.747663
_cell_length_b 9.466142
_cell_length_c 16.713496
_cell_angle_alpha 90.000000
_cell_angle_beta 88.384030
_cell_angle_gamma 90.000000
_cell_volume 4071.977568
_symmetry_space_group_name_H-M "C 2/M"
_symmetry_group_IT_number 12
_symmetry_cell_setting 'monoclinic'
loop_
_space_group_symop_operation_xyz
x,y,z
-x,y,-z
-x,-y,-z
x,-y,z
1/2+x,1/2+y,z
1/2-x,1/2+y,-z
1/2-x,1/2-y,-z
1/2+x,1/2-y,z
loop_
_atom_site_type_symbol
_atom_site_label
_atom_site_fract_x
_atom_site_fract_y
_atom_site_fract_z
Si Si1 0.676886 0.841010 0.790249
Si Si2 0.058537 0.335197 0.492115
Si Si3 0.704035 0.664680 0.239559
Si Si4 0.364411 0.841190 0.372138
Si Si5 0.316252 0.340430 0.060849
Si Si6 0.693537 0.160182 0.086145
Si Si7 0.867685 0.154411 0.610716
Si Si8 0.705947 0.346935 0.533781
O O1 0.734296 0.807155 0.751072
O O2 0.631373 0.830721 0.724529
O O3 0.661261 0.732409 0.860301
O O4 0.678125 0.000000 0.825965
O O5 0.059647 0.500000 0.472232
O O6 0.084392 0.303536 0.578292
O O7 0.086024 0.261348 0.414493
O O8 0.000000 0.277415 0.500000
O O9 0.694432 0.500000 0.220897
O O10 0.681406 0.758787 0.168748
O O11 0.671198 0.712781 0.319057
O O12 0.319104 0.730280 0.390160
O O13 0.346431 0.000000 0.396614
O O14 0.338362 0.500000 0.052970
O O15 0.254507 0.344073 0.067653
O O16 0.334173 0.247676 0.983911
O O17 0.671427 0.000000 0.090586
O O18 0.836108 0.133030 0.532024
O O19 0.890226 0.000000 0.635066
O O20 0.727590 0.500000 0.560012
O O21 0.750000 0.250000 0.500000
#
# Coordination Sequence:
#
# PCOD8079886 Si02
#       8
#     8   8   8   8   8   8   8   8
#     4   9  16  26  40  57  81 112 141 170 203 239
#     4   9  18  32  48  64  82 105 135 174 217 256
#     4   9  16  26  39  56  81 110 139 171 204 237
#     4   9  17  29  43  59  80 107 138 171 209 249
#     4   9  16  25  37  54  78 109 143 174 201 230
#     4   9  16  25  37  54  77 108 144 173 199 233
#     4   9  18  30  43  60  81 107 139 172 207 249
#     4  10  18  27  39  56  80 109 139 168 200 240
#
# _framework density 15.717180000000001
#
# number of rings (size 3 to 8) (size 9 to 14) (size 15 to 20)
#    0.000    2.875    0.000    1.875    0.000    6.750 
#    0.000    2.500    0.000    0.000    0.000    0.000 
#    0.000    1.000    0.000   11.500    0.000    3.375 
#
# Total GULP energy -396476.164140 kJ/mol
# GULP energy per Si atom -12389.880129 kJ/mol
# Density = 1.568141 g / cm^3
# Si number density = 15.717180 Si / 1000 Ang^3
#
#
#
# Elastic Constant Matrix: (Units=GPa)
#
#
# Indices 1 2 3 4 5 6 
#
# 1 40.7369 22.4747 15.5784 0.0000 4.3339 0.0000
# 2 22.4747 91.6207 37.1670 0.0000 7.9798 0.0000
# 3 15.5784 37.1670 86.4533 0.0000 11.6360 0.0000
# 4 0.0000 0.0000 0.0000 27.4824 0.0000 -1.9710
# 5 4.3339 7.9798 11.6360 0.0000 12.7316 0.0000
# 6 0.0000 0.0000 0.0000 -1.9710 0.0000 13.9472
#
#
#
# Elastic Compliance Matrix: (Units=1/GPa)
#
#
# Indices 1 2 3 4 5 6 
#
# 1 0.029068 -0.005896 -0.002131 0.000000 -0.004252 0.000000
# 2 -0.005896 0.014556 -0.004832 0.000000 -0.002700 0.000000
# 3 -0.002131 -0.004832 0.015420 0.000000 -0.010339 0.000000
# 4 0.000000 0.000000 0.000000 0.036760 0.000000 0.005195
# 5 -0.004252 -0.002700 -0.010339 0.000000 0.091134 0.000000
# 6 0.000000 0.000000 0.000000 0.005195 0.000000 0.072433
#
#
# Mechanical properties :
#
#
# Convention : Reuss Voigt Hill
#
# Bulk Modulus (GPa) = 30.00621 41.02791 35.51706
# Shear Modulus (GPa) = 16.88074 20.40496 18.64285
#
# Velocity S-wave (km/s) = 3.28080 3.60704 3.44778
# Velocity P-wave (km/s) = 5.78656 6.59608 6.20454
#
# Compressibility (1/GPa) = 0.03332643
#
# Stress axis : x y z
#
# Youngs Moduli (GPa) = 34.40253 68.69970 64.85166
#
# Poissons Ratio (x) = 0.40502 0.13820
# Poissons Ratio (y) = 0.20282 0.31336
# Poissons Ratio (z) = 0.07331 0.33196
#
# Static dielectric constant tensor:
#      x y z
#    x 2.975030 0.000000 0.056670 
#    y 0.000000 3.438160 0.000000 
#    z 0.056670 0.000000 2.991750 
# 
# 
# High freq. dielectric constant tensor:
#      x y z
#    x 1.536660 0.000000 0.011920 
#    y 0.000000 1.618300 0.000000 
#    z 0.011920 0.000000 1.599960 
# 
# From -- ./inp_files/248262.got.cif
#   From: 2010.06.25/outbox.cif.g09.slc.cpg/sg12_125_cif.got.tgz:248262.got - 2010.06.28 00:19:55.
