data_PCOD8079295
_publ_section_title
;
Structure prediction by ZEFSAII (Michael W. Deem and Ramdas Pophale) SiO2 
 PCOD8079295
Probable space group: C 2/M
;
_chemical_formula_sum "Si O2"
_cell_formula_units_Z 40
_cell_length_a 22.515448
_cell_length_b 13.017785
_cell_length_c 9.997689
_cell_angle_alpha 90.000000
_cell_angle_beta 45.157105
_cell_angle_gamma 90.000000
_cell_volume 2077.733721
_symmetry_space_group_name_H-M "C 2/M"
_symmetry_group_IT_number 12
_symmetry_cell_setting 'monoclinic'
loop_
_space_group_symop_operation_xyz
x,y,z
-x,y,-z
-x,-y,-z
x,-y,z
1/2+x,1/2+y,z
1/2-x,1/2+y,-z
1/2-x,1/2-y,-z
1/2+x,1/2-y,z
loop_
_atom_site_type_symbol
_atom_site_label
_atom_site_fract_x
_atom_site_fract_y
_atom_site_fract_z
Si Si1 0.773560 0.615106 0.526617
Si Si2 0.909018 0.389931 0.079256
Si Si3 0.471975 0.307367 0.893753
Si Si4 0.937588 0.000000 0.796597
Si Si5 0.874400 0.000000 0.610425
Si Si6 0.152846 0.188700 0.511245
O O1 0.773883 0.500000 0.588763
O O2 0.840316 0.625748 0.301540
O O3 0.798698 0.702972 0.595356
O O4 0.683277 0.641504 0.605897
O O5 0.893818 0.500000 0.029475
O O6 0.910443 0.292028 0.978079
O O7 0.000000 0.390371 0.000000
O O8 0.418704 0.401075 0.917783
O O9 0.554370 0.288040 0.673594
O O10 0.500000 0.332428 0.000000
O O11 0.875685 0.000000 0.768435
O O12 0.033681 0.000000 0.599017
O O13 0.827135 0.103546 0.634959
#
# Coordination Sequence:
#
# PCOD8079295 Si02
#       6
#     8   8   8   4   4   8
#     4  10  18  29  46  74  97 128 156 192 245 279
#     4   9  16  28  45  69  99 125 152 189 241 291
#     4  10  17  30  46  76 101 119 155 204 248 275
#     4   9  19  30  50  66  97 131 159 193 240 290
#     4   9  18  34  46  68  93 134 165 190 232 289
#     4  10  18  29  48  70  99 125 158 199 233 286
#
# _framework density 19.251746000000001
#
# number of rings (size 3 to 8) (size 9 to 14) (size 15 to 20)
#    0.000    2.400    5.000    0.300    0.000    0.000 
#    0.000    0.000    0.000    2.400    0.000    5.600 
#    0.000    0.000    0.000    0.000    0.000    0.000 
#
# Total GULP energy -247782.364016 kJ/mol
# GULP energy per Si atom -12389.118201 kJ/mol
# Density = 1.920793 g / cm^3
# Si number density = 19.251746 Si / 1000 Ang^3
#
#
#
# Elastic Constant Matrix: (Units=GPa)
#
#
# Indices 1 2 3 4 5 6 
#
# 1 53.6404 52.8161 3.6781 0.0000 16.2175 0.0000
# 2 52.8161 227.7486 20.8868 0.0000 24.8036 0.0000
# 3 3.6781 20.8868 21.3371 0.0000 1.3965 0.0000
# 4 0.0000 0.0000 0.0000 20.4742 0.0000 -3.1188
# 5 16.2175 24.8036 1.3965 0.0000 28.2991 0.0000
# 6 0.0000 0.0000 0.0000 -3.1188 0.0000 11.9040
#
#
#
# Elastic Compliance Matrix: (Units=1/GPa)
#
#
# Indices 1 2 3 4 5 6 
#
# 1 0.026969 -0.005160 0.001122 0.000000 -0.010987 0.000000
# 2 -0.005160 0.006311 -0.005137 0.000000 -0.002321 0.000000
# 3 0.001122 -0.005137 0.051616 0.000000 0.001312 0.000000
# 4 0.000000 0.000000 0.000000 0.050872 0.000000 0.013328
# 5 -0.010987 -0.002321 0.001312 0.000000 0.043603 0.000000
# 6 0.000000 0.000000 0.000000 0.013328 0.000000 0.087497
#
#
# Mechanical properties :
#
#
# Convention : Reuss Voigt Hill
#
# Bulk Modulus (GPa) = 15.02739 50.83201 32.92970
# Shear Modulus (GPa) = 16.26542 27.15848 21.71195
#
# Velocity S-wave (km/s) = 2.90984 3.76001 3.36190
# Velocity P-wave (km/s) = 4.37175 6.73137 5.67554
#
# Compressibility (1/GPa) = 0.06654513
#
# Stress axis : x y z
#
# Youngs Moduli (GPa) = 37.07992 158.44312 19.37396
#
# Poissons Ratio (x) = 0.81764 -0.02173
# Poissons Ratio (y) = 0.19135 0.09952
# Poissons Ratio (z) = -0.04160 0.81388
#
# Static dielectric constant tensor:
#      x y z
#    x 3.358960 0.000000 -0.349340 
#    y 0.000000 4.538710 0.000000 
#    z -0.349340 0.000000 3.224250 
# 
# 
# High freq. dielectric constant tensor:
#      x y z
#    x 1.698780 0.000000 -0.041750 
#    y 0.000000 1.782170 0.000000 
#    z -0.041750 0.000000 1.702770 
# 
# From -- ./inp_files/85548.got.cif
#   From: 2010.06.25/outbox.cif.g09.slc.cpg/sg12_43_cif.got.tgz:85548.got - 2010.06.28 00:19:55.
