data_PCOD8079860
_publ_section_title
;
Structure prediction by ZEFSAII (Michael W. Deem and Ramdas Pophale) SiO2 
 PCOD8079860
Probable space group: C 2/M
;
_chemical_formula_sum "Si O2"
_cell_formula_units_Z 48
_cell_length_a 24.875063
_cell_length_b 12.927046
_cell_length_c 9.702285
_cell_angle_alpha 90.000000
_cell_angle_beta 81.453779
_cell_angle_gamma 90.000000
_cell_volume 3085.235105
_symmetry_space_group_name_H-M "C 2/M"
_symmetry_group_IT_number 12
_symmetry_cell_setting 'monoclinic'
loop_
_space_group_symop_operation_xyz
x,y,z
-x,y,-z
-x,-y,-z
x,-y,z
1/2+x,1/2+y,z
1/2-x,1/2+y,-z
1/2-x,1/2-y,-z
1/2+x,1/2-y,z
loop_
_atom_site_type_symbol
_atom_site_label
_atom_site_fract_x
_atom_site_fract_y
_atom_site_fract_z
Si Si1 0.123250 0.620628 0.402107
Si Si2 0.413809 0.122547 0.289040
Si Si3 0.692545 0.618633 0.002538
Si Si4 0.536592 0.120877 0.204683
Si Si5 0.619422 0.207372 0.978223
Si Si6 0.795718 0.307701 0.837649
O O1 0.136512 0.500000 0.400367
O O2 0.111807 0.664525 0.558926
O O3 0.070151 0.643155 0.330632
O O4 0.176486 0.678042 0.321621
O O5 0.475806 0.161005 0.253683
O O6 0.412398 0.000000 0.288247
O O7 0.377934 0.166050 0.177921
O O8 0.682252 0.500000 0.045604
O O9 0.738869 0.630439 0.866617
O O10 0.635819 0.670243 0.971107
O O11 0.713388 0.684407 0.128654
O O12 0.560299 0.186550 0.067183
O O13 0.538016 0.000000 0.163605
O O14 0.663567 0.147287 0.058318
#
# Coordination Sequence:
#
# PCOD8079860 Si02
#       6
#     8   8   8   8   8   8
#     4   9  16  27  44  67  94 119 143 173 217 269
#     4  10  18  26  41  68  98 121 141 176 220 261
#     4   9  17  31  50  66  84 111 149 186 219 257
#     4   9  16  27  43  64  93 122 148 175 213 263
#     4   9  17  28  42  69  87 118 146 179 216 252
#     4   8  17  31  48  69  81 114 145 181 220 259
#
# _framework density 15.557971999999999
#
# number of rings (size 3 to 8) (size 9 to 14) (size 15 to 20)
#    1.000    2.000    0.000    2.000    0.000    5.333 
#    0.000    0.833    0.000    3.000    0.000    1.167 
#    0.000    0.000    0.000    0.000    0.000    0.000 
#
# Total GULP energy -297370.190661 kJ/mol
# GULP energy per Si atom -12390.424611 kJ/mol
# Density = 1.552256 g / cm^3
# Si number density = 15.557972 Si / 1000 Ang^3
#
#
#
# Elastic Constant Matrix: (Units=GPa)
#
#
# Indices 1 2 3 4 5 6 
#
# 1 46.1788 28.0855 40.9583 0.0000 -18.5593 0.0000
# 2 28.0855 51.6637 36.9387 0.0000 -13.5996 0.0000
# 3 40.9583 36.9387 128.1955 0.0000 -13.7704 0.0000
# 4 0.0000 0.0000 0.0000 15.8781 0.0000 -2.2257
# 5 -18.5593 -13.5996 -13.7704 0.0000 25.3393 0.0000
# 6 0.0000 0.0000 0.0000 -2.2257 0.0000 20.7963
#
#
#
# Elastic Compliance Matrix: (Units=1/GPa)
#
#
# Indices 1 2 3 4 5 6 
#
# 1 0.046121 -0.013126 -0.008583 0.000000 0.022072 0.000000
# 2 -0.013126 0.030667 -0.004150 0.000000 0.004590 0.000000
# 3 -0.008583 -0.004150 0.011495 0.000000 -0.002266 0.000000
# 4 0.000000 0.000000 0.000000 0.063939 0.000000 0.006843
# 5 0.022072 0.004590 -0.002266 0.000000 0.056862 0.000000
# 6 0.000000 0.000000 0.000000 0.006843 0.000000 0.048818
#
#
# Mechanical properties :
#
#
# Convention : Reuss Voigt Hill
#
# Bulk Modulus (GPa) = 27.34768 48.66701 38.00734
# Shear Modulus (GPa) = 15.53729 20.40644 17.97186
#
# Velocity S-wave (km/s) = 3.16360 3.62558 3.40244
# Velocity P-wave (km/s) = 5.56422 6.99110 6.31807
#
# Compressibility (1/GPa) = 0.03656618
#
# Stress axis : x y z
#
# Youngs Moduli (GPa) = 21.68207 32.60871 86.99483
#
# Poissons Ratio (x) = 0.42802 0.74664
# Poissons Ratio (y) = 0.28460 0.36100
# Poissons Ratio (z) = 0.18609 0.13531
#
# Static dielectric constant tensor:
#      x y z
#    x 2.906930 0.000000 -0.159090 
#    y 0.000000 2.628160 0.000000 
#    z -0.159090 0.000000 3.008540 
# 
# 
# High freq. dielectric constant tensor:
#      x y z
#    x 1.588290 0.000000 -0.017180 
#    y 0.000000 1.552420 0.000000 
#    z -0.017180 0.000000 1.593110 
# 
# From -- ./inp_files/103650.got.cif
#   From: 2010.06.25/outbox.cif.g09.slc.cpg/sg12_52_cif.got.tgz:103650.got - 2010.06.28 00:19:55.
