data_PCOD8079014
_publ_section_title
;
Structure prediction by ZEFSAII (Michael W. Deem and Ramdas Pophale) SiO2 
 PCOD8079014
Probable space group: C 2/M
;
_chemical_formula_sum "Si O2"
_cell_formula_units_Z 56
_cell_length_a 8.619867
_cell_length_b 18.588209
_cell_length_c 22.389273
_cell_angle_alpha 90.000000
_cell_angle_beta 54.724975
_cell_angle_gamma 90.000000
_cell_volume 2928.703863
_symmetry_space_group_name_H-M "C 2/M"
_symmetry_group_IT_number 12
_symmetry_cell_setting 'monoclinic'
loop_
_space_group_symop_operation_xyz
x,y,z
-x,y,-z
-x,-y,-z
x,-y,z
1/2+x,1/2+y,z
1/2-x,1/2+y,-z
1/2-x,1/2-y,-z
1/2+x,1/2-y,z
loop_
_atom_site_type_symbol
_atom_site_label
_atom_site_fract_x
_atom_site_fract_y
_atom_site_fract_z
Si Si1 0.600419 0.171442 0.220847
Si Si2 0.402685 0.585099 0.349906
Si Si3 0.762952 0.171450 0.779155
Si Si4 0.675954 0.830104 0.927011
Si Si5 0.543034 0.669876 0.927010
Si Si6 0.674805 0.414508 0.500003
Si Si7 0.047586 0.414901 0.349913
O O1 0.438025 0.178871 0.207986
O O2 0.644836 0.249994 0.236785
O O3 0.784821 0.134115 0.148496
O O4 0.532423 0.120171 0.288663
O O5 0.430636 0.500000 0.344292
O O6 0.601588 0.620174 0.288654
O O7 0.342161 0.613669 0.428577
O O8 0.241735 0.608874 0.338843
O O9 0.730295 0.134134 0.851511
O O10 0.611361 0.749985 0.925788
O O11 0.854777 0.830302 0.930155
O O12 0.500000 0.869771 0.000000
O O13 0.500000 0.630203 0.000000
O O14 0.500000 0.383788 0.500000
O O15 0.672491 0.500000 0.500004
O O16 0.872108 0.386331 0.428585
O O17 0.036468 0.500000 0.344300
#
# Coordination Sequence:
#
# PCOD8079014 Si02
#       7
#     8   8   8   8   8   8   8
#     4  11  21  34  52  76 106 137 171 211 257 304
#     4  10  20  35  55  78 104 135 171 210 253 302
#     4  11  21  34  52  76 106 137 171 211 257 304
#     4  10  17  28  46  70  99 131 169 209 251 297
#     4  10  17  28  46  70  99 131 169 209 251 297
#     4   9  17  31  52  77 102 131 170 211 249 295
#     4  10  20  35  55  78 104 135 171 210 253 302
#
# _framework density 19.121085000000001
#
# number of rings (size 3 to 8) (size 9 to 14) (size 15 to 20)
#    0.000    1.857    0.000    9.000    0.000    3.429 
#    0.000    0.714    0.000    0.857    0.000    0.000 
#    0.000    0.000    0.000    0.000    0.000    0.000 
#
# Total GULP energy -347160.064760 kJ/mol
# GULP energy per Si atom -12398.573741 kJ/mol
# Density = 1.907756 g / cm^3
# Si number density = 19.121085 Si / 1000 Ang^3
#
#
#
# Elastic Constant Matrix: (Units=GPa)
#
#
# Indices 1 2 3 4 5 6 
#
# 1 173.3591 21.5108 59.0944 0.0011 0.0028 0.0001
# 2 21.5108 20.0863 27.6421 0.0000 -0.0005 0.0000
# 3 59.0944 27.6421 176.5646 0.0020 -0.0003 0.0001
# 4 0.0011 0.0000 0.0020 60.2811 -0.0015 0.0021
# 5 0.0028 -0.0005 -0.0003 -0.0015 42.5623 -0.0001
# 6 0.0001 0.0000 0.0001 0.0021 -0.0001 20.7508
#
#
#
# Elastic Compliance Matrix: (Units=1/GPa)
#
#
# Indices 1 2 3 4 5 6 
#
# 1 0.006942 -0.005401 -0.001478 0.000000 -0.000001 0.000000
# 2 -0.005401 0.067658 -0.008785 0.000000 0.000001 0.000000
# 3 -0.001478 -0.008785 0.007534 0.000000 0.000000 0.000000
# 4 0.000000 0.000000 0.000000 0.016589 0.000001 -0.000002
# 5 -0.000001 0.000001 0.000000 0.000001 0.023495 0.000000
# 6 0.000000 0.000000 0.000000 -0.000002 0.000000 0.048191
#
#
# Mechanical properties :
#
#
# Convention : Reuss Voigt Hill
#
# Bulk Modulus (GPa) = 19.68228 65.16718 42.42473
# Shear Modulus (GPa) = 22.86542 42.16970 32.51756
#
# Velocity S-wave (km/s) = 3.46182 4.70127 4.12832
# Velocity P-wave (km/s) = 5.12784 7.97650 6.70519
#
# Compressibility (1/GPa) = 0.05080713
#
# Stress axis : x y z
#
# Youngs Moduli (GPa) = 144.04393 14.78026 132.73851
#
# Poissons Ratio (x) = 0.07982 0.19619
# Poissons Ratio (y) = 0.77793 1.16606
# Poissons Ratio (z) = 0.21290 0.12984
#
# Static dielectric constant tensor:
#      x y z
#    x 3.660420 0.000000 0.000000 
#    y 0.000000 2.873860 0.000000 
#    z 0.000000 0.000000 4.434060 
# 
# 
# High freq. dielectric constant tensor:
#      x y z
#    x 1.767030 0.000000 0.000000 
#    y 0.000000 1.673770 0.000000 
#    z 0.000000 0.000000 1.773960 
# 
# From -- ./inp_files/301667.got.cif
#   From: 2010.06.25/outbox.cif.g09.slc.cpg/sg12_151_cif.got.tgz:301667.got - 2010.06.28 00:19:55.
