data_PCOD8079632
_publ_section_title
;
Structure prediction by ZEFSAII (Michael W. Deem and Ramdas Pophale) SiO2 
 PCOD8079632
Probable space group: C 2/M
;
_chemical_formula_sum "Si O2"
_cell_formula_units_Z 40
_cell_length_a 20.446850
_cell_length_b 18.297053
_cell_length_c 7.748878
_cell_angle_alpha 90.000000
_cell_angle_beta 44.662375
_cell_angle_gamma 90.000000
_cell_volume 2037.779034
_symmetry_space_group_name_H-M "C 2/M"
_symmetry_group_IT_number 12
_symmetry_cell_setting 'monoclinic'
loop_
_space_group_symop_operation_xyz
x,y,z
-x,y,-z
-x,-y,-z
x,-y,z
1/2+x,1/2+y,z
1/2-x,1/2+y,-z
1/2-x,1/2-y,-z
1/2+x,1/2-y,z
loop_
_atom_site_type_symbol
_atom_site_label
_atom_site_fract_x
_atom_site_fract_y
_atom_site_fract_z
Si Si1 0.912361 0.842477 0.834404
Si Si2 0.773403 0.317060 0.661118
Si Si3 0.404743 0.583305 0.495614
Si Si4 0.598951 0.823930 0.259365
Si Si5 0.775023 0.652719 0.283043
O O1 0.889811 0.899806 0.725542
O O2 0.913981 0.761864 0.749619
O O3 0.011852 0.864105 0.732514
O O4 0.832091 0.847461 0.128331
O O5 0.832380 0.343181 0.713020
O O6 0.815577 0.347539 0.402243
O O7 0.773785 0.229746 0.665347
O O8 0.435820 0.500000 0.412139
O O9 0.307322 0.594087 0.579652
O O10 0.500000 0.858424 0.500000
O O11 0.640300 0.862131 0.009127
#
# Coordination Sequence:
#
# PCOD8079632 Si02
#       5
#     8   8   8   8   8
#     4  10  17  33  53  82 112 147 183 213 279 329
#     4  10  19  33  56  78 112 141 183 239 273 329
#     4  11  20  34  55  83 120 153 183 214 265 349
#     4  11  18  33  58  79 110 139 182 242 277 317
#     4  10  20  34  52  82 109 147 185 225 282 317
#
# _framework density 19.629213
#
# number of rings (size 3 to 8) (size 9 to 14) (size 15 to 20)
#    0.000    1.600    6.000    2.400    0.000    1.600 
#    0.000    9.000    0.000    0.600    0.000    1.400 
#    0.000    0.000    0.000    0.000    0.000    0.000 
#
# Total GULP energy -247914.514027 kJ/mol
# GULP energy per Si atom -12395.725701 kJ/mol
# Density = 1.958454 g / cm^3
# Si number density = 19.629213 Si / 1000 Ang^3
#
#
#
# Elastic Constant Matrix: (Units=GPa)
#
#
# Indices 1 2 3 4 5 6 
#
# 1 62.0706 16.5103 67.2860 0.0000 2.1205 0.0000
# 2 16.5103 47.3749 18.2847 0.0000 -13.0129 0.0000
# 3 67.2860 18.2847 160.2735 0.0000 -0.2065 0.0000
# 4 0.0000 0.0000 0.0000 12.2126 0.0000 -5.9703
# 5 2.1205 -13.0129 -0.2065 0.0000 32.3315 0.0000
# 6 0.0000 0.0000 0.0000 -5.9703 0.0000 16.1332
#
#
#
# Elastic Compliance Matrix: (Units=1/GPa)
#
#
# Indices 1 2 3 4 5 6 
#
# 1 0.031935 -0.007747 -0.012530 0.000000 -0.005293 0.000000
# 2 -0.007747 0.026836 0.000205 0.000000 0.011310 0.000000
# 3 -0.012530 0.000205 0.011477 0.000000 0.000978 0.000000
# 4 0.000000 0.000000 0.000000 0.099968 0.000000 0.036994
# 5 -0.005293 0.011310 0.000978 0.000000 0.035835 0.000000
# 6 0.000000 0.000000 0.000000 0.036994 0.000000 0.075674
#
#
# Mechanical properties :
#
#
# Convention : Reuss Voigt Hill
#
# Bulk Modulus (GPa) = 33.21741 52.65342 42.93541
# Shear Modulus (GPa) = 15.06463 23.31132 19.18797
#
# Velocity S-wave (km/s) = 2.77331 3.44987 3.12993
# Velocity P-wave (km/s) = 5.21672 6.53843 5.91461
#
# Compressibility (1/GPa) = 0.03010470
#
# Stress axis : x y z
#
# Youngs Moduli (GPa) = 31.31376 37.26403 87.12741
#
# Poissons Ratio (x) = 0.28869 1.09170
# Poissons Ratio (y) = 0.24259 -0.01790
# Poissons Ratio (z) = 0.39236 -0.00766
#
# Static dielectric constant tensor:
#      x y z
#    x 3.425110 0.000000 -0.041770 
#    y 0.000000 3.109680 0.000000 
#    z -0.041770 0.000000 3.910000 
# 
# 
# High freq. dielectric constant tensor:
#      x y z
#    x 1.753040 0.000000 -0.000380 
#    y 0.000000 1.709690 0.000000 
#    z -0.000380 0.000000 1.774180 
# 
# From -- ./inp_files/88979.got.cif
#   From: 2010.06.25/outbox.cif.g09.slc.cpg/sg12_45_cif.got.tgz:88979.got - 2010.06.28 00:19:55.
