data_PCOD8079936
_publ_section_title
;
Structure prediction by ZEFSAII (Michael W. Deem and Ramdas Pophale) SiO2 
 PCOD8079936
Probable space group: C 2/M
;
_chemical_formula_sum "Si O2"
_cell_formula_units_Z 48
_cell_length_a 23.699804
_cell_length_b 9.393015
_cell_length_c 14.906528
_cell_angle_alpha 90.000000
_cell_angle_beta 119.325528
_cell_angle_gamma 90.000000
_cell_volume 2893.134416
_symmetry_space_group_name_H-M "C 2/M"
_symmetry_group_IT_number 12
_symmetry_cell_setting 'monoclinic'
loop_
_space_group_symop_operation_xyz
x,y,z
-x,y,-z
-x,-y,-z
x,-y,z
1/2+x,1/2+y,z
1/2-x,1/2+y,-z
1/2-x,1/2-y,-z
1/2+x,1/2-y,z
loop_
_atom_site_type_symbol
_atom_site_label
_atom_site_fract_x
_atom_site_fract_y
_atom_site_fract_z
Si Si1 0.942401 0.165291 0.894252
Si Si2 0.810731 0.832598 0.874599
Si Si3 0.670204 0.160534 0.743661
Si Si4 0.547504 0.333305 0.613502
Si Si5 0.854421 0.335995 0.069329
Si Si6 0.023182 0.835793 0.794963
O O1 0.871311 0.226592 0.862878
O O2 0.956996 0.190481 0.799516
O O3 0.939595 0.000000 0.915267
O O4 0.000000 0.233473 0.000000
O O5 0.743470 0.804277 0.768017
O O6 0.815929 0.000000 0.901356
O O7 0.807156 0.745335 0.964473
O O8 0.617940 0.262966 0.657003
O O9 0.672660 0.181348 0.852232
O O10 0.650115 0.000000 0.702818
O O11 0.500000 0.273027 0.500000
O O12 0.558232 0.500000 0.609787
O O13 0.514765 0.295050 0.683845
O O14 0.860877 0.500000 0.046044
O O15 0.924143 0.262088 0.116374
O O16 0.045505 0.000000 0.820941
#
# Coordination Sequence:
#
# PCOD8079936 Si02
#       6
#     8   8   8   8   8   8
#     4   9  15  25  44  66  86 116 156 183 204 246
#     4  10  18  29  44  62  89 122 154 181 209 254
#     4   9  19  31  44  65  90 117 147 181 221 265
#     4   9  18  32  51  71  87 108 143 187 231 268
#     4  10  18  27  40  63  93 120 148 178 216 260
#     4   9  16  29  47  65  87 116 149 184 218 253
#
# _framework density 16.591003000000001
#
# number of rings (size 3 to 8) (size 9 to 14) (size 15 to 20)
#    0.000    2.667    1.667    1.000    0.000    1.667 
#    0.000    1.667    0.000    1.000    0.000    0.000 
#    0.000    0.000    0.000    0.000    0.000    0.000 
#
# Total GULP energy -297444.068811 kJ/mol
# GULP energy per Si atom -12393.502867 kJ/mol
# Density = 1.655324 g / cm^3
# Si number density = 16.591003 Si / 1000 Ang^3
#
#
#
# Elastic Constant Matrix: (Units=GPa)
#
#
# Indices 1 2 3 4 5 6 
#
# 1 97.6846 23.3924 49.1721 0.0000 20.8530 0.0000
# 2 23.3924 50.8847 37.1998 0.0000 9.5375 0.0000
# 3 49.1721 37.1998 102.9259 0.0000 14.7192 0.0000
# 4 0.0000 0.0000 0.0000 20.8403 0.0000 4.0684
# 5 20.8530 9.5375 14.7192 0.0000 21.0707 0.0000
# 6 0.0000 0.0000 0.0000 4.0684 0.0000 15.3241
#
#
#
# Elastic Compliance Matrix: (Units=1/GPa)
#
#
# Indices 1 2 3 4 5 6 
#
# 1 0.015639 -0.001091 -0.005482 0.000000 -0.011154 0.000000
# 2 -0.001091 0.027472 -0.008648 0.000000 -0.005314 0.000000
# 3 -0.005482 -0.008648 0.015692 0.000000 -0.001622 0.000000
# 4 0.000000 0.000000 0.000000 0.050607 0.000000 -0.013436
# 5 -0.011154 -0.005314 -0.001622 0.000000 0.062037 0.000000
# 6 0.000000 0.000000 0.000000 -0.013436 0.000000 0.068824
#
#
# Mechanical properties :
#
#
# Convention : Reuss Voigt Hill
#
# Bulk Modulus (GPa) = 35.25921 52.33599 43.79760
# Shear Modulus (GPa) = 17.84659 20.89575 19.37117
#
# Velocity S-wave (km/s) = 3.28331 3.55274 3.42068
# Velocity P-wave (km/s) = 5.97258 6.96007 6.48515
#
# Compressibility (1/GPa) = 0.02836139
#
# Stress axis : x y z
#
# Youngs Moduli (GPa) = 63.94350 36.40074 63.72614
#
# Poissons Ratio (x) = 0.03972 0.34934
# Poissons Ratio (y) = 0.06977 0.55109
# Poissons Ratio (z) = 0.35053 0.31478
#
# Static dielectric constant tensor:
#      x y z
#    x 3.329980 0.000000 0.095370 
#    y 0.000000 3.018310 0.000000 
#    z 0.095370 0.000000 2.947310 
# 
# 
# High freq. dielectric constant tensor:
#      x y z
#    x 1.639580 0.000000 0.009970 
#    y 0.000000 1.621980 0.000000 
#    z 0.009970 0.000000 1.605960 
# 
# From -- ./inp_files/236580.got.cif
#   From: 2010.06.25/outbox.cif.g09.slc.cpg/sg12_119_cif.got.tgz:236580.got - 2010.06.28 00:19:55.
