data_PCOD8079947
_publ_section_title
;
Structure prediction by ZEFSAII (Michael W. Deem and Ramdas Pophale) SiO2 
 PCOD8079947
Probable space group: C 2/M
;
_chemical_formula_sum "Si O2"
_cell_formula_units_Z 64
_cell_length_a 27.563735
_cell_length_b 9.242572
_cell_length_c 16.532212
_cell_angle_alpha 90.000000
_cell_angle_beta 96.102146
_cell_angle_gamma 90.000000
_cell_volume 4187.879220
_symmetry_space_group_name_H-M "C 2/M"
_symmetry_group_IT_number 12
_symmetry_cell_setting 'monoclinic'
loop_
_space_group_symop_operation_xyz
x,y,z
-x,y,-z
-x,-y,-z
x,-y,z
1/2+x,1/2+y,z
1/2-x,1/2+y,-z
1/2-x,1/2-y,-z
1/2+x,1/2-y,z
loop_
_atom_site_type_symbol
_atom_site_label
_atom_site_fract_x
_atom_site_fract_y
_atom_site_fract_z
Si Si1 0.786916 0.829534 0.064824
Si Si2 0.605292 0.667815 0.969317
Si Si3 0.348695 0.836430 0.734697
Si Si4 0.783963 0.334655 0.391364
Si Si5 0.985210 0.336591 0.090348
Si Si6 0.762491 0.167520 0.239151
Si Si7 0.922782 0.830900 0.853909
Si Si8 0.193243 0.335781 0.434917
O O1 0.841325 0.785649 0.049535
O O2 0.777355 0.773774 0.153913
O O3 0.777929 0.000000 0.055349
O O4 0.750000 0.750000 0.000000
O O5 0.594577 0.500000 0.950934
O O6 0.566963 0.758983 0.909398
O O7 0.600708 0.703952 0.063305
O O8 0.294270 0.798571 0.755491
O O9 0.386086 0.724162 0.779176
O O10 0.351216 0.819739 0.637018
O O11 0.362450 0.000000 0.763600
O O12 0.780261 0.500000 0.363546
O O13 0.796499 0.244468 0.312944
O O14 0.822628 0.314214 0.473268
O O15 0.732622 0.284237 0.418897
O O16 0.981575 0.500000 0.122782
O O17 0.025720 0.250123 0.148441
O O18 0.000000 0.333646 0.000000
O O19 0.774415 0.000000 0.248161
O O20 0.931977 0.000000 0.843600
O O21 0.214919 0.500000 0.428484
#
# Coordination Sequence:
#
# PCOD8079947 Si02
#       8
#     8   8   8   8   8   8   8   8
#     4  10  20  32  45  61  84 114 146 178 210 242
#     4   9  18  31  44  59  81 108 138 174 210 239
#     4   9  16  26  39  56  82 112 139 166 199 243
#     4   9  15  24  40  58  76 103 140 176 206 241
#     4   9  17  29  45  62  78 101 134 168 205 250
#     4   9  18  30  41  56  82 115 145 174 209 244
#     4  10  18  27  41  61  84 107 133 168 208 246
#     4   8  15  26  38  55  80 108 135 167 209 249
#
# _framework density 15.282199
#
# number of rings (size 3 to 8) (size 9 to 14) (size 15 to 20)
#    0.000    2.875    0.000    2.625    0.000    5.500 
#    0.000    0.000    0.000    0.000    0.000    0.000 
#    0.000    1.000    0.000   11.500    0.000    3.750 
#
# Total GULP energy -396600.049070 kJ/mol
# GULP energy per Si atom -12393.751533 kJ/mol
# Density = 1.524742 g / cm^3
# Si number density = 15.282199 Si / 1000 Ang^3
#
#
#
# Elastic Constant Matrix: (Units=GPa)
#
#
# Indices 1 2 3 4 5 6 
#
# 1 74.6363 40.8239 47.6830 0.0000 10.7156 0.0000
# 2 40.8239 74.1966 51.1089 0.0000 11.0287 0.0000
# 3 47.6830 51.1089 121.6155 0.0000 9.0392 0.0000
# 4 0.0000 0.0000 0.0000 26.1832 0.0000 6.8193
# 5 10.7156 11.0287 9.0392 0.0000 15.6403 0.0000
# 6 0.0000 0.0000 0.0000 6.8193 0.0000 20.8141
#
#
#
# Elastic Compliance Matrix: (Units=1/GPa)
#
#
# Indices 1 2 3 4 5 6 
#
# 1 0.021547 -0.007582 -0.004767 0.000000 -0.006661 0.000000
# 2 -0.007582 0.022982 -0.006131 0.000000 -0.007468 0.000000
# 3 -0.004767 -0.006131 0.012647 0.000000 0.000279 0.000000
# 4 0.000000 0.000000 0.000000 0.041755 0.000000 -0.013680
# 5 -0.006661 -0.007468 0.000279 0.000000 0.073606 0.000000
# 6 0.000000 0.000000 0.000000 -0.013680 0.000000 0.052526
#
#
# Mechanical properties :
#
#
# Convention : Reuss Voigt Hill
#
# Bulk Modulus (GPa) = 49.46030 61.07555 55.26792
# Shear Modulus (GPa) = 18.60383 21.24971 19.92677
#
# Velocity S-wave (km/s) = 3.49284 3.73297 3.61490
# Velocity P-wave (km/s) = 6.97865 7.65715 7.32576
#
# Compressibility (1/GPa) = 0.02021823
#
# Stress axis : x y z
#
# Youngs Moduli (GPa) = 46.41000 43.51174 79.06890
#
# Poissons Ratio (x) = 0.32990 0.37691
# Poissons Ratio (y) = 0.35187 0.48474
# Poissons Ratio (z) = 0.22123 0.26675
#
# Static dielectric constant tensor:
#      x y z
#    x 2.684270 0.000000 0.085110 
#    y 0.000000 3.015940 0.000000 
#    z 0.085110 0.000000 3.170480 
# 
# 
# High freq. dielectric constant tensor:
#      x y z
#    x 1.537580 0.000000 0.017760 
#    y 0.000000 1.595780 0.000000 
#    z 0.017760 0.000000 1.583220 
# 
# From -- ./inp_files/287752.got.cif
#   From: 2010.06.25/outbox.cif.g09.slc.cpg/sg12_144_cif.got.tgz:287752.got - 2010.06.28 00:19:55.
