data_PCOD8079287
_publ_section_title
;
Structure prediction by ZEFSAII (Michael W. Deem and Ramdas Pophale) SiO2 
 PCOD8079287
Probable space group: C 2/M
;
_chemical_formula_sum "Si O2"
_cell_formula_units_Z 64
_cell_length_a 25.640085
_cell_length_b 16.556639
_cell_length_c 10.294841
_cell_angle_alpha 90.000000
_cell_angle_beta 88.609097
_cell_angle_gamma 90.000000
_cell_volume 4369.012655
_symmetry_space_group_name_H-M "C 2/M"
_symmetry_group_IT_number 12
_symmetry_cell_setting 'monoclinic'
loop_
_space_group_symop_operation_xyz
x,y,z
-x,y,-z
-x,-y,-z
x,-y,z
1/2+x,1/2+y,z
1/2-x,1/2+y,-z
1/2-x,1/2-y,-z
1/2+x,1/2-y,z
loop_
_atom_site_type_symbol
_atom_site_label
_atom_site_fract_x
_atom_site_fract_y
_atom_site_fract_z
Si Si1 0.223288 0.832300 0.204536
Si Si2 0.852425 0.735182 0.976514
Si Si3 0.436184 0.659531 0.886019
Si Si4 0.295022 0.691399 0.208199
Si Si5 0.280310 0.906481 0.973126
Si Si6 0.868905 0.906158 0.658640
Si Si7 0.629966 0.593667 0.634003
Si Si8 0.454222 0.592224 0.146890
O O1 0.183897 0.790577 0.108927
O O2 0.259050 0.763189 0.267221
O O3 0.190840 0.877981 0.317388
O O4 0.257936 0.895540 0.120033
O O5 0.912823 0.752076 0.930006
O O6 0.835662 0.641669 0.959665
O O7 0.841331 0.766477 0.122809
O O8 0.408733 0.633556 0.755673
O O9 0.498122 0.656699 0.855616
O O10 0.423789 0.600986 0.010843
O O11 0.261050 0.628355 0.126902
O O12 0.319635 0.644591 0.327740
O O13 0.291241 0.000000 0.943303
O O14 0.885971 0.883092 0.511558
O O15 0.871963 0.000000 0.683208
O O16 0.645151 0.500000 0.643901
O O17 0.581816 0.614533 0.730138
O O18 0.474842 0.500000 0.157978
#
# Coordination Sequence:
#
# PCOD8079287 Si02
#       8
#     8   8   8   8   8   8   8   8
#     4   8  16  26  41  59  80 110 144 169 191 242
#     4   8  15  26  41  61  82 105 135 173 207 240
#     4  10  17  30  45  59  80 107 137 178 201 239
#     4   9  15  28  40  57  85 111 139 168 201 234
#     4   9  15  24  42  65  85 107 136 170 206 242
#     4  10  19  29  40  59  86 114 138 168 207 238
#     4  10  20  29  39  59  87 113 139 168 204 243
#     4  10  19  29  44  64  78 104 147 174 201 245
#
# _framework density 14.648619
#
# number of rings (size 3 to 8) (size 9 to 14) (size 15 to 20)
#    0.000    2.750    1.250    3.750    0.000    1.000 
#    0.000    1.875    0.000    0.000    0.000    1.750 
#    0.000    0.000    0.000   11.375    0.000    2.000 
#
# Total GULP energy -396483.647419 kJ/mol
# GULP energy per Si atom -12390.113982 kJ/mol
# Density = 1.461528 g / cm^3
# Si number density = 14.648619 Si / 1000 Ang^3
#
#
#
# Elastic Constant Matrix: (Units=GPa)
#
#
# Indices 1 2 3 4 5 6 
#
# 1 50.1656 11.8890 25.9872 0.0000 7.3347 0.0000
# 2 11.8890 49.9419 14.4060 0.0000 10.7625 0.0000
# 3 25.9872 14.4060 85.5737 0.0000 2.4242 0.0000
# 4 0.0000 0.0000 0.0000 16.9126 0.0000 -0.3996
# 5 7.3347 10.7625 2.4242 0.0000 14.9265 0.0000
# 6 0.0000 0.0000 0.0000 -0.3996 0.0000 24.0691
#
#
#
# Elastic Compliance Matrix: (Units=1/GPa)
#
#
# Indices 1 2 3 4 5 6 
#
# 1 0.025554 -0.001849 -0.007164 0.000000 -0.010061 0.000000
# 2 -0.001849 0.024947 -0.003169 0.000000 -0.016565 0.000000
# 3 -0.007164 -0.003169 0.014296 0.000000 0.003484 0.000000
# 4 0.000000 0.000000 0.000000 0.059151 0.000000 0.000982
# 5 -0.010061 -0.016565 0.003484 0.000000 0.083317 0.000000
# 6 0.000000 0.000000 0.000000 0.000982 0.000000 0.041563
#
#
# Mechanical properties :
#
#
# Convention : Reuss Voigt Hill
#
# Bulk Modulus (GPa) = 24.73180 32.24952 28.49066
# Shear Modulus (GPa) = 17.44162 20.07489 18.75825
#
# Velocity S-wave (km/s) = 3.45435 3.70595 3.58236
# Velocity P-wave (km/s) = 5.72975 6.35415 6.05001
#
# Compressibility (1/GPa) = 0.04043377
#
# Stress axis : x y z
#
# Youngs Moduli (GPa) = 39.13231 40.08460 69.94825
#
# Poissons Ratio (x) = 0.07411 0.50112
# Poissons Ratio (y) = 0.07235 0.22167
# Poissons Ratio (z) = 0.28035 0.12703
#
# Static dielectric constant tensor:
#      x y z
#    x 2.935160 0.000000 -0.128290 
#    y 0.000000 2.780330 0.000000 
#    z -0.128290 0.000000 2.835400 
# 
# 
# High freq. dielectric constant tensor:
#      x y z
#    x 1.546080 0.000000 -0.004930 
#    y 0.000000 1.535030 0.000000 
#    z -0.004930 0.000000 1.553120 
# 
# From -- ./inp_files/97746.got.cif
#   From: 2010.06.25/outbox.cif.g09.slc.cpg/sg12_49_cif.got.tgz:97746.got - 2010.06.28 00:19:55.
