data_PCOD8079890
_publ_section_title
;
Structure prediction by ZEFSAII (Michael W. Deem and Ramdas Pophale) SiO2 
 PCOD8079890
Probable space group: C 2/M
;
_chemical_formula_sum "Si O2"
_cell_formula_units_Z 64
_cell_length_a 27.866358
_cell_length_b 8.942547
_cell_length_c 16.551165
_cell_angle_alpha 90.000000
_cell_angle_beta 85.474730
_cell_angle_gamma 90.000000
_cell_volume 4111.630148
_symmetry_space_group_name_H-M "C 2/M"
_symmetry_group_IT_number 12
_symmetry_cell_setting 'monoclinic'
loop_
_space_group_symop_operation_xyz
x,y,z
-x,y,-z
-x,-y,-z
x,-y,z
1/2+x,1/2+y,z
1/2-x,1/2+y,-z
1/2-x,1/2-y,-z
1/2+x,1/2-y,z
loop_
_atom_site_type_symbol
_atom_site_label
_atom_site_fract_x
_atom_site_fract_y
_atom_site_fract_z
Si Si1 0.516137 0.331655 0.589935
Si Si2 0.787357 0.677958 0.434667
Si Si3 0.221593 0.327720 0.905407
Si Si4 0.107282 0.324569 0.526887
Si Si5 0.150120 0.176417 0.224047
Si Si6 0.818299 0.329142 0.929751
Si Si7 0.245833 0.327017 0.731657
Si Si8 0.076492 0.675930 0.352112
O O1 0.500000 0.328076 0.500000
O O2 0.518816 0.500000 0.623134
O O3 0.568530 0.256477 0.589419
O O4 0.477631 0.239152 0.647407
O O5 0.783319 0.500000 0.440287
O O6 0.750000 0.750000 0.500000
O O7 0.840525 0.730928 0.452104
O O8 0.775929 0.744402 0.346824
O O9 0.240782 0.500000 0.911573
O O10 0.262715 0.209340 0.921310
O O11 0.209101 0.299921 0.812156
O O12 0.176119 0.304281 0.972882
O O13 0.099938 0.500000 0.539729
O O14 0.100614 0.279288 0.434179
O O15 0.147333 0.225425 0.129739
O O16 0.200903 0.235769 0.253946
O O17 0.106861 0.252369 0.276648
O O18 0.144641 0.000000 0.230696
O O19 0.828846 0.500000 0.904671
O O20 0.252300 0.500000 0.712461
O O21 0.074596 0.500000 0.340426
#
# Coordination Sequence:
#
# PCOD8079890 Si02
#       8
#     8   8   8   8   8   8   8   8
#     4   9  17  29  45  62  78 101 134 168 204 247
#     4  10  19  30  43  59  82 111 143 174 203 233
#     4   8  14  25  39  54  74 102 136 169 201 239
#     4   9  18  30  43  60  82 108 137 172 208 238
#     4  10  18  27  39  57  83 111 139 167 199 242
#     4   9  15  23  37  56  77 102 132 166 204 242
#     4   8  15  27  41  56  77 109 143 172 199 231
#     4  10  18  28  42  60  83 107 133 167 207 245
#
# _framework density 15.565602
#
# number of rings (size 3 to 8) (size 9 to 14) (size 15 to 20)
#    0.000    2.875    0.000    3.000    0.000    3.000 
#    0.000    2.500    0.000    0.000    0.000    0.000 
#    0.000    1.000    0.000   11.750    0.000    2.500 
#
# Total GULP energy -396518.874732 kJ/mol
# GULP energy per Si atom -12391.214835 kJ/mol
# Density = 1.553017 g / cm^3
# Si number density = 15.565602 Si / 1000 Ang^3
#
#
#
# Elastic Constant Matrix: (Units=GPa)
#
#
# Indices 1 2 3 4 5 6 
#
# 1 98.4604 35.1944 56.0957 0.0000 -20.5971 0.0000
# 2 35.1944 54.2932 33.2609 0.0000 -13.4142 0.0000
# 3 56.0957 33.2609 117.4623 0.0000 -24.5453 0.0000
# 4 0.0000 0.0000 0.0000 20.3020 0.0000 -9.2344
# 5 -20.5971 -13.4142 -24.5453 0.0000 22.4040 0.0000
# 6 0.0000 0.0000 0.0000 -9.2344 0.0000 21.7151
#
#
#
# Elastic Compliance Matrix: (Units=1/GPa)
#
#
# Indices 1 2 3 4 5 6 
#
# 1 0.016369 -0.006165 -0.004796 0.000000 0.006103 0.000000
# 2 -0.006165 0.025875 -0.003021 0.000000 0.006515 0.000000
# 3 -0.004796 -0.003021 0.013436 0.000000 0.008502 0.000000
# 4 0.000000 0.000000 0.000000 0.061069 0.000000 0.025970
# 5 0.006103 0.006515 0.008502 0.000000 0.063461 0.000000
# 6 0.000000 0.000000 0.000000 0.025970 0.000000 0.057095
#
#
# Mechanical properties :
#
#
# Convention : Reuss Voigt Hill
#
# Bulk Modulus (GPa) = 36.08109 57.70199 46.89154
# Shear Modulus (GPa) = 18.21435 22.59520 20.40477
#
# Velocity S-wave (km/s) = 3.42448 3.81413 3.62455
# Velocity P-wave (km/s) = 6.23430 7.51981 6.90702
#
# Compressibility (1/GPa) = 0.02771535
#
# Stress axis : x y z
#
# Youngs Moduli (GPa) = 61.08977 38.64682 74.42664
#
# Poissons Ratio (x) = 0.23825 0.35698
# Poissons Ratio (y) = 0.37661 0.22488
# Poissons Ratio (z) = 0.29301 0.11677
#
# Static dielectric constant tensor:
#      x y z
#    x 2.796850 0.000000 -0.154520 
#    y 0.000000 2.951540 0.000000 
#    z -0.154520 0.000000 3.240840 
# 
# 
# High freq. dielectric constant tensor:
#      x y z
#    x 1.556170 0.000000 -0.029530 
#    y 0.000000 1.598030 0.000000 
#    z -0.029530 0.000000 1.590830 
# 
# From -- ./inp_files/291547.got.cif
#   From: 2010.06.25/outbox.cif.g09.slc.cpg/sg12_146_cif.got.tgz:291547.got - 2010.06.28 00:19:55.
