data_PCOD8079068
_publ_section_title
;
Structure prediction by ZEFSAII (Michael W. Deem and Ramdas Pophale) SiO2 
 PCOD8079068
Probable space group: C 2/M
;
_chemical_formula_sum "Si O2"
_cell_formula_units_Z 64
_cell_length_a 19.386426
_cell_length_b 19.912698
_cell_length_c 29.863532
_cell_angle_alpha 90.000000
_cell_angle_beta 161.347662
_cell_angle_gamma 90.000000
_cell_volume 3687.069717
_symmetry_space_group_name_H-M "C 2/M"
_symmetry_group_IT_number 12
_symmetry_cell_setting 'monoclinic'
loop_
_space_group_symop_operation_xyz
x,y,z
-x,y,-z
-x,-y,-z
x,-y,z
1/2+x,1/2+y,z
1/2-x,1/2+y,-z
1/2-x,1/2-y,-z
1/2+x,1/2-y,z
loop_
_atom_site_type_symbol
_atom_site_label
_atom_site_fract_x
_atom_site_fract_y
_atom_site_fract_z
Si Si1 0.157242 0.305283 0.909638
Si Si2 0.835040 0.215654 0.595519
Si Si3 0.527568 0.577407 0.593891
Si Si4 0.991667 0.426981 0.131887
Si Si5 0.186300 0.250750 0.082134
Si Si6 0.689840 0.699797 0.584503
Si Si7 0.355330 0.098399 0.951781
Si Si8 0.942242 0.925871 0.644337
O O1 0.287852 0.301425 0.943171
O O2 0.171312 0.378203 0.941573
O O3 0.906742 0.294851 0.746117
O O4 0.250000 0.250000 0.000000
O O5 0.750000 0.250000 0.500000
O O6 0.696584 0.242511 0.551479
O O7 0.784983 0.135893 0.559517
O O8 0.087562 0.235621 0.753925
O O9 0.468802 0.500000 0.546222
O O10 0.758797 0.598044 0.714942
O O11 0.348012 0.625946 0.461103
O O12 0.541153 0.587372 0.655805
O O13 0.979377 0.500000 0.147671
O O14 0.914929 0.438237 0.033964
O O15 0.107603 0.322643 0.015551
O O16 0.000000 0.220858 0.000000
O O17 0.500000 0.721141 0.500000
O O18 0.116630 0.077567 0.790978
O O19 0.500000 0.072417 0.000000
O O20 0.830078 0.000000 0.576709
#
# Coordination Sequence:
#
# PCOD8079068 Si02
#       8
#     8   8   8   8   8   8   8   8
#     4  11  22  37  54  78 111 144 188 224 268 326
#     4  10  20  34  54  79 106 136 180 222 268 322
#     4  10  20  33  53  81 113 149 175 209 279 348
#     4  11  21  32  51  81 115 148 178 217 275 336
#     4   9  20  34  55  78 103 139 181 225 268 311
#     4  11  22  36  54  79 113 144 179 224 276 325
#     4  10  17  28  48  77 109 141 176 213 266 328
#     4  10  19  31  49  74 108 142 177 223 269 321
#
# _framework density 17.357958
#
# number of rings (size 3 to 8) (size 9 to 14) (size 15 to 20)
#    0.000    1.750    5.000    0.375    0.000    2.250 
#    0.000    0.000    0.000    0.750    0.000    1.750 
#    0.000    0.000    0.000    0.000    0.000    0.000 
#
# Total GULP energy -396590.721617 kJ/mol
# GULP energy per Si atom -12393.460051 kJ/mol
# Density = 1.731845 g / cm^3
# Si number density = 17.357958 Si / 1000 Ang^3
#
#
#
# Elastic Constant Matrix: (Units=GPa)
#
#
# Indices 1 2 3 4 5 6 
#
# 1 104.0947 60.9434 39.6697 -0.0205 10.8026 -0.0016
# 2 60.9434 138.3974 37.0835 0.0045 7.1197 0.0000
# 3 39.6697 37.0835 67.0574 -0.0571 -4.9010 -0.0162
# 4 -0.0205 0.0045 -0.0571 22.8704 0.0195 1.1368
# 5 10.8026 7.1197 -4.9010 0.0195 28.5176 -0.0048
# 6 -0.0016 0.0000 -0.0162 1.1368 -0.0048 22.6145
#
#
#
# Elastic Compliance Matrix: (Units=1/GPa)
#
#
# Indices 1 2 3 4 5 6 
#
# 1 0.015692 -0.004692 -0.007127 0.000003 -0.005998 -0.000005
# 2 -0.004692 0.010140 -0.002924 -0.000012 -0.001257 -0.000002
# 3 -0.007127 -0.002924 0.021263 0.000041 0.007084 0.000014
# 4 0.000003 -0.000012 0.000041 0.043834 -0.000021 -0.002203
# 5 -0.005998 -0.001257 0.007084 -0.000021 0.038869 0.000014
# 6 -0.000005 -0.000002 0.000014 -0.002203 0.000014 0.044330
#
#
# Mechanical properties :
#
#
# Convention : Reuss Voigt Hill
#
# Bulk Modulus (GPa) = 56.78453 64.99363 60.88908
# Shear Modulus (GPa) = 23.86834 26.25736 25.06285
#
# Velocity S-wave (km/s) = 3.71221 3.89356 3.80397
# Velocity P-wave (km/s) = 7.15254 7.59852 7.37890
#
# Compressibility (1/GPa) = 0.01761043
#
# Stress axis : x y z
#
# Youngs Moduli (GPa) = 63.72750 98.62305 47.02976
#
# Poissons Ratio (x) = 0.46272 0.33517
# Poissons Ratio (y) = 0.29899 0.13750
# Poissons Ratio (z) = 0.45417 0.28834
#
# Static dielectric constant tensor:
#      x y z
#    x 3.251250 0.001510 -0.160830 
#    y 0.001510 3.289540 -0.000310 
#    z -0.160830 -0.000310 3.072720 
# 
# 
# High freq. dielectric constant tensor:
#      x y z
#    x 1.669690 0.000000 -0.026240 
#    y 0.000000 1.669030 -0.000010 
#    z -0.026240 -0.000010 1.647940 
# 
# From -- ./inp_files/379870.got.cif
#   From: 2010.06.25/outbox.cif.g09.slc.cpg/sg12_190_cif.got.tgz:379870.got - 2010.06.28 00:19:55.
