data_PCOD8079914
_publ_section_title
;
Structure prediction by ZEFSAII (Michael W. Deem and Ramdas Pophale) SiO2 
 PCOD8079914
Probable space group: C 2/M
;
_chemical_formula_sum "Si O2"
_cell_formula_units_Z 56
_cell_length_a 28.587981
_cell_length_b 9.359967
_cell_length_c 14.081045
_cell_angle_alpha 90.000000
_cell_angle_beta 77.319860
_cell_angle_gamma 90.000000
_cell_volume 3675.946979
_symmetry_space_group_name_H-M "C 2/M"
_symmetry_group_IT_number 12
_symmetry_cell_setting 'monoclinic'
loop_
_space_group_symop_operation_xyz
x,y,z
-x,y,-z
-x,-y,-z
x,-y,z
1/2+x,1/2+y,z
1/2-x,1/2+y,-z
1/2-x,1/2-y,-z
1/2+x,1/2-y,z
loop_
_atom_site_type_symbol
_atom_site_label
_atom_site_fract_x
_atom_site_fract_y
_atom_site_fract_z
Si Si1 0.038595 0.833672 0.062469
Si Si2 0.509227 0.336075 0.284572
Si Si3 0.954416 0.661522 0.452129
Si Si4 0.672856 0.665678 0.197341
Si Si5 0.901595 0.836955 0.620105
Si Si6 0.731137 0.838101 0.922239
Si Si7 0.133223 0.667907 0.034313
O O1 0.016565 0.787232 0.173188
O O2 0.085517 0.742237 0.017451
O O3 0.052781 0.000000 0.057134
O O4 0.000000 0.797555 0.000000
O O5 0.492860 0.500000 0.298640
O O6 0.466741 0.241503 0.348619
O O7 0.558761 0.310136 0.317014
O O8 0.939585 0.500000 0.435215
O O9 0.909991 0.737772 0.524757
O O10 0.000000 0.669511 0.500000
O O11 0.660828 0.500000 0.177831
O O12 0.649427 0.703508 0.309550
O O13 0.731037 0.690059 0.180989
O O14 0.649850 0.764217 0.126480
O O15 0.903069 0.000000 0.583906
O O16 0.735530 0.000000 0.953601
O O17 0.750000 0.750000 0.000000
O O18 0.674414 0.804404 0.934038
O O19 0.123785 0.500000 0.054228
#
# Coordination Sequence:
#
# PCOD8079914 Si02
#       7
#     8   8   8   8   8   8   8
#     4  10  20  33  47  61  78 107 147 182 209 241
#     4   9  16  28  42  56  75 103 138 172 203 237
#     4   9  17  26  37  56  80 106 132 162 201 246
#     4   9  15  26  42  59  82 112 144 168 196 240
#     4   9  15  24  40  59  79 107 138 167 196 234
#     4   8  15  25  38  57  80 108 138 167 198 242
#     4  10  18  27  40  59  84 110 137 172 213 245
#
# _framework density 15.234170000000001
#
# number of rings (size 3 to 8) (size 9 to 14) (size 15 to 20)
#    0.000    2.857    1.429    0.857    0.000    3.714 
#    0.000    0.000    0.000    0.000    0.000    0.000 
#    0.000    1.143    0.000    2.286    0.000    3.143 
#
# Total GULP energy -346926.286089 kJ/mol
# GULP energy per Si atom -12390.224503 kJ/mol
# Density = 1.519950 g / cm^3
# Si number density = 15.234170 Si / 1000 Ang^3
#
#
#
# Elastic Constant Matrix: (Units=GPa)
#
#
# Indices 1 2 3 4 5 6 
#
# 1 75.1742 46.2179 55.9654 0.0000 -26.9817 0.0000
# 2 46.2179 76.9822 48.7807 0.0000 -21.0799 0.0000
# 3 55.9654 48.7807 97.5481 0.0000 -34.3720 0.0000
# 4 0.0000 0.0000 0.0000 17.8678 0.0000 -6.5847
# 5 -26.9817 -21.0799 -34.3720 0.0000 29.3711 0.0000
# 6 0.0000 0.0000 0.0000 -6.5847 0.0000 16.9593
#
#
#
# Elastic Compliance Matrix: (Units=1/GPa)
#
#
# Indices 1 2 3 4 5 6 
#
# 1 0.028831 -0.009252 -0.008375 0.000000 0.010044 0.000000
# 2 -0.009252 0.022307 -0.005446 0.000000 0.001137 0.000000
# 3 -0.008375 -0.005446 0.023299 0.000000 0.015663 0.000000
# 4 0.000000 0.000000 0.000000 0.065312 0.000000 0.025358
# 5 0.010044 0.001137 0.015663 0.000000 0.062420 0.000000
# 6 0.000000 0.000000 0.000000 0.025358 0.000000 0.068810
#
#
# Mechanical properties :
#
#
# Convention : Reuss Voigt Hill
#
# Bulk Modulus (GPa) = 35.34810 61.29250 48.32030
# Shear Modulus (GPa) = 15.31132 19.42235 17.36684
#
# Velocity S-wave (km/s) = 3.17371 3.57448 3.38004
# Velocity P-wave (km/s) = 6.05669 7.57342 6.85712
#
# Compressibility (1/GPa) = 0.02829006
#
# Stress axis : x y z
#
# Youngs Moduli (GPa) = 34.68534 44.82883 42.92011
#
# Poissons Ratio (x) = 0.41474 0.35946
# Poissons Ratio (y) = 0.32090 0.23376
# Poissons Ratio (z) = 0.29050 0.24416
#
# Static dielectric constant tensor:
#      x y z
#    x 2.885290 0.000000 -0.571280 
#    y 0.000000 2.988800 0.000000 
#    z -0.571280 0.000000 3.000190 
# 
# 
# High freq. dielectric constant tensor:
#      x y z
#    x 1.542200 0.000000 -0.047070 
#    y 0.000000 1.591760 0.000000 
#    z -0.047070 0.000000 1.568050 
# 
# From -- ./inp_files/247754.got.cif
#   From: 2010.06.25/outbox.cif.g09.slc.cpg/sg12_124_cif.got.tgz:247754.got - 2010.06.28 00:19:55.
