data_PCOD8079856
_publ_section_title
;
Structure prediction by ZEFSAII (Michael W. Deem and Ramdas Pophale) SiO2 
 PCOD8079856
Probable space group: C 2/M
;
_chemical_formula_sum "Si O2"
_cell_formula_units_Z 64
_cell_length_a 14.228260
_cell_length_b 30.042556
_cell_length_c 17.441421
_cell_angle_alpha 90.000000
_cell_angle_beta 145.618667
_cell_angle_gamma 90.000000
_cell_volume 4210.046600
_symmetry_space_group_name_H-M "C 2/M"
_symmetry_group_IT_number 12
_symmetry_cell_setting 'monoclinic'
loop_
_space_group_symop_operation_xyz
x,y,z
-x,y,-z
-x,-y,-z
x,-y,z
1/2+x,1/2+y,z
1/2-x,1/2+y,-z
1/2-x,1/2-y,-z
1/2+x,1/2-y,z
loop_
_atom_site_type_symbol
_atom_site_label
_atom_site_fract_x
_atom_site_fract_y
_atom_site_fract_z
Si Si1 0.017487 0.361740 0.330431
Si Si2 0.348125 0.189110 0.351316
Si Si3 0.054392 0.699405 0.854641
Si Si4 0.069755 0.451056 0.666513
Si Si5 0.874198 0.792579 0.166807
Si Si6 0.850112 0.267032 0.847773
Si Si7 0.832268 0.861991 0.641493
Si Si8 0.768294 0.048851 0.655120
O O1 0.905715 0.332162 0.311060
O O2 0.995975 0.342158 0.231353
O O3 0.943905 0.412021 0.279460
O O4 0.211584 0.359879 0.486008
O O5 0.500000 0.211721 0.500000
O O6 0.212918 0.226208 0.244432
O O7 0.271027 0.151341 0.352884
O O8 0.040623 0.745691 0.798074
O O9 0.924628 0.697514 0.837852
O O10 0.241946 0.693742 0.012521
O O11 0.079987 0.500000 0.713186
O O12 0.231575 0.444269 0.721082
O O13 0.907299 0.447880 0.505222
O O14 0.791525 0.788911 0.195105
O O15 0.009762 0.831143 0.266225
O O16 0.000000 0.247857 0.000000
O O17 0.887324 0.912928 0.698589
O O18 0.850054 0.000000 0.696822
#
# Coordination Sequence:
#
# PCOD8079856 Si02
#       8
#     8   8   8   8   8   8   8   8
#     4  10  18  28  44  68  93 118 148 180 215 256
#     4  10  18  26  41  66  94 117 143 180 218 250
#     4  10  20  32  46  63  85 116 152 184 219 261
#     4   8  13  23  41  65  92 119 145 174 211 259
#     4  10  20  32  46  63  85 116 152 184 219 261
#     4  10  20  34  46  59  84 118 154 185 214 259
#     4  10  18  28  44  68  93 118 148 180 215 256
#     4   8  13  23  41  65  92 119 145 174 211 259
#
# _framework density 15.201732
#
# number of rings (size 3 to 8) (size 9 to 14) (size 15 to 20)
#    0.000    2.500    3.750    0.750    0.000    1.500 
#    0.000    0.000    0.000    0.750    0.000    2.625 
#    0.000    7.000    0.000    0.000    0.000    0.000 
#
# Total GULP energy -396605.588917 kJ/mol
# GULP energy per Si atom -12393.924654 kJ/mol
# Density = 1.516713 g / cm^3
# Si number density = 15.201732 Si / 1000 Ang^3
#
#
#
# Elastic Constant Matrix: (Units=GPa)
#
#
# Indices 1 2 3 4 5 6 
#
# 1 66.0417 30.2359 23.5218 0.0000 -3.8900 0.0000
# 2 30.2359 109.6269 42.7880 0.0000 -4.3664 0.0000
# 3 23.5218 42.7880 49.7383 -0.0001 -4.7107 0.0000
# 4 0.0000 0.0000 -0.0001 1.5749 0.0000 -5.7247
# 5 -3.8900 -4.3664 -4.7107 0.0000 21.6026 0.0000
# 6 0.0000 0.0000 0.0000 -5.7247 0.0000 18.3818
#
#
#
# Elastic Compliance Matrix: (Units=1/GPa)
#
#
# Indices 1 2 3 4 5 6 
#
# 1 0.018719 -0.002565 -0.006511 0.000002 0.001433 0.000001
# 2 -0.002565 0.014085 -0.010903 0.000003 0.000008 0.000001
# 3 -0.006511 -0.010903 0.032924 -0.000010 0.003803 -0.000003
# 4 0.000002 0.000003 -0.000010 -4.809095 -0.000002 -1.497711
# 5 0.001433 0.000008 0.003803 -0.000002 0.047380 -0.000001
# 6 0.000001 0.000001 -0.000003 -1.497711 -0.000001 -0.412035
#
#
# Mechanical properties :
#
#
# Convention : Reuss Voigt Hill
#
# Bulk Modulus (GPa) = 38.80276 46.49982 42.65129
# Shear Modulus (GPa) = -0.98825 16.90262 7.95719
#
# Velocity S-wave (km/s) = -0.80715 3.33812 2.29036
# Velocity P-wave (km/s) = 4.97111 6.74628 5.92555
#
# Compressibility (1/GPa) = 0.02577136
#
# Stress axis : x y z
#
# Youngs Moduli (GPa) = 53.42055 70.99666 30.37290
#
# Poissons Ratio (x) = 0.18209 0.19774
# Poissons Ratio (y) = 0.13701 0.33117
# Poissons Ratio (z) = 0.34780 0.77410
#
# Static dielectric constant tensor:
#      x y z
#    x 2.815380 0.000000 -0.023600 
#    y 0.000000 3.045270 0.000000 
#    z -0.023600 0.000000 2.757770 
# 
# 
# High freq. dielectric constant tensor:
#      x y z
#    x 1.561440 0.000000 -0.002420 
#    y 0.000000 1.573750 0.000000 
#    z -0.002420 0.000000 1.561690 
# 
# From -- ./inp_files/273193.got.cif
#   From: 2010.06.25/outbox.cif.g09.slc.cpg/sg12_137_cif.got.tgz:273193.got - 2010.06.28 00:19:55.
