data_PCOD8079815
_publ_section_title
;
Structure prediction by ZEFSAII (Michael W. Deem and Ramdas Pophale) SiO2 
 PCOD8079815
Probable space group: C 2/M
;
_chemical_formula_sum "Si O2"
_cell_formula_units_Z 56
_cell_length_a 27.447530
_cell_length_b 9.327188
_cell_length_c 17.642504
_cell_angle_alpha 90.000000
_cell_angle_beta 53.849555
_cell_angle_gamma 90.000000
_cell_volume 3647.044501
_symmetry_space_group_name_H-M "C 2/M"
_symmetry_group_IT_number 12
_symmetry_cell_setting 'monoclinic'
loop_
_space_group_symop_operation_xyz
x,y,z
-x,y,-z
-x,-y,-z
x,-y,z
1/2+x,1/2+y,z
1/2-x,1/2+y,-z
1/2-x,1/2-y,-z
1/2+x,1/2-y,z
loop_
_atom_site_type_symbol
_atom_site_label
_atom_site_fract_x
_atom_site_fract_y
_atom_site_fract_z
Si Si1 0.984459 0.832975 0.402272
Si Si2 0.539946 0.332626 0.029661
Si Si3 0.597744 0.330724 0.392634
Si Si4 0.469042 0.666611 0.794484
Si Si5 0.327187 0.332007 0.059003
Si Si6 0.799114 0.663021 0.774846
Si Si7 0.847991 0.332996 0.894849
O O1 0.926534 0.775599 0.502372
O O2 0.048341 0.775431 0.376618
O O3 0.979618 0.799562 0.316381
O O4 0.985796 0.000000 0.418194
O O5 0.542053 0.500000 0.011302
O O6 0.508811 0.300117 0.140146
O O7 0.500000 0.257791 0.000000
O O8 0.609099 0.275889 0.964785
O O9 0.608047 0.500000 0.380029
O O10 0.662432 0.260500 0.317068
O O11 0.449054 0.500000 0.806983
O O12 0.413715 0.766336 0.824326
O O13 0.331567 0.500000 0.033943
O O14 0.272729 0.304922 0.168583
O O15 0.313164 0.246606 0.994689
O O16 0.814349 0.500000 0.739710
O O17 0.812451 0.694213 0.850264
O O18 0.853733 0.500000 0.909213
#
# Coordination Sequence:
#
# PCOD8079815 Si02
#       7
#     8   8   8   8   8   8   8
#     4   8  14  25  40  59  78 104 139 167 194 228
#     4   8  14  25  43  65  80  94 126 170 205 234
#     4   9  16  26  41  57  78 107 140 169 191 227
#     4   9  15  26  44  60  80 108 133 160 200 241
#     4   9  18  30  42  55  78 109 135 162 198 240
#     4  10  19  28  37  56  83 110 136 162 196 233
#     4  10  18  26  37  57  83 106 135 167 188 227
#
# _framework density 15.354900000000001
#
# number of rings (size 3 to 8) (size 9 to 14) (size 15 to 20)
#    0.000    3.000    1.429    2.571    0.000    1.143 
#    0.000    2.143    0.000    6.857    0.000    1.000 
#    0.000    0.000    0.000    0.000    0.000    0.000 
#
# Total GULP energy -346869.699981 kJ/mol
# GULP energy per Si atom -12388.203571 kJ/mol
# Density = 1.531995 g / cm^3
# Si number density = 15.354900 Si / 1000 Ang^3
#
#
#
# Elastic Constant Matrix: (Units=GPa)
#
#
# Indices 1 2 3 4 5 6 
#
# 1 65.8871 18.9030 54.5013 0.0000 0.5211 0.0000
# 2 18.9030 36.8568 32.4104 -0.0004 -4.0825 -0.0001
# 3 54.5013 32.4104 139.1137 0.0000 -9.2190 0.0000
# 4 0.0000 -0.0004 0.0000 21.6171 0.0000 -4.2987
# 5 0.5211 -4.0825 -9.2190 0.0000 18.3454 0.0000
# 6 0.0000 -0.0001 0.0000 -4.2987 0.0000 9.9321
#
#
#
# Elastic Compliance Matrix: (Units=1/GPa)
#
#
# Indices 1 2 3 4 5 6 
#
# 1 0.023782 -0.005441 -0.008456 0.000000 -0.006136 0.000000
# 2 -0.005441 0.035615 -0.005824 0.000001 0.005153 0.000001
# 3 -0.008456 -0.005824 0.012194 0.000000 0.005072 0.000000
# 4 0.000000 0.000001 0.000000 0.050616 0.000000 0.021907
# 5 -0.006136 0.005153 0.005072 0.000000 0.058379 0.000000
# 6 0.000000 0.000001 0.000000 0.021907 0.000000 0.110165
#
#
# Mechanical properties :
#
#
# Convention : Reuss Voigt Hill
#
# Bulk Modulus (GPa) = 31.10567 50.38742 40.74654
# Shear Modulus (GPa) = 14.66659 19.04847 16.85753
#
# Velocity S-wave (km/s) = 3.09394 3.52596 3.31699
# Velocity P-wave (km/s) = 5.75022 7.03299 6.42371
#
# Compressibility (1/GPa) = 0.03214848
#
# Stress axis : x y z
#
# Youngs Moduli (GPa) = 42.04893 28.07802 82.00509
#
# Poissons Ratio (x) = 0.15277 0.69345
# Poissons Ratio (y) = 0.22878 0.47764
# Poissons Ratio (z) = 0.35557 0.16354
#
# Static dielectric constant tensor:
#      x y z
#    x 2.857970 0.000000 -0.035170 
#    y 0.000000 2.723980 0.000000 
#    z -0.035170 0.000000 3.153850 
# 
# 
# High freq. dielectric constant tensor:
#      x y z
#    x 1.544290 0.000000 -0.008260 
#    y 0.000000 1.564140 0.000000 
#    z -0.008260 0.000000 1.595420 
# 
# From -- ./inp_files/291448.got.cif
#   From: 2010.06.25/outbox.cif.g09.slc.cpg/sg12_146_cif.got.tgz:291448.got - 2010.06.28 00:19:55.
