data_PCOD8079492
_publ_section_title
;
Structure prediction by ZEFSAII (Michael W. Deem and Ramdas Pophale) SiO2 
 PCOD8079492
Probable space group: C 2/M
;
_chemical_formula_sum "Si O2"
_cell_formula_units_Z 64
_cell_length_a 22.312364
_cell_length_b 17.342565
_cell_length_c 11.871637
_cell_angle_alpha 90.000000
_cell_angle_beta 52.195423
_cell_angle_gamma 90.000000
_cell_volume 3629.567792
_symmetry_space_group_name_H-M "C 2/M"
_symmetry_group_IT_number 12
_symmetry_cell_setting 'monoclinic'
loop_
_space_group_symop_operation_xyz
x,y,z
-x,y,-z
-x,-y,-z
x,-y,z
1/2+x,1/2+y,z
1/2-x,1/2+y,-z
1/2-x,1/2-y,-z
1/2+x,1/2-y,z
loop_
_atom_site_type_symbol
_atom_site_label
_atom_site_fract_x
_atom_site_fract_y
_atom_site_fract_z
Si Si1 0.819183 0.210662 0.857928
Si Si2 0.224539 0.355062 0.633344
Si Si3 0.077277 0.288113 0.702485
Si Si4 0.727107 0.412164 0.655755
Si Si5 0.081427 0.169514 0.877782
Si Si6 0.718262 0.911693 0.884193
Si Si7 0.324075 0.779197 0.612152
Si Si8 0.091022 0.286364 0.066250
O O1 0.794733 0.122800 0.855437
O O2 0.840785 0.254253 0.718745
O O3 0.890399 0.221319 0.859449
O O4 0.750000 0.250000 0.000000
O O5 0.137942 0.344861 0.691698
O O6 0.273145 0.393220 0.477248
O O7 0.227229 0.410206 0.738781
O O8 0.260076 0.272165 0.623379
O O9 0.078829 0.203391 0.755131
O O10 0.097411 0.277454 0.547656
O O11 0.992431 0.321525 0.815453
O O12 0.747466 0.500000 0.652577
O O13 0.645650 0.395281 0.807059
O O14 0.790715 0.365167 0.650430
O O15 0.098494 0.242808 0.938909
O O16 0.000000 0.131306 0.000000
O O17 0.707286 0.000000 0.936171
O O18 0.647097 0.859421 0.003797
#
# Coordination Sequence:
#
# PCOD8079492 Si02
#       8
#     8   8   8   8   8   8   8   8
#     4   9  19  35  53  73  99 132 182 212 240 303
#     4  10  17  32  52  77 100 133 174 213 257 313
#     4  10  17  31  56  76 100 134 175 210 260 303
#     4  11  19  29  47  77 104 128 165 213 260 304
#     4  10  18  32  52  70 100 137 169 208 257 303
#     4  10  19  33  53  78 105 135 170 218 267 302
#     4  10  18  33  55  73 100 137 174 213 252 303
#     4  10  20  34  52  76 104 137 177 213 247 310
#
# _framework density 17.632953000000001
#
# number of rings (size 3 to 8) (size 9 to 14) (size 15 to 20)
#    0.000    2.000    3.750    2.625    0.000    0.750 
#    0.000    9.375    0.000    0.750    0.000    8.750 
#    0.000    0.000    0.000    0.000    0.000    0.000 
#
# Total GULP energy -396662.195785 kJ/mol
# GULP energy per Si atom -12395.693618 kJ/mol
# Density = 1.759282 g / cm^3
# Si number density = 17.632953 Si / 1000 Ang^3
#
#
#
# Elastic Constant Matrix: (Units=GPa)
#
#
# Indices 1 2 3 4 5 6 
#
# 1 60.4154 26.4904 32.3951 0.0000 -7.0800 0.0000
# 2 26.4904 99.4991 32.1349 0.0000 -8.3648 0.0000
# 3 32.3951 32.1349 106.8094 0.0000 -6.7671 0.0000
# 4 0.0000 0.0000 0.0000 15.6019 0.0000 -1.6055
# 5 -7.0800 -8.3648 -6.7671 0.0000 26.5833 0.0000
# 6 0.0000 0.0000 0.0000 -1.6055 0.0000 11.4815
#
#
#
# Elastic Compliance Matrix: (Units=1/GPa)
#
#
# Indices 1 2 3 4 5 6 
#
# 1 0.021325 -0.003750 -0.005137 0.000000 0.003192 0.000000
# 2 -0.003750 0.011985 -0.002330 0.000000 0.002179 0.000000
# 3 -0.005137 -0.002330 0.011677 0.000000 0.000871 0.000000
# 4 0.000000 0.000000 0.000000 0.065030 0.000000 0.009094
# 5 0.003192 0.002179 0.000871 0.000000 0.039375 0.000000
# 6 0.000000 0.000000 0.000000 0.009094 0.000000 0.088368
#
#
# Mechanical properties :
#
#
# Convention : Reuss Voigt Hill
#
# Bulk Modulus (GPa) = 44.34352 49.86275 47.10313
# Shear Modulus (GPa) = 18.67675 22.44691 20.56183
#
# Velocity S-wave (km/s) = 3.25806 3.57180 3.41853
# Velocity P-wave (km/s) = 6.27343 6.73423 6.50791
#
# Compressibility (1/GPa) = 0.02255121
#
# Stress axis : x y z
#
# Youngs Moduli (GPa) = 46.89308 83.44096 85.63906
#
# Poissons Ratio (x) = 0.31290 0.43996
# Poissons Ratio (y) = 0.17585 0.19956
# Poissons Ratio (z) = 0.24091 0.19444
#
# Static dielectric constant tensor:
#      x y z
#    x 3.489840 0.000000 0.109700 
#    y 0.000000 2.914550 0.000000 
#    z 0.109700 0.000000 3.555830 
# 
# 
# High freq. dielectric constant tensor:
#      x y z
#    x 1.664120 0.000000 0.003040 
#    y 0.000000 1.646390 0.000000 
#    z 0.003040 0.000000 1.698540 
# 
# From -- ./inp_files/177105.got.cif
#   From: 2010.06.25/outbox.cif.g09.slc.cpg/sg12_89_cif.got.tgz:177105.got - 2010.06.28 00:19:55.
