data_PCOD8079590
_publ_section_title
;
Structure prediction by ZEFSAII (Michael W. Deem and Ramdas Pophale) SiO2 
 PCOD8079590
Probable space group: C 2/M
;
_chemical_formula_sum "Si O2"
_cell_formula_units_Z 32
_cell_length_a 10.316081
_cell_length_b 15.291631
_cell_length_c 26.306382
_cell_angle_alpha 90.000000
_cell_angle_beta 25.027366
_cell_angle_gamma 90.000000
_cell_volume 1755.587557
_symmetry_space_group_name_H-M "C 2/M"
_symmetry_group_IT_number 12
_symmetry_cell_setting 'monoclinic'
loop_
_space_group_symop_operation_xyz
x,y,z
-x,y,-z
-x,-y,-z
x,-y,z
1/2+x,1/2+y,z
1/2-x,1/2+y,-z
1/2-x,1/2-y,-z
1/2+x,1/2-y,z
loop_
_atom_site_type_symbol
_atom_site_label
_atom_site_fract_x
_atom_site_fract_y
_atom_site_fract_z
Si Si1 0.901077 0.596806 0.670957
Si Si2 0.270005 0.399851 0.440196
Si Si3 0.249134 0.267475 0.769388
Si Si4 0.206707 0.176642 0.133308
O O1 0.930838 0.500000 0.685080
O O2 0.933905 0.674032 0.701048
O O3 0.562615 0.604267 0.764726
O O4 0.165053 0.610242 0.535595
O O5 0.349749 0.500000 0.398666
O O6 0.568979 0.342413 0.324873
O O7 0.000000 0.364899 0.500000
O O8 0.186611 0.290197 0.849727
O O9 0.927140 0.256772 0.853566
O O10 0.500000 0.136380 0.000000
#
# Coordination Sequence:
#
# PCOD8079590 Si02
#       4
#     8   8   8   8
#     4   9  20  33  55  83 111 140 177 223 272 326
#     4  10  17  32  56  85 110 136 183 229 268 325
#     4  10  20  35  58  81 112 144 180 226 278 315
#     4  10  21  35  57  78 110 148 189 222 264 318
#
# _framework density 18.227515
#
# number of rings (size 3 to 8) (size 9 to 14) (size 15 to 20)
#    1.500    0.750    2.500    1.500    0.000    0.500 
#    0.000    1.250    0.000    5.250    0.000    0.000 
#    0.000    0.000    0.000    0.000    0.000    0.000 
#
# Total GULP energy -198237.251972 kJ/mol
# GULP energy per Si atom -12389.828248 kJ/mol
# Density = 1.818603 g / cm^3
# Si number density = 18.227515 Si / 1000 Ang^3
#
#
#
# Elastic Constant Matrix: (Units=GPa)
#
#
# Indices 1 2 3 4 5 6 
#
# 1 42.3544 4.7147 20.7861 0.1634 14.0513 0.0329
# 2 4.7147 75.4068 26.3956 0.0707 14.1441 -0.0915
# 3 20.7861 26.3956 92.5263 -0.2345 11.9254 -0.0899
# 4 0.1634 0.0707 -0.2345 9.8481 0.0202 -7.6984
# 5 14.0513 14.1441 11.9254 0.0202 28.6861 -0.0320
# 6 0.0329 -0.0915 -0.0899 -7.6984 -0.0320 17.8746
#
#
#
# Elastic Compliance Matrix: (Units=1/GPa)
#
#
# Indices 1 2 3 4 5 6 
#
# 1 0.030865 0.002774 -0.005921 -0.001086 -0.014025 -0.000565
# 2 0.002774 0.015966 -0.004215 -0.000321 -0.007479 -0.000096
# 3 -0.005921 -0.004215 0.013420 0.000743 -0.000601 0.000376
# 4 -0.001086 -0.000321 0.000743 0.153142 0.000347 0.065961
# 5 -0.014025 -0.007479 -0.000601 0.000347 0.045667 0.000215
# 6 -0.000565 -0.000096 0.000376 0.065961 0.000215 0.084357
#
#
# Mechanical properties :
#
#
# Convention : Reuss Voigt Hill
#
# Bulk Modulus (GPa) = 21.96504 34.89781 28.43143
# Shear Modulus (GPa) = 13.39346 21.84118 17.61732
#
# Velocity S-wave (km/s) = 2.71365 3.46534 3.11227
# Velocity P-wave (km/s) = 4.67923 5.93284 5.34293
#
# Compressibility (1/GPa) = 0.04552689
#
# Stress axis : x y z
#
# Youngs Moduli (GPa) = 32.39958 62.63164 74.51607
#
# Poissons Ratio (x) = -0.17372 0.44119
# Poissons Ratio (y) = -0.08987 0.31408
# Poissons Ratio (z) = 0.19183 0.26399
#
# Static dielectric constant tensor:
#      x y z
#    x 3.036520 -0.000080 0.053180 
#    y -0.000080 3.229810 0.000200 
#    z 0.053180 0.000200 3.226010 
# 
# 
# High freq. dielectric constant tensor:
#      x y z
#    x 1.679880 0.000000 0.012940 
#    y 0.000000 1.695380 0.000000 
#    z 0.012940 0.000000 1.705900 
# 
# From -- ./inp_files/118125.got.cif
#   From: 2010.06.25/outbox.cif.g09.slc.cpg/sg12_60_cif.got.tgz:118125.got - 2010.06.28 00:19:55.
