data_PCOD8079254
_publ_section_title
;
Structure prediction by ZEFSAII (Michael W. Deem and Ramdas Pophale) SiO2 
 PCOD8079254
Probable space group: C 2/M
;
_chemical_formula_sum "Si O2"
_cell_formula_units_Z 64
_cell_length_a 20.320077
_cell_length_b 8.922772
_cell_length_c 30.321731
_cell_angle_alpha 90.000000
_cell_angle_beta 138.911310
_cell_angle_gamma 90.000000
_cell_volume 3613.218208
_symmetry_space_group_name_H-M "C 2/M"
_symmetry_group_IT_number 12
_symmetry_cell_setting 'monoclinic'
loop_
_space_group_symop_operation_xyz
x,y,z
-x,y,-z
-x,-y,-z
x,-y,z
1/2+x,1/2+y,z
1/2-x,1/2+y,-z
1/2-x,1/2-y,-z
1/2+x,1/2-y,z
loop_
_atom_site_type_symbol
_atom_site_label
_atom_site_fract_x
_atom_site_fract_y
_atom_site_fract_z
Si Si1 0.694565 0.674890 0.176737
Si Si2 0.167805 0.833152 0.691496
Si Si3 0.013552 0.676214 0.557260
Si Si4 0.018705 0.174645 0.961860
Si Si5 0.230214 0.821037 0.036630
Si Si6 0.822249 0.821823 0.165452
Si Si7 0.857908 0.675674 0.553003
Si Si8 0.506248 0.334312 0.686596
O O1 0.721157 0.500000 0.186438
O O2 0.736009 0.739704 0.243739
O O3 0.575554 0.703833 0.117674
O O4 0.739944 0.756396 0.157152
O O5 0.116562 0.753354 0.624091
O O6 0.090323 0.839007 0.691975
O O7 0.201572 0.000000 0.694757
O O8 0.028139 0.500000 0.569366
O O9 0.919296 0.727518 0.540150
O O10 0.000000 0.726188 0.500000
O O11 0.037156 0.000000 0.978581
O O12 0.119723 0.240586 0.992511
O O13 0.000000 0.250766 0.000000
O O14 0.309714 0.756035 0.111849
O O15 0.238844 0.000000 0.039419
O O16 0.250000 0.750000 0.000000
O O17 0.935642 0.783740 0.239585
O O18 0.807484 0.000000 0.154945
O O19 0.842225 0.500000 0.545350
O O20 0.750000 0.750000 0.500000
O O21 0.918498 0.721285 0.627913
O O22 0.458833 0.500000 0.668432
#
# Coordination Sequence:
#
# PCOD8079254 Si02
#       8
#     8   8   8   8   8   8   8   8
#     4  10  17  29  52  77 102 133 171 214 256 300
#     4   9  17  29  46  74 107 134 164 207 259 304
#     4   9  18  33  53  76 101 133 175 210 243 300
#     4   9  17  32  53  78 102 131 171 211 254 304
#     4  11  22  37  55  75 104 138 175 213 257 312
#     4  10  19  32  51  78 106 133 168 213 263 306
#     4  10  19  31  51  77 104 132 165 208 253 297
#     4   8  16  30  48  71 101 131 165 206 248 299
#
# _framework density 17.71274
#
# number of rings (size 3 to 8) (size 9 to 14) (size 15 to 20)
#    0.000    2.500    1.250    2.625    0.000    4.250 
#    0.000    3.125    2.750    0.000    0.000    0.000 
#    0.000    0.000    0.000    0.000    0.000    0.000 
#
# Total GULP energy -396672.232955 kJ/mol
# GULP energy per Si atom -12396.007280 kJ/mol
# Density = 1.767243 g / cm^3
# Si number density = 17.712740 Si / 1000 Ang^3
#
#
#
# Elastic Constant Matrix: (Units=GPa)
#
#
# Indices 1 2 3 4 5 6 
#
# 1 79.6492 34.7103 64.7446 0.0000 -8.0789 0.0000
# 2 34.7103 81.6865 62.9497 0.0000 -5.0136 0.0002
# 3 64.7446 62.9497 160.3096 0.0000 -13.0957 0.0000
# 4 0.0000 0.0000 0.0000 32.7338 0.0000 -2.9691
# 5 -8.0789 -5.0136 -13.0957 0.0000 28.3441 0.0000
# 6 0.0000 0.0002 0.0000 -2.9691 0.0000 19.9580
#
#
#
# Elastic Compliance Matrix: (Units=1/GPa)
#
#
# Indices 1 2 3 4 5 6 
#
# 1 0.019343 -0.003158 -0.006409 0.000000 0.001994 0.000000
# 2 -0.003158 0.018070 -0.005853 0.000000 -0.000408 0.000000
# 3 -0.006409 -0.005853 0.011318 0.000000 0.002367 0.000000
# 4 0.000000 0.000000 0.000000 0.030967 0.000000 0.004607
# 5 0.001994 -0.000408 0.002367 0.000000 0.036870 0.000000
# 6 0.000000 0.000000 0.000000 0.004607 0.000000 0.050790
#
#
# Mechanical properties :
#
#
# Convention : Reuss Voigt Hill
#
# Bulk Modulus (GPa) = 55.89729 71.82829 63.86279
# Shear Modulus (GPa) = 24.49009 26.82325 25.65667
#
# Velocity S-wave (km/s) = 3.72240 3.89568 3.81003
# Velocity P-wave (km/s) = 7.07822 7.80224 7.44903
#
# Compressibility (1/GPa) = 0.01788996
#
# Stress axis : x y z
#
# Youngs Moduli (GPa) = 51.69708 55.34182 88.35170
#
# Poissons Ratio (x) = 0.17476 0.56628
# Poissons Ratio (y) = 0.16325 0.51716
# Poissons Ratio (z) = 0.33135 0.32394
#
# Static dielectric constant tensor:
#      x y z
#    x 3.007660 0.000000 -0.037620 
#    y 0.000000 3.333500 0.000000 
#    z -0.037620 0.000000 3.689450 
# 
# 
# High freq. dielectric constant tensor:
#      x y z
#    x 1.638890 0.000000 -0.004480 
#    y 0.000000 1.685440 0.000000 
#    z -0.004480 0.000000 1.702320 
# 
# From -- ./inp_files/378471.got.cif
#   From: 2010.06.25/outbox.cif.g09.slc.cpg/sg12_190_cif.got.tgz:378471.got - 2010.06.28 00:19:55.
