data_PCOD8079449
_publ_section_title
;
Structure prediction by ZEFSAII (Michael W. Deem and Ramdas Pophale) SiO2 
 PCOD8079449
Probable space group: C 2/M
;
_chemical_formula_sum "Si O2"
_cell_formula_units_Z 64
_cell_length_a 18.902957
_cell_length_b 19.799197
_cell_length_c 18.851278
_cell_angle_alpha 90.000000
_cell_angle_beta 31.057821
_cell_angle_gamma 90.000000
_cell_volume 3639.871381
_symmetry_space_group_name_H-M "C 2/M"
_symmetry_group_IT_number 12
_symmetry_cell_setting 'monoclinic'
loop_
_space_group_symop_operation_xyz
x,y,z
-x,y,-z
-x,-y,-z
x,-y,z
1/2+x,1/2+y,z
1/2-x,1/2+y,-z
1/2-x,1/2-y,-z
1/2+x,1/2-y,z
loop_
_atom_site_type_symbol
_atom_site_label
_atom_site_fract_x
_atom_site_fract_y
_atom_site_fract_z
Si Si1 0.680208 0.277419 0.903934
Si Si2 0.835066 0.923996 0.738199
Si Si3 0.667797 0.873672 0.754510
Si Si4 0.857895 0.799676 0.372113
Si Si5 0.379386 0.718322 0.200582
Si Si6 0.374998 0.131452 0.989918
Si Si7 0.630648 0.421683 0.534995
Si Si8 0.371043 0.210893 0.859031
O O1 0.705192 0.294573 0.799157
O O2 0.811741 0.309193 0.832160
O O3 0.535309 0.307616 0.055154
O O4 0.664861 0.197497 0.929547
O O5 0.762328 0.877732 0.742216
O O6 0.991877 0.901300 0.612705
O O7 0.830347 0.000000 0.713654
O O8 0.752456 0.918383 0.884076
O O9 0.630885 0.796556 0.768313
O O10 0.515168 0.904713 0.897329
O O11 0.740665 0.910118 0.626421
O O12 0.750000 0.750000 0.500000
O O13 0.821066 0.817510 0.321431
O O14 0.857190 0.872995 0.408275
O O15 0.002548 0.761690 0.255691
O O16 0.397456 0.145699 0.886208
O O17 0.625525 0.500000 0.564203
O O18 0.250000 0.250000 0.000000
#
# Coordination Sequence:
#
# PCOD8079449 Si02
#       8
#     8   8   8   8   8   8   8   8
#     4   9  17  30  51  76 104 129 168 210 274 315
#     4  11  23  34  49  74 108 151 182 205 248 314
#     4  11  19  34  50  71 108 143 179 215 249 303
#     4  12  21  35  53  78 106 137 176 229 268 311
#     4  10  18  31  51  80 104 134 171 226 265 308
#     4  10  18  31  52  75 103 133 179 219 252 296
#     4  11  24  38  51  72 106 148 181 212 261 320
#     4  10  17  31  51  74 100 137 170 212 268 311
#
# _framework density 17.583038999999999
#
# number of rings (size 3 to 8) (size 9 to 14) (size 15 to 20)
#    0.000    1.500    6.250    2.625    0.000    2.500 
#    0.000    0.625    0.000    0.000    0.000    2.625 
#    0.000    4.000    0.000    0.000    0.000    0.000 
#
# Total GULP energy -396465.968161 kJ/mol
# GULP energy per Si atom -12389.561505 kJ/mol
# Density = 1.754302 g / cm^3
# Si number density = 17.583039 Si / 1000 Ang^3
#
#
#
# Elastic Constant Matrix: (Units=GPa)
#
#
# Indices 1 2 3 4 5 6 
#
# 1 132.5099 30.5717 38.7816 0.0019 17.1932 -0.0015
# 2 30.5717 47.5902 23.4392 0.0005 3.2063 -0.0011
# 3 38.7816 23.4392 92.3091 0.0012 2.7655 -0.0019
# 4 0.0019 0.0005 0.0012 18.2087 -0.0021 1.9391
# 5 17.1932 3.2063 2.7655 -0.0021 31.1131 0.0019
# 6 -0.0015 -0.0011 -0.0019 1.9391 0.0019 17.7043
#
#
#
# Elastic Compliance Matrix: (Units=1/GPa)
#
#
# Indices 1 2 3 4 5 6 
#
# 1 0.010119 -0.004745 -0.002901 -0.000001 -0.004845 0.000001
# 2 -0.004745 0.026358 -0.004709 0.000000 0.000324 0.000001
# 3 -0.002901 -0.004709 0.013220 0.000000 0.000913 0.000001
# 4 -0.000001 0.000000 0.000000 0.055567 0.000005 -0.006086
# 5 -0.004845 0.000324 0.000913 0.000005 0.034704 -0.000005
# 6 0.000001 0.000001 0.000001 -0.006086 -0.000005 0.057150
#
#
# Mechanical properties :
#
#
# Convention : Reuss Voigt Hill
#
# Bulk Modulus (GPa) = 40.02083 50.88824 45.45453
# Shear Modulus (GPa) = 21.72415 25.37967 23.55191
#
# Velocity S-wave (km/s) = 3.51881 3.80336 3.66384
# Velocity P-wave (km/s) = 6.27055 6.94923 6.61860
#
# Compressibility (1/GPa) = 0.02498699
#
# Stress axis : x y z
#
# Youngs Moduli (GPa) = 98.82291 37.93850 75.64037
#
# Poissons Ratio (x) = 0.18002 0.21945
# Poissons Ratio (y) = 0.46892 0.35620
# Poissons Ratio (z) = 0.28671 0.17866
#
# Static dielectric constant tensor:
#      x y z
#    x 3.977730 -0.000010 0.006800 
#    y -0.000010 2.933210 0.000010 
#    z 0.006800 0.000010 3.402910 
# 
# 
# High freq. dielectric constant tensor:
#      x y z
#    x 1.683560 0.000000 -0.001930 
#    y 0.000000 1.622000 0.000000 
#    z -0.001930 0.000000 1.688730 
# 
# From -- ./inp_files/322857.got.cif
#   From: 2010.06.25/outbox.cif.g09.slc.cpg/sg12_162_cif.got.tgz:322857.got - 2010.06.28 00:19:55.
