data_PCOD8079475
_publ_section_title
;
Structure prediction by ZEFSAII (Michael W. Deem and Ramdas Pophale) SiO2 
 PCOD8079475
Probable space group: C 2/M
;
_chemical_formula_sum "Si O2"
_cell_formula_units_Z 64
_cell_length_a 19.295465
_cell_length_b 10.496039
_cell_length_c 21.551780
_cell_angle_alpha 90.000000
_cell_angle_beta 126.953875
_cell_angle_gamma 90.000000
_cell_volume 3487.993641
_symmetry_space_group_name_H-M "C 2/M"
_symmetry_group_IT_number 12
_symmetry_cell_setting 'monoclinic'
loop_
_space_group_symop_operation_xyz
x,y,z
-x,y,-z
-x,-y,-z
x,-y,z
1/2+x,1/2+y,z
1/2-x,1/2+y,-z
1/2-x,1/2-y,-z
1/2+x,1/2-y,z
loop_
_atom_site_type_symbol
_atom_site_label
_atom_site_fract_x
_atom_site_fract_y
_atom_site_fract_z
Si Si1 0.530708 0.851726 0.614100
Si Si2 0.710707 0.805583 0.379887
Si Si3 0.106889 0.643900 0.790412
Si Si4 0.430286 0.851026 0.915255
Si Si5 0.843900 0.138438 0.350616
Si Si6 0.159453 0.635842 0.484946
Si Si7 0.733959 0.354578 0.824193
Si Si8 0.444167 0.850984 0.784363
O O1 0.555628 0.839496 0.699053
O O2 0.589953 0.756723 0.604702
O O3 0.433129 0.793289 0.556023
O O4 0.541187 0.000000 0.597954
O O5 0.780854 0.876835 0.375287
O O6 0.758008 0.682068 0.432433
O O7 0.682410 0.884524 0.424850
O O8 0.625544 0.771820 0.293829
O O9 0.145914 0.500000 0.816020
O O10 0.181199 0.751199 0.836178
O O11 0.040602 0.668800 0.810607
O O12 0.334664 0.824320 0.889968
O O13 0.442358 0.794024 0.852808
O O14 0.449021 0.000000 0.919505
O O15 0.500000 0.788608 0.000000
O O16 0.785074 0.164507 0.258713
O O17 0.891590 0.000000 0.369342
O O18 0.139263 0.500000 0.502860
O O19 0.711480 0.500000 0.832822
O O20 0.416444 0.000000 0.766307
#
# Coordination Sequence:
#
# PCOD8079475 Si02
#       8
#     8   8   8   8   8   8   8   8
#     4   9  18  34  53  71  99 136 173 214 256 302
#     4  11  20  32  53  74  98 133 173 215 262 306
#     4   9  17  30  53  77  99 135 179 210 243 303
#     4   9  17  30  53  84 109 131 166 213 258 300
#     4  10  19  32  52  76 100 131 171 213 259 307
#     4  10  21  36  51  71 100 134 173 220 263 299
#     4   9  17  31  52  77 107 135 163 209 260 302
#     4  10  17  31  54  75  99 134 176 215 250 303
#
# _framework density 18.348656999999999
#
# number of rings (size 3 to 8) (size 9 to 14) (size 15 to 20)
#    0.000    2.375    2.500    1.125    0.000    1.000 
#    0.000    6.875    0.000    1.125    0.000    0.000 
#    0.000    0.000    0.000    0.000    0.000    0.000 
#
# Total GULP energy -396475.944029 kJ/mol
# GULP energy per Si atom -12389.873251 kJ/mol
# Density = 1.830689 g / cm^3
# Si number density = 18.348657 Si / 1000 Ang^3
#
#
#
# Elastic Constant Matrix: (Units=GPa)
#
#
# Indices 1 2 3 4 5 6 
#
# 1 99.7555 52.3071 48.4976 0.0000 15.1071 0.0000
# 2 52.3071 81.6676 39.1379 0.0000 14.6550 0.0000
# 3 48.4976 39.1379 110.2846 0.0000 11.1114 0.0000
# 4 0.0000 0.0000 0.0000 18.1967 0.0000 6.4859
# 5 15.1071 14.6550 11.1114 0.0000 23.3370 0.0000
# 6 0.0000 0.0000 0.0000 6.4859 0.0000 22.0639
#
#
#
# Elastic Compliance Matrix: (Units=1/GPa)
#
#
# Indices 1 2 3 4 5 6 
#
# 1 0.016894 -0.008140 -0.004153 0.000000 -0.003847 0.000000
# 2 -0.008140 0.019893 -0.002891 0.000000 -0.005846 0.000000
# 3 -0.004153 -0.002891 0.012044 0.000000 -0.001230 0.000000
# 4 0.000000 0.000000 0.000000 0.061387 0.000000 -0.018045
# 5 -0.003847 -0.005846 -0.001230 0.000000 0.049598 0.000000
# 6 0.000000 0.000000 0.000000 -0.018045 0.000000 0.050628
#
#
# Mechanical properties :
#
#
# Convention : Reuss Voigt Hill
#
# Bulk Modulus (GPa) = 54.16229 63.51031 58.83630
# Shear Modulus (GPa) = 20.24570 22.83720 21.54145
#
# Velocity S-wave (km/s) = 3.32533 3.53175 3.43010
# Velocity P-wave (km/s) = 6.65780 7.16374 6.91540
#
# Compressibility (1/GPa) = 0.01846303
#
# Stress axis : x y z
#
# Youngs Moduli (GPa) = 59.19112 50.26912 83.03145
#
# Poissons Ratio (x) = 0.40919 0.34482
# Poissons Ratio (y) = 0.48182 0.24005
# Poissons Ratio (z) = 0.24582 0.14533
#
# Static dielectric constant tensor:
#      x y z
#    x 3.432830 0.000000 0.020740 
#    y 0.000000 3.222600 0.000000 
#    z 0.020740 0.000000 3.353590 
# 
# 
# High freq. dielectric constant tensor:
#      x y z
#    x 1.717740 0.000000 0.002680 
#    y 0.000000 1.678040 0.000000 
#    z 0.002680 0.000000 1.695630 
# 
# From -- ./inp_files/315741.got.cif
#   From: 2010.06.25/outbox.cif.g09.slc.cpg/sg12_158_cif.got.tgz:315741.got - 2010.06.28 00:19:55.
