data_PCOD8079365
_publ_section_title
;
Structure prediction by ZEFSAII (Michael W. Deem and Ramdas Pophale) SiO2 
 PCOD8079365
Probable space group: C 2/M
;
_chemical_formula_sum "Si O2"
_cell_formula_units_Z 56
_cell_length_a 15.059499
_cell_length_b 24.087413
_cell_length_c 9.173918
_cell_angle_alpha 90.000000
_cell_angle_beta 75.586400
_cell_angle_gamma 90.000000
_cell_volume 3223.042041
_symmetry_space_group_name_H-M "C 2/M"
_symmetry_group_IT_number 12
_symmetry_cell_setting 'monoclinic'
loop_
_space_group_symop_operation_xyz
x,y,z
-x,y,-z
-x,-y,-z
x,-y,z
1/2+x,1/2+y,z
1/2-x,1/2+y,-z
1/2-x,1/2-y,-z
1/2+x,1/2-y,z
loop_
_atom_site_type_symbol
_atom_site_label
_atom_site_fract_x
_atom_site_fract_y
_atom_site_fract_z
Si Si1 0.671881 0.747728 0.772819
Si Si2 0.917517 0.322276 0.948045
Si Si3 0.228087 0.149999 0.946347
Si Si4 0.498419 0.246664 0.657645
Si Si5 0.334137 0.325323 0.711935
Si Si6 0.592767 0.561915 0.373362
Si Si7 0.088692 0.937998 0.033797
O O1 0.717735 0.691029 0.812809
O O2 0.599868 0.735091 0.672169
O O3 0.751960 0.788240 0.676706
O O4 0.618505 0.774106 0.930862
O O5 0.834942 0.363086 0.937489
O O6 0.953750 0.296045 0.785769
O O7 0.000000 0.354294 0.000000
O O8 0.181718 0.175667 0.108405
O O9 0.179302 0.091842 0.935898
O O10 0.500000 0.215976 0.500000
O O11 0.435545 0.300529 0.653266
O O12 0.335043 0.386821 0.634265
O O13 0.500000 0.572592 0.500000
O O14 0.632939 0.500000 0.397123
O O15 0.571250 0.563669 0.211947
O O16 0.098503 0.000000 0.969509
O O17 0.000000 0.908409 0.000000
#
# Coordination Sequence:
#
# PCOD8079365 Si02
#       7
#     8   8   8   8   8   8   8
#     4  10  19  31  50  67  91 131 165 195 233 292
#     4   9  17  32  48  65  89 123 162 194 232 288
#     4  10  17  30  52  68  88 127 166 199 232 289
#     4  11  21  30  43  68 102 126 150 196 244 286
#     4  10  18  32  47  70  98 123 167 198 233 284
#     4   9  18  32  49  68  96 131 161 191 234 286
#     4   9  19  31  47  72  98 124 160 202 238 280
#
# _framework density 17.374889
#
# number of rings (size 3 to 8) (size 9 to 14) (size 15 to 20)
#    0.000    2.286    2.857    1.286    4.000    0.571 
#    0.000    0.000    0.000    0.429    0.000    3.000 
#    0.000    1.143    0.000    0.000    0.000    0.000 
#
# Total GULP energy -346908.214196 kJ/mol
# GULP energy per Si atom -12389.579078 kJ/mol
# Density = 1.733534 g / cm^3
# Si number density = 17.374889 Si / 1000 Ang^3
#
#
#
# Elastic Constant Matrix: (Units=GPa)
#
#
# Indices 1 2 3 4 5 6 
#
# 1 158.1956 63.9208 35.2624 0.0000 -0.2572 0.0000
# 2 63.9208 85.8352 30.2243 0.0000 -8.8807 0.0000
# 3 35.2624 30.2243 56.3739 0.0000 -2.3471 0.0000
# 4 0.0000 0.0000 0.0000 14.1427 0.0000 -5.4790
# 5 -0.2572 -8.8807 -2.3471 0.0000 18.8722 0.0000
# 6 0.0000 0.0000 0.0000 -5.4790 0.0000 23.3215
#
#
#
# Elastic Compliance Matrix: (Units=1/GPa)
#
#
# Indices 1 2 3 4 5 6 
#
# 1 0.009530 -0.006518 -0.002602 0.000000 -0.003261 0.000000
# 2 -0.006518 0.019487 -0.006024 0.000000 0.008332 0.000000
# 3 -0.002602 -0.006024 0.022594 0.000000 -0.000060 0.000000
# 4 0.000000 0.000000 0.000000 0.077788 0.000000 0.018275
# 5 -0.003261 0.008332 -0.000060 0.000000 0.056857 0.000000
# 6 0.000000 0.000000 0.000000 0.018275 0.000000 0.047172
#
#
# Mechanical properties :
#
#
# Convention : Reuss Voigt Hill
#
# Bulk Modulus (GPa) = 46.89895 62.13551 54.51723
# Shear Modulus (GPa) = 18.46227 22.66709 20.56468
#
# Velocity S-wave (km/s) = 3.26327 3.61583 3.44406
# Velocity P-wave (km/s) = 6.42258 7.29874 6.87463
#
# Compressibility (1/GPa) = 0.02132244
#
# Stress axis : x y z
#
# Youngs Moduli (GPa) = 104.93650 51.31589 44.26024
#
# Poissons Ratio (x) = 0.33446 0.11517
# Poissons Ratio (y) = 0.68394 0.26663
# Poissons Ratio (z) = 0.27307 0.30913
#
# Static dielectric constant tensor:
#      x y z
#    x 3.598180 0.000000 -0.029750 
#    y 0.000000 3.259470 0.000000 
#    z -0.029750 0.000000 3.184310 
# 
# 
# High freq. dielectric constant tensor:
#      x y z
#    x 1.669300 0.000000 -0.003410 
#    y 0.000000 1.634680 0.000000 
#    z -0.003410 0.000000 1.667990 
# 
# From -- ./inp_files/65274.got.cif
#   From: 2010.06.25/outbox.cif.g09.slc.cpg/sg12_33_cif.got.tgz:65274.got - 2010.06.28 00:19:55.
