data_PCOD8079828
_publ_section_title
;
Structure prediction by ZEFSAII (Michael W. Deem and Ramdas Pophale) SiO2 
 PCOD8079828
Probable space group: C 2/M
;
_chemical_formula_sum "Si O2"
_cell_formula_units_Z 56
_cell_length_a 32.207500
_cell_length_b 9.312690
_cell_length_c 16.224467
_cell_angle_alpha 90.000000
_cell_angle_beta 50.410482
_cell_angle_gamma 90.000000
_cell_volume 3750.148142
_symmetry_space_group_name_H-M "C 2/M"
_symmetry_group_IT_number 12
_symmetry_cell_setting 'monoclinic'
loop_
_space_group_symop_operation_xyz
x,y,z
-x,y,-z
-x,-y,-z
x,-y,z
1/2+x,1/2+y,z
1/2-x,1/2+y,-z
1/2-x,1/2-y,-z
1/2+x,1/2-y,z
loop_
_atom_site_type_symbol
_atom_site_label
_atom_site_fract_x
_atom_site_fract_y
_atom_site_fract_z
Si Si1 0.444442 0.330281 0.467102
Si Si2 0.797940 0.337663 0.403730
Si Si3 0.730011 0.166418 0.904716
Si Si4 0.065028 0.169239 0.335698
Si Si5 0.746815 0.667722 0.307641
Si Si6 0.331632 0.667453 0.888007
Si Si7 0.354769 0.168780 0.488166
O O1 0.434440 0.500000 0.469352
O O2 0.428561 0.275400 0.578649
O O3 0.506939 0.290325 0.371797
O O4 0.410045 0.243068 0.444509
O O5 0.781199 0.500000 0.440734
O O6 0.750000 0.250000 0.500000
O O7 0.798536 0.308560 0.304115
O O8 0.850582 0.304475 0.393370
O O9 0.733968 0.220792 0.805907
O O10 0.786753 0.199197 0.876124
O O11 0.714954 0.000000 0.928497
O O12 0.682175 0.252464 0.009693
O O13 0.112247 0.231666 0.218083
O O14 0.071118 0.000000 0.333024
O O15 0.729506 0.500000 0.326005
O O16 0.695344 0.759501 0.400844
O O17 0.336133 0.500000 0.902512
O O18 0.356142 0.000000 0.507690
#
# Coordination Sequence:
#
# PCOD8079828 Si02
#       7
#     8   8   8   8   8   8   8
#     4   9  16  28  45  61  78 105 140 167 191 231
#     4   8  15  26  39  56  79 106 132 161 196 234
#     4   9  17  27  41  61  80 102 134 164 192 232
#     4   8  15  28  45  61  77 104 141 171 190 224
#     4   9  16  28  44  58  77 109 143 166 188 229
#     4   9  16  27  41  58  82 106 128 160 200 234
#     4  10  18  26  38  61  89 108 127 161 205 243
#
# _framework density 14.932744
#
# number of rings (size 3 to 8) (size 9 to 14) (size 15 to 20)
#    0.000    3.143    0.000    2.143    0.000    3.429 
#    0.000    5.714    0.000    0.000    0.000    1.000 
#    0.000    8.000    0.000    0.000    0.000    0.000 
#
# Total GULP energy -346896.997490 kJ/mol
# GULP energy per Si atom -12389.178482 kJ/mol
# Density = 1.489876 g / cm^3
# Si number density = 14.932744 Si / 1000 Ang^3
#
#
#
# Elastic Constant Matrix: (Units=GPa)
#
#
# Indices 1 2 3 4 5 6 
#
# 1 114.8360 39.7768 55.5743 0.0000 8.4986 0.0000
# 2 39.7768 43.0189 31.2302 -0.0001 1.2984 0.0001
# 3 55.5743 31.2302 105.4648 0.0000 1.7975 0.0000
# 4 0.0000 -0.0001 0.0000 19.7819 0.0000 -0.0799
# 5 8.4986 1.2984 1.7975 0.0000 23.5146 0.0000
# 6 0.0000 0.0001 0.0000 -0.0799 0.0000 22.2683
#
#
#
# Elastic Compliance Matrix: (Units=1/GPa)
#
#
# Indices 1 2 3 4 5 6 
#
# 1 0.014849 -0.010153 -0.004742 0.000000 -0.004443 0.000000
# 2 -0.010153 0.036575 -0.005516 0.000000 0.002072 0.000000
# 3 -0.004742 -0.005516 0.013597 0.000000 0.000979 0.000000
# 4 0.000000 0.000000 0.000000 0.050552 0.000000 0.000181
# 5 -0.004443 0.002072 0.000979 0.000000 0.043944 0.000000
# 6 0.000000 0.000000 0.000000 0.000181 0.000000 0.044908
#
#
# Mechanical properties :
#
#
# Convention : Reuss Voigt Hill
#
# Bulk Modulus (GPa) = 41.32365 57.38691 49.35528
# Shear Modulus (GPa) = 19.73845 22.22883 20.98364
#
# Velocity S-wave (km/s) = 3.63963 3.86242 3.75268
# Velocity P-wave (km/s) = 6.73764 7.64230 7.20418
#
# Compressibility (1/GPa) = 0.02419922
#
# Stress axis : x y z
#
# Youngs Moduli (GPa) = 67.34634 27.34102 73.54318
#
# Poissons Ratio (x) = 0.27759 0.34876
# Poissons Ratio (y) = 0.68375 0.40566
# Poissons Ratio (z) = 0.31937 0.15081
#
# Static dielectric constant tensor:
#      x y z
#    x 3.272540 0.000000 0.188780 
#    y 0.000000 2.780390 0.000000 
#    z 0.188780 0.000000 2.922800 
# 
# 
# High freq. dielectric constant tensor:
#      x y z
#    x 1.571730 0.000000 0.010440 
#    y 0.000000 1.562990 0.000000 
#    z 0.010440 0.000000 1.543120 
# 
# From -- ./inp_files/291853.got.cif
#   From: 2010.06.25/outbox.cif.g09.slc.cpg/sg12_146_cif.got.tgz:291853.got - 2010.06.28 00:19:55.
