data_PCOD8079102
_publ_section_title
;
Structure prediction by ZEFSAII (Michael W. Deem and Ramdas Pophale) SiO2 
 PCOD8079102
Probable space group: C 2/M
;
_chemical_formula_sum "Si O2"
_cell_formula_units_Z 48
_cell_length_a 25.313788
_cell_length_b 17.463236
_cell_length_c 17.442782
_cell_angle_alpha 90.000000
_cell_angle_beta 19.150094
_cell_angle_gamma 90.000000
_cell_volume 2529.470648
_symmetry_space_group_name_H-M "C 2/M"
_symmetry_group_IT_number 12
_symmetry_cell_setting 'monoclinic'
loop_
_space_group_symop_operation_xyz
x,y,z
-x,y,-z
-x,-y,-z
x,-y,z
1/2+x,1/2+y,z
1/2-x,1/2+y,-z
1/2-x,1/2-y,-z
1/2+x,1/2-y,z
loop_
_atom_site_type_symbol
_atom_site_label
_atom_site_fract_x
_atom_site_fract_y
_atom_site_fract_z
Si Si1 0.425614 0.711667 0.431915
Si Si2 0.855584 0.705337 0.753689
Si Si3 0.161465 0.681901 0.580012
Si Si4 0.481274 0.379350 0.110026
Si Si5 0.107467 0.914171 0.096487
Si Si6 0.132680 0.722640 0.937988
O O1 0.581409 0.736601 0.267846
O O2 0.387560 0.787719 0.436438
O O3 0.463360 0.636910 0.329639
O O4 0.271164 0.686953 0.694811
O O5 0.709358 0.747416 0.911767
O O6 0.000000 0.683038 0.500000
O O7 0.777918 0.624575 0.887474
O O8 0.250000 0.750000 0.500000
O O9 0.290498 0.613670 0.393598
O O10 0.002967 0.660332 0.848735
O O11 0.584255 0.420126 0.035726
O O12 0.500000 0.418098 0.000000
O O13 0.542876 0.291886 0.017838
O O14 0.103804 0.000000 0.135610
#
# Coordination Sequence:
#
# PCOD8079102 Si02
#       6
#     8   8   8   8   8   8
#     4  11  18  32  58  80 103 137 181 228 262 307
#     4   9  19  34  55  82 102 132 181 229 265 309
#     4  10  17  28  50  85 105 127 172 232 266 297
#     4  10  18  32  53  80 106 137 178 215 267 313
#     4  11  23  36  51  77 113 146 174 213 274 331
#     4   9  18  29  50  85 107 125 171 236 267 295
#
# _framework density 18.976303000000001
#
# number of rings (size 3 to 8) (size 9 to 14) (size 15 to 20)
#    0.000    2.000    6.667    0.500    0.000    0.667 
#    0.000    0.000    0.000    6.500    0.000    0.000 
#    0.000    0.000    0.000    0.000    0.000    0.000 
#
# Total GULP energy -297323.963625 kJ/mol
# GULP energy per Si atom -12388.498484 kJ/mol
# Density = 1.893311 g / cm^3
# Si number density = 18.976303 Si / 1000 Ang^3
#
#
#
# Elastic Constant Matrix: (Units=GPa)
#
#
# Indices 1 2 3 4 5 6 
#
# 1 83.5884 10.8800 24.2343 0.0073 4.0219 -0.0029
# 2 10.8800 58.8833 23.7651 0.0107 3.7323 -0.0037
# 3 24.2343 23.7651 117.5319 0.0167 -6.1633 -0.0073
# 4 0.0073 0.0107 0.0167 7.2197 -0.0054 -1.1277
# 5 4.0219 3.7323 -6.1633 -0.0054 24.1545 0.0021
# 6 -0.0029 -0.0037 -0.0073 -1.1277 0.0021 7.1625
#
#
#
# Elastic Compliance Matrix: (Units=1/GPa)
#
#
# Indices 1 2 3 4 5 6 
#
# 1 0.012992 -0.001194 -0.002576 -0.000007 -0.002636 0.000002
# 2 -0.001194 0.018964 -0.003782 -0.000020 -0.003697 0.000003
# 3 -0.002576 -0.003782 0.009991 -0.000012 0.003563 0.000004
# 4 -0.000007 -0.000020 -0.000012 0.142003 0.000031 0.022358
# 5 -0.002636 -0.003697 0.003563 0.000031 0.043319 -0.000007
# 6 0.000002 0.000003 0.000004 0.022358 -0.000007 0.143137
#
#
# Mechanical properties :
#
#
# Convention : Reuss Voigt Hill
#
# Bulk Modulus (GPa) = 37.25274 41.97359 39.61316
# Shear Modulus (GPa) = 12.67561 21.11561 16.89561
#
# Velocity S-wave (km/s) = 2.58732 3.33939 2.98712
# Velocity P-wave (km/s) = 5.34784 6.08569 5.72866
#
# Compressibility (1/GPa) = 0.02684367
#
# Stress axis : x y z
#
# Youngs Moduli (GPa) = 76.96803 52.73100 100.08980
#
# Poissons Ratio (x) = 0.06296 0.25781
# Poissons Ratio (y) = 0.09190 0.37856
# Poissons Ratio (z) = 0.19825 0.19944
#
# Static dielectric constant tensor:
#      x y z
#    x 3.121740 0.000750 0.559360 
#    y 0.000750 2.019750 -0.000880 
#    z 0.559360 -0.000880 3.194810 
# 
# 
# High freq. dielectric constant tensor:
#      x y z
#    x 1.747160 0.000000 -0.001810 
#    y 0.000000 1.656510 0.000000 
#    z -0.001810 0.000000 1.760560 
# 
# From -- ./inp_files/293766.got.cif
#   From: 2010.06.25/outbox.cif.g09.slc.cpg/sg12_147_cif.got.tgz:293766.got - 2010.06.28 00:19:55.
