data_PCOD8079463
_publ_section_title
;
Structure prediction by ZEFSAII (Michael W. Deem and Ramdas Pophale) SiO2 
 PCOD8079463
Probable space group: C 2/M
;
_chemical_formula_sum "Si O2"
_cell_formula_units_Z 56
_cell_length_a 28.776326
_cell_length_b 8.948662
_cell_length_c 14.272325
_cell_angle_alpha 90.000000
_cell_angle_beta 60.547213
_cell_angle_gamma 90.000000
_cell_volume 3200.274489
_symmetry_space_group_name_H-M "C 2/M"
_symmetry_group_IT_number 12
_symmetry_cell_setting 'monoclinic'
loop_
_space_group_symop_operation_xyz
x,y,z
-x,y,-z
-x,-y,-z
x,-y,z
1/2+x,1/2+y,z
1/2-x,1/2+y,-z
1/2-x,1/2-y,-z
1/2+x,1/2-y,z
loop_
_atom_site_type_symbol
_atom_site_label
_atom_site_fract_x
_atom_site_fract_y
_atom_site_fract_z
Si Si1 0.599520 0.324606 0.558167
Si Si2 0.838078 0.668223 0.652142
Si Si3 0.220905 0.175687 0.767813
Si Si4 0.495923 0.822639 0.611734
Si Si5 0.303912 0.676365 0.408853
Si Si6 0.299439 0.322530 0.005883
Si Si7 0.116249 0.667811 0.195132
O O1 0.591498 0.500000 0.573893
O O2 0.618637 0.277893 0.435803
O O3 0.542524 0.246348 0.630388
O O4 0.643705 0.265508 0.588461
O O5 0.846496 0.500000 0.603626
O O6 0.780182 0.736317 0.686944
O O7 0.843568 0.665880 0.757775
O O8 0.185868 0.218039 0.711183
O O9 0.226106 0.000000 0.775166
O O10 0.198933 0.238188 0.888081
O O11 0.500000 0.764912 0.500000
O O12 0.440859 0.769366 0.714182
O O13 0.500206 0.000000 0.608112
O O14 0.296995 0.500000 0.428938
O O15 0.250000 0.750000 0.500000
O O16 0.293410 0.500000 0.005057
O O17 0.356938 0.274308 0.908407
O O18 0.250000 0.250000 0.000000
O O19 0.110241 0.500000 0.160404
#
# Coordination Sequence:
#
# PCOD8079463 Si02
#       7
#     8   8   8   8   8   8   8
#     4  11  22  32  48  80 112 133 168 221 265 295
#     4  10  17  31  53  73 103 143 175 201 245 316
#     4   9  18  33  52  72 101 142 175 200 243 313
#     4  10  20  36  56  74  99 142 181 205 251 323
#     4  10  20  34  52  75 104 138 174 212 254 304
#     4  11  21  34  53  77 105 138 173 210 258 306
#     4  10  20  35  53  76 103 134 176 213 250 306
#
# _framework density 17.498498000000001
#
# number of rings (size 3 to 8) (size 9 to 14) (size 15 to 20)
#    0.000    1.857    4.286    0.857    0.000    2.000 
#    0.000    1.429    0.000    0.857    0.000    6.000 
#    0.000    0.000    0.000    0.000    0.000    0.000 
#
# Total GULP energy -347072.315332 kJ/mol
# GULP energy per Si atom -12395.439833 kJ/mol
# Density = 1.745867 g / cm^3
# Si number density = 17.498498 Si / 1000 Ang^3
#
#
#
# Elastic Constant Matrix: (Units=GPa)
#
#
# Indices 1 2 3 4 5 6 
#
# 1 112.3384 28.9189 50.7120 0.0000 -5.1548 0.0000
# 2 28.9189 37.0968 32.4895 0.0000 -1.9280 0.0000
# 3 50.7120 32.4895 112.5600 0.0000 -3.4105 0.0000
# 4 0.0000 0.0000 0.0000 26.0327 0.0000 -4.9119
# 5 -5.1548 -1.9280 -3.4105 0.0000 27.5280 0.0000
# 6 0.0000 0.0000 0.0000 -4.9119 0.0000 25.8949
#
#
#
# Elastic Compliance Matrix: (Units=1/GPa)
#
#
# Indices 1 2 3 4 5 6 
#
# 1 0.012229 -0.006253 -0.003662 0.000000 0.001398 0.000000
# 2 -0.006253 0.039316 -0.008515 0.000000 0.000528 0.000000
# 3 -0.003662 -0.008515 0.013002 0.000000 0.000329 0.000000
# 4 0.000000 0.000000 0.000000 0.039839 0.000000 0.007557
# 5 0.001398 0.000528 0.000329 0.000000 0.036666 0.000000
# 6 0.000000 0.000000 0.000000 0.007557 0.000000 0.040051
#
#
# Mechanical properties :
#
#
# Convention : Reuss Voigt Hill
#
# Bulk Modulus (GPa) = 36.11920 54.02621 45.07270
# Shear Modulus (GPa) = 22.00784 25.88278 23.94531
#
# Velocity S-wave (km/s) = 3.55025 3.85014 3.70323
# Velocity P-wave (km/s) = 6.12306 7.12085 6.64072
#
# Compressibility (1/GPa) = 0.02768610
#
# Stress axis : x y z
#
# Youngs Moduli (GPa) = 81.77482 25.43504 76.91202
#
# Poissons Ratio (x) = 0.15904 0.28167
# Poissons Ratio (y) = 0.51133 0.65491
# Poissons Ratio (z) = 0.29948 0.21658
#
# Static dielectric constant tensor:
#      x y z
#    x 3.385780 0.000000 0.049690 
#    y 0.000000 3.090270 0.000000 
#    z 0.049690 0.000000 3.310720 
# 
# 
# High freq. dielectric constant tensor:
#      x y z
#    x 1.670230 0.000000 -0.002690 
#    y 0.000000 1.659630 0.000000 
#    z -0.002690 0.000000 1.665020 
# 
# From -- ./inp_files/243661.got.cif
#   From: 2010.06.25/outbox.cif.g09.slc.cpg/sg12_122_cif.got.tgz:243661.got - 2010.06.28 00:19:55.
