data_PCOD8079256
_publ_section_title
;
Structure prediction by ZEFSAII (Michael W. Deem and Ramdas Pophale) SiO2 
 PCOD8079256
Probable space group: C 2/M
;
_chemical_formula_sum "Si O2"
_cell_formula_units_Z 44
_cell_length_a 7.947196
_cell_length_b 21.153325
_cell_length_c 16.836149
_cell_angle_alpha 90.000000
_cell_angle_beta 56.686311
_cell_angle_gamma 90.000000
_cell_volume 2365.229803
_symmetry_space_group_name_H-M "C 2/M"
_symmetry_group_IT_number 12
_symmetry_cell_setting 'monoclinic'
loop_
_space_group_symop_operation_xyz
x,y,z
-x,y,-z
-x,-y,-z
x,-y,z
1/2+x,1/2+y,z
1/2-x,1/2+y,-z
1/2-x,1/2-y,-z
1/2+x,1/2-y,z
loop_
_atom_site_type_symbol
_atom_site_label
_atom_site_fract_x
_atom_site_fract_y
_atom_site_fract_z
Si Si1 0.759410 0.929806 0.063784
Si Si2 0.082740 0.425707 0.273708
Si Si3 0.190257 0.159031 0.079478
Si Si4 0.500000 0.736864 0.000000
Si Si5 0.367175 0.425223 0.605921
Si Si6 0.530132 0.425635 0.735909
O O1 0.682517 0.900231 0.166615
O O2 0.670099 0.000000 0.075147
O O3 0.678122 0.886372 0.012988
O O4 0.000000 0.932655 0.000000
O O5 0.057846 0.500000 0.272747
O O6 0.234057 0.409916 0.307740
O O7 0.859165 0.396082 0.342240
O O8 0.017744 0.190561 0.070365
O O9 0.108323 0.117672 0.172870
O O10 0.318097 0.218602 0.074954
O O11 0.500000 0.396247 0.500000
O O12 0.355232 0.500000 0.600005
O O13 0.476207 0.407280 0.660023
O O14 0.486711 0.500000 0.765015
#
# Coordination Sequence:
#
# PCOD8079256 Si02
#       6
#     8   8   8   4   8   8
#     4  10  17  29  52  78 109 142 171 216 264 311
#     4   9  17  29  47  74 107 144 175 204 258 318
#     4  11  20  37  49  75 106 143 183 217 257 322
#     4  10  24  34  50  68 110 150 182 216 262 302
#     4   9  19  33  48  76 114 141 171 217 270 331
#     4  10  19  33  56  81 106 140 178 217 269 325
#
# _framework density 18.602843
#
# number of rings (size 3 to 8) (size 9 to 14) (size 15 to 20)
#    0.000    2.182    2.727    0.545    2.545    0.727 
#    0.000    4.545    0.000    0.000    0.000    1.273 
#    0.000    0.000    0.000    0.000    0.000    0.000 
#
# Total GULP energy -272585.598235 kJ/mol
# GULP energy per Si atom -12390.254465 kJ/mol
# Density = 1.856050 g / cm^3
# Si number density = 18.602843 Si / 1000 Ang^3
#
#
#
# Elastic Constant Matrix: (Units=GPa)
#
#
# Indices 1 2 3 4 5 6 
#
# 1 117.8293 26.6127 77.6384 0.0000 7.2380 0.0000
# 2 26.6127 67.1011 30.9868 0.0000 12.1000 0.0000
# 3 77.6384 30.9868 146.2390 0.0000 3.5171 0.0000
# 4 0.0000 0.0000 0.0000 10.3686 0.0000 4.0520
# 5 7.2380 12.1000 3.5171 0.0000 29.8651 0.0000
# 6 0.0000 0.0000 0.0000 4.0520 0.0000 17.8707
#
#
#
# Elastic Compliance Matrix: (Units=1/GPa)
#
#
# Indices 1 2 3 4 5 6 
#
# 1 0.013428 -0.001938 -0.006678 0.000000 -0.001683 0.000000
# 2 -0.001938 0.018072 -0.002643 0.000000 -0.006541 0.000000
# 3 -0.006678 -0.002643 0.010910 0.000000 0.001404 0.000000
# 4 0.000000 0.000000 0.000000 0.105822 0.000000 -0.023994
# 5 -0.001683 -0.006541 0.001404 0.000000 0.036376 0.000000
# 6 0.000000 0.000000 0.000000 -0.023994 0.000000 0.061398
#
#
# Mechanical properties :
#
#
# Convention : Reuss Voigt Hill
#
# Bulk Modulus (GPa) = 50.27355 66.84944 58.56149
# Shear Modulus (GPa) = 18.17168 24.68298 21.42733
#
# Velocity S-wave (km/s) = 3.12881 3.64653 3.39755
# Velocity P-wave (km/s) = 6.33529 7.33094 6.85123
#
# Compressibility (1/GPa) = 0.01989118
#
# Stress axis : x y z
#
# Youngs Moduli (GPa) = 74.47107 55.33553 91.66289
#
# Poissons Ratio (x) = 0.10727 0.61210
# Poissons Ratio (y) = 0.14436 0.24224
# Poissons Ratio (z) = 0.49730 0.14624
#
# Static dielectric constant tensor:
#      x y z
#    x 3.701360 0.000000 -0.069430 
#    y 0.000000 3.312400 0.000000 
#    z -0.069430 0.000000 3.450640 
# 
# 
# High freq. dielectric constant tensor:
#      x y z
#    x 1.732290 0.000000 0.001720 
#    y 0.000000 1.685850 0.000000 
#    z 0.001720 0.000000 1.699000 
# 
# From -- ./inp_files/121377.got.cif
#   From: 2010.06.25/outbox.cif.g09.slc.cpg/sg12_61_cif.got.tgz:121377.got - 2010.06.28 00:19:55.
