data_PCOD8079566
_publ_section_title
;
Structure prediction by ZEFSAII (Michael W. Deem and Ramdas Pophale) SiO2 
 PCOD8079566
Probable space group: C 2/M
;
_chemical_formula_sum "Si O2"
_cell_formula_units_Z 56
_cell_length_a 28.605989
_cell_length_b 17.936797
_cell_length_c 9.665952
_cell_angle_alpha 90.000000
_cell_angle_beta 39.688961
_cell_angle_gamma 90.000000
_cell_volume 3167.296465
_symmetry_space_group_name_H-M "C 2/M"
_symmetry_group_IT_number 12
_symmetry_cell_setting 'monoclinic'
loop_
_space_group_symop_operation_xyz
x,y,z
-x,y,-z
-x,-y,-z
x,-y,z
1/2+x,1/2+y,z
1/2-x,1/2+y,-z
1/2-x,1/2-y,-z
1/2+x,1/2-y,z
loop_
_atom_site_type_symbol
_atom_site_label
_atom_site_fract_x
_atom_site_fract_y
_atom_site_fract_z
Si Si1 0.554805 0.235248 0.000511
Si Si2 0.331299 0.412265 0.966669
Si Si3 0.872121 0.085613 0.569251
Si Si4 0.282333 0.849299 0.568286
Si Si5 0.518627 0.343777 0.305336
Si Si6 0.680783 0.685083 0.561507
Si Si7 0.917973 0.417861 0.131991
O O1 0.616295 0.293678 0.814142
O O2 0.585596 0.151927 0.968782
O O3 0.500000 0.222992 0.000000
O O4 0.513898 0.269005 0.224998
O O5 0.333231 0.500000 0.979054
O O6 0.259395 0.380409 0.203238
O O7 0.331390 0.389931 0.804056
O O8 0.402173 0.380944 0.883754
O O9 0.843434 0.132413 0.506672
O O10 0.959197 0.096574 0.388279
O O11 0.856823 0.000000 0.570478
O O12 0.289805 0.760734 0.575420
O O13 0.240332 0.859823 0.517158
O O14 0.359692 0.893561 0.384239
O O15 0.500000 0.315771 0.500000
O O16 0.895768 0.500000 0.121570
O O17 0.000000 0.425599 0.000000
#
# Coordination Sequence:
#
# PCOD8079566 Si02
#       7
#     8   8   8   8   8   8   8
#     4  10  17  32  54  77 103 136 178 214 251 306
#     4  10  20  34  53  78 109 145 180 212 251 307
#     4  10  21  35  51  77 114 147 174 209 256 307
#     4  10  20  34  56  78 102 135 176 219 260 315
#     4  10  19  33  53  78 110 147 179 206 246 305
#     4  10  20  34  51  79 107 135 176 218 261 305
#     4   9  19  34  55  78  99 127 168 222 273 311
#
# _framework density 17.680693999999999
#
# number of rings (size 3 to 8) (size 9 to 14) (size 15 to 20)
#    0.000    2.143    2.857    0.857    0.000    3.429 
#    0.000    0.714    0.000    0.429    0.000    0.000 
#    0.000    0.000    0.000    0.000    0.000    0.000 
#
# Total GULP energy -346992.575863 kJ/mol
# GULP energy per Si atom -12392.591995 kJ/mol
# Density = 1.764045 g / cm^3
# Si number density = 17.680694 Si / 1000 Ang^3
#
#
#
# Elastic Constant Matrix: (Units=GPa)
#
#
# Indices 1 2 3 4 5 6 
#
# 1 74.3910 38.7948 34.0929 0.0000 4.6769 0.0000
# 2 38.7948 107.7682 47.5359 0.0000 15.3831 0.0000
# 3 34.0929 47.5359 98.5310 0.0000 -7.9159 0.0000
# 4 0.0000 0.0000 0.0000 22.5054 0.0000 2.8924
# 5 4.6769 15.3831 -7.9159 0.0000 26.0006 0.0000
# 6 0.0000 0.0000 0.0000 2.8924 0.0000 1.7804
#
#
#
# Elastic Compliance Matrix: (Units=1/GPa)
#
#
# Indices 1 2 3 4 5 6 
#
# 1 0.017717 -0.004217 -0.004255 0.000000 -0.001987 0.000000
# 2 -0.004217 0.015229 -0.006715 0.000000 -0.010296 0.000000
# 3 -0.004255 -0.006715 0.015624 0.000000 0.009495 0.000000
# 4 0.000000 0.000000 0.000000 0.056160 0.000000 -0.091239
# 5 -0.001987 -0.010296 0.009495 0.000000 0.047801 0.000000
# 6 0.000000 0.000000 0.000000 -0.091239 0.000000 0.709909
#
#
# Mechanical properties :
#
#
# Convention : Reuss Voigt Hill
#
# Bulk Modulus (GPa) = 54.96139 57.94860 56.45500
# Shear Modulus (GPa) = 5.56248 20.74169 13.15208
#
# Velocity S-wave (km/s) = 1.77564 3.42881 2.73035
# Velocity P-wave (km/s) = 5.94617 6.96576 6.47606
#
# Compressibility (1/GPa) = 0.01819459
#
# Stress axis : x y z
#
# Youngs Moduli (GPa) = 56.44341 65.66442 64.00381
#
# Poissons Ratio (x) = 0.27691 0.27236
# Poissons Ratio (y) = 0.23802 0.42980
# Poissons Ratio (z) = 0.24019 0.44095
#
# Static dielectric constant tensor:
#      x y z
#    x 3.205090 0.000000 -0.201900 
#    y 0.000000 3.509810 0.000000 
#    z -0.201900 0.000000 3.395120 
# 
# 
# High freq. dielectric constant tensor:
#      x y z
#    x 1.663100 0.000000 -0.017980 
#    y 0.000000 1.690790 0.000000 
#    z -0.017980 0.000000 1.684760 
# 
# From -- ./inp_files/112618.got.cif
#   From: 2010.06.25/outbox.cif.g09.slc.cpg/sg12_57_cif.got.tgz:112618.got - 2010.06.28 00:19:55.
