data_PCOD8079387
_publ_section_title
;
Structure prediction by ZEFSAII (Michael W. Deem and Ramdas Pophale) SiO2 
 PCOD8079387
Probable space group: C 2/M
;
_chemical_formula_sum "Si O2"
_cell_formula_units_Z 48
_cell_length_a 21.928629
_cell_length_b 14.656325
_cell_length_c 14.035969
_cell_angle_alpha 90.000000
_cell_angle_beta 137.554926
_cell_angle_gamma 90.000000
_cell_volume 3044.440770
_symmetry_space_group_name_H-M "C 2/M"
_symmetry_group_IT_number 12
_symmetry_cell_setting 'monoclinic'
loop_
_space_group_symop_operation_xyz
x,y,z
-x,y,-z
-x,-y,-z
x,-y,z
1/2+x,1/2+y,z
1/2-x,1/2+y,-z
1/2-x,1/2-y,-z
1/2+x,1/2-y,z
loop_
_atom_site_type_symbol
_atom_site_label
_atom_site_fract_x
_atom_site_fract_y
_atom_site_fract_z
Si Si1 0.320495 0.895841 0.530535
Si Si2 0.023279 0.394573 0.790674
Si Si3 0.909603 0.395488 0.340711
Si Si4 0.232420 0.714383 0.709123
Si Si5 0.735975 0.101440 0.323799
Si Si6 0.590682 0.801469 0.053470
O O1 0.421890 0.857243 0.658964
O O2 0.267999 0.841103 0.389309
O O3 0.264571 0.886325 0.563145
O O4 0.327119 0.000000 0.503974
O O5 0.020801 0.500000 0.820092
O O6 0.079294 0.382054 0.758538
O O7 0.073112 0.334382 0.926457
O O8 0.885246 0.500000 0.338029
O O9 0.829330 0.329809 0.281507
O O10 0.000000 0.366415 0.500000
O O11 0.200673 0.819695 0.649783
O O12 0.336604 0.718178 0.866018
O O13 0.633473 0.115537 0.165666
O O14 0.770447 0.000000 0.335999
O O15 0.500000 0.766910 0.000000
#
# Coordination Sequence:
#
# PCOD8079387 Si02
#       6
#     8   8   8   8   8   8
#     4  10  17  30  53  79 102 129 165 213 260 294
#     4  10  18  29  51  78 102 126 164 212 259 301
#     4  10  19  33  53  77 100 128 170 216 257 292
#     4  10  20  31  49  75 110 132 166 209 250 304
#     4   9  19  30  48  74 104 133 165 204 251 300
#     4  10  20  31  49  74 108 135 161 203 254 305
#
# _framework density 15.766443000000001
#
# number of rings (size 3 to 8) (size 9 to 14) (size 15 to 20)
#    1.000    1.167    3.333    1.500    0.000    1.333 
#    0.000    0.000    0.000    2.500    0.000    2.333 
#    0.000    0.000    0.000    0.000    0.000    0.000 
#
# Total GULP energy -297440.165130 kJ/mol
# GULP energy per Si atom -12393.340214 kJ/mol
# Density = 1.573056 g / cm^3
# Si number density = 15.766443 Si / 1000 Ang^3
#
#
#
# Elastic Constant Matrix: (Units=GPa)
#
#
# Indices 1 2 3 4 5 6 
#
# 1 84.0444 43.4051 38.0807 0.0000 2.0879 0.0000
# 2 43.4051 77.6482 39.8807 0.0000 7.3851 0.0000
# 3 38.0807 39.8807 101.5895 0.0000 -5.1098 0.0000
# 4 0.0000 0.0000 0.0000 25.7982 0.0000 6.4664
# 5 2.0879 7.3851 -5.1098 0.0000 19.0461 0.0000
# 6 0.0000 0.0000 0.0000 6.4664 0.0000 25.9725
#
#
#
# Elastic Compliance Matrix: (Units=1/GPa)
#
#
# Indices 1 2 3 4 5 6 
#
# 1 0.017636 -0.008143 -0.003399 0.000000 0.000312 0.000000
# 2 -0.008143 0.021212 -0.005721 0.000000 -0.008867 0.000000
# 3 -0.003399 -0.005721 0.013678 0.000000 0.006260 0.000000
# 4 0.000000 0.000000 0.000000 0.041342 0.000000 -0.010293
# 5 0.000312 -0.008867 0.006260 0.000000 0.057588 0.000000
# 6 0.000000 0.000000 0.000000 -0.010293 0.000000 0.041065
#
#
# Mechanical properties :
#
#
# Convention : Reuss Voigt Hill
#
# Bulk Modulus (GPa) = 55.54951 56.22392 55.88672
# Shear Modulus (GPa) = 21.45502 23.62439 22.53971
#
# Velocity S-wave (km/s) = 3.69291 3.87511 3.78511
# Velocity P-wave (km/s) = 7.31387 7.46726 7.39096
#
# Compressibility (1/GPa) = 0.01800196
#
# Stress axis : x y z
#
# Youngs Moduli (GPa) = 56.70258 47.14337 73.10891
#
# Poissons Ratio (x) = 0.38387 0.24847
# Poissons Ratio (y) = 0.46170 0.41825
# Poissons Ratio (z) = 0.19271 0.26970
#
# Static dielectric constant tensor:
#      x y z
#    x 2.825480 0.000000 -0.114850 
#    y 0.000000 2.892200 0.000000 
#    z -0.114850 0.000000 2.925580 
# 
# 
# High freq. dielectric constant tensor:
#      x y z
#    x 1.594770 0.000000 -0.020150 
#    y 0.000000 1.588110 0.000000 
#    z -0.020150 0.000000 1.599170 
# 
# From -- ./inp_files/240264.got.cif
#   From: 2010.06.25/outbox.cif.g09.slc.cpg/sg12_121_cif.got.tgz:240264.got - 2010.06.28 00:19:55.
