data_PCOD8079270
_publ_section_title
;
Structure prediction by ZEFSAII (Michael W. Deem and Ramdas Pophale) SiO2 
 PCOD8079270
Probable space group: C 2/M
;
_chemical_formula_sum "Si O2"
_cell_formula_units_Z 52
_cell_length_a 22.551721
_cell_length_b 26.657657
_cell_length_c 14.406746
_cell_angle_alpha 90.000000
_cell_angle_beta 161.524785
_cell_angle_gamma 90.000000
_cell_volume 2744.619414
_symmetry_space_group_name_H-M "C 2/M"
_symmetry_group_IT_number 12
_symmetry_cell_setting 'monoclinic'
loop_
_space_group_symop_operation_xyz
x,y,z
-x,y,-z
-x,-y,-z
x,-y,z
1/2+x,1/2+y,z
1/2-x,1/2+y,-z
1/2-x,1/2-y,-z
1/2+x,1/2-y,z
loop_
_atom_site_type_symbol
_atom_site_label
_atom_site_fract_x
_atom_site_fract_y
_atom_site_fract_z
Si Si1 0.493845 0.056643 0.333057
Si Si2 0.672128 0.198731 0.184366
Si Si3 0.932936 0.945025 0.000270
Si Si4 0.000000 0.629824 0.500000
Si Si5 0.947154 0.363212 0.715720
Si Si6 0.612756 0.357906 0.349902
Si Si7 0.739187 0.309365 0.239885
O O1 0.409075 0.093010 0.286708
O O2 0.464727 0.084237 0.190418
O O3 0.406351 0.000000 0.203038
O O4 0.712342 0.052499 0.677857
O O5 0.836129 0.165413 0.474617
O O6 0.768425 0.250341 0.295828
O O7 0.500000 0.208562 0.000000
O O8 0.611453 0.171706 0.999302
O O9 0.998610 0.910224 0.183419
O O10 0.022792 0.000000 0.146138
O O11 0.000000 0.922536 0.000000
O O12 0.837745 0.667211 0.295219
O O13 0.807092 0.373058 0.591341
O O14 0.831158 0.336617 0.463125
O O15 0.484642 0.318904 0.100962
#
# Coordination Sequence:
#
# PCOD8079270 Si02
#       7
#     8   8   8   4   8   8   8
#     4  10  19  33  55  78 105 135 170 220 267 307
#     4  10  22  34  52  79 111 143 170 207 262 318
#     4  10  17  29  54  84 104 129 171 217 266 313
#     4  10  21  34  54  82 102 128 185 234 254 290
#     4  10  19  33  53  82 108 134 171 211 264 321
#     4  11  18  33  54  79 110 137 170 214 258 316
#     4  11  20  35  54  74 103 140 183 220 254 298
#
# _framework density 18.946161
#
# number of rings (size 3 to 8) (size 9 to 14) (size 15 to 20)
#    0.000    1.692    4.615    2.538    0.000    2.462 
#    0.000    7.692    0.000    2.769    0.000    1.077 
#    0.000    0.000    0.000    0.000    0.000    0.000 
#
# Total GULP energy -322202.822668 kJ/mol
# GULP energy per Si atom -12392.416256 kJ/mol
# Density = 1.890304 g / cm^3
# Si number density = 18.946161 Si / 1000 Ang^3
#
#
#
# Elastic Constant Matrix: (Units=GPa)
#
#
# Indices 1 2 3 4 5 6 
#
# 1 68.1863 42.7186 13.5329 0.0001 -4.7271 0.0000
# 2 42.7186 132.4321 19.5537 0.0001 -2.3780 0.0000
# 3 13.5329 19.5537 53.1193 0.0006 -17.6041 0.0001
# 4 0.0001 0.0001 0.0006 0.0498 0.0002 8.6256
# 5 -4.7271 -2.3780 -17.6041 0.0002 16.9657 0.0000
# 6 0.0000 0.0000 0.0001 8.6256 0.0000 29.8336
#
#
#
# Elastic Compliance Matrix: (Units=1/GPa)
#
#
# Indices 1 2 3 4 5 6 
#
# 1 0.018808 -0.005750 -0.001837 0.000000 0.002528 0.000000
# 2 -0.005750 0.009841 -0.003401 -0.000001 -0.003752 0.000000
# 3 -0.001837 -0.003401 0.030814 0.000010 0.030985 -0.000003
# 4 0.000000 -0.000001 0.000010 -0.409150 0.000016 0.118295
# 5 0.002528 -0.003752 0.030985 0.000016 0.091272 -0.000005
# 6 0.000000 0.000000 -0.000003 0.118295 -0.000005 -0.000683
#
#
# Mechanical properties :
#
#
# Convention : Reuss Voigt Hill
#
# Bulk Modulus (GPa) = 26.67613 45.03869 35.85741
# Shear Modulus (GPa) = -22.25922 21.23199 -0.51361
#
# Velocity S-wave (km/s) = -3.43135 3.35124 -0.52123
# Velocity P-wave (km/s) = 1.26030 6.22880 4.31333
#
# Compressibility (1/GPa) = 0.03748669
#
# Stress axis : x y z
#
# Youngs Moduli (GPa) = 53.16850 101.61902 32.45279
#
# Poissons Ratio (x) = 0.58434 0.05961
# Poissons Ratio (y) = 0.30574 0.11037
# Poissons Ratio (z) = 0.09767 0.34558
#
# Static dielectric constant tensor:
#      x y z
#    x 3.441780 0.000000 -0.049200 
#    y 0.000000 4.171890 0.000000 
#    z -0.049200 0.000000 3.326890 
# 
# 
# High freq. dielectric constant tensor:
#      x y z
#    x 1.715730 0.000000 -0.001000 
#    y 0.000000 1.750220 0.000000 
#    z -0.001000 0.000000 1.701120 
# 
# From -- ./inp_files/242385.got.cif
#   From: 2010.06.25/outbox.cif.g09.slc.cpg/sg12_122_cif.got.tgz:242385.got - 2010.06.28 00:19:55.
