data_PCOD8079894
_publ_section_title
;
Structure prediction by ZEFSAII (Michael W. Deem and Ramdas Pophale) SiO2 
 PCOD8079894
Probable space group: C 2/M
;
_chemical_formula_sum "Si O2"
_cell_formula_units_Z 64
_cell_length_a 27.148758
_cell_length_b 8.854107
_cell_length_c 19.683640
_cell_angle_alpha 90.000000
_cell_angle_beta 59.331821
_cell_angle_gamma 90.000000
_cell_volume 4069.744188
_symmetry_space_group_name_H-M "C 2/M"
_symmetry_group_IT_number 12
_symmetry_cell_setting 'monoclinic'
loop_
_space_group_symop_operation_xyz
x,y,z
-x,y,-z
-x,-y,-z
x,-y,z
1/2+x,1/2+y,z
1/2-x,1/2+y,-z
1/2-x,1/2-y,-z
1/2+x,1/2-y,z
loop_
_atom_site_type_symbol
_atom_site_label
_atom_site_fract_x
_atom_site_fract_y
_atom_site_fract_z
Si Si1 0.302987 0.324854 0.997953
Si Si2 0.294403 0.174582 0.518649
Si Si3 0.872427 0.177896 0.828126
Si Si4 0.735084 0.825888 0.166987
Si Si5 0.916720 0.174235 0.436685
Si Si6 0.416507 0.327877 0.591894
Si Si7 0.299439 0.828017 0.665993
Si Si8 0.972197 0.677405 0.677410
O O1 0.296882 0.500000 0.988968
O O2 0.360511 0.275665 0.916474
O O3 0.250000 0.250000 0.000000
O O4 0.294930 0.286201 0.084341
O O5 0.250000 0.250000 0.500000
O O6 0.356987 0.244079 0.465128
O O7 0.271285 0.200771 0.612073
O O8 0.298572 0.000000 0.497299
O O9 0.818400 0.225872 0.819972
O O10 0.929593 0.262546 0.765239
O O11 0.882150 0.000000 0.811842
O O12 0.745581 0.801419 0.240490
O O13 0.718518 0.000000 0.164064
O O14 0.937871 0.193386 0.499738
O O15 0.965450 0.248044 0.355177
O O16 0.908913 0.000000 0.422888
O O17 0.425854 0.500000 0.609838
O O18 0.349749 0.290342 0.642157
O O19 0.450006 0.216962 0.617949
O O20 0.323654 0.000000 0.651278
O O21 0.978231 0.500000 0.680596
#
# Coordination Sequence:
#
# PCOD8079894 Si02
#       8
#     8   8   8   8   8   8   8   8
#     4   8  15  25  38  56  81 113 150 185 220 257
#     4  10  20  35  52  70  91 117 146 181 224 269
#     4  10  18  27  39  58  85 120 155 187 219 256
#     4   9  15  26  42  61  85 115 149 187 224 261
#     4  10  21  35  49  66  86 112 146 186 227 267
#     4  10  19  30  44  62  87 116 148 184 222 261
#     4   9  17  28  45  67  90 116 149 184 222 263
#     4  12  22  30  42  61  88 121 154 187 218 259
#
# _framework density 15.725804
#
# number of rings (size 3 to 8) (size 9 to 14) (size 15 to 20)
#    0.000    2.250    1.250    3.000    0.000    4.000 
#    0.000    0.000    0.000    0.000    0.000    0.000 
#    0.000    1.000    0.000   11.750    0.000    2.250 
#
# Total GULP energy -396452.069901 kJ/mol
# GULP energy per Si atom -12389.127184 kJ/mol
# Density = 1.569001 g / cm^3
# Si number density = 15.725804 Si / 1000 Ang^3
#
#
#
# Elastic Constant Matrix: (Units=GPa)
#
#
# Indices 1 2 3 4 5 6 
#
# 1 52.3012 28.7852 48.8248 0.0000 2.0091 0.0001
# 2 28.7852 84.2407 51.5843 -0.0001 -2.2413 -0.0003
# 3 48.8248 51.5843 151.3210 0.0000 0.8443 -0.0001
# 4 0.0000 -0.0001 0.0000 19.6797 0.0000 -2.2917
# 5 2.0091 -2.2413 0.8443 0.0000 12.6701 0.0000
# 6 0.0001 -0.0003 -0.0001 -2.2917 0.0000 20.8704
#
#
#
# Elastic Compliance Matrix: (Units=1/GPa)
#
#
# Indices 1 2 3 4 5 6 
#
# 1 0.029453 -0.005560 -0.007579 0.000000 -0.005149 0.000000
# 2 -0.005560 0.016167 -0.003739 0.000000 0.003991 0.000000
# 3 -0.007579 -0.003739 0.010329 0.000000 -0.000148 0.000000
# 4 0.000000 0.000000 0.000000 0.051472 0.000000 0.005652
# 5 -0.005149 0.003991 -0.000148 0.000000 0.080459 0.000000
# 6 0.000000 0.000000 0.000000 0.005652 0.000000 0.048535
#
#
# Mechanical properties :
#
#
# Convention : Reuss Voigt Hill
#
# Bulk Modulus (GPa) = 45.06109 60.69460 52.87785
# Shear Modulus (GPa) = 18.01347 21.22194 19.61770
#
# Velocity S-wave (km/s) = 3.38815 3.67754 3.53581
# Velocity P-wave (km/s) = 6.63495 7.53072 7.09698
#
# Compressibility (1/GPa) = 0.02219210
#
# Stress axis : x y z
#
# Youngs Moduli (GPa) = 33.95189 61.85590 96.81026
#
# Poissons Ratio (x) = 0.34393 0.73374
# Poissons Ratio (y) = 0.18878 0.36200
# Poissons Ratio (z) = 0.25733 0.23130
#
# Static dielectric constant tensor:
#      x y z
#    x 2.479240 0.000000 0.133580 
#    y 0.000000 3.092840 0.000000 
#    z 0.133580 0.000000 3.641520 
# 
# 
# High freq. dielectric constant tensor:
#      x y z
#    x 1.533990 0.000000 0.003960 
#    y 0.000000 1.618590 0.000000 
#    z 0.003960 0.000000 1.620630 
# 
# From -- ./inp_files/350918.got.cif
#   From: 2010.06.25/outbox.cif.g09.slc.cpg/sg12_176_cif.got.tgz:350918.got - 2010.06.28 00:19:55.
