data_PCOD8079710
_publ_section_title
;
Structure prediction by ZEFSAII (Michael W. Deem and Ramdas Pophale) SiO2 
 PCOD8079710
Probable space group: C 2/M
;
_chemical_formula_sum "Si O2"
_cell_formula_units_Z 60
_cell_length_a 17.869679
_cell_length_b 25.552179
_cell_length_c 11.288543
_cell_angle_alpha 90.000000
_cell_angle_beta 142.187710
_cell_angle_gamma 90.000000
_cell_volume 3160.074152
_symmetry_space_group_name_H-M "C 2/M"
_symmetry_group_IT_number 12
_symmetry_cell_setting 'monoclinic'
loop_
_space_group_symop_operation_xyz
x,y,z
-x,y,-z
-x,-y,-z
x,-y,z
1/2+x,1/2+y,z
1/2-x,1/2+y,-z
1/2-x,1/2-y,-z
1/2+x,1/2-y,z
loop_
_atom_site_type_symbol
_atom_site_label
_atom_site_fract_x
_atom_site_fract_y
_atom_site_fract_z
Si Si1 0.491227 0.309503 0.125572
Si Si2 0.611319 0.218464 0.559451
Si Si3 0.065148 0.698081 0.861776
Si Si4 0.277802 0.559229 0.103279
Si Si5 0.751779 0.344166 0.083158
Si Si6 0.825218 0.173800 0.448325
Si Si7 0.500000 0.608909 0.500000
Si Si8 0.880555 0.607180 0.902627
O O1 0.442560 0.250423 0.070805
O O2 0.621445 0.319504 0.351960
O O3 0.500000 0.327618 0.000000
O O4 0.393132 0.341676 0.080043
O O5 0.500000 0.239983 0.500000
O O6 0.552839 0.193742 0.369315
O O7 0.684641 0.171028 0.713120
O O8 0.698504 0.267885 0.635948
O O9 0.193904 0.695318 0.949274
O O10 0.056415 0.649613 0.935787
O O11 0.269954 0.500000 0.047300
O O12 0.416853 0.572912 0.311157
O O13 0.198051 0.565373 0.123017
O O14 0.224400 0.596434 0.931930
O O15 0.919015 0.145768 0.479532
O O16 0.702297 0.139076 0.296979
O O17 0.000000 0.577650 0.000000
#
# Coordination Sequence:
#
# PCOD8079710 Si02
#       8
#     8   8   8   8   8   8   4   8
#     4  11  21  32  50  82 119 151 181 220 279 344
#     4   9  17  29  52  80 110 145 185 220 263 320
#     4   9  19  32  51  76 110 151 190 220 261 329
#     4  10  21  36  59  83 105 139 189 247 289 322
#     4  10  19  34  53  78 109 148 188 231 273 326
#     4  10  19  32  53  83 115 150 181 222 274 336
#     4  10  17  34  58  88 112 134 179 236 288 330
#     4  10  21  35  52  76 112 145 182 229 285 337
#
# _framework density 18.986896999999999
#
# number of rings (size 3 to 8) (size 9 to 14) (size 15 to 20)
#    0.000    2.133    2.000    1.800    0.000    1.333 
#    0.000    3.333    0.000   10.400    0.000    1.867 
#    0.000    0.000    0.000    0.000    0.000    0.000 
#
# Total GULP energy -371776.117737 kJ/mol
# GULP energy per Si atom -12392.537258 kJ/mol
# Density = 1.894368 g / cm^3
# Si number density = 18.986897 Si / 1000 Ang^3
#
#
#
# Elastic Constant Matrix: (Units=GPa)
#
#
# Indices 1 2 3 4 5 6 
#
# 1 47.5678 6.7117 29.5466 0.0000 6.9372 0.0000
# 2 6.7117 86.2980 32.7980 0.0000 -2.9506 0.0000
# 3 29.5466 32.7980 90.3700 0.0000 -0.1478 0.0000
# 4 0.0000 0.0000 0.0000 18.4887 0.0000 -1.3240
# 5 6.9372 -2.9506 -0.1478 0.0000 29.7262 0.0000
# 6 0.0000 0.0000 0.0000 -1.3240 0.0000 9.2864
#
#
#
# Elastic Compliance Matrix: (Units=1/GPa)
#
#
# Indices 1 2 3 4 5 6 
#
# 1 0.027688 0.001244 -0.009515 0.000000 -0.006385 0.000000
# 2 0.001244 0.013549 -0.005322 0.000000 0.001028 0.000000
# 3 -0.009515 -0.005322 0.016111 0.000000 0.001772 0.000000
# 4 0.000000 0.000000 0.000000 0.054645 0.000000 0.007791
# 5 -0.006385 0.001028 0.001772 0.000000 0.035241 0.000000
# 6 0.000000 0.000000 0.000000 0.007791 0.000000 0.108795
#
#
# Mechanical properties :
#
#
# Convention : Reuss Voigt Hill
#
# Bulk Modulus (GPa) = 33.15365 40.26092 36.70729
# Shear Modulus (GPa) = 17.04916 21.84558 19.44737
#
# Velocity S-wave (km/s) = 2.99982 3.39567 3.20387
# Velocity P-wave (km/s) = 5.43119 6.05184 5.74989
#
# Compressibility (1/GPa) = 0.03016259
#
# Stress axis : x y z
#
# Youngs Moduli (GPa) = 36.11623 73.80643 62.06899
#
# Poissons Ratio (x) = -0.09184 0.59058
# Poissons Ratio (y) = -0.04494 0.33036
# Poissons Ratio (z) = 0.34364 0.39283
#
# Static dielectric constant tensor:
#      x y z
#    x 3.487570 0.000000 0.057410 
#    y 0.000000 3.092050 0.000000 
#    z 0.057410 0.000000 3.704640 
# 
# 
# High freq. dielectric constant tensor:
#      x y z
#    x 1.732250 0.000000 0.006340 
#    y 0.000000 1.692680 0.000000 
#    z 0.006340 0.000000 1.745730 
# 
# From -- ./inp_files/160496.got.cif
#   From: 2010.06.25/outbox.cif.g09.slc.cpg/sg12_81_cif.got.tgz:160496.got - 2010.06.28 00:19:55.
