data_PCOD8079110
_publ_section_title
;
Structure prediction by ZEFSAII (Michael W. Deem and Ramdas Pophale) SiO2 
 PCOD8079110
Probable space group: C 2/M
;
_chemical_formula_sum "Si O2"
_cell_formula_units_Z 48
_cell_length_a 20.187770
_cell_length_b 13.136656
_cell_length_c 29.193991
_cell_angle_alpha 90.000000
_cell_angle_beta 161.089220
_cell_angle_gamma 90.000000
_cell_volume 2509.224577
_symmetry_space_group_name_H-M "C 2/M"
_symmetry_group_IT_number 12
_symmetry_cell_setting 'monoclinic'
loop_
_space_group_symop_operation_xyz
x,y,z
-x,y,-z
-x,-y,-z
x,-y,z
1/2+x,1/2+y,z
1/2-x,1/2+y,-z
1/2-x,1/2-y,-z
1/2+x,1/2-y,z
loop_
_atom_site_type_symbol
_atom_site_label
_atom_site_fract_x
_atom_site_fract_y
_atom_site_fract_z
Si Si1 0.805632 0.882511 0.080373
Si Si2 0.553040 0.380295 0.401381
Si Si3 0.216773 0.705551 0.115780
Si Si4 0.645761 0.612735 0.637843
Si Si5 0.015512 0.310582 0.197833
Si Si6 0.990620 0.384562 0.708968
O O1 0.675971 0.851470 0.040926
O O2 0.999309 0.806289 0.204925
O O3 0.874880 0.000000 0.128139
O O4 0.689327 0.859694 0.957061
O O5 0.567812 0.500000 0.418016
O O6 0.399197 0.355180 0.259972
O O7 0.461631 0.334341 0.388836
O O8 0.790072 0.343914 0.549358
O O9 0.304930 0.819507 0.167236
O O10 0.000000 0.707481 0.000000
O O11 0.500000 0.600567 0.500000
O O12 0.734568 0.500000 0.708407
O O13 0.824565 0.687432 0.738891
O O14 0.073531 0.379504 0.279437
O O15 0.044597 0.500000 0.730747
#
# Coordination Sequence:
#
# PCOD8079110 Si02
#       6
#     8   8   8   8   8   8
#     4  10  21  35  53  76 107 142 173 210 264 324
#     4  10  20  34  55  81 108 138 177 223 267 313
#     4  11  23  36  52  79 111 145 178 215 269 325
#     4  10  17  28  52  82 104 125 165 220 266 299
#     4  10  19  33  54  81 105 133 172 222 265 310
#     4  10  20  36  57  79 105 140 182 225 265 310
#
# _framework density 19.129415999999999
#
# number of rings (size 3 to 8) (size 9 to 14) (size 15 to 20)
#    0.000    1.833    1.667    3.500    0.000    3.000 
#    0.000    0.000    0.000    3.500    0.000    0.000 
#    0.000    0.000    0.000    0.000    0.000    0.000 
#
# Total GULP energy -297396.848180 kJ/mol
# GULP energy per Si atom -12391.535341 kJ/mol
# Density = 1.908588 g / cm^3
# Si number density = 19.129416 Si / 1000 Ang^3
#
#
#
# Elastic Constant Matrix: (Units=GPa)
#
#
# Indices 1 2 3 4 5 6 
#
# 1 56.0393 23.6058 13.4322 -0.0019 -0.4755 -0.0113
# 2 23.6058 98.6521 22.9224 -0.0046 12.0936 -0.0001
# 3 13.4322 22.9224 76.3031 0.0490 -2.8184 0.0542
# 4 -0.0019 -0.0046 0.0490 27.7046 0.0156 1.5855
# 5 -0.4755 12.0936 -2.8184 0.0156 33.7044 -0.0022
# 6 -0.0113 -0.0001 0.0542 1.5855 -0.0022 24.0273
#
#
#
# Elastic Compliance Matrix: (Units=1/GPa)
#
#
# Indices 1 2 3 4 5 6 
#
# 1 0.020298 -0.004576 -0.002134 0.000003 0.001750 0.000014
# 2 -0.004576 0.012555 -0.003145 0.000010 -0.004832 0.000004
# 3 -0.002134 -0.003145 0.014511 -0.000026 0.002312 -0.000032
# 4 0.000003 0.000010 -0.000026 0.036232 -0.000023 -0.002391
# 5 0.001750 -0.004832 0.002312 -0.000023 0.031622 0.000000
# 6 0.000014 0.000004 -0.000032 -0.002391 0.000000 0.041777
#
#
# Mechanical properties :
#
#
# Convention : Reuss Voigt Hill
#
# Bulk Modulus (GPa) = 36.15887 38.99059 37.57473
# Shear Modulus (GPa) = 26.89296 28.48954 27.69125
#
# Velocity S-wave (km/s) = 3.75353 3.86334 3.80883
# Velocity P-wave (km/s) = 6.14236 6.35038 6.24723
#
# Compressibility (1/GPa) = 0.02765573
#
# Stress axis : x y z
#
# Youngs Moduli (GPa) = 49.26487 79.65241 68.91139
#
# Poissons Ratio (x) = 0.36447 0.14706
# Poissons Ratio (y) = 0.22542 0.21669
# Poissons Ratio (z) = 0.10514 0.25047
#
# Static dielectric constant tensor:
#      x y z
#    x 3.547490 0.000030 -0.027850 
#    y 0.000030 3.484580 0.000030 
#    z -0.027850 0.000030 3.628390 
# 
# 
# High freq. dielectric constant tensor:
#      x y z
#    x 1.741220 0.000000 -0.014590 
#    y 0.000000 1.727330 -0.000010 
#    z -0.014590 -0.000010 1.742810 
# 
# From -- ./inp_files/165205.got.cif
#   From: 2010.06.25/outbox.cif.g09.slc.cpg/sg12_83_cif.got.tgz:165205.got - 2010.06.28 00:19:55.
