data_PCOD8079937
_publ_section_title
;
Structure prediction by ZEFSAII (Michael W. Deem and Ramdas Pophale) SiO2 
 PCOD8079937
Probable space group: C 2/M
;
_chemical_formula_sum "Si O2"
_cell_formula_units_Z 56
_cell_length_a 33.460113
_cell_length_b 8.654465
_cell_length_c 14.996096
_cell_angle_alpha 90.000000
_cell_angle_beta 41.828849
_cell_angle_gamma 90.000000
_cell_volume 2896.086967
_symmetry_space_group_name_H-M "C 2/M"
_symmetry_group_IT_number 12
_symmetry_cell_setting 'monoclinic'
loop_
_space_group_symop_operation_xyz
x,y,z
-x,y,-z
-x,-y,-z
x,-y,z
1/2+x,1/2+y,z
1/2-x,1/2+y,-z
1/2-x,1/2-y,-z
1/2+x,1/2-y,z
loop_
_atom_site_type_symbol
_atom_site_label
_atom_site_fract_x
_atom_site_fract_y
_atom_site_fract_z
Si Si1 0.352139 0.818099 0.673879
Si Si2 0.276229 0.819944 0.114097
Si Si3 0.600129 0.815638 0.591391
Si Si4 0.616935 0.816777 0.187587
Si Si5 0.183699 0.315907 0.611652
Si Si6 0.966365 0.684769 0.827829
Si Si7 0.864363 0.681250 0.123300
O O1 0.282380 0.782325 0.795129
O O2 0.381183 0.746782 0.536078
O O3 0.385377 0.751166 0.707282
O O4 0.360568 0.000000 0.657176
O O5 0.307735 0.780581 0.155412
O O6 0.259456 0.000000 0.135944
O O7 0.320049 0.768104 0.961465
O O8 0.647156 0.755186 0.586612
O O9 0.533860 0.752625 0.725386
O O10 0.600044 0.000000 0.590180
O O11 0.561701 0.754556 0.219477
O O12 0.613740 0.000000 0.194353
O O13 0.187521 0.500000 0.607267
O O14 0.250000 0.250000 0.500000
O O15 0.148644 0.250787 0.756992
O O16 0.964976 0.500000 0.830315
O O17 0.925670 0.748897 0.977528
O O18 0.873354 0.500000 0.115997
#
# Coordination Sequence:
#
# PCOD8079937 Si02
#       7
#     8   8   8   8   8   8   8
#     4  10  18  27  40  64  92 115 138 173 217 257
#     4   9  16  28  44  63  84 112 148 179 206 250
#     4   9  18  28  41  64  92 113 138 177 217 253
#     4   8  15  26  42  62  86 113 143 176 213 254
#     4  10  19  31  46  68  92 114 140 173 212 257
#     4   8  14  27  43  63  88 112 140 180 218 247
#     4   8  15  27  45  64  85 113 145 177 212 251
#
# _framework density 19.336437
#
# number of rings (size 3 to 8) (size 9 to 14) (size 15 to 20)
#    0.000    3.143    0.000    3.000    0.000    1.143 
#    0.000    5.714    0.000    0.000    0.000   14.000 
#    0.000    0.000    0.000    0.000    0.000    0.000 
#
# Total GULP energy -346990.004106 kJ/mol
# GULP energy per Si atom -12392.500147 kJ/mol
# Density = 1.929243 g / cm^3
# Si number density = 19.336437 Si / 1000 Ang^3
#
#
#
# Elastic Constant Matrix: (Units=GPa)
#
#
# Indices 1 2 3 4 5 6 
#
# 1 155.6274 8.0752 114.1815 0.0000 13.5246 0.0000
# 2 8.0752 2.7945 7.0915 0.0001 3.0809 -0.0001
# 3 114.1815 7.0915 146.4761 0.0000 6.7300 0.0000
# 4 0.0000 0.0001 0.0000 16.3076 0.0000 -6.1609
# 5 13.5246 3.0809 6.7300 0.0000 42.8343 0.0000
# 6 0.0000 -0.0001 0.0000 -6.1609 0.0000 13.1737
#
#
#
# Elastic Compliance Matrix: (Units=1/GPa)
#
#
# Indices 1 2 3 4 5 6 
#
# 1 0.015815 -0.013994 -0.011551 0.000000 -0.002172 0.000000
# 2 -0.013994 0.452397 -0.009772 0.000000 -0.026585 0.000004
# 3 -0.011551 -0.009772 0.016222 0.000000 0.001801 0.000000
# 4 0.000000 0.000000 0.000000 0.074480 0.000000 0.034832
# 5 -0.002172 -0.026585 0.001801 0.000000 0.025661 0.000000
# 6 0.000000 0.000004 0.000000 0.034832 0.000000 0.092198
#
#
# Mechanical properties :
#
#
# Convention : Reuss Voigt Hill
#
# Bulk Modulus (GPa) = 2.41663 62.62160 32.51911
# Shear Modulus (GPa) = 5.64754 26.16644 15.90699
#
# Velocity S-wave (km/s) = 1.71085 3.68260 2.87129
# Velocity P-wave (km/s) = 2.27050 7.10899 5.27697
#
# Compressibility (1/GPa) = 0.41379911
#
# Stress axis : x y z
#
# Youngs Moduli (GPa) = 63.22937 2.21045 61.64543
#
# Poissons Ratio (x) = 0.03093 0.71208
# Poissons Ratio (y) = 0.88484 0.60240
# Poissons Ratio (z) = 0.73037 0.02160
#
# Static dielectric constant tensor:
#      x y z
#    x 4.071900 0.000000 0.493690 
#    y 0.000000 2.827700 0.000000 
#    z 0.493690 0.000000 4.148310 
# 
# 
# High freq. dielectric constant tensor:
#      x y z
#    x 1.762760 0.000000 0.008640 
#    y 0.000000 1.678520 0.000000 
#    z 0.008640 0.000000 1.760500 
# 
# From -- ./inp_files/231793.got.cif
#   From: 2010.06.25/outbox.cif.g09.slc.cpg/sg12_116_cif.got.tgz:231793.got - 2010.06.28 00:19:55.
