data_PCOD8079743
_publ_section_title
;
Structure prediction by ZEFSAII (Michael W. Deem and Ramdas Pophale) SiO2 
 PCOD8079743
Probable space group: C 2/M
;
_chemical_formula_sum "Si O2"
_cell_formula_units_Z 56
_cell_length_a 22.896151
_cell_length_b 15.410171
_cell_length_c 13.495697
_cell_angle_alpha 90.000000
_cell_angle_beta 141.434775
_cell_angle_gamma 90.000000
_cell_volume 2968.490349
_symmetry_space_group_name_H-M "C 2/M"
_symmetry_group_IT_number 12
_symmetry_cell_setting 'monoclinic'
loop_
_space_group_symop_operation_xyz
x,y,z
-x,y,-z
-x,-y,-z
x,-y,z
1/2+x,1/2+y,z
1/2-x,1/2+y,-z
1/2-x,1/2-y,-z
1/2+x,1/2-y,z
loop_
_atom_site_type_symbol
_atom_site_label
_atom_site_fract_x
_atom_site_fract_y
_atom_site_fract_z
Si Si1 0.851967 0.337906 0.054968
Si Si2 0.908953 0.184896 0.436477
Si Si3 0.771647 0.404939 0.756828
Si Si4 0.757495 0.400879 0.335412
Si Si5 0.669570 0.245970 0.313214
Si Si6 0.772502 0.682656 0.153733
Si Si7 0.437686 0.806135 0.653394
O O1 0.798581 0.364003 0.085440
O O2 0.961978 0.350915 0.218186
O O3 0.824054 0.403583 0.931424
O O4 0.822291 0.239471 0.985141
O O5 0.838853 0.106975 0.369470
O O6 0.857493 0.254439 0.298229
O O7 0.937951 0.225896 0.579236
O O8 0.000000 0.148994 0.500000
O O9 0.786923 0.500000 0.729085
O O10 0.812797 0.331323 0.740350
O O11 0.734736 0.500000 0.333054
O O12 0.673011 0.338581 0.261666
O O13 0.760046 0.391085 0.219988
O O14 0.856807 0.374626 0.516313
O O15 0.750000 0.250000 0.500000
O O16 0.574956 0.228946 0.249837
#
# Coordination Sequence:
#
# PCOD8079743 Si02
#       7
#     8   8   8   8   8   8   8
#     4  10  19  35  58  83 115 150 182 224 287 343
#     4  10  17  35  61  85 108 144 198 234 274 325
#     4  11  23  38  57  85 119 150 183 226 286 346
#     4  10  20  36  59  86 111 145 195 237 275 325
#     4  10  19  39  57  81 109 152 190 226 281 324
#     4   9  18  34  58  82 109 158 183 223 285 331
#     4  10  20  34  60  87 109 148 191 234 276 332
#
# _framework density 18.864808
#
# number of rings (size 3 to 8) (size 9 to 14) (size 15 to 20)
#    0.000    2.000    7.143    0.000    0.000    4.286 
#    0.000    1.429    0.000    1.714    0.000    0.000 
#    0.000    0.000    0.000    0.000    0.000    0.000 
#
# Total GULP energy -347055.536166 kJ/mol
# GULP energy per Si atom -12394.840577 kJ/mol
# Density = 1.882187 g / cm^3
# Si number density = 18.864808 Si / 1000 Ang^3
#
#
#
# Elastic Constant Matrix: (Units=GPa)
#
#
# Indices 1 2 3 4 5 6 
#
# 1 107.3559 46.2678 25.3268 0.0000 -21.6773 0.0000
# 2 46.2678 117.1778 16.0400 0.0000 -9.8547 0.0000
# 3 25.3268 16.0400 53.8817 0.0000 -11.2765 0.0000
# 4 0.0000 0.0000 0.0000 11.1722 0.0000 -2.9667
# 5 -21.6773 -9.8547 -11.2765 0.0000 27.0425 0.0000
# 6 0.0000 0.0000 0.0000 -2.9667 0.0000 7.1768
#
#
#
# Elastic Compliance Matrix: (Units=1/GPa)
#
#
# Indices 1 2 3 4 5 6 
#
# 1 0.013535 -0.004208 -0.003462 0.000000 0.007872 0.000000
# 2 -0.004208 0.010343 -0.001115 0.000000 -0.000069 0.000000
# 3 -0.003462 -0.001115 0.021751 0.000000 0.005889 0.000000
# 4 0.000000 0.000000 0.000000 0.100544 0.000000 0.041563
# 5 0.007872 -0.000069 0.005889 0.000000 0.045720 0.000000
# 6 0.000000 0.000000 0.000000 0.041563 0.000000 0.156519
#
#
# Mechanical properties :
#
#
# Convention : Reuss Voigt Hill
#
# Bulk Modulus (GPa) = 35.64105 50.40940 43.02523
# Shear Modulus (GPa) = 13.32148 21.79703 17.55925
#
# Velocity S-wave (km/s) = 2.66024 3.40285 3.05420
# Velocity P-wave (km/s) = 5.32632 6.49759 5.94089
#
# Compressibility (1/GPa) = 0.02805753
#
# Stress axis : x y z
#
# Youngs Moduli (GPa) = 73.88415 96.68827 45.97560
#
# Poissons Ratio (x) = 0.40689 0.15915
# Poissons Ratio (y) = 0.31092 0.05128
# Poissons Ratio (z) = 0.25576 0.10784
#
# Static dielectric constant tensor:
#      x y z
#    x 2.440880 0.000000 0.212480 
#    y 0.000000 3.091920 0.000000 
#    z 0.212480 0.000000 3.384010 
# 
# 
# High freq. dielectric constant tensor:
#      x y z
#    x 1.744020 0.000000 -0.018210 
#    y 0.000000 1.695940 0.000000 
#    z -0.018210 0.000000 1.724960 
# 
# From -- ./inp_files/246572.got.cif
#   From: 2010.06.25/outbox.cif.g09.slc.cpg/sg12_124_cif.got.tgz:246572.got - 2010.06.28 00:19:55.
