data_PCOD8079411
_publ_section_title
;
Structure prediction by ZEFSAII (Michael W. Deem and Ramdas Pophale) SiO2 
 PCOD8079411
Probable space group: C 2/M
;
_chemical_formula_sum "Si O2"
_cell_formula_units_Z 56
_cell_length_a 19.474616
_cell_length_b 17.638814
_cell_length_c 13.697101
_cell_angle_alpha 90.000000
_cell_angle_beta 143.623656
_cell_angle_gamma 90.000000
_cell_volume 2790.519051
_symmetry_space_group_name_H-M "C 2/M"
_symmetry_group_IT_number 12
_symmetry_cell_setting 'monoclinic'
loop_
_space_group_symop_operation_xyz
x,y,z
-x,y,-z
-x,-y,-z
x,-y,z
1/2+x,1/2+y,z
1/2-x,1/2+y,-z
1/2-x,1/2-y,-z
1/2+x,1/2-y,z
loop_
_atom_site_type_symbol
_atom_site_label
_atom_site_fract_x
_atom_site_fract_y
_atom_site_fract_z
Si Si1 0.349792 0.832880 0.392822
Si Si2 0.302640 0.699296 0.473570
Si Si3 0.628093 0.844523 0.129230
Si Si4 0.945108 0.174928 0.208256
Si Si5 0.075739 0.340861 0.740062
Si Si6 0.748617 0.087296 0.081083
Si Si7 0.110020 0.166523 0.070517
O O1 0.346305 0.749322 0.433366
O O2 0.448318 0.877442 0.568316
O O3 0.373836 0.818892 0.306806
O O4 0.222814 0.871743 0.251780
O O5 0.250000 0.750000 0.500000
O O6 0.201104 0.645734 0.314089
O O7 0.417987 0.652612 0.636273
O O8 0.691900 0.890769 0.118284
O O9 0.500000 0.879034 0.000000
O O10 0.616092 0.756849 0.087354
O O11 0.932763 0.265748 0.203186
O O12 0.868031 0.133866 0.202367
O O13 0.893358 0.146066 0.046857
O O14 0.155504 0.400125 0.887720
O O15 0.783186 0.000000 0.121929
O O16 0.000000 0.132319 0.000000
#
# Coordination Sequence:
#
# PCOD8079411 Si02
#       7
#     8   8   8   8   8   8   8
#     4   9  18  30  53  86 116 142 187 247 306 350
#     4  10  20  33  58  99 122 143 192 253 306 366
#     4  10  21  37  58  87 124 155 195 246 311 363
#     4  11  19  35  61  86 119 153 195 256 305 356
#     4  10  19  35  58  84 114 150 196 255 305 351
#     4  12  25  39  59  85 120 167 209 245 301 378
#     4  10  17  30  55  92 116 144 186 248 313 364
#
# _framework density 20.067951000000001
#
# number of rings (size 3 to 8) (size 9 to 14) (size 15 to 20)
#    0.000    1.714    2.857    4.714    2.000    2.000 
#    0.000    2.857    0.000    0.429    0.000    0.000 
#    0.000    0.000    0.000    0.000    0.000    0.000 
#
# Total GULP energy -346939.634378 kJ/mol
# GULP energy per Si atom -12390.701228 kJ/mol
# Density = 2.002228 g / cm^3
# Si number density = 20.067951 Si / 1000 Ang^3
#
#
#
# Elastic Constant Matrix: (Units=GPa)
#
#
# Indices 1 2 3 4 5 6 
#
# 1 115.2749 23.8428 57.9724 0.0000 12.7806 0.0000
# 2 23.8428 36.0957 22.2322 0.0000 5.1283 0.0000
# 3 57.9724 22.2322 177.8975 0.0000 26.9274 0.0000
# 4 0.0000 0.0000 0.0000 7.9182 0.0000 -0.6131
# 5 12.7806 5.1283 26.9274 0.0000 44.0262 0.0000
# 6 0.0000 0.0000 0.0000 -0.6131 0.0000 8.9231
#
#
#
# Elastic Compliance Matrix: (Units=1/GPa)
#
#
# Indices 1 2 3 4 5 6 
#
# 1 0.011381 -0.005622 -0.002871 0.000000 -0.000893 0.000000
# 2 -0.005622 0.032862 -0.002141 0.000000 -0.000887 0.000000
# 3 -0.002871 -0.002141 0.007340 0.000000 -0.003407 0.000000
# 4 0.000000 0.000000 0.000000 0.126966 0.000000 0.008724
# 5 -0.000893 -0.000887 -0.003407 0.000000 0.025160 0.000000
# 6 0.000000 0.000000 0.000000 0.008724 0.000000 0.112668
#
#
# Mechanical properties :
#
#
# Convention : Reuss Voigt Hill
#
# Bulk Modulus (GPa) = 32.98652 59.70699 46.34675
# Shear Modulus (GPa) = 14.37819 27.18822 20.78320
#
# Velocity S-wave (km/s) = 2.67961 3.68476 3.22163
# Velocity P-wave (km/s) = 5.10361 6.92245 6.08141
#
# Compressibility (1/GPa) = 0.03031542
#
# Stress axis : x y z
#
# Youngs Moduli (GPa) = 87.86912 30.43007 136.24199
#
# Poissons Ratio (x) = 0.17109 0.39113
# Poissons Ratio (y) = 0.49402 0.29163
# Poissons Ratio (z) = 0.25226 0.06514
#
# Static dielectric constant tensor:
#      x y z
#    x 3.819770 0.000000 0.326920 
#    y 0.000000 2.834730 0.000000 
#    z 0.326920 0.000000 4.645390 
# 
# 
# High freq. dielectric constant tensor:
#      x y z
#    x 1.799620 0.000000 0.008140 
#    y 0.000000 1.689400 0.000000 
#    z 0.008140 0.000000 1.816040 
# 
# From -- ./inp_files/234708.got.cif
#   From: 2010.06.25/outbox.cif.g09.slc.cpg/sg12_118_cif.got.tgz:234708.got - 2010.06.28 00:19:55.
