data_PCOD8079069
_publ_section_title
;
Structure prediction by ZEFSAII (Michael W. Deem and Ramdas Pophale) SiO2 
 PCOD8079069
Probable space group: C 2/M
;
_chemical_formula_sum "Si O2"
_cell_formula_units_Z 64
_cell_length_a 33.819554
_cell_length_b 8.998266
_cell_length_c 25.297474
_cell_angle_alpha 90.000000
_cell_angle_beta 154.691065
_cell_angle_gamma 90.000000
_cell_volume 3291.082792
_symmetry_space_group_name_H-M "C 2/M"
_symmetry_group_IT_number 12
_symmetry_cell_setting 'monoclinic'
loop_
_space_group_symop_operation_xyz
x,y,z
-x,y,-z
-x,-y,-z
x,-y,z
1/2+x,1/2+y,z
1/2-x,1/2+y,-z
1/2-x,1/2-y,-z
1/2+x,1/2-y,z
loop_
_atom_site_type_symbol
_atom_site_label
_atom_site_fract_x
_atom_site_fract_y
_atom_site_fract_z
Si Si1 0.556121 0.168362 0.301134
Si Si2 0.809354 0.674294 0.747808
Si Si3 0.558974 0.829559 0.187055
Si Si4 0.125770 0.176556 0.069820
Si Si5 0.877082 0.174412 0.115426
Si Si6 0.578018 0.174182 0.726124
Si Si7 0.254923 0.825387 0.134785
Si Si8 0.626637 0.828753 0.497744
O O1 0.600483 0.189704 0.296591
O O2 0.475434 0.287369 0.208746
O O3 0.628836 0.195469 0.436747
O O4 0.516806 0.000000 0.259788
O O5 0.808718 0.500000 0.756919
O O6 0.860356 0.719218 0.755276
O O7 0.865590 0.750923 0.862601
O O8 0.704604 0.730898 0.619344
O O9 0.529521 0.000000 0.140815
O O10 0.469797 0.726436 0.072212
O O11 0.211912 0.235556 0.137617
O O12 0.125581 0.000000 0.075656
O O13 0.865566 0.253129 0.157761
O O14 0.869326 0.000000 0.114915
O O15 0.800272 0.237667 0.982441
O O16 0.635581 0.213155 0.741718
O O17 0.471406 0.227360 0.595832
O O18 0.578920 0.000000 0.738048
O O19 0.238819 0.000000 0.116541
O O20 0.644749 0.000000 0.534439
#
# Coordination Sequence:
#
# PCOD8079069 Si02
#       8
#     8   8   8   8   8   8   8   8
#     4   9  18  34  56  81 111 146 180 218 271 330
#     4  11  24  40  57  78 107 147 187 228 278 326
#     4  10  21  38  59  83 112 143 178 222 278 335
#     4  11  22  38  59  84 112 142 181 229 273 320
#     4  10  17  28  48  80 116 143 176 219 266 319
#     4   9  18  34  54  77 109 147 181 216 266 327
#     4   9  18  32  52  80 111 141 178 222 268 322
#     4   9  19  36  57  80 107 143 187 225 263 319
#
# _framework density 19.446487000000001
#
# number of rings (size 3 to 8) (size 9 to 14) (size 15 to 20)
#    0.000    2.250    1.250    2.625    0.000    5.000 
#    0.000    2.500    0.000    3.750    0.000    0.000 
#    0.000    0.000    0.000    0.000    0.000    0.000 
#
# Total GULP energy -396631.142205 kJ/mol
# GULP energy per Si atom -12394.723194 kJ/mol
# Density = 1.940223 g / cm^3
# Si number density = 19.446487 Si / 1000 Ang^3
#
#
#
# Elastic Constant Matrix: (Units=GPa)
#
#
# Indices 1 2 3 4 5 6 
#
# 1 67.9801 18.8947 8.3717 0.0000 18.0113 0.0000
# 2 18.8947 46.7838 17.9029 0.0000 2.6453 0.0000
# 3 8.3717 17.9029 55.3510 0.0000 4.1711 0.0000
# 4 0.0000 0.0000 0.0000 29.9010 0.0000 -2.2234
# 5 18.0113 2.6453 4.1711 0.0000 23.1634 0.0000
# 6 0.0000 0.0000 0.0000 -2.2234 0.0000 22.1605
#
#
#
# Elastic Compliance Matrix: (Units=1/GPa)
#
#
# Indices 1 2 3 4 5 6 
#
# 1 0.020900 -0.007764 0.000515 0.000000 -0.015458 0.000000
# 2 -0.007764 0.027322 -0.007991 0.000000 0.004356 0.000000
# 3 0.000515 -0.007991 0.020817 0.000000 -0.003236 0.000000
# 4 0.000000 0.000000 0.000000 0.033695 0.000000 0.003381
# 5 -0.015458 0.004356 -0.003236 0.000000 0.055276 0.000000
# 6 0.000000 0.000000 0.000000 0.003381 0.000000 0.045464
#
#
# Mechanical properties :
#
#
# Convention : Reuss Voigt Hill
#
# Bulk Modulus (GPa) = 25.93414 28.93927 27.43671
# Shear Modulus (GPa) = 20.25855 23.37469 21.81662
#
# Velocity S-wave (km/s) = 3.23113 3.47075 3.35308
# Velocity P-wave (km/s) = 5.22354 5.56554 5.39725
#
# Compressibility (1/GPa) = 0.03855921
#
# Stress axis : x y z
#
# Youngs Moduli (GPa) = 47.84634 36.60005 48.03715
#
# Poissons Ratio (x) = 0.28417 -0.02474
# Poissons Ratio (y) = 0.37148 0.38387
# Poissons Ratio (z) = -0.02464 0.29248
#
# Static dielectric constant tensor:
#      x y z
#    x 3.852530 0.000000 0.083580 
#    y 0.000000 3.377910 0.000000 
#    z 0.083580 0.000000 3.336080 
# 
# 
# High freq. dielectric constant tensor:
#      x y z
#    x 1.765960 0.000000 0.005990 
#    y 0.000000 1.742720 0.000000 
#    z 0.005990 0.000000 1.736530 
# 
# From -- ./inp_files/353473.got.cif
#   From: 2010.06.25/outbox.cif.g09.slc.cpg/sg12_177_cif.got.tgz:353473.got - 2010.06.28 00:19:55.
