data_PCOD8079083
_publ_section_title
;
Structure prediction by ZEFSAII (Michael W. Deem and Ramdas Pophale) SiO2 
 PCOD8079083
Probable space group: C 2/M
;
_chemical_formula_sum "Si O2"
_cell_formula_units_Z 52
_cell_length_a 20.884569
_cell_length_b 13.548522
_cell_length_c 26.333316
_cell_angle_alpha 90.000000
_cell_angle_beta 158.107864
_cell_angle_gamma 90.000000
_cell_volume 2778.236968
_symmetry_space_group_name_H-M "C 2/M"
_symmetry_group_IT_number 12
_symmetry_cell_setting 'monoclinic'
loop_
_space_group_symop_operation_xyz
x,y,z
-x,y,-z
-x,-y,-z
x,-y,z
1/2+x,1/2+y,z
1/2-x,1/2+y,-z
1/2-x,1/2-y,-z
1/2+x,1/2-y,z
loop_
_atom_site_type_symbol
_atom_site_label
_atom_site_fract_x
_atom_site_fract_y
_atom_site_fract_z
Si Si1 0.500000 0.305323 0.000000
Si Si2 0.839326 0.787584 0.681760
Si Si3 0.894901 0.112609 0.617090
Si Si4 0.006830 0.611676 0.576711
Si Si5 0.358865 0.224857 0.231763
Si Si6 0.633527 0.390724 0.201092
Si Si7 0.440100 0.886282 0.694970
O O1 0.338096 0.241655 0.901687
O O2 0.444825 0.370953 0.911607
O O3 0.903631 0.852997 0.681687
O O4 0.638746 0.808634 0.543046
O O5 0.934713 0.817701 0.804607
O O6 0.875149 0.671727 0.697480
O O7 0.703057 0.127124 0.454419
O O8 0.026419 0.176762 0.680204
O O9 0.954471 0.000000 0.656597
O O10 0.931465 0.500000 0.526072
O O11 0.090719 0.640682 0.691625
O O12 0.157586 0.615158 0.645666
O O13 0.387438 0.168173 0.198687
O O14 0.577131 0.500000 0.175675
O O15 0.473353 0.000000 0.733863
#
# Coordination Sequence:
#
# PCOD8079083 Si02
#       7
#     4   8   8   8   8   8   8
#     4  10  23  38  55  72 104 146 183 210 255 314
#     4  11  18  31  51  80 110 133 168 218 269 310
#     4  10  18  31  54  82 110 137 172 213 263 318
#     4  10  17  28  49  78 107 134 166 211 267 317
#     4  10  18  34  53  78 106 141 176 213 255 309
#     4  10  21  33  50  76 107 141 175 215 260 310
#     4  10  19  32  54  81 110 139 169 212 264 319
#
# _framework density 18.716906000000002
#
# number of rings (size 3 to 8) (size 9 to 14) (size 15 to 20)
#    0.000    1.846    3.077    3.462    0.000    3.077 
#    0.000    3.462    0.000    8.308    0.000    0.000 
#    0.000    0.000    0.000    0.000    0.000    0.000 
#
# Total GULP energy -322201.711520 kJ/mol
# GULP energy per Si atom -12392.373520 kJ/mol
# Density = 1.867431 g / cm^3
# Si number density = 18.716906 Si / 1000 Ang^3
#
#
#
# Elastic Constant Matrix: (Units=GPa)
#
#
# Indices 1 2 3 4 5 6 
#
# 1 97.7508 49.9313 30.9161 0.0131 -3.7125 -0.0033
# 2 49.9313 112.3973 17.9323 0.0379 6.1066 0.0054
# 3 30.9161 17.9323 56.6183 0.0706 13.3218 0.0086
# 4 0.0131 0.0379 0.0706 13.7888 0.0295 1.1795
# 5 -3.7125 6.1066 13.3218 0.0295 32.0104 -0.0010
# 6 -0.0033 0.0054 0.0086 1.1795 -0.0010 25.0618
#
#
#
# Elastic Compliance Matrix: (Units=1/GPa)
#
#
# Indices 1 2 3 4 5 6 
#
# 1 0.016386 -0.006281 -0.008522 0.000031 0.006645 0.000005
# 2 -0.006281 0.011789 0.000439 -0.000022 -0.003160 -0.000003
# 3 -0.008522 0.000439 0.024863 -0.000096 -0.011419 -0.000006
# 4 0.000031 -0.000022 -0.000096 0.072816 -0.000020 -0.003427
# 5 0.006645 -0.003160 -0.011419 -0.000020 0.037366 0.000008
# 6 0.000005 -0.000003 -0.000006 -0.003427 0.000008 0.040063
#
#
# Mechanical properties :
#
#
# Convention : Reuss Voigt Hill
#
# Bulk Modulus (GPa) = 41.13239 51.59175 46.36207
# Shear Modulus (GPa) = 20.82355 25.37130 23.09743
#
# Velocity S-wave (km/s) = 3.33911 3.68574 3.51670
# Velocity P-wave (km/s) = 6.07372 6.76292 6.42756
#
# Compressibility (1/GPa) = 0.02431174
#
# Stress axis : x y z
#
# Youngs Moduli (GPa) = 61.02814 84.82666 40.21996
#
# Poissons Ratio (x) = 0.53277 0.34274
# Poissons Ratio (y) = 0.38330 -0.01767
# Poissons Ratio (z) = 0.52007 -0.03727
#
# Static dielectric constant tensor:
#      x y z
#    x 3.582580 0.000000 0.172340 
#    y 0.000000 3.375430 -0.000150 
#    z 0.172340 -0.000150 3.411850 
# 
# 
# High freq. dielectric constant tensor:
#      x y z
#    x 1.731740 0.000000 0.005290 
#    y 0.000000 1.705770 -0.000010 
#    z 0.005290 -0.000010 1.701260 
# 
# From -- ./inp_files/366478.got.cif
#   From: 2010.06.25/outbox.cif.g09.slc.cpg/sg12_184_cif.got.tgz:366478.got - 2010.06.28 00:19:55.
