data_PCOD8079991
_publ_section_title
;
Structure prediction by ZEFSAII (Michael W. Deem and Ramdas Pophale) SiO2 
 PCOD8079991
Probable space group: C 2/M
;
_chemical_formula_sum "Si O2"
_cell_formula_units_Z 56
_cell_length_a 27.486833
_cell_length_b 8.717208
_cell_length_c 16.327228
_cell_angle_alpha 90.000000
_cell_angle_beta 64.989984
_cell_angle_gamma 90.000000
_cell_volume 3545.315353
_symmetry_space_group_name_H-M "C 2/M"
_symmetry_group_IT_number 12
_symmetry_cell_setting 'monoclinic'
loop_
_space_group_symop_operation_xyz
x,y,z
-x,y,-z
-x,-y,-z
x,-y,z
1/2+x,1/2+y,z
1/2-x,1/2+y,-z
1/2-x,1/2-y,-z
1/2+x,1/2-y,z
loop_
_atom_site_type_symbol
_atom_site_label
_atom_site_fract_x
_atom_site_fract_y
_atom_site_fract_z
Si Si1 0.104291 0.182818 0.306061
Si Si2 0.995108 0.183433 0.306205
Si Si3 0.981464 0.181735 0.132802
Si Si4 0.942414 0.832352 0.499698
Si Si5 0.191206 0.320994 0.959251
Si Si6 0.198786 0.678976 0.140120
Si Si7 0.922378 0.680120 0.032054
O O1 0.055514 0.241962 0.282999
O O2 0.096106 0.249738 0.405315
O O3 0.160600 0.238241 0.231649
O O4 0.103563 0.000000 0.310515
O O5 0.977754 0.240049 0.228891
O O6 0.952470 0.251007 0.404297
O O7 0.994607 0.000000 0.311622
O O8 0.934311 0.266618 0.116330
O O9 0.974250 0.000000 0.130535
O O10 0.039387 0.227347 0.056427
O O11 0.000000 0.851659 0.500000
O O12 0.917851 0.000000 0.498877
O O13 0.204960 0.500000 0.944823
O O14 0.240248 0.228280 0.884554
O O15 0.138597 0.277805 0.945459
O O16 0.182667 0.270779 0.059613
O O17 0.192360 0.500000 0.157858
O O18 0.933679 0.500000 0.013927
#
# Coordination Sequence:
#
# PCOD8079991 Si02
#       7
#     8   8   8   8   8   8   8
#     4   9  15  25  43  63  85 113 141 167 197 240
#     4   8  14  24  40  63  87 111 140 172 200 232
#     4  10  18  27  42  64  87 110 139 171 204 241
#     4   7  11  21  38  60  83 108 139 169 196 232
#     4   9  19  33  45  58  79 110 143 171 201 242
#     4  10  19  29  43  63  85 107 134 170 209 246
#     4  10  19  31  44  58  82 112 141 172 203 240
#
# _framework density 15.795491
#
# number of rings (size 3 to 8) (size 9 to 14) (size 15 to 20)
#    0.000    3.000    0.000    4.714    0.000    1.714 
#    0.000    0.714    0.000    5.571    0.000    1.000 
#    0.000    0.000    0.000    0.000    0.000    0.000 
#
# Total GULP energy -346945.661387 kJ/mol
# GULP energy per Si atom -12390.916478 kJ/mol
# Density = 1.575954 g / cm^3
# Si number density = 15.795491 Si / 1000 Ang^3
#
#
#
# Elastic Constant Matrix: (Units=GPa)
#
#
# Indices 1 2 3 4 5 6 
#
# 1 91.4467 15.6908 56.3980 0.0000 3.0359 0.0000
# 2 15.6908 22.1998 15.8840 0.0000 0.0119 0.0000
# 3 56.3980 15.8840 139.4592 0.0000 2.9979 0.0000
# 4 0.0000 0.0000 0.0000 12.1121 0.0000 -1.1988
# 5 3.0359 0.0119 2.9979 0.0000 23.8691 0.0000
# 6 0.0000 0.0000 0.0000 -1.1988 0.0000 20.2667
#
#
#
# Elastic Compliance Matrix: (Units=1/GPa)
#
#
# Indices 1 2 3 4 5 6 
#
# 1 0.015561 -0.007093 -0.005457 0.000000 -0.001290 0.000000
# 2 -0.007093 0.052286 -0.003114 0.000000 0.001267 0.000000
# 3 -0.005457 -0.003114 0.009744 0.000000 -0.000528 0.000000
# 4 0.000000 0.000000 0.000000 0.083048 0.000000 0.004912
# 5 -0.001290 0.001267 -0.000528 0.000000 0.042125 0.000000
# 6 0.000000 0.000000 0.000000 0.004912 0.000000 0.049633
#
#
# Mechanical properties :
#
#
# Convention : Reuss Voigt Hill
#
# Bulk Modulus (GPa) = 21.61604 47.67237 34.64421
# Shear Modulus (GPa) = 16.71428 22.25845 19.48637
#
# Velocity S-wave (km/s) = 3.25648 3.75796 3.51617
# Velocity P-wave (km/s) = 5.27771 7.00544 6.20203
#
# Compressibility (1/GPa) = 0.04626195
#
# Stress axis : x y z
#
# Youngs Moduli (GPa) = 64.26363 19.12551 102.63204
#
# Poissons Ratio (x) = 0.13566 0.56009
# Poissons Ratio (y) = 0.45582 0.31960
# Poissons Ratio (z) = 0.35071 0.05956
#
# Static dielectric constant tensor:
#      x y z
#    x 2.859060 0.000000 0.112080 
#    y 0.000000 2.782540 0.000000 
#    z 0.112080 0.000000 3.365060 
# 
# 
# High freq. dielectric constant tensor:
#      x y z
#    x 1.576300 0.000000 0.001680 
#    y 0.000000 1.586520 0.000000 
#    z 0.001680 0.000000 1.610480 
# 
# From -- ./inp_files/248130.got.cif
#   From: 2010.06.25/outbox.cif.g09.slc.cpg/sg12_125_cif.got.tgz:248130.got - 2010.06.28 00:19:55.
