data_PCOD8079816
_publ_section_title
;
Structure prediction by ZEFSAII (Michael W. Deem and Ramdas Pophale) SiO2 
 PCOD8079816
Probable space group: C 2/M
;
_chemical_formula_sum "Si O2"
_cell_formula_units_Z 64
_cell_length_a 16.029495
_cell_length_b 25.266258
_cell_length_c 20.152425
_cell_angle_alpha 90.000000
_cell_angle_beta 32.109664
_cell_angle_gamma 90.000000
_cell_volume 4338.356343
_symmetry_space_group_name_H-M "C 2/M"
_symmetry_group_IT_number 12
_symmetry_cell_setting 'monoclinic'
loop_
_space_group_symop_operation_xyz
x,y,z
-x,y,-z
-x,-y,-z
x,-y,z
1/2+x,1/2+y,z
1/2-x,1/2+y,-z
1/2-x,1/2-y,-z
1/2+x,1/2-y,z
loop_
_atom_site_type_symbol
_atom_site_label
_atom_site_fract_x
_atom_site_fract_y
_atom_site_fract_z
Si Si1 0.521355 0.059641 0.798161
Si Si2 0.220851 0.645204 0.028194
Si Si3 0.546965 0.231489 0.776042
Si Si4 0.730191 0.642261 0.392036
Si Si5 0.568154 0.711128 0.025189
Si Si6 0.356771 0.058638 0.135905
Si Si7 0.898154 0.136642 0.668574
Si Si8 0.835284 0.797006 0.831813
O O1 0.347207 0.085909 0.915834
O O2 0.641621 0.097078 0.676141
O O3 0.593442 0.056452 0.821959
O O4 0.509968 0.000000 0.775616
O O5 0.078486 0.685918 0.126670
O O6 0.348375 0.659476 0.998972
O O7 0.297983 0.651918 0.903320
O O8 0.704531 0.202295 0.644278
O O9 0.561437 0.265441 0.835258
O O10 0.492579 0.269882 0.753850
O O11 0.585478 0.629506 0.538171
O O12 0.676882 0.642534 0.352268
O O13 0.500000 0.693693 0.000000
O O14 0.693439 0.756531 0.928228
O O15 0.189939 0.087233 0.237697
O O16 0.333010 0.000000 0.122368
O O17 0.500000 0.087441 0.000000
O O18 0.864148 0.187545 0.736459
#
# Coordination Sequence:
#
# PCOD8079816 Si02
#       8
#     8   8   8   8   8   8   8   8
#     4   9  16  27  42  54  71 102 129 154 192 230
#     4   8  15  26  39  59  79  94 125 161 185 222
#     4   8  15  27  39  54  78 102 127 156 181 221
#     4   9  18  28  36  53  78 102 132 162 184 217
#     4   9  15  24  41  60  78 101 124 152 189 226
#     4   9  17  27  39  56  75  97 127 159 191 228
#     4  10  18  26  38  55  77 103 129 160 191 218
#     4   9  16  25  39  57  76 103 130 152 188 224
#
# _framework density 14.752131
#
# number of rings (size 3 to 8) (size 9 to 14) (size 15 to 20)
#    0.000    3.125    0.000    3.000    0.000    3.500 
#    0.000    2.500    0.000    0.375    0.000    0.000 
#    0.000    0.000    0.000    4.500    0.000    0.000 
#
# Total GULP energy -396419.788716 kJ/mol
# GULP energy per Si atom -12388.118397 kJ/mol
# Density = 1.471855 g / cm^3
# Si number density = 14.752131 Si / 1000 Ang^3
#
#
#
# Elastic Constant Matrix: (Units=GPa)
#
#
# Indices 1 2 3 4 5 6 
#
# 1 44.3771 18.6151 15.4365 -0.0120 -3.8193 0.0013
# 2 18.6151 76.6930 41.2042 -0.0345 -11.2303 0.0170
# 3 15.4365 41.2042 91.5873 -0.0429 -11.5082 0.0277
# 4 -0.0120 -0.0345 -0.0429 15.2613 0.0360 -1.7201
# 5 -3.8193 -11.2303 -11.5082 0.0360 17.7893 -0.0165
# 6 0.0013 0.0170 0.0277 -1.7201 -0.0165 12.7189
#
#
#
# Elastic Compliance Matrix: (Units=1/GPa)
#
#
# Indices 1 2 3 4 5 6 
#
# 1 0.025377 -0.004981 -0.001901 0.000002 0.001074 0.000010
# 2 -0.004981 0.018862 -0.006841 0.000004 0.006413 -0.000001
# 3 -0.001901 -0.006841 0.014937 0.000012 0.004936 -0.000015
# 4 0.000002 0.000004 0.000012 0.066540 -0.000116 0.008998
# 5 0.001074 0.006413 0.004936 -0.000116 0.063686 0.000047
# 6 0.000010 -0.000001 -0.000015 0.008998 0.000047 0.079840
#
#
# Mechanical properties :
#
#
# Convention : Reuss Voigt Hill
#
# Bulk Modulus (GPa) = 31.51532 40.35210 35.93371
# Shear Modulus (GPa) = 16.27263 18.31403 17.29333
#
# Velocity S-wave (km/s) = 3.32485 3.52724 3.42754
# Velocity P-wave (km/s) = 6.01241 6.63335 6.33050
#
# Compressibility (1/GPa) = 0.03173060
#
# Stress axis : x y z
#
# Youngs Moduli (GPa) = 39.40530 53.01601 66.94874
#
# Poissons Ratio (x) = 0.26406 0.12730
# Poissons Ratio (y) = 0.19627 0.45797
# Poissons Ratio (z) = 0.07493 0.36266
#
# Static dielectric constant tensor:
#      x y z
#    x 2.736170 -0.000090 -0.063110 
#    y -0.000090 3.018540 0.000150 
#    z -0.063110 0.000150 3.008020 
# 
# 
# High freq. dielectric constant tensor:
#      x y z
#    x 1.536050 -0.000010 0.000500 
#    y -0.000010 1.546810 0.000010 
#    z 0.000500 0.000010 1.556550 
# 
# From -- ./inp_files/159882.got.cif
#   From: 2010.06.25/outbox.cif.g09.slc.cpg/sg12_80_cif.got.tgz:159882.got - 2010.06.28 00:19:55.
