data_PCOD8079187
_publ_section_title
;
Structure prediction by ZEFSAII (Michael W. Deem and Ramdas Pophale) SiO2 
 PCOD8079187
Probable space group: C 2/M
;
_chemical_formula_sum "Si O2"
_cell_formula_units_Z 64
_cell_length_a 30.155466
_cell_length_b 8.810568
_cell_length_c 15.175674
_cell_angle_alpha 90.000000
_cell_angle_beta 100.947178
_cell_angle_gamma 90.000000
_cell_volume 3958.604845
_symmetry_space_group_name_H-M "C 2/M"
_symmetry_group_IT_number 12
_symmetry_cell_setting 'monoclinic'
loop_
_space_group_symop_operation_xyz
x,y,z
-x,y,-z
-x,-y,-z
x,-y,z
1/2+x,1/2+y,z
1/2-x,1/2+y,-z
1/2-x,1/2-y,-z
1/2+x,1/2-y,z
loop_
_atom_site_type_symbol
_atom_site_label
_atom_site_fract_x
_atom_site_fract_y
_atom_site_fract_z
Si Si1 0.563980 0.820754 0.576861
Si Si2 0.059832 0.178928 0.885612
Si Si3 0.706068 0.824990 0.888151
Si Si4 0.530899 0.819829 0.385244
Si Si5 0.806761 0.824285 0.933271
Si Si6 0.381333 0.823230 0.242956
Si Si7 0.466025 0.821483 0.808783
Si Si8 0.895257 0.677037 0.928401
O O1 0.564835 0.758835 0.475805
O O2 0.519286 0.761732 0.610170
O O3 0.607368 0.771742 0.651964
O O4 0.560897 0.000000 0.569059
O O5 0.086934 0.231586 0.810474
O O6 0.009456 0.243823 0.867818
O O7 0.057072 0.000000 0.884961
O O8 0.085429 0.232466 0.982035
O O9 0.756936 0.788409 0.875233
O O10 0.671577 0.791585 0.795054
O O11 0.702822 0.000000 0.918389
O O12 0.691955 0.718807 0.963419
O O13 0.543957 0.757042 0.293517
O O14 0.532539 0.000000 0.382410
O O15 0.843344 0.726778 0.893085
O O16 0.819204 0.000000 0.928874
O O17 0.393084 0.000000 0.234144
O O18 0.422604 0.781151 0.850868
O O19 0.475714 0.000000 0.810883
O O20 0.897896 0.500000 0.951214
#
# Coordination Sequence:
#
# PCOD8079187 Si02
#       8
#     8   8   8   8   8   8   8   8
#     4   8  13  22  44  71  93 113 143 187 230 266
#     4  12  23  32  44  66  95 125 156 189 224 266
#     4   9  18  30  47  68  92 121 153 187 227 277
#     4   8  13  24  43  70  92 112 146 190 230 263
#     4  10  19  31  46  67  92 119 152 193 234 270
#     4  10  17  29  49  70  93 123 153 183 223 274
#     4  10  20  34  50  65  88 123 161 193 225 267
#     4  11  22  34  48  65  87 123 163 194 226 269
#
# _framework density 16.167313
#
# number of rings (size 3 to 8) (size 9 to 14) (size 15 to 20)
#    0.000    2.250    2.500    3.000    0.000    3.000 
#    0.000    0.000    0.000    1.500    0.000    0.875 
#    0.000    0.000    0.000    0.000    0.000    0.000 
#
# Total GULP energy -396611.301552 kJ/mol
# GULP energy per Si atom -12394.103173 kJ/mol
# Density = 1.613052 g / cm^3
# Si number density = 16.167313 Si / 1000 Ang^3
#
#
#
# Elastic Constant Matrix: (Units=GPa)
#
#
# Indices 1 2 3 4 5 6 
#
# 1 110.7440 28.1114 49.4749 0.0000 10.6575 0.0000
# 2 28.1114 39.1981 12.6964 0.0000 0.4800 0.0000
# 3 49.4749 12.6964 81.0490 0.0000 13.6942 0.0000
# 4 0.0000 0.0000 0.0000 4.2669 0.0000 2.9311
# 5 10.6575 0.4800 13.6942 0.0000 24.5228 0.0000
# 6 0.0000 0.0000 0.0000 2.9311 0.0000 21.1063
#
#
#
# Elastic Compliance Matrix: (Units=1/GPa)
#
#
# Indices 1 2 3 4 5 6 
#
# 1 0.014506 -0.008032 -0.007241 0.000000 -0.002103 0.000000
# 2 -0.008032 0.031413 -0.000556 0.000000 0.003186 0.000000
# 3 -0.007241 -0.000556 0.018012 0.000000 -0.006900 0.000000
# 4 0.000000 0.000000 0.000000 0.259076 0.000000 -0.035979
# 5 -0.002103 0.003186 -0.006900 0.000000 0.045483 0.000000
# 6 0.000000 0.000000 0.000000 -0.035979 0.000000 0.052376
#
#
# Mechanical properties :
#
#
# Convention : Reuss Voigt Hill
#
# Bulk Modulus (GPa) = 30.98732 45.72852 38.35792
# Shear Modulus (GPa) = 10.79256 19.35976 15.07616
#
# Velocity S-wave (km/s) = 2.58651 3.46419 3.05701
# Velocity P-wave (km/s) = 5.30361 6.65934 6.01976
#
# Compressibility (1/GPa) = 0.03227126
#
# Stress axis : x y z
#
# Youngs Moduli (GPa) = 68.93596 31.83410 55.51973
#
# Poissons Ratio (x) = 0.25569 0.40204
# Poissons Ratio (y) = 0.55369 0.03088
# Poissons Ratio (z) = 0.49920 0.01771
#
# Static dielectric constant tensor:
#      x y z
#    x 3.147500 0.000000 0.178820 
#    y 0.000000 2.885570 0.000000 
#    z 0.178820 0.000000 3.403520 
# 
# 
# High freq. dielectric constant tensor:
#      x y z
#    x 1.606030 0.000000 0.015520 
#    y 0.000000 1.603140 0.000000 
#    z 0.015520 0.000000 1.611120 
# 
# From -- ./inp_files/248503.got.cif
#   From: 2010.06.25/outbox.cif.g09.slc.cpg/sg12_125_cif.got.tgz:248503.got - 2010.06.28 00:19:55.
