data_PCOD8079257
_publ_section_title
;
Structure prediction by ZEFSAII (Michael W. Deem and Ramdas Pophale) SiO2 
 PCOD8079257
Probable space group: C 2/M
;
_chemical_formula_sum "Si O2"
_cell_formula_units_Z 64
_cell_length_a 24.780820
_cell_length_b 16.782253
_cell_length_c 17.951235
_cell_angle_alpha 90.000000
_cell_angle_beta 28.710712
_cell_angle_gamma 90.000000
_cell_volume 3586.344042
_symmetry_space_group_name_H-M "C 2/M"
_symmetry_group_IT_number 12
_symmetry_cell_setting 'monoclinic'
loop_
_space_group_symop_operation_xyz
x,y,z
-x,y,-z
-x,-y,-z
x,-y,z
1/2+x,1/2+y,z
1/2-x,1/2+y,-z
1/2-x,1/2-y,-z
1/2+x,1/2-y,z
loop_
_atom_site_type_symbol
_atom_site_label
_atom_site_fract_x
_atom_site_fract_y
_atom_site_fract_z
Si Si1 0.041836 0.720252 0.836635
Si Si2 0.233332 0.588606 0.464433
Si Si3 0.882324 0.093426 0.895375
Si Si4 0.730329 0.826310 0.973826
Si Si5 0.255728 0.726583 0.329155
Si Si6 0.983848 0.411372 0.809254
Si Si7 0.192951 0.785925 0.893931
Si Si8 0.380799 0.680132 0.391885
O O1 0.127067 0.723921 0.803086
O O2 0.106841 0.748954 0.682848
O O3 0.002344 0.629943 0.867591
O O4 0.934729 0.775944 0.979609
O O5 0.281881 0.500000 0.393282
O O6 0.276045 0.642585 0.345085
O O7 0.281848 0.621209 0.484298
O O8 0.099205 0.586079 0.624564
O O9 0.819703 0.106920 0.891542
O O10 0.004734 0.131270 0.737854
O O11 0.890698 0.000000 0.903248
O O12 0.808791 0.136328 0.049941
O O13 0.742008 0.793217 0.875396
O O14 0.750000 0.750000 0.000000
O O15 0.604881 0.862043 0.133593
O O16 0.231362 0.706168 0.272082
O O17 0.154305 0.778534 0.487420
O O18 0.937277 0.500000 0.880557
#
# Coordination Sequence:
#
# PCOD8079257 Si02
#       8
#     8   8   8   8   8   8   8   8
#     4   9  16  32  49  74 102 141 180 207 240 311
#     4  10  19  30  50  80 110 137 171 210 256 311
#     4  10  20  36  58  77 101 137 180 224 260 308
#     4   9  19  35  55  73  97 133 183 220 251 311
#     4  11  18  31  51  78 111 143 164 212 267 318
#     4  10  17  29  52  78  99 126 172 224 254 290
#     4   9  20  32  53  79 105 132 176 219 263 311
#     4  10  18  32  52  76 107 143 183 205 247 311
#
# _framework density 17.845471
#
# number of rings (size 3 to 8) (size 9 to 14) (size 15 to 20)
#    0.000    2.250    2.500    2.625    0.000    0.500 
#    0.000    0.625    0.000   19.500    0.000    4.375 
#    0.000    0.000    0.000    0.000    0.000    0.000 
#
# Total GULP energy -396538.398777 kJ/mol
# GULP energy per Si atom -12391.824962 kJ/mol
# Density = 1.780485 g / cm^3
# Si number density = 17.845471 Si / 1000 Ang^3
#
#
#
# Elastic Constant Matrix: (Units=GPa)
#
#
# Indices 1 2 3 4 5 6 
#
# 1 89.6852 44.7950 43.6358 0.0000 -0.7455 0.0000
# 2 44.7950 118.9482 36.3117 0.0000 2.6996 0.0000
# 3 43.6358 36.3117 55.8375 0.0000 3.8762 0.0000
# 4 0.0000 0.0000 0.0000 21.0534 0.0000 -5.2512
# 5 -0.7455 2.6996 3.8762 0.0000 31.2300 0.0000
# 6 0.0000 0.0000 0.0000 -5.2512 0.0000 21.2466
#
#
#
# Elastic Compliance Matrix: (Units=1/GPa)
#
#
# Indices 1 2 3 4 5 6 
#
# 1 0.019124 -0.003298 -0.012964 0.000000 0.002351 0.000000
# 2 -0.003298 0.011058 -0.004582 0.000000 -0.000466 0.000000
# 3 -0.012964 -0.004582 0.031283 0.000000 -0.003796 0.000000
# 4 0.000000 0.000000 0.000000 0.050619 0.000000 0.012511
# 5 0.002351 -0.000466 -0.003796 0.000000 0.032588 0.000000
# 6 0.000000 0.000000 0.000000 0.012511 0.000000 0.050159
#
#
# Mechanical properties :
#
#
# Convention : Reuss Voigt Hill
#
# Bulk Modulus (GPa) = 50.55898 57.10622 53.83260
# Shear Modulus (GPa) = 20.56677 24.02121 22.29399
#
# Velocity S-wave (km/s) = 3.39852 3.67286 3.53835
# Velocity P-wave (km/s) = 6.61763 7.07505 6.85016
#
# Compressibility (1/GPa) = 0.01977888
#
# Stress axis : x y z
#
# Youngs Moduli (GPa) = 52.28950 90.43035 31.96623
#
# Poissons Ratio (x) = 0.29823 0.41440
# Poissons Ratio (y) = 0.17245 0.14646
# Poissons Ratio (z) = 0.67787 0.41432
#
# Static dielectric constant tensor:
#      x y z
#    x 3.430340 0.000000 -0.217870 
#    y 0.000000 3.536720 0.000000 
#    z -0.217870 0.000000 3.115150 
# 
# 
# High freq. dielectric constant tensor:
#      x y z
#    x 1.676780 0.000000 -0.020790 
#    y 0.000000 1.691500 0.000000 
#    z -0.020790 0.000000 1.667130 
# 
# From -- ./inp_files/290440.got.cif
#   From: 2010.06.25/outbox.cif.g09.slc.cpg/sg12_146_cif.got.tgz:290440.got - 2010.06.28 00:19:55.
