data_PCOD8079074
_publ_section_title
;
Structure prediction by ZEFSAII (Michael W. Deem and Ramdas Pophale) SiO2 
 PCOD8079074
Probable space group: C 2/M
;
_chemical_formula_sum "Si O2"
_cell_formula_units_Z 56
_cell_length_a 28.816462
_cell_length_b 9.081772
_cell_length_c 13.543774
_cell_angle_alpha 90.000000
_cell_angle_beta 77.138853
_cell_angle_gamma 90.000000
_cell_volume 3455.544795
_symmetry_space_group_name_H-M "C 2/M"
_symmetry_group_IT_number 12
_symmetry_cell_setting 'monoclinic'
loop_
_space_group_symop_operation_xyz
x,y,z
-x,y,-z
-x,-y,-z
x,-y,z
1/2+x,1/2+y,z
1/2-x,1/2+y,-z
1/2-x,1/2-y,-z
1/2+x,1/2-y,z
loop_
_atom_site_type_symbol
_atom_site_label
_atom_site_fract_x
_atom_site_fract_y
_atom_site_fract_z
Si Si1 0.150028 0.827497 0.750668
Si Si2 0.788017 0.166691 0.773230
Si Si3 0.448382 0.327301 0.129560
Si Si4 0.809053 0.667002 0.088010
Si Si5 0.446506 0.674252 0.909219
Si Si6 0.359828 0.170139 0.861551
Si Si7 0.769191 0.673768 0.393966
O O1 0.093640 0.786433 0.773541
O O2 0.166940 0.785636 0.852085
O O3 0.178054 0.735620 0.654500
O O4 0.158841 0.000000 0.728598
O O5 0.747908 0.183383 0.877021
O O6 0.833225 0.267396 0.777562
O O7 0.765978 0.215924 0.678826
O O8 0.806419 0.000000 0.758117
O O9 0.450903 0.500000 0.111178
O O10 0.499689 0.276586 0.146897
O O11 0.437692 0.264208 0.024671
O O12 0.823459 0.500000 0.113340
O O13 0.825433 0.701869 0.970136
O O14 0.438943 0.500000 0.904055
O O15 0.410433 0.751634 0.851328
O O16 0.369670 0.000000 0.839649
O O17 0.772869 0.500000 0.407697
O O18 0.750000 0.750000 0.500000
#
# Coordination Sequence:
#
# PCOD8079074 Si02
#       7
#     8   8   8   8   8   8   8
#     4  10  17  28  49  73  94 123 160 196 235 278
#     4   9  19  33  47  63  88 123 158 189 227 279
#     4   8  15  27  45  67  90 124 168 201 227 268
#     4   9  18  30  41  61  94 127 160 195 228 271
#     4   9  16  29  45  62  91 130 168 200 227 266
#     4  11  20  28  41  66  96 126 161 197 234 272
#     4  10  21  37  54  74  96 119 150 192 239 287
#
# _framework density 16.205838
#
# number of rings (size 3 to 8) (size 9 to 14) (size 15 to 20)
#    0.000    2.571    1.429    3.429    0.000    3.429 
#    0.000    2.857    0.000    0.000    0.000    1.000 
#    0.000    8.000    0.000    0.000    0.000    0.000 
#
# Total GULP energy -347072.394271 kJ/mol
# GULP energy per Si atom -12395.442653 kJ/mol
# Density = 1.616895 g / cm^3
# Si number density = 16.205838 Si / 1000 Ang^3
#
#
#
# Elastic Constant Matrix: (Units=GPa)
#
#
# Indices 1 2 3 4 5 6 
#
# 1 127.9941 54.8636 50.7933 0.0000 -5.9815 0.0000
# 2 54.8636 73.2079 38.2032 0.0000 -4.0626 0.0000
# 3 50.7933 38.2032 70.0429 0.0000 -10.1001 0.0000
# 4 0.0000 0.0000 0.0000 22.0623 0.0000 0.1525
# 5 -5.9815 -4.0626 -10.1001 0.0000 16.5354 0.0000
# 6 0.0000 0.0000 0.0000 0.1525 0.0000 24.4049
#
#
#
# Elastic Compliance Matrix: (Units=1/GPa)
#
#
# Indices 1 2 3 4 5 6 
#
# 1 0.012978 -0.006716 -0.005822 0.000000 -0.000512 0.000000
# 2 -0.006716 0.022621 -0.007694 0.000000 -0.001571 0.000000
# 3 -0.005822 -0.007694 0.024256 0.000000 0.010819 0.000000
# 4 0.000000 0.000000 0.000000 0.045328 0.000000 -0.000283
# 5 -0.000512 -0.001571 0.010819 0.000000 0.066514 0.000000
# 6 0.000000 0.000000 0.000000 -0.000283 0.000000 0.040977
#
#
# Mechanical properties :
#
#
# Convention : Reuss Voigt Hill
#
# Bulk Modulus (GPa) = 51.57327 62.10725 56.84026
# Shear Modulus (GPa) = 19.26020 21.09283 20.17651
#
# Velocity S-wave (km/s) = 3.45116 3.61162 3.53231
# Velocity P-wave (km/s) = 6.91185 7.46987 7.19627
#
# Compressibility (1/GPa) = 0.01938989
#
# Stress axis : x y z
#
# Youngs Moduli (GPa) = 77.05175 44.20649 41.22751
#
# Poissons Ratio (x) = 0.29691 0.24003
# Poissons Ratio (y) = 0.51751 0.31721
# Poissons Ratio (z) = 0.44859 0.34013
#
# Static dielectric constant tensor:
#      x y z
#    x 3.216110 0.000000 -0.171470 
#    y 0.000000 2.981930 0.000000 
#    z -0.171470 0.000000 2.768380 
# 
# 
# High freq. dielectric constant tensor:
#      x y z
#    x 1.623960 0.000000 -0.008430 
#    y 0.000000 1.620700 0.000000 
#    z -0.008430 0.000000 1.578000 
# 
# From -- ./inp_files/247787.got.cif
#   From: 2010.06.25/outbox.cif.g09.slc.cpg/sg12_124_cif.got.tgz:247787.got - 2010.06.28 00:19:55.
