data_PCOD8079002
_publ_section_title
;
Structure prediction by ZEFSAII (Michael W. Deem and Ramdas Pophale) SiO2 
 PCOD8079002
Probable space group: C 2/M
;
_chemical_formula_sum "Si O2"
_cell_formula_units_Z 64
_cell_length_a 29.073067
_cell_length_b 9.478792
_cell_length_c 14.337891
_cell_angle_alpha 90.000000
_cell_angle_beta 74.336722
_cell_angle_gamma 90.000000
_cell_volume 3804.473025
_symmetry_space_group_name_H-M "C 2/M"
_symmetry_group_IT_number 12
_symmetry_cell_setting 'monoclinic'
loop_
_space_group_symop_operation_xyz
x,y,z
-x,y,-z
-x,-y,-z
x,-y,z
1/2+x,1/2+y,z
1/2-x,1/2+y,-z
1/2-x,1/2-y,-z
1/2+x,1/2-y,z
loop_
_atom_site_type_symbol
_atom_site_label
_atom_site_fract_x
_atom_site_fract_y
_atom_site_fract_z
Si Si1 0.304734 0.833487 0.374485
Si Si2 0.053485 0.669007 0.994214
Si Si3 0.469289 0.158665 0.320377
Si Si4 0.211797 0.662568 0.406279
Si Si5 0.067695 0.663915 0.191310
Si Si6 0.107435 0.658145 0.791169
Si Si7 0.621700 0.837661 0.337114
Si Si8 0.554289 0.340364 0.500895
O O1 0.257393 0.759002 0.362151
O O2 0.312307 0.799637 0.480456
O O3 0.349210 0.769396 0.290494
O O4 0.299198 0.000000 0.363493
O O5 0.054035 0.500000 0.988235
O O6 0.092452 0.729748 0.898051
O O7 0.071077 0.728840 0.085432
O O8 0.000000 0.724004 0.000000
O O9 0.521746 0.223967 0.272283
O O10 0.441417 0.157346 0.239203
O O11 0.439757 0.256995 0.406190
O O12 0.472316 0.000000 0.360830
O O13 0.227992 0.500000 0.396619
O O14 0.175157 0.694994 0.342197
O O15 0.057115 0.500000 0.182275
O O16 0.115194 0.689385 0.228677
O O17 0.125130 0.500000 0.800516
O O18 0.585691 0.733291 0.406090
O O19 0.608416 0.000000 0.368300
O O20 0.500000 0.333882 0.500000
O O21 0.572180 0.500000 0.504901
#
# Coordination Sequence:
#
# PCOD8079002 Si02
#       8
#     8   8   8   8   8   8   8   8
#     4   9  17  30  47  69  93 119 152 190 237 286
#     4   9  14  23  40  69 102 124 149 192 238 274
#     4  10  17  28  46  67  92 124 159 190 224 271
#     4   9  18  32  49  68  91 118 153 197 237 276
#     4   9  16  25  42  68  94 122 154 188 229 273
#     4   9  16  26  45  71  99 124 150 194 242 277
#     4  10  19  32  49  68  91 123 161 195 231 276
#     4  11  22  31  40  62  96 129 157 186 224 274
#
# _framework density 16.822303000000002
#
# number of rings (size 3 to 8) (size 9 to 14) (size 15 to 20)
#    0.000    2.500    2.500    1.125    0.000    3.000 
#    0.000    3.125    0.000    0.750    0.000    4.375 
#    0.000    0.000    0.000    0.000    0.000    0.000 
#
# Total GULP energy -396543.966514 kJ/mol
# GULP energy per Si atom -12391.998954 kJ/mol
# Density = 1.678402 g / cm^3
# Si number density = 16.822303 Si / 1000 Ang^3
#
#
#
# Elastic Constant Matrix: (Units=GPa)
#
#
# Indices 1 2 3 4 5 6 
#
# 1 101.0070 20.8958 56.3715 0.0000 6.1182 0.0000
# 2 20.8958 38.6072 23.8014 0.0000 2.4132 0.0000
# 3 56.3715 23.8014 117.2062 0.0000 5.6963 0.0000
# 4 0.0000 0.0000 0.0000 4.5165 0.0000 -2.2597
# 5 6.1182 2.4132 5.6963 0.0000 27.3921 0.0000
# 6 0.0000 0.0000 0.0000 -2.2597 0.0000 19.2799
#
#
#
# Elastic Compliance Matrix: (Units=1/GPa)
#
#
# Indices 1 2 3 4 5 6 
#
# 1 0.014102 -0.003886 -0.005917 0.000000 -0.001577 0.000000
# 2 -0.003886 0.030731 -0.004326 0.000000 -0.000940 0.000000
# 3 -0.005917 -0.004326 0.012298 0.000000 -0.000855 0.000000
# 4 0.000000 0.000000 0.000000 0.235201 0.000000 0.027567
# 5 -0.001577 -0.000940 -0.000855 0.000000 0.037120 0.000000
# 6 0.000000 0.000000 0.000000 0.027567 0.000000 0.055098
#
#
# Mechanical properties :
#
#
# Convention : Reuss Voigt Hill
#
# Bulk Modulus (GPa) = 34.63444 50.99533 42.81488
# Shear Modulus (GPa) = 11.83624 20.62114 16.22869
#
# Velocity S-wave (km/s) = 2.65543 3.50497 3.10935
# Velocity P-wave (km/s) = 5.48041 6.83811 6.19655
#
# Compressibility (1/GPa) = 0.02887299
#
# Stress axis : x y z
#
# Youngs Moduli (GPa) = 70.91282 32.54048 81.31673
#
# Poissons Ratio (x) = 0.12646 0.48112
# Poissons Ratio (y) = 0.27559 0.35176
# Poissons Ratio (z) = 0.41956 0.14076
#
# Static dielectric constant tensor:
#      x y z
#    x 3.095010 0.000000 0.047290 
#    y 0.000000 2.849510 0.000000 
#    z 0.047290 0.000000 3.344970 
# 
# 
# High freq. dielectric constant tensor:
#      x y z
#    x 1.636110 0.000000 0.008830 
#    y 0.000000 1.603840 0.000000 
#    z 0.008830 0.000000 1.645190 
# 
# From -- ./inp_files/248238.got.cif
#   From: 2010.06.25/outbox.cif.g09.slc.cpg/sg12_125_cif.got.tgz:248238.got - 2010.06.28 00:19:55.
