data_PCOD8079101
_publ_section_title
;
Structure prediction by ZEFSAII (Michael W. Deem and Ramdas Pophale) SiO2 
 PCOD8079101
Probable space group: C 2/M
;
_chemical_formula_sum "Si O2"
_cell_formula_units_Z 60
_cell_length_a 26.982717
_cell_length_b 13.714110
_cell_length_c 16.419327
_cell_angle_alpha 90.000000
_cell_angle_beta 33.730601
_cell_angle_gamma 90.000000
_cell_volume 3373.863309
_symmetry_space_group_name_H-M "C 2/M"
_symmetry_group_IT_number 12
_symmetry_cell_setting 'monoclinic'
loop_
_space_group_symop_operation_xyz
x,y,z
-x,y,-z
-x,-y,-z
x,-y,z
1/2+x,1/2+y,z
1/2-x,1/2+y,-z
1/2-x,1/2-y,-z
1/2+x,1/2-y,z
loop_
_atom_site_type_symbol
_atom_site_label
_atom_site_fract_x
_atom_site_fract_y
_atom_site_fract_z
Si Si1 0.292673 0.111792 0.569002
Si Si2 0.091066 0.113236 0.417719
Si Si3 0.876150 0.885220 0.300138
Si Si4 0.339803 0.395993 0.110588
Si Si5 0.232025 0.112510 0.085859
Si Si6 0.000000 0.864313 0.000000
Si Si7 0.076187 0.217744 0.604120
Si Si8 0.130798 0.221422 0.087389
O O1 0.226682 0.132442 0.583099
O O2 0.243749 0.137999 0.720636
O O3 0.379535 0.177816 0.440310
O O4 0.324588 0.000000 0.524825
O O5 0.173152 0.133619 0.245758
O O6 0.108545 0.175286 0.474282
O O7 0.000000 0.148859 0.500000
O O8 0.083098 0.000000 0.452403
O O9 0.940837 0.815518 0.154100
O O10 0.891754 0.858748 0.372042
O O11 0.901460 0.000000 0.252134
O O12 0.317547 0.500000 0.098096
O O13 0.423251 0.420469 0.055307
O O14 0.361259 0.312923 0.016434
O O15 0.176333 0.140915 0.082185
O O16 0.259186 0.000000 0.042389
O O17 0.322688 0.173979 0.966819
O O18 0.970892 0.233273 0.748091
#
# Coordination Sequence:
#
# PCOD8079101 Si02
#       8
#     8   8   8   8   8   4   8   8
#     4   9  21  37  52  74 111 148 171 205 256 311
#     4  10  20  35  55  79 106 135 168 218 272 309
#     4  10  19  32  52  81 110 136 169 213 264 306
#     4  10  18  32  53  79 108 136 170 215 263 307
#     4  10  22  40  54  73 108 140 173 216 264 311
#     4  10  17  28  50  80 111 132 159 212 268 308
#     4  12  21  33  56  83 106 134 179 216 254 312
#     4  11  22  33  56  83 101 135 178 219 260 307
#
# _framework density 17.783767999999998
#
# number of rings (size 3 to 8) (size 9 to 14) (size 15 to 20)
#    0.000    1.733    2.667    4.000    0.000    1.600 
#    0.000    0.000    0.000    0.400    0.000    0.933 
#    0.000    0.000    0.000    0.000    0.000    0.000 
#
# Total GULP energy -371718.873000 kJ/mol
# GULP energy per Si atom -12390.629100 kJ/mol
# Density = 1.774329 g / cm^3
# Si number density = 17.783768 Si / 1000 Ang^3
#
#
#
# Elastic Constant Matrix: (Units=GPa)
#
#
# Indices 1 2 3 4 5 6 
#
# 1 90.8276 46.9936 34.3846 0.0000 10.3244 0.0000
# 2 46.9936 80.2521 38.9606 0.0000 -0.3634 0.0000
# 3 34.3846 38.9606 57.1800 0.0000 4.1377 0.0000
# 4 0.0000 0.0000 0.0000 13.9722 0.0000 1.9942
# 5 10.3244 -0.3634 4.1377 0.0000 27.3983 0.0000
# 6 0.0000 0.0000 0.0000 1.9942 0.0000 17.1596
#
#
#
# Elastic Compliance Matrix: (Units=1/GPa)
#
#
# Indices 1 2 3 4 5 6 
#
# 1 0.017654 -0.008105 -0.004655 0.000000 -0.006057 0.000000
# 2 -0.008105 0.022472 -0.010798 0.000000 0.004983 0.000000
# 3 -0.004655 -0.010798 0.027833 0.000000 -0.002592 0.000000
# 4 0.000000 0.000000 0.000000 0.072778 0.000000 -0.008458
# 5 -0.006057 0.004983 -0.002592 0.000000 0.039239 0.000000
# 6 0.000000 0.000000 0.000000 -0.008458 0.000000 0.059259
#
#
# Mechanical properties :
#
#
# Convention : Reuss Voigt Hill
#
# Bulk Modulus (GPa) = 47.98031 52.10415 50.04223
# Shear Modulus (GPa) = 17.04740 18.90075 17.97407
#
# Velocity S-wave (km/s) = 3.09947 3.26361 3.18260
# Velocity P-wave (km/s) = 6.31248 6.60029 6.45799
#
# Compressibility (1/GPa) = 0.02084188
#
# Stress axis : x y z
#
# Youngs Moduli (GPa) = 56.64320 44.50023 35.92854
#
# Poissons Ratio (x) = 0.36069 0.16726
# Poissons Ratio (y) = 0.45911 0.38796
# Poissons Ratio (z) = 0.26369 0.48052
#
# Static dielectric constant tensor:
#      x y z
#    x 3.323900 0.000000 0.060720 
#    y 0.000000 3.006850 0.000000 
#    z 0.060720 0.000000 3.323210 
# 
# 
# High freq. dielectric constant tensor:
#      x y z
#    x 1.695860 0.000000 0.006610 
#    y 0.000000 1.661370 0.000000 
#    z 0.006610 0.000000 1.692820 
# 
# From -- ./inp_files/246684.got.cif
#   From: 2010.06.25/outbox.cif.g09.slc.cpg/sg12_124_cif.got.tgz:246684.got - 2010.06.28 00:19:55.
