data_PCOD8079754
_publ_section_title
;
Structure prediction by ZEFSAII (Michael W. Deem and Ramdas Pophale) SiO2 
 PCOD8079754
Probable space group: C 2/M
;
_chemical_formula_sum "Si O2"
_cell_formula_units_Z 48
_cell_length_a 29.394900
_cell_length_b 18.436537
_cell_length_c 9.716024
_cell_angle_alpha 90.000000
_cell_angle_beta 29.043377
_cell_angle_gamma 90.000000
_cell_volume 2556.252628
_symmetry_space_group_name_H-M "C 2/M"
_symmetry_group_IT_number 12
_symmetry_cell_setting 'monoclinic'
loop_
_space_group_symop_operation_xyz
x,y,z
-x,y,-z
-x,-y,-z
x,-y,z
1/2+x,1/2+y,z
1/2-x,1/2+y,-z
1/2-x,1/2-y,-z
1/2+x,1/2-y,z
loop_
_atom_site_type_symbol
_atom_site_label
_atom_site_fract_x
_atom_site_fract_y
_atom_site_fract_z
Si Si1 0.606416 0.359942 0.698223
Si Si2 0.897022 0.169477 0.777216
Si Si3 0.159012 0.699410 0.224407
Si Si4 0.100020 0.311895 0.680834
Si Si5 0.778378 0.173764 0.360384
Si Si6 0.710146 0.583854 0.167296
O O1 0.611097 0.274123 0.665891
O O2 0.675473 0.378288 0.644882
O O3 0.638407 0.403866 0.480654
O O4 0.500000 0.385936 0.000000
O O5 0.911247 0.250475 0.676107
O O6 0.829761 0.116235 0.869634
O O7 0.000000 0.133572 0.500000
O O8 0.857839 0.180703 0.033760
O O9 0.110211 0.672154 0.492910
O O10 0.250000 0.750000 0.000000
O O11 0.192799 0.626605 0.055670
O O12 0.181411 0.355431 0.549192
O O13 0.000000 0.339597 0.000000
O O14 0.750000 0.250000 0.500000
O O15 0.732215 0.500000 0.088808
#
# Coordination Sequence:
#
# PCOD8079754 Si02
#       6
#     8   8   8   8   8   8
#     4  10  19  33  53  81 116 147 184 232 295 354
#     4  11  21  35  60  89 113 146 192 245 293 340
#     4  10  17  36  56  81 110 145 193 240 282 334
#     4  10  18  31  56  85 112 140 187 248 297 329
#     4  10  19  31  52  84 116 137 184 243 292 342
#     4  11  22  38  57  78 119 164 189 226 288 355
#
# _framework density 18.777488000000002
#
# number of rings (size 3 to 8) (size 9 to 14) (size 15 to 20)
#    0.000    1.667    6.667    2.000    4.667    0.667 
#    0.000    0.833    0.000    1.000    0.000    0.000 
#    0.000    0.000    0.000    0.000    0.000    0.000 
#
# Total GULP energy -297383.651439 kJ/mol
# GULP energy per Si atom -12390.985477 kJ/mol
# Density = 1.873475 g / cm^3
# Si number density = 18.777488 Si / 1000 Ang^3
#
#
#
# Elastic Constant Matrix: (Units=GPa)
#
#
# Indices 1 2 3 4 5 6 
#
# 1 60.4050 11.1125 25.4474 0.0000 5.3052 0.0000
# 2 11.1125 75.7832 17.5651 0.0000 1.7827 0.0000
# 3 25.4474 17.5651 129.6824 0.0000 11.4440 0.0000
# 4 0.0000 0.0000 0.0000 13.0333 0.0000 0.5175
# 5 5.3052 1.7827 11.4440 0.0000 36.8781 0.0000
# 6 0.0000 0.0000 0.0000 0.5175 0.0000 9.0180
#
#
#
# Elastic Compliance Matrix: (Units=1/GPa)
#
#
# Indices 1 2 3 4 5 6 
#
# 1 0.018398 -0.001916 -0.003213 0.000000 -0.001557 0.000000
# 2 -0.001916 0.013823 -0.001503 0.000000 0.000074 0.000000
# 3 -0.003213 -0.001503 0.008737 0.000000 -0.002176 0.000000
# 4 0.000000 0.000000 0.000000 0.076902 0.000000 -0.004413
# 5 -0.001557 0.000074 -0.002176 0.000000 0.028012 0.000000
# 6 0.000000 0.000000 0.000000 -0.004413 0.000000 0.111143
#
#
# Mechanical properties :
#
#
# Convention : Reuss Voigt Hill
#
# Bulk Modulus (GPa) = 36.10953 41.56897 38.83925
# Shear Modulus (GPa) = 17.88836 25.90223 21.89530
#
# Velocity S-wave (km/s) = 3.08985 3.71810 3.41844
# Velocity P-wave (km/s) = 5.65699 6.37323 6.02576
#
# Compressibility (1/GPa) = 0.02769352
#
# Stress axis : x y z
#
# Youngs Moduli (GPa) = 54.35403 72.34254 114.45201
#
# Poissons Ratio (x) = 0.13864 0.36776
# Poissons Ratio (y) = 0.10416 0.17199
# Poissons Ratio (z) = 0.17465 0.10871
#
# Static dielectric constant tensor:
#      x y z
#    x 3.866260 0.000000 -0.034720 
#    y 0.000000 3.128350 0.000000 
#    z -0.034720 0.000000 3.636270 
# 
# 
# High freq. dielectric constant tensor:
#      x y z
#    x 1.729620 0.000000 0.008560 
#    y 0.000000 1.665350 0.000000 
#    z 0.008560 0.000000 1.745770 
# 
# From -- ./inp_files/112750.got.cif
#   From: 2010.06.25/outbox.cif.g09.slc.cpg/sg12_57_cif.got.tgz:112750.got - 2010.06.28 00:19:55.
