data_PCOD8079575
_publ_section_title
;
Structure prediction by ZEFSAII (Michael W. Deem and Ramdas Pophale) SiO2 
 PCOD8079575
Probable space group: C 2/M
;
_chemical_formula_sum "Si O2"
_cell_formula_units_Z 48
_cell_length_a 16.003121
_cell_length_b 13.436186
_cell_length_c 16.491926
_cell_angle_alpha 90.000000
_cell_angle_beta 131.771159
_cell_angle_gamma 90.000000
_cell_volume 2644.728538
_symmetry_space_group_name_H-M "C 2/M"
_symmetry_group_IT_number 12
_symmetry_cell_setting 'monoclinic'
loop_
_space_group_symop_operation_xyz
x,y,z
-x,y,-z
-x,-y,-z
x,-y,z
1/2+x,1/2+y,z
1/2-x,1/2+y,-z
1/2-x,1/2-y,-z
1/2+x,1/2-y,z
loop_
_atom_site_type_symbol
_atom_site_label
_atom_site_fract_x
_atom_site_fract_y
_atom_site_fract_z
Si Si1 0.918895 0.390578 0.023596
Si Si2 0.652953 0.387303 0.373817
Si Si3 0.905070 0.700690 0.757665
Si Si4 0.996464 0.193326 0.404274
Si Si5 0.242860 0.882062 0.786516
Si Si6 0.405168 0.111991 0.584293
O O1 0.907515 0.500000 0.056914
O O2 0.971748 0.314985 0.123070
O O3 0.799423 0.354488 0.910151
O O4 0.000000 0.399765 0.000000
O O5 0.622500 0.500000 0.330632
O O6 0.604152 0.316550 0.272038
O O7 0.599753 0.360046 0.426395
O O8 0.785307 0.371143 0.465188
O O9 0.805657 0.672953 0.754086
O O10 0.893345 0.631084 0.672008
O O11 0.006741 0.312664 0.400202
O O12 0.000000 0.161758 0.500000
O O13 0.882996 0.156528 0.289371
O O14 0.248648 0.000000 0.774979
O O15 0.448588 0.000000 0.597755
#
# Coordination Sequence:
#
# PCOD8079575 Si02
#       6
#     8   8   8   8   8   8
#     4   8  15  28  49  76 100 125 159 199 243 287
#     4  10  21  35  50  71 100 133 166 201 244 293
#     4  10  17  32  55  74  96 128 169 204 237 289
#     4  11  21  33  50  75 102 127 161 204 251 293
#     4  10  19  31  51  79 104 125 158 207 252 284
#     4  10  20  34  51  71  99 134 168 199 236 293
#
# _framework density 18.14931
#
# number of rings (size 3 to 8) (size 9 to 14) (size 15 to 20)
#    0.000    2.167    0.000    7.000    0.000    3.000 
#    0.000    4.167    0.000    7.500    0.000    0.000 
#    0.000    0.000    0.000    0.000    0.000    0.000 
#
# Total GULP energy -297563.550829 kJ/mol
# GULP energy per Si atom -12398.481285 kJ/mol
# Density = 1.810800 g / cm^3
# Si number density = 18.149310 Si / 1000 Ang^3
#
#
#
# Elastic Constant Matrix: (Units=GPa)
#
#
# Indices 1 2 3 4 5 6 
#
# 1 39.3345 28.7946 11.7298 0.0000 0.2131 0.0000
# 2 28.7946 136.1918 63.8998 0.0000 -0.2687 0.0000
# 3 11.7298 63.8998 111.7385 0.0000 3.3396 0.0000
# 4 0.0000 0.0000 0.0000 29.6826 0.0000 4.4797
# 5 0.2131 -0.2687 3.3396 0.0000 22.6196 0.0000
# 6 0.0000 0.0000 0.0000 4.4797 0.0000 19.4442
#
#
#
# Elastic Compliance Matrix: (Units=1/GPa)
#
#
# Indices 1 2 3 4 5 6 
#
# 1 0.030118 -0.006686 0.000675 0.000000 -0.000463 0.000000
# 2 -0.006686 0.011541 -0.005930 0.000000 0.001076 0.000000
# 3 0.000675 -0.005930 0.012326 0.000000 -0.001897 0.000000
# 4 0.000000 0.000000 0.000000 0.034903 0.000000 -0.008041
# 5 -0.000463 0.001076 -0.001897 0.000000 0.044507 0.000000
# 6 0.000000 0.000000 0.000000 -0.008041 0.000000 0.053282
#
#
# Mechanical properties :
#
#
# Convention : Reuss Voigt Hill
#
# Bulk Modulus (GPa) = 33.21720 55.12369 44.17044
# Shear Modulus (GPa) = 22.66628 26.53867 24.60247
#
# Velocity S-wave (km/s) = 3.53778 3.82807 3.68579
# Velocity P-wave (km/s) = 5.91860 7.06945 6.51947
#
# Compressibility (1/GPa) = 0.03010489
#
# Stress axis : x y z
#
# Youngs Moduli (GPa) = 33.20246 86.65121 81.12648
#
# Poissons Ratio (x) = 0.57932 -0.05480
# Poissons Ratio (y) = 0.22198 0.48108
# Poissons Ratio (z) = -0.02243 0.51384
#
# Static dielectric constant tensor:
#      x y z
#    x 3.105700 0.000000 0.162170 
#    y 0.000000 3.416670 0.000000 
#    z 0.162170 0.000000 3.676130 
# 
# 
# High freq. dielectric constant tensor:
#      x y z
#    x 1.679020 0.000000 0.007750 
#    y 0.000000 1.701550 0.000000 
#    z 0.007750 0.000000 1.706800 
# 
# From -- ./inp_files/215006.got.cif
#   From: 2010.06.25/outbox.cif.g09.slc.cpg/sg12_108_cif.got.tgz:215006.got - 2010.06.28 00:19:55.
