data_PCOD8079941
_publ_section_title
;
Structure prediction by ZEFSAII (Michael W. Deem and Ramdas Pophale) SiO2 
 PCOD8079941
Probable space group: C 2/M
;
_chemical_formula_sum "Si O2"
_cell_formula_units_Z 48
_cell_length_a 18.708834
_cell_length_b 33.803217
_cell_length_c 5.349321
_cell_angle_alpha 90.000000
_cell_angle_beta 73.385830
_cell_angle_gamma 90.000000
_cell_volume 3241.776722
_symmetry_space_group_name_H-M "C 2/M"
_symmetry_group_IT_number 12
_symmetry_cell_setting 'monoclinic'
loop_
_space_group_symop_operation_xyz
x,y,z
-x,y,-z
-x,-y,-z
x,-y,z
1/2+x,1/2+y,z
1/2-x,1/2+y,-z
1/2-x,1/2-y,-z
1/2+x,1/2-y,z
loop_
_atom_site_type_symbol
_atom_site_label
_atom_site_fract_x
_atom_site_fract_y
_atom_site_fract_z
Si Si1 0.588631 0.955476 0.911369
Si Si2 0.689296 0.837333 0.310704
Si Si3 0.227227 0.315606 0.772773
Si Si4 0.643446 0.253693 0.356553
Si Si5 0.584344 0.236009 0.915656
Si Si6 0.588446 0.911323 0.411554
O O1 0.617182 0.933872 0.631295
O O2 0.620624 0.000000 0.879377
O O3 0.500000 0.956400 0.000000
O O4 0.617182 0.933872 0.134339
O O5 0.739399 0.842441 0.512308
O O6 0.660017 0.792680 0.339984
O O7 0.620954 0.867407 0.379047
O O8 0.739398 0.842441 0.008895
O O9 0.279547 0.277443 0.720454
O O10 0.140854 0.301084 0.859146
O O11 0.597255 0.263252 0.655392
O O12 0.597255 0.263252 0.150099
O O13 0.500000 0.219530 0.000000
O O14 0.500000 0.907546 0.500000
#
# Coordination Sequence:
#
# PCOD8079941 Si02
#       6
#     8   8   8   8   8   8
#     4   9  17  30  44  55  73 105 136 157 194 261
#     4  10  18  27  41  58  75  97 128 168 205 240
#     4  10  19  31  44  55  76 111 140 159 204 263
#     4  10  19  32  43  55  77 110 139 160 205 263
#     4  10  18  27  41  59  74  92 128 174 209 237
#     4  10  19  28  40  61  83  99 124 171 223 254
#
# _framework density 14.806694999999999
#
# number of rings (size 3 to 8) (size 9 to 14) (size 15 to 20)
#    0.000    2.167    0.000    7.000    0.000    7.333 
#    0.000    1.667    0.000    0.000    0.000    0.000 
#    0.000    0.000    0.000    0.000    0.000    0.000 
#
# Total GULP energy -297367.633171 kJ/mol
# GULP energy per Si atom -12390.318049 kJ/mol
# Density = 1.477299 g / cm^3
# Si number density = 14.806695 Si / 1000 Ang^3
#
#
#
# Elastic Constant Matrix: (Units=GPa)
#
#
# Indices 1 2 3 4 5 6 
#
# 1 21.3876 17.4171 17.4108 0.0000 10.8095 0.0000
# 2 17.4171 70.1369 30.7710 0.0000 5.5074 0.0000
# 3 17.4108 30.7710 143.9917 0.0000 39.7531 0.0000
# 4 0.0000 0.0000 0.0000 16.9913 0.0000 0.1126
# 5 10.8095 5.5074 39.7531 0.0000 27.0303 0.0000
# 6 0.0000 0.0000 0.0000 0.1126 0.0000 16.7184
#
#
#
# Elastic Compliance Matrix: (Units=1/GPa)
#
#
# Indices 1 2 3 4 5 6 
#
# 1 0.073773 -0.017345 0.003292 0.000000 -0.030810 0.000000
# 2 -0.017345 0.019950 -0.004981 0.000000 0.010198 0.000000
# 3 0.003292 -0.004981 0.012954 0.000000 -0.019353 0.000000
# 4 0.000000 0.000000 0.000000 0.058856 0.000000 -0.000396
# 5 -0.030810 0.010198 -0.019353 0.000000 0.075702 0.000000
# 6 0.000000 0.000000 0.000000 -0.000396 0.000000 0.059817
#
#
# Mechanical properties :
#
#
# Convention : Reuss Voigt Hill
#
# Bulk Modulus (GPa) = 14.57540 40.74599 27.66070
# Shear Modulus (GPa) = 13.81257 23.47583 18.64420
#
# Velocity S-wave (km/s) = 3.05759 3.98614 3.55233
# Velocity P-wave (km/s) = 4.72549 6.98313 5.96215
#
# Compressibility (1/GPa) = 0.06860874
#
# Stress axis : x y z
#
# Youngs Moduli (GPa) = 13.55515 50.12578 77.19416
#
# Poissons Ratio (x) = 0.86944 -0.25415
# Poissons Ratio (y) = 0.23512 0.38453
# Poissons Ratio (z) = -0.04463 0.24969
#
# Static dielectric constant tensor:
#      x y z
#    x 2.721170 0.000000 0.718940 
#    y 0.000000 2.575230 0.000000 
#    z 0.718940 0.000000 4.464460 
# 
# 
# High freq. dielectric constant tensor:
#      x y z
#    x 1.520700 0.000000 0.034270 
#    y 0.000000 1.520330 0.000000 
#    z 0.034270 0.000000 1.603790 
# 
# From -- ./inp_files/17178.got.cif
#   From: 2010.06.25/outbox.cif.g09.slc.cpg/sg12_9_cif.got.tgz:17178.got - 2010.06.28 00:19:55.
