data_PCOD8079796
_publ_section_title
;
Structure prediction by ZEFSAII (Michael W. Deem and Ramdas Pophale) SiO2 
 PCOD8079796
Probable space group: C 2/M
;
_chemical_formula_sum "Si O2"
_cell_formula_units_Z 60
_cell_length_a 29.992134
_cell_length_b 9.233327
_cell_length_c 16.969471
_cell_angle_alpha 90.000000
_cell_angle_beta 132.466410
_cell_angle_gamma 90.000000
_cell_volume 3466.553765
_symmetry_space_group_name_H-M "C 2/M"
_symmetry_group_IT_number 12
_symmetry_cell_setting 'monoclinic'
loop_
_space_group_symop_operation_xyz
x,y,z
-x,y,-z
-x,-y,-z
x,-y,z
1/2+x,1/2+y,z
1/2-x,1/2+y,-z
1/2-x,1/2-y,-z
1/2+x,1/2-y,z
loop_
_atom_site_type_symbol
_atom_site_label
_atom_site_fract_x
_atom_site_fract_y
_atom_site_fract_z
Si Si1 0.294360 0.172099 0.493383
Si Si2 0.739210 0.831045 0.107458
Si Si3 0.340213 0.830494 0.133509
Si Si4 0.119087 0.153714 0.603464
Si Si5 0.000000 0.730089 0.500000
Si Si6 0.478339 0.159803 0.303395
Si Si7 0.913723 0.160829 0.615112
Si Si8 0.229419 0.667220 0.714287
O O1 0.250000 0.250000 0.500000
O O2 0.360756 0.238884 0.588100
O O3 0.267504 0.206681 0.374395
O O4 0.297471 0.000000 0.511529
O O5 0.801681 0.763628 0.148924
O O6 0.724303 0.758897 0.175550
O O7 0.748578 0.000000 0.130013
O O8 0.683724 0.797615 0.983180
O O9 0.409803 0.780164 0.220706
O O10 0.332587 0.000000 0.145919
O O11 0.098804 0.139911 0.490358
O O12 0.163030 0.289709 0.667208
O O13 0.059434 0.173323 0.584415
O O14 0.150176 0.000000 0.664945
O O15 0.995328 0.640539 0.575831
O O16 0.520812 0.261483 0.299564
O O17 0.479312 0.000000 0.266441
O O18 0.915225 0.000000 0.657296
O O19 0.241364 0.500000 0.743658
#
# Coordination Sequence:
#
# PCOD8079796 Si02
#       8
#     8   8   8   8   4   8   8   8
#     4  10  20  34  53  76 101 127 154 187 234 290
#     4  10  19  31  48  68  92 127 170 210 246 282
#     4   9  19  33  47  66  95 131 169 209 246 280
#     4   9  17  28  41  59  86 119 154 190 225 267
#     4  10  18  24  40  64  88 120 158 194 232 274
#     4  10  19  30  43  62  91 125 161 197 236 282
#     4   9  18  31  46  66  93 122 153 188 226 274
#     4  10  20  32  47  68  94 123 154 193 239 284
#
# _framework density 17.308254999999999
#
# number of rings (size 3 to 8) (size 9 to 14) (size 15 to 20)
#    0.000    2.400    0.000    2.800    0.000    8.000 
#    0.000    0.000    0.000    0.000    0.000    0.933 
#    0.000    7.467    0.000    0.000    0.000    0.000 
#
# Total GULP energy -371700.720194 kJ/mol
# GULP energy per Si atom -12390.024006 kJ/mol
# Density = 1.726886 g / cm^3
# Si number density = 17.308255 Si / 1000 Ang^3
#
#
#
# Elastic Constant Matrix: (Units=GPa)
#
#
# Indices 1 2 3 4 5 6 
#
# 1 87.9913 50.4431 37.9274 0.0000 7.7151 0.0000
# 2 50.4431 111.6327 35.6368 0.0000 -1.1792 0.0000
# 3 37.9274 35.6368 83.3578 0.0000 4.6060 0.0000
# 4 0.0000 0.0000 0.0000 22.4493 0.0000 -0.2849
# 5 7.7151 -1.1792 4.6060 0.0000 21.0139 0.0000
# 6 0.0000 0.0000 0.0000 -0.2849 0.0000 20.4755
#
#
#
# Elastic Compliance Matrix: (Units=1/GPa)
#
#
# Indices 1 2 3 4 5 6 
#
# 1 0.017736 -0.006486 -0.004977 0.000000 -0.005785 0.000000
# 2 -0.006486 0.012798 -0.002724 0.000000 0.003697 0.000000
# 3 -0.004977 -0.002724 0.015521 0.000000 -0.001728 0.000000
# 4 0.000000 0.000000 0.000000 0.044553 0.000000 0.000620
# 5 -0.005785 0.003697 -0.001728 0.000000 0.050297 0.000000
# 6 0.000000 0.000000 0.000000 0.000620 0.000000 0.048847
#
#
# Mechanical properties :
#
#
# Convention : Reuss Voigt Hill
#
# Bulk Modulus (GPa) = 56.56350 58.99962 57.78156
# Shear Modulus (GPa) = 22.31941 23.38605 22.85273
#
# Velocity S-wave (km/s) = 3.59489 3.67979 3.63759
# Velocity P-wave (km/s) = 7.06979 7.22606 7.14836
#
# Compressibility (1/GPa) = 0.01767925
#
# Stress axis : x y z
#
# Youngs Moduli (GPa) = 56.38333 78.13930 64.42862
#
# Poissons Ratio (x) = 0.50685 0.32066
# Poissons Ratio (y) = 0.36573 0.17551
# Poissons Ratio (z) = 0.28062 0.21286
#
# Static dielectric constant tensor:
#      x y z
#    x 3.076760 0.000000 0.100910 
#    y 0.000000 3.478400 0.000000 
#    z 0.100910 0.000000 3.316740 
# 
# 
# High freq. dielectric constant tensor:
#      x y z
#    x 1.630920 0.000000 0.009340 
#    y 0.000000 1.682290 0.000000 
#    z 0.009340 0.000000 1.652380 
# 
# From -- ./inp_files/294816.got.cif
#   From: 2010.06.25/outbox.cif.g09.slc.cpg/sg12_148_cif.got.tgz:294816.got - 2010.06.28 00:19:55.
