data_PCOD8079878
_publ_section_title
;
Structure prediction by ZEFSAII (Michael W. Deem and Ramdas Pophale) SiO2 
 PCOD8079878
Probable space group: C 2/M
;
_chemical_formula_sum "Si O2"
_cell_formula_units_Z 32
_cell_length_a 8.758887
_cell_length_b 18.532352
_cell_length_c 10.627437
_cell_angle_alpha 90.000000
_cell_angle_beta 79.942966
_cell_angle_gamma 90.000000
_cell_volume 1698.568290
_symmetry_space_group_name_H-M "C 2/M"
_symmetry_group_IT_number 12
_symmetry_cell_setting 'monoclinic'
loop_
_space_group_symop_operation_xyz
x,y,z
-x,y,-z
-x,-y,-z
x,-y,z
1/2+x,1/2+y,z
1/2-x,1/2+y,-z
1/2-x,1/2-y,-z
1/2+x,1/2-y,z
loop_
_atom_site_type_symbol
_atom_site_label
_atom_site_fract_x
_atom_site_fract_y
_atom_site_fract_z
Si Si1 0.200255 0.185471 0.659410
Si Si2 0.500000 0.772111 0.500000
Si Si3 0.532575 0.582303 0.347199
Si Si4 0.706414 0.695721 0.168338
Si Si5 0.000000 0.264889 0.000000
O O1 0.351302 0.177792 0.549227
O O2 0.252581 0.228487 0.772602
O O3 0.050745 0.223168 0.611602
O O4 0.128743 0.106453 0.699242
O O5 0.500000 0.593627 0.500000
O O6 0.571003 0.500000 0.308804
O O7 0.675401 0.630614 0.271488
O O8 0.557261 0.710864 0.102695
O O9 0.861215 0.681244 0.063348
#
# Coordination Sequence:
#
# PCOD8079878 Si02
#       5
#     8   4   8   8   4
#     4  11  17  33  54  87 111 152 188 234 279 344
#     4  10  18  26  56  86 112 140 200 224 278 342
#     4  11  22  36  57  90 125 151 181 236 304 356
#     4  11  20  37  60  88 114 152 198 245 282 336
#     4  10  22  36  62  86 112 146 216 248 268 320
#
# _framework density 18.839395
#
# number of rings (size 3 to 8) (size 9 to 14) (size 15 to 20)
#    0.000    1.250    6.250    1.500    0.000    0.000 
#    0.000    1.875    0.000    6.000    0.000    0.000 
#    0.000    0.000    0.000    0.000    0.000    0.000 
#
# Total GULP energy -198220.702506 kJ/mol
# GULP energy per Si atom -12388.793907 kJ/mol
# Density = 1.879652 g / cm^3
# Si number density = 18.839395 Si / 1000 Ang^3
#
#
#
# Elastic Constant Matrix: (Units=GPa)
#
#
# Indices 1 2 3 4 5 6 
#
# 1 111.0216 39.6371 29.7138 0.0000 -7.4193 0.0000
# 2 39.6371 98.0084 50.2039 0.0000 -11.6116 0.0000
# 3 29.7138 50.2039 84.5790 0.0000 3.5429 0.0000
# 4 0.0000 0.0000 0.0000 21.1556 0.0000 -3.5354
# 5 -7.4193 -11.6116 3.5429 0.0000 43.3998 0.0000
# 6 0.0000 0.0000 0.0000 -3.5354 0.0000 21.9134
#
#
#
# Elastic Compliance Matrix: (Units=1/GPa)
#
#
# Indices 1 2 3 4 5 6 
#
# 1 0.010748 -0.003240 -0.001900 0.000000 0.001126 0.000000
# 2 -0.003240 0.016636 -0.008930 0.000000 0.004626 0.000000
# 3 -0.001900 -0.008930 0.017966 0.000000 -0.004181 0.000000
# 4 0.000000 0.000000 0.000000 0.048578 0.000000 0.007837
# 5 0.001126 0.004626 -0.004181 0.000000 0.024813 0.000000
# 6 0.000000 0.000000 0.000000 0.007837 0.000000 0.046899
#
#
# Mechanical properties :
#
#
# Convention : Reuss Voigt Hill
#
# Bulk Modulus (GPa) = 58.10522 59.19098 58.64810
# Shear Modulus (GPa) = 25.06049 28.89739 26.97894
#
# Velocity S-wave (km/s) = 3.65117 3.92073 3.78835
# Velocity P-wave (km/s) = 6.97740 7.20993 7.09462
#
# Compressibility (1/GPa) = 0.01721016
#
# Stress axis : x y z
#
# Youngs Moduli (GPa) = 93.04292 60.11014 55.65916
#
# Poissons Ratio (x) = 0.19477 0.10573
# Poissons Ratio (y) = 0.30148 0.49705
# Poissons Ratio (z) = 0.17675 0.53680
#
# Static dielectric constant tensor:
#      x y z
#    x 3.804070 0.000000 -0.265390 
#    y 0.000000 3.186010 0.000000 
#    z -0.265390 0.000000 3.640220 
# 
# 
# High freq. dielectric constant tensor:
#      x y z
#    x 1.748030 0.000000 -0.017690 
#    y 0.000000 1.670720 0.000000 
#    z -0.017690 0.000000 1.743700 
# 
# From -- ./inp_files/118192.got.cif
#   From: 2010.06.25/outbox.cif.g09.slc.cpg/sg12_60_cif.got.tgz:118192.got - 2010.06.28 00:19:55.
