data_PCOD8079876
_publ_section_title
;
Structure prediction by ZEFSAII (Michael W. Deem and Ramdas Pophale) SiO2 
 PCOD8079876
Probable space group: C 2/M
;
_chemical_formula_sum "Si O2"
_cell_formula_units_Z 64
_cell_length_a 24.506875
_cell_length_b 8.719137
_cell_length_c 21.243436
_cell_angle_alpha 90.000000
_cell_angle_beta 128.654018
_cell_angle_gamma 90.000000
_cell_volume 3544.862414
_symmetry_space_group_name_H-M "C 2/M"
_symmetry_group_IT_number 12
_symmetry_cell_setting 'monoclinic'
loop_
_space_group_symop_operation_xyz
x,y,z
-x,y,-z
-x,-y,-z
x,-y,z
1/2+x,1/2+y,z
1/2-x,1/2+y,-z
1/2-x,1/2-y,-z
1/2+x,1/2-y,z
loop_
_atom_site_type_symbol
_atom_site_label
_atom_site_fract_x
_atom_site_fract_y
_atom_site_fract_z
Si Si1 0.266478 0.180901 0.608853
Si Si2 0.018906 0.320480 0.160449
Si Si3 0.624956 0.320046 0.947203
Si Si4 0.355509 0.320899 0.564325
Si Si5 0.512442 0.176204 0.301197
Si Si6 0.166845 0.681855 0.217854
Si Si7 0.144040 0.680128 0.826299
Si Si8 0.780216 0.681205 0.878336
O O1 0.324841 0.240967 0.603618
O O2 0.188835 0.229974 0.529560
O O3 0.282378 0.246319 0.690174
O O4 0.274921 0.000000 0.615534
O O5 0.003496 0.500000 0.139116
O O6 0.030114 0.283864 0.241813
O O7 0.087148 0.263971 0.171876
O O8 0.952858 0.226199 0.086639
O O9 0.629292 0.500000 0.936400
O O10 0.647090 0.227251 0.901324
O O11 0.678684 0.275779 0.039945
O O12 0.349175 0.500000 0.569648
O O13 0.436603 0.272495 0.616119
O O14 0.432061 0.218646 0.257436
O O15 0.526861 0.000000 0.325923
O O16 0.169058 0.500000 0.220553
O O17 0.193660 0.742707 0.170391
O O18 0.160637 0.500000 0.833951
O O19 0.198613 0.778354 0.825236
O O20 0.792351 0.500000 0.895373
#
# Coordination Sequence:
#
# PCOD8079876 Si02
#       8
#     8   8   8   8   8   8   8   8
#     4   9  17  32  49  71 105 141 170 199 243 300
#     4   9  17  33  54  75 100 137 175 207 247 301
#     4  11  22  36  54  77 105 132 163 214 263 303
#     4  10  18  26  47  80 108 131 164 209 251 292
#     4   9  17  31  53  74 101 135 167 204 253 306
#     4   9  18  34  55  73 100 141 177 205 244 305
#     4  10  21  38  57  76  99 132 171 214 259 302
#     4  11  22  36  55  77  98 131 176 216 253 301
#
# _framework density 18.054297999999999
#
# number of rings (size 3 to 8) (size 9 to 14) (size 15 to 20)
#    0.000    2.250    1.250    3.375    0.000    3.500 
#    0.000    5.000    0.000    0.750    0.000    5.250 
#    0.000    0.000    0.000    0.000    0.000    0.000 
#
# Total GULP energy -396754.377423 kJ/mol
# GULP energy per Si atom -12398.574294 kJ/mol
# Density = 1.801321 g / cm^3
# Si number density = 18.054298 Si / 1000 Ang^3
#
#
#
# Elastic Constant Matrix: (Units=GPa)
#
#
# Indices 1 2 3 4 5 6 
#
# 1 102.5478 8.7470 34.5767 0.0000 13.1924 0.0000
# 2 8.7470 29.7436 15.5966 0.0000 5.7871 0.0000
# 3 34.5767 15.5966 66.4873 0.0000 24.5287 0.0000
# 4 0.0000 0.0000 0.0000 25.9742 0.0000 7.8820
# 5 13.1924 5.7871 24.5287 0.0000 23.0467 0.0000
# 6 0.0000 0.0000 0.0000 7.8820 0.0000 24.5970
#
#
#
# Elastic Compliance Matrix: (Units=1/GPa)
#
#
# Indices 1 2 3 4 5 6 
#
# 1 0.011829 -0.000288 -0.005948 0.000000 -0.000368 0.000000
# 2 -0.000288 0.038344 -0.008815 0.000000 -0.000082 0.000000
# 3 -0.005948 -0.008815 0.029849 0.000000 -0.026150 0.000000
# 4 0.000000 0.000000 0.000000 0.042647 0.000000 -0.013666
# 5 -0.000368 -0.000082 -0.026150 0.000000 0.071453 0.000000
# 6 0.000000 0.000000 0.000000 -0.013666 0.000000 0.045035
#
#
# Mechanical properties :
#
#
# Convention : Reuss Voigt Hill
#
# Bulk Modulus (GPa) = 20.03225 35.17991 27.60608
# Shear Modulus (GPa) = 17.48874 24.04747 20.76810
#
# Velocity S-wave (km/s) = 3.11573 3.65355 3.39531
# Velocity P-wave (km/s) = 4.90544 6.10949 5.54027
#
# Compressibility (1/GPa) = 0.04991951
#
# Stress axis : x y z
#
# Youngs Moduli (GPa) = 84.53713 26.08004 33.50182
#
# Poissons Ratio (x) = 0.00751 0.19928
# Poissons Ratio (y) = 0.02434 0.29531
# Poissons Ratio (z) = 0.50286 0.22989
#
# Static dielectric constant tensor:
#      x y z
#    x 3.350070 0.000000 0.205540 
#    y 0.000000 3.190510 0.000000 
#    z 0.205540 0.000000 3.567470 
# 
# 
# High freq. dielectric constant tensor:
#      x y z
#    x 1.679050 0.000000 0.024190 
#    y 0.000000 1.689350 0.000000 
#    z 0.024190 0.000000 1.700710 
# 
# From -- ./inp_files/324249.got.cif
#   From: 2010.06.25/outbox.cif.g09.slc.cpg/sg12_163_cif.got.tgz:324249.got - 2010.06.28 00:19:55.
