data_PCOD8079665
_publ_section_title
;
Structure prediction by ZEFSAII (Michael W. Deem and Ramdas Pophale) SiO2 
 PCOD8079665
Probable space group: C 2/M
;
_chemical_formula_sum "Si O2"
_cell_formula_units_Z 48
_cell_length_a 20.787261
_cell_length_b 7.713139
_cell_length_c 19.167181
_cell_angle_alpha 90.000000
_cell_angle_beta 54.039396
_cell_angle_gamma 90.000000
_cell_volume 2487.488699
_symmetry_space_group_name_H-M "C 2/M"
_symmetry_group_IT_number 12
_symmetry_cell_setting 'monoclinic'
loop_
_space_group_symop_operation_xyz
x,y,z
-x,y,-z
-x,-y,-z
x,-y,z
1/2+x,1/2+y,z
1/2-x,1/2+y,-z
1/2-x,1/2-y,-z
1/2+x,1/2-y,z
loop_
_atom_site_type_symbol
_atom_site_label
_atom_site_fract_x
_atom_site_fract_y
_atom_site_fract_z
Si Si1 0.802658 0.703168 0.758735
Si Si2 0.389718 0.500000 0.020968
Si Si3 0.911749 0.294464 0.566678
Si Si4 0.765576 0.297209 0.569260
Si Si5 0.226453 0.695682 0.938152
Si Si6 0.157388 0.695050 0.756749
Si Si7 0.051805 0.000000 0.860372
O O1 0.811827 0.500000 0.763649
O O2 0.874085 0.774395 0.663931
O O3 0.801374 0.791819 0.836203
O O4 0.718936 0.742756 0.775806
O O5 0.340260 0.324905 0.046067
O O6 0.426084 0.500000 0.073468
O O7 0.456187 0.500000 0.917745
O O8 0.917963 0.500000 0.566516
O O9 0.853929 0.240001 0.539180
O O10 0.000000 0.213547 0.500000
O O11 0.754673 0.500000 0.590530
O O12 0.750000 0.250000 0.500000
O O13 0.699298 0.195673 0.654851
O O14 0.193640 0.500000 0.959798
O O15 0.250000 0.750000 0.000000
O O16 0.127347 0.500000 0.791718
O O17 0.083222 0.826212 0.802700
#
# Coordination Sequence:
#
# PCOD8079665 Si02
#       7
#     8   4   8   8   8   8   4
#     4  10  17  33  57  84 116 151 196 240 286 342
#     4  11  24  40  60  90 118 148 189 247 301 343
#     4   8  16  31  55  84 113 147 189 238 288 337
#     4  10  19  33  55  83 115 151 197 240 284 344
#     4  12  22  38  62  86 116 154 201 239 287 349
#     4  11  19  34  59  84 114 156 195 234 284 350
#     4  11  22  40  60  86 124 145 187 249 297 347
#
# _framework density 19.296571
#
# number of rings (size 3 to 8) (size 9 to 14) (size 15 to 20)
#    0.000    1.667    5.000    2.000    0.000    0.667 
#    0.000    3.333    0.000   21.000    0.000    0.000 
#    0.000    0.000    0.000    0.000    0.000    0.000 
#
# Total GULP energy -297483.506803 kJ/mol
# GULP energy per Si atom -12395.146117 kJ/mol
# Density = 1.925265 g / cm^3
# Si number density = 19.296571 Si / 1000 Ang^3
#
#
#
# Elastic Constant Matrix: (Units=GPa)
#
#
# Indices 1 2 3 4 5 6 
#
# 1 66.4098 16.0564 62.7806 0.0006 -4.5736 -0.0006
# 2 16.0564 93.3108 17.9705 0.0009 -15.1125 -0.0065
# 3 62.7806 17.9705 145.4544 -0.0009 -0.4795 0.0009
# 4 0.0006 0.0009 -0.0009 25.0927 0.0006 9.2076
# 5 -4.5736 -15.1125 -0.4795 0.0006 40.4877 -0.0007
# 6 -0.0006 -0.0065 0.0009 9.2076 -0.0007 8.2328
#
#
#
# Elastic Compliance Matrix: (Units=1/GPa)
#
#
# Indices 1 2 3 4 5 6 
#
# 1 0.026096 -0.002038 -0.011005 -0.000003 0.002057 0.000005
# 2 -0.002038 0.011856 -0.000571 -0.000007 0.004188 0.000017
# 3 -0.011005 -0.000571 0.011691 0.000003 -0.001318 -0.000006
# 4 -0.000003 -0.000007 0.000003 0.067591 -0.000005 -0.075594
# 5 0.002057 0.004188 -0.001318 -0.000005 0.026479 0.000012
# 6 0.000005 0.000017 -0.000006 -0.075594 0.000012 0.206010
#
#
# Mechanical properties :
#
#
# Convention : Reuss Voigt Hill
#
# Bulk Modulus (GPa) = 44.61366 55.42113 50.01740
# Shear Modulus (GPa) = 13.00652 28.65381 20.83017
#
# Velocity S-wave (km/s) = 2.59903 3.85764 3.28910
# Velocity P-wave (km/s) = 5.67246 6.97316 6.35617
#
# Compressibility (1/GPa) = 0.02241466
#
# Stress axis : x y z
#
# Youngs Moduli (GPa) = 38.32026 84.34599 85.53481
#
# Poissons Ratio (x) = 0.17189 0.94130
# Poissons Ratio (y) = 0.07809 0.04887
# Poissons Ratio (z) = 0.42171 0.04819
#
# Static dielectric constant tensor:
#      x y z
#    x 3.664930 -0.000010 -0.152720 
#    y -0.000010 3.510690 0.000000 
#    z -0.152720 0.000000 4.105950 
# 
# 
# High freq. dielectric constant tensor:
#      x y z
#    x 1.708930 0.000000 0.003380 
#    y 0.000000 1.754050 0.000000 
#    z 0.003380 0.000000 1.765560 
# 
# From -- ./inp_files/280095.got.cif
#   From: 2010.06.25/outbox.cif.g09.slc.cpg/sg12_141_cif.got.tgz:280095.got - 2010.06.28 00:19:55.
