data_PCOD8079712
_publ_section_title
;
Structure prediction by ZEFSAII (Michael W. Deem and Ramdas Pophale) SiO2 
 PCOD8079712
Probable space group: C 2/M
;
_chemical_formula_sum "Si O2"
_cell_formula_units_Z 32
_cell_length_a 13.779580
_cell_length_b 12.231038
_cell_length_c 15.121578
_cell_angle_alpha 90.000000
_cell_angle_beta 145.080463
_cell_angle_gamma 90.000000
_cell_volume 1458.865930
_symmetry_space_group_name_H-M "C 2/M"
_symmetry_group_IT_number 12
_symmetry_cell_setting 'monoclinic'
loop_
_space_group_symop_operation_xyz
x,y,z
-x,y,-z
-x,-y,-z
x,-y,z
1/2+x,1/2+y,z
1/2-x,1/2+y,-z
1/2-x,1/2-y,-z
1/2+x,1/2-y,z
loop_
_atom_site_type_symbol
_atom_site_label
_atom_site_fract_x
_atom_site_fract_y
_atom_site_fract_z
Si Si1 0.514477 0.625067 0.367959
Si Si2 0.454480 0.673992 0.802070
Si Si3 0.852344 0.000000 0.961312
Si Si4 0.222875 0.624943 0.282502
Si Si5 0.307212 0.000000 0.329225
O O1 0.530562 0.500000 0.349961
O O2 0.531377 0.696237 0.292117
O O3 0.332302 0.645610 0.276392
O O4 0.662763 0.653627 0.547070
O O5 0.623834 0.609932 0.961970
O O6 0.437818 0.793005 0.836162
O O7 0.284947 0.606644 0.700249
O O8 0.000000 0.000000 0.000000
O O9 0.686297 0.000000 0.775014
O O10 0.156987 0.500000 0.236395
O O11 0.500000 0.000000 0.500000
#
# Coordination Sequence:
#
# PCOD8079712 Si02
#       5
#     8   8   4   8   4
#     4   9  16  31  49  81 121 166 198 231 287 337
#     4  10  17  34  59  84 116 161 191 238 296 339
#     4   8  18  36  60  82 113 153 188 240 310 336
#     4   9  19  29  49  87 126 157 199 236 274 343
#     4  10  22  36  62  92 111 139 196 258 292 340
#
# _framework density 21.934846
#
# number of rings (size 3 to 8) (size 9 to 14) (size 15 to 20)
#    0.000    3.000    2.500    2.250    3.500    0.000 
#    0.000    0.000    2.750   20.250    0.000    0.000 
#    0.000    2.500    0.000    0.000    0.000    0.000 
#
# Total GULP energy -198295.318549 kJ/mol
# GULP energy per Si atom -12393.457409 kJ/mol
# Density = 2.188492 g / cm^3
# Si number density = 21.934846 Si / 1000 Ang^3
#
#
#
# Elastic Constant Matrix: (Units=GPa)
#
#
# Indices 1 2 3 4 5 6 
#
# 1 82.3890 50.9982 37.2168 -0.0005 -26.0673 -0.0003
# 2 50.9982 136.4873 30.5617 -0.0001 -2.6608 -0.0002
# 3 37.2168 30.5617 103.9941 0.0006 -7.0839 0.0003
# 4 -0.0005 -0.0001 0.0006 9.1563 0.0004 -7.6809
# 5 -26.0673 -2.6608 -7.0839 0.0004 24.3776 0.0001
# 6 -0.0003 -0.0002 0.0003 -7.6809 0.0001 29.2871
#
#
#
# Elastic Compliance Matrix: (Units=1/GPa)
#
#
# Indices 1 2 3 4 5 6 
#
# 1 0.029706 -0.009202 -0.005949 0.000001 0.029032 0.000001
# 2 -0.009202 0.010694 -0.000449 0.000000 -0.008803 0.000000
# 3 -0.005949 -0.000449 0.011671 -0.000001 -0.003019 -0.000001
# 4 0.000001 0.000000 -0.000001 0.140018 -0.000002 0.036721
# 5 0.029032 -0.008803 -0.003019 -0.000002 0.070228 0.000000
# 6 0.000001 0.000000 -0.000001 0.036721 0.000000 0.043775
#
#
# Mechanical properties :
#
#
# Convention : Reuss Voigt Hill
#
# Bulk Modulus (GPa) = 47.91310 62.26930 55.09120
# Shear Modulus (GPa) = 14.52432 26.17045 20.34738
#
# Velocity S-wave (km/s) = 2.57603 3.45787 3.04900
# Velocity P-wave (km/s) = 5.54425 6.66277 6.12908
#
# Compressibility (1/GPa) = 0.02087112
#
# Stress axis : x y z
#
# Youngs Moduli (GPa) = 33.66293 93.51184 85.67935
#
# Poissons Ratio (x) = 0.86045 0.50973
# Poissons Ratio (y) = 0.30975 0.03850
# Poissons Ratio (z) = 0.20027 0.04202
#
# Static dielectric constant tensor:
#      x y z
#    x 3.743670 0.000000 -0.519650 
#    y 0.000000 3.926730 0.000000 
#    z -0.519650 0.000000 4.557320 
# 
# 
# High freq. dielectric constant tensor:
#      x y z
#    x 1.846790 0.000000 -0.032390 
#    y 0.000000 1.855840 0.000000 
#    z -0.032390 0.000000 1.836440 
# 
# From -- ./inp_files/164504.got.cif
#   From: 2010.06.25/outbox.cif.g09.slc.cpg/sg12_83_cif.got.tgz:164504.got - 2010.06.28 00:19:55.
