data_PCOD8079332
_publ_section_title
;
Structure prediction by ZEFSAII (Michael W. Deem and Ramdas Pophale) SiO2 
 PCOD8079332
Probable space group: C 2/M
;
_chemical_formula_sum "Si O2"
_cell_formula_units_Z 64
_cell_length_a 30.459620
_cell_length_b 8.533142
_cell_length_c 15.037403
_cell_angle_alpha 90.000000
_cell_angle_beta 79.068365
_cell_angle_gamma 90.000000
_cell_volume 3837.543185
_symmetry_space_group_name_H-M "C 2/M"
_symmetry_group_IT_number 12
_symmetry_cell_setting 'monoclinic'
loop_
_space_group_symop_operation_xyz
x,y,z
-x,y,-z
-x,-y,-z
x,-y,z
1/2+x,1/2+y,z
1/2-x,1/2+y,-z
1/2-x,1/2-y,-z
1/2+x,1/2-y,z
loop_
_atom_site_type_symbol
_atom_site_label
_atom_site_fract_x
_atom_site_fract_y
_atom_site_fract_z
Si Si1 0.367483 0.314808 0.242963
Si Si2 0.310462 0.182623 0.106946
Si Si3 0.281332 0.815666 0.610032
Si Si4 0.687573 0.683618 0.571602
Si Si5 0.446365 0.685951 0.930567
Si Si6 0.456840 0.314235 0.124935
Si Si7 0.149026 0.816291 0.084589
Si Si8 0.717293 0.816332 0.191291
O O1 0.361600 0.500000 0.228034
O O2 0.334535 0.225860 0.189308
O O3 0.354123 0.270606 0.349149
O O4 0.418735 0.257960 0.208676
O O5 0.258131 0.220847 0.133692
O O6 0.316476 0.000000 0.083075
O O7 0.330970 0.284730 0.020057
O O8 0.318264 0.756541 0.524589
O O9 0.232656 0.750006 0.600420
O O10 0.292431 0.755655 0.704810
O O11 0.281429 0.000000 0.609328
O O12 0.691060 0.500000 0.558298
O O13 0.445383 0.500000 0.936173
O O14 0.493061 0.743906 0.866847
O O15 0.402764 0.742448 0.893531
O O16 0.444473 0.752075 0.032109
O O17 0.457249 0.500000 0.121244
O O18 0.173443 0.716471 0.150514
O O19 0.153337 0.000000 0.103983
O O20 0.729084 0.000000 0.185634
#
# Coordination Sequence:
#
# PCOD8079332 Si02
#       8
#     8   8   8   8   8   8   8   8
#     4  10  17  30  50  72  98 128 157 193 234 279
#     4  12  23  33  46  68  97 130 165 195 228 273
#     4   9  18  32  48  66  91 122 153 191 235 277
#     4   9  17  29  47  70  94 120 151 189 237 280
#     4   8  14  25  45  71  94 120 155 194 230 275
#     4   8  13  24  46  72  94 120 155 190 232 278
#     4  11  21  34  50  69  95 127 162 199 235 272
#     4  11  22  37  51  66  92 126 165 199 233 276
#
# _framework density 16.677337000000001
#
# number of rings (size 3 to 8) (size 9 to 14) (size 15 to 20)
#    0.000    2.250    2.500    3.000    0.000    1.500 
#    0.000    0.000    0.000    2.250    0.000    0.875 
#    0.000    7.000    0.000    0.000    0.000    0.000 
#
# Total GULP energy -396637.549352 kJ/mol
# GULP energy per Si atom -12394.923417 kJ/mol
# Density = 1.663938 g / cm^3
# Si number density = 16.677337 Si / 1000 Ang^3
#
#
#
# Elastic Constant Matrix: (Units=GPa)
#
#
# Indices 1 2 3 4 5 6 
#
# 1 118.8542 9.9886 48.3866 0.0000 -15.2127 0.0000
# 2 9.9886 26.4784 9.6083 0.0000 -1.3655 0.0000
# 3 48.3866 9.6083 80.2437 0.0000 -13.3968 0.0000
# 4 0.0000 0.0000 0.0000 22.4530 0.0000 2.1708
# 5 -15.2127 -1.3655 -13.3968 0.0000 23.3880 0.0000
# 6 0.0000 0.0000 0.0000 2.1708 0.0000 15.2483
#
#
#
# Elastic Compliance Matrix: (Units=1/GPa)
#
#
# Indices 1 2 3 4 5 6 
#
# 1 0.011554 -0.001951 -0.006079 0.000000 0.003919 0.000000
# 2 -0.001951 0.039816 -0.003776 0.000000 -0.001107 0.000000
# 3 -0.006079 -0.003776 0.017562 0.000000 0.005885 0.000000
# 4 0.000000 0.000000 0.000000 0.045159 0.000000 -0.006429
# 5 0.003919 -0.001107 0.005885 0.000000 0.048613 0.000000
# 6 0.000000 0.000000 0.000000 -0.006429 0.000000 0.066497
#
#
# Mechanical properties :
#
#
# Convention : Reuss Voigt Hill
#
# Bulk Modulus (GPa) = 22.06510 40.17146 31.11828
# Shear Modulus (GPa) = 18.66237 22.72406 20.69321
#
# Velocity S-wave (km/s) = 3.34881 3.69531 3.52632
# Velocity P-wave (km/s) = 5.31150 6.50744 5.93965
#
# Compressibility (1/GPa) = 0.04532044
#
# Stress axis : x y z
#
# Youngs Moduli (GPa) = 86.54906 25.11580 56.93960
#
# Poissons Ratio (x) = 0.04899 0.34615
# Poissons Ratio (y) = 0.16882 0.21501
# Poissons Ratio (z) = 0.52615 0.09484
#
# Static dielectric constant tensor:
#      x y z
#    x 3.377720 0.000000 -0.194930 
#    y 0.000000 2.879830 0.000000 
#    z -0.194930 0.000000 3.222390 
# 
# 
# High freq. dielectric constant tensor:
#      x y z
#    x 1.627680 0.000000 -0.014330 
#    y 0.000000 1.623120 0.000000 
#    z -0.014330 0.000000 1.627990 
# 
# From -- ./inp_files/248276.got.cif
#   From: 2010.06.25/outbox.cif.g09.slc.cpg/sg12_125_cif.got.tgz:248276.got - 2010.06.28 00:19:55.
