data_PCOD8079528
_publ_section_title
;
Structure prediction by ZEFSAII (Michael W. Deem and Ramdas Pophale) SiO2 
 PCOD8079528
Probable space group: C 2/M
;
_chemical_formula_sum "Si O2"
_cell_formula_units_Z 56
_cell_length_a 22.623012
_cell_length_b 19.934026
_cell_length_c 9.488107
_cell_angle_alpha 90.000000
_cell_angle_beta 53.708171
_cell_angle_gamma 90.000000
_cell_volume 3448.791231
_symmetry_space_group_name_H-M "C 2/M"
_symmetry_group_IT_number 12
_symmetry_cell_setting 'monoclinic'
loop_
_space_group_symop_operation_xyz
x,y,z
-x,y,-z
-x,-y,-z
x,-y,z
1/2+x,1/2+y,z
1/2-x,1/2+y,-z
1/2-x,1/2-y,-z
1/2+x,1/2-y,z
loop_
_atom_site_type_symbol
_atom_site_label
_atom_site_fract_x
_atom_site_fract_y
_atom_site_fract_z
Si Si1 0.063846 0.423791 0.017229
Si Si2 0.257104 0.818727 0.575106
Si Si3 0.825655 0.214046 0.049982
Si Si4 0.773554 0.423004 0.312384
Si Si5 0.703920 0.328260 0.204093
Si Si6 0.394444 0.223327 0.544492
Si Si7 0.947304 0.698732 0.774169
O O1 0.056575 0.500000 0.082221
O O2 0.055718 0.376158 0.162425
O O3 0.140294 0.412440 0.830458
O O4 0.000000 0.404934 0.000000
O O5 0.250000 0.750000 0.500000
O O6 0.189899 0.824801 0.782041
O O7 0.249121 0.881491 0.483298
O O8 0.335243 0.821759 0.545025
O O9 0.768220 0.274348 0.123628
O O10 0.816798 0.162457 0.931199
O O11 0.906039 0.247880 0.933436
O O12 0.752761 0.500000 0.366843
O O13 0.729735 0.398111 0.235340
O O14 0.635049 0.299231 0.390868
O O15 0.407002 0.191787 0.681077
O O16 0.469861 0.225550 0.352208
#
# Coordination Sequence:
#
# PCOD8079528 Si02
#       7
#     8   8   8   8   8   8   8
#     4  10  20  32  46  66 103 145 175 201 245 306
#     4  11  18  32  50  74 103 134 167 213 259 303
#     4   9  17  28  54  72  97 126 163 217 261 285
#     4  11  21  33  51  73 102 140 174 206 255 314
#     4   9  16  33  49  73  97 128 166 211 257 302
#     4   9  19  29  52  73 103 129 168 213 262 286
#     4  10  17  32  48  78  98 129 172 218 245 310
#
# _framework density 16.237573000000001
#
# number of rings (size 3 to 8) (size 9 to 14) (size 15 to 20)
#    0.000    2.143    4.286    1.714    0.000    0.000 
#    0.000    2.857    0.000    0.000    0.000   10.000 
#    0.000    0.000    0.000    0.000    0.000    0.000 
#
# Total GULP energy -347133.277839 kJ/mol
# GULP energy per Si atom -12397.617066 kJ/mol
# Density = 1.620062 g / cm^3
# Si number density = 16.237573 Si / 1000 Ang^3
#
#
#
# Elastic Constant Matrix: (Units=GPa)
#
#
# Indices 1 2 3 4 5 6 
#
# 1 75.0852 47.9716 44.4155 0.0000 3.5697 0.0000
# 2 47.9716 100.0352 56.8335 0.0000 7.1480 0.0000
# 3 44.4155 56.8335 118.7761 0.0000 -3.0974 0.0000
# 4 0.0000 0.0000 0.0000 23.0640 0.0000 3.6596
# 5 3.5697 7.1480 -3.0974 0.0000 23.9666 0.0000
# 6 0.0000 0.0000 0.0000 3.6596 0.0000 22.4011
#
#
#
# Elastic Compliance Matrix: (Units=1/GPa)
#
#
# Indices 1 2 3 4 5 6 
#
# 1 0.020589 -0.007386 -0.004202 0.000000 -0.001407 0.000000
# 2 -0.007386 0.016992 -0.005491 0.000000 -0.004677 0.000000
# 3 -0.004202 -0.005491 0.012720 0.000000 0.003907 0.000000
# 4 0.000000 0.000000 0.000000 0.044511 0.000000 -0.007272
# 5 -0.001407 -0.004677 0.003907 0.000000 0.043834 0.000000
# 6 0.000000 0.000000 0.000000 -0.007272 0.000000 0.045829
#
#
# Mechanical properties :
#
#
# Convention : Reuss Voigt Hill
#
# Bulk Modulus (GPa) = 61.94143 65.81531 63.87837
# Shear Modulus (GPa) = 22.32009 23.53140 22.92575
#
# Velocity S-wave (km/s) = 3.71158 3.81096 3.76160
# Velocity P-wave (km/s) = 7.52313 7.74502 7.63488
#
# Compressibility (1/GPa) = 0.01614428
#
# Stress axis : x y z
#
# Youngs Moduli (GPa) = 48.56860 58.85127 78.61881
#
# Poissons Ratio (x) = 0.43467 0.33035
# Poissons Ratio (y) = 0.35872 0.43167
# Poissons Ratio (z) = 0.20408 0.32313
#
# Static dielectric constant tensor:
#      x y z
#    x 3.252970 0.000000 -0.025900 
#    y 0.000000 2.855230 0.000000 
#    z -0.025900 0.000000 3.425700 
# 
# 
# High freq. dielectric constant tensor:
#      x y z
#    x 1.623370 0.000000 0.003410 
#    y 0.000000 1.585580 0.000000 
#    z 0.003410 0.000000 1.634130 
# 
# From -- ./inp_files/98789.got.cif
#   From: 2010.06.25/outbox.cif.g09.slc.cpg/sg12_50_cif.got.tgz:98789.got - 2010.06.28 00:19:55.
