data_PCOD8079792
_publ_section_title
;
Structure prediction by ZEFSAII (Michael W. Deem and Ramdas Pophale) SiO2 
 PCOD8079792
Probable space group: C 2/M
;
_chemical_formula_sum "Si O2"
_cell_formula_units_Z 32
_cell_length_a 14.102299
_cell_length_b 17.931898
_cell_length_c 11.296813
_cell_angle_alpha 90.000000
_cell_angle_beta 146.973056
_cell_angle_gamma 90.000000
_cell_volume 1557.023655
_symmetry_space_group_name_H-M "C 2/M"
_symmetry_group_IT_number 12
_symmetry_cell_setting 'monoclinic'
loop_
_space_group_symop_operation_xyz
x,y,z
-x,y,-z
-x,-y,-z
x,-y,z
1/2+x,1/2+y,z
1/2-x,1/2+y,-z
1/2-x,1/2-y,-z
1/2+x,1/2-y,z
loop_
_atom_site_type_symbol
_atom_site_label
_atom_site_fract_x
_atom_site_fract_y
_atom_site_fract_z
Si Si1 0.409931 0.876166 0.714833
Si Si2 0.692300 0.000000 0.985061
Si Si3 0.819279 0.345559 0.362384
Si Si4 0.312287 0.500000 0.860786
Si Si5 0.000000 0.257442 0.000000
Si Si6 0.297631 0.000000 0.750259
O O1 0.315244 0.843896 0.500586
O O2 0.573370 0.926634 0.847988
O O3 0.268252 0.925187 0.642000
O O4 0.478873 0.807258 0.862023
O O5 0.830795 0.000000 0.023343
O O6 0.800490 0.000000 0.224456
O O7 0.796372 0.429437 0.294536
O O8 0.000000 0.313889 0.500000
O O9 0.667191 0.293848 0.153317
O O10 0.500000 0.500000 0.000000
O O11 0.500000 0.000000 0.000000
#
# Coordination Sequence:
#
# PCOD8079792 Si02
#       6
#     8   4   8   4   4   4
#     4  10  19  39  67  93 130 170 213 266 320 382
#     4  10  17  38  72  92 118 175 219 263 320 372
#     4  12  25  41  65  95 130 179 210 267 329 377
#     4  12  23  44  66  97 128 164 225 271 314 379
#     4  12  24  42  62 100 138 162 224 260 320 400
#     4   8  15  33  66  94 114 173 217 262 319 363
#
# _framework density 20.552033000000002
#
# number of rings (size 3 to 8) (size 9 to 14) (size 15 to 20)
#    0.000    1.500    7.500    2.625    0.000    1.000 
#    0.000    0.000    0.000    1.500    0.000    0.875 
#    0.000    0.000    0.000    0.000    0.000    0.000 
#
# Total GULP energy -198396.777824 kJ/mol
# GULP energy per Si atom -12399.798614 kJ/mol
# Density = 2.050526 g / cm^3
# Si number density = 20.552033 Si / 1000 Ang^3
#
#
#
# Elastic Constant Matrix: (Units=GPa)
#
#
# Indices 1 2 3 4 5 6 
#
# 1 154.9744 42.4039 57.1889 0.0000 -21.1212 0.0000
# 2 42.4039 133.5334 52.2445 0.0000 -3.4050 0.0000
# 3 57.1889 52.2445 82.2426 0.0000 -10.6152 0.0000
# 4 0.0000 0.0000 0.0000 9.4813 0.0000 -3.9195
# 5 -21.1212 -3.4050 -10.6152 0.0000 49.6151 0.0000
# 6 0.0000 0.0000 0.0000 -3.9195 0.0000 11.9311
#
#
#
# Elastic Compliance Matrix: (Units=1/GPa)
#
#
# Indices 1 2 3 4 5 6 
#
# 1 0.009025 -0.000633 -0.005536 0.000000 0.002614 0.000000
# 2 -0.000633 0.010033 -0.006046 0.000000 -0.000875 0.000000
# 3 -0.005536 -0.006046 0.020045 0.000000 0.001517 0.000000
# 4 0.000000 0.000000 0.000000 0.122045 0.000000 0.040093
# 5 0.002614 -0.000875 0.001517 0.000000 0.021533 0.000000
# 6 0.000000 0.000000 0.000000 0.040093 0.000000 0.096985
#
#
# Mechanical properties :
#
#
# Convention : Reuss Voigt Hill
#
# Bulk Modulus (GPa) = 68.15370 74.93610 71.54490
# Shear Modulus (GPa) = 16.18184 28.79970 22.49077
#
# Velocity S-wave (km/s) = 2.80904 3.74746 3.31166
# Velocity P-wave (km/s) = 6.61471 7.43407 7.03633
#
# Compressibility (1/GPa) = 0.01467272
#
# Stress axis : x y z
#
# Youngs Moduli (GPa) = 110.80099 99.67066 49.88702
#
# Poissons Ratio (x) = 0.06312 0.27618
# Poissons Ratio (y) = 0.07017 0.30162
# Poissons Ratio (z) = 0.61341 0.60261
#
# Static dielectric constant tensor:
#      x y z
#    x 4.161800 0.000000 -0.444000 
#    y 0.000000 3.840300 0.000000 
#    z -0.444000 0.000000 3.546350 
# 
# 
# High freq. dielectric constant tensor:
#      x y z
#    x 1.808110 0.000000 -0.030100 
#    y 0.000000 1.806550 0.000000 
#    z -0.030100 0.000000 1.781710 
# 
# From -- ./inp_files/60609.got.cif
#   From: 2010.06.25/outbox.cif.g09.slc.cpg/sg12_31_cif.got.tgz:60609.got - 2010.06.28 00:19:55.
