data_PCOD8079647
_publ_section_title
;
Structure prediction by ZEFSAII (Michael W. Deem and Ramdas Pophale) SiO2 
 PCOD8079647
Probable space group: C 2/M
;
_chemical_formula_sum "Si O2"
_cell_formula_units_Z 48
_cell_length_a 16.416139
_cell_length_b 15.440974
_cell_length_c 17.920863
_cell_angle_alpha 90.000000
_cell_angle_beta 147.409494
_cell_angle_gamma 90.000000
_cell_volume 2446.786771
_symmetry_space_group_name_H-M "C 2/M"
_symmetry_group_IT_number 12
_symmetry_cell_setting 'monoclinic'
loop_
_space_group_symop_operation_xyz
x,y,z
-x,y,-z
-x,-y,-z
x,-y,z
1/2+x,1/2+y,z
1/2-x,1/2+y,-z
1/2-x,1/2-y,-z
1/2+x,1/2-y,z
loop_
_atom_site_type_symbol
_atom_site_label
_atom_site_fract_x
_atom_site_fract_y
_atom_site_fract_z
Si Si1 0.723658 0.658775 0.666543
Si Si2 0.361518 0.251295 0.196414
Si Si3 0.545247 0.227605 0.893008
Si Si4 0.009338 0.902928 0.625963
Si Si5 0.362187 0.156991 0.350112
Si Si6 0.452240 0.404305 0.880860
O O1 0.652872 0.615012 0.538234
O O2 0.654506 0.606867 0.683148
O O3 0.667397 0.756623 0.625210
O O4 0.907592 0.662767 0.809110
O O5 0.407299 0.204661 0.154876
O O6 0.469240 0.334718 0.290830
O O7 0.385997 0.181637 0.281377
O O8 0.187386 0.285583 0.058376
O O9 0.504992 0.330142 0.864571
O O10 0.007325 0.000000 0.656678
O O11 0.500000 0.111526 0.500000
O O12 0.228273 0.089073 0.255986
O O13 0.516524 0.500000 0.909033
O O14 0.500000 0.374798 0.000000
#
# Coordination Sequence:
#
# PCOD8079647 Si02
#       6
#     8   8   8   8   8   8
#     4   9  17  32  54  81 101 141 179 216 261 314
#     4  10  20  36  54  82 107 142 181 221 268 312
#     4  10  21  35  57  78 109 141 184 224 257 326
#     4  10  19  34  56  80 110 140 176 223 275 323
#     4  10  17  33  55  80 103 136 179 218 255 316
#     4  10  20  34  55  78 104 139 177 224 267 308
#
# _framework density 19.617564999999999
#
# number of rings (size 3 to 8) (size 9 to 14) (size 15 to 20)
#    0.000    2.167    5.000    1.000    0.000    1.667 
#    0.000    2.500    0.000    4.000    0.000    0.000 
#    0.000    0.000    0.000    0.000    0.000    0.000 
#
# Total GULP energy -297389.958935 kJ/mol
# GULP energy per Si atom -12391.248289 kJ/mol
# Density = 1.957291 g / cm^3
# Si number density = 19.617565 Si / 1000 Ang^3
#
#
#
# Elastic Constant Matrix: (Units=GPa)
#
#
# Indices 1 2 3 4 5 6 
#
# 1 47.0959 -4.8203 29.7981 0.0003 3.5033 0.0001
# 2 -4.8203 51.2677 -7.8504 0.0007 -2.9264 0.0004
# 3 29.7981 -7.8504 115.0222 0.0005 5.1655 0.0002
# 4 0.0003 0.0007 0.0005 13.1575 0.0002 5.9289
# 5 3.5033 -2.9264 5.1655 0.0002 29.3694 0.0001
# 6 0.0001 0.0004 0.0002 5.9289 0.0001 12.0855
#
#
#
# Elastic Compliance Matrix: (Units=1/GPa)
#
#
# Indices 1 2 3 4 5 6 
#
# 1 0.025587 0.001315 -0.006459 0.000000 -0.001785 0.000000
# 2 0.001315 0.019868 0.000941 -0.000001 0.001657 0.000000
# 3 -0.006459 0.000941 0.010475 0.000000 -0.000978 0.000000
# 4 0.000000 -0.000001 0.000000 0.097572 -0.000001 -0.047867
# 5 -0.001785 0.001657 -0.000978 -0.000001 0.034599 0.000000
# 6 0.000000 0.000000 0.000000 -0.047867 0.000000 0.106226
#
#
# Mechanical properties :
#
#
# Convention : Reuss Voigt Hill
#
# Bulk Modulus (GPa) = 21.04187 27.51562 24.27874
# Shear Modulus (GPa) = 15.69489 24.00639 19.85064
#
# Velocity S-wave (km/s) = 2.83157 3.50196 3.18446
# Velocity P-wave (km/s) = 4.63030 5.51436 5.09155
#
# Compressibility (1/GPa) = 0.04752430
#
# Stress axis : x y z
#
# Youngs Moduli (GPa) = 39.08203 50.33280 95.46206
#
# Poissons Ratio (x) = -0.06618 0.61657
# Poissons Ratio (y) = -0.05139 -0.08982
# Poissons Ratio (z) = 0.25242 -0.04736
#
# Static dielectric constant tensor:
#      x y z
#    x 3.370080 0.000000 0.258770 
#    y 0.000000 3.216730 0.000000 
#    z 0.258770 0.000000 3.962280 
# 
# 
# High freq. dielectric constant tensor:
#      x y z
#    x 1.733710 0.000000 0.004650 
#    y 0.000000 1.734700 0.000000 
#    z 0.004650 0.000000 1.780640 
# 
# From -- ./inp_files/216510.got.cif
#   From: 2010.06.25/outbox.cif.g09.slc.cpg/sg12_109_cif.got.tgz:216510.got - 2010.06.28 00:19:55.
