data_PCOD8079323
_publ_section_title
;
Structure prediction by ZEFSAII (Michael W. Deem and Ramdas Pophale) SiO2 
 PCOD8079323
Probable space group: C 2/M
;
_chemical_formula_sum "Si O2"
_cell_formula_units_Z 64
_cell_length_a 29.964911
_cell_length_b 9.016308
_cell_length_c 14.963437
_cell_angle_alpha 90.000000
_cell_angle_beta 78.686227
_cell_angle_gamma 90.000000
_cell_volume 3964.154731
_symmetry_space_group_name_H-M "C 2/M"
_symmetry_group_IT_number 12
_symmetry_cell_setting 'monoclinic'
loop_
_space_group_symop_operation_xyz
x,y,z
-x,y,-z
-x,-y,-z
x,-y,z
1/2+x,1/2+y,z
1/2-x,1/2+y,-z
1/2-x,1/2-y,-z
1/2+x,1/2-y,z
loop_
_atom_site_type_symbol
_atom_site_label
_atom_site_fract_x
_atom_site_fract_y
_atom_site_fract_z
Si Si1 0.780290 0.328759 0.617811
Si Si2 0.558856 0.326035 0.064438
Si Si3 0.957283 0.172547 0.131438
Si Si4 0.191226 0.675739 0.882272
Si Si5 0.208476 0.823859 0.206883
Si Si6 0.123179 0.328341 0.758361
Si Si7 0.192751 0.669572 0.586196
Si Si8 0.851950 0.324082 0.915780
O O1 0.779372 0.500000 0.647318
O O2 0.800958 0.230152 0.688738
O O3 0.811982 0.303906 0.518008
O O4 0.729264 0.279063 0.614990
O O5 0.570139 0.500000 0.068419
O O6 0.510088 0.289141 0.128189
O O7 0.596009 0.228855 0.100941
O O8 0.557523 0.276168 0.961677
O O9 0.926040 0.252327 0.217150
O O10 0.949173 0.000000 0.144448
O O11 0.191528 0.500000 0.877057
O O12 0.242078 0.735005 0.844311
O O13 0.157468 0.739003 0.819577
O O14 0.174661 0.731526 0.985417
O O15 0.170419 0.751551 0.160472
O O16 0.204580 0.000000 0.203637
O O17 0.115533 0.500000 0.780465
O O18 0.144200 0.299338 0.651870
O O19 0.208437 0.500000 0.599951
O O20 0.850170 0.500000 0.906497
#
# Coordination Sequence:
#
# PCOD8079323 Si02
#       8
#     8   8   8   8   8   8   8   8
#     4  10  19  31  48  71  94 123 163 203 236 276
#     4   9  18  33  48  66  95 129 159 193 241 285
#     4   9  18  31  48  70  96 124 159 198 235 283
#     4   9  18  31  46  66  96 130 163 196 229 274
#     4  11  21  35  50  65  94 134 166 197 242 284
#     4  10  17  30  49  71  97 128 160 192 236 286
#     4   9  18  32  49  68  97 129 156 193 243 289
#     4  11  21  33  48  70  95 124 168 208 232 271
#
# _framework density 16.144677999999999
#
# number of rings (size 3 to 8) (size 9 to 14) (size 15 to 20)
#    0.000    2.250    2.500    2.250    0.000    1.500 
#    0.000    3.125    0.000    0.000    0.000    0.875 
#    0.000    7.000    0.000    0.000    0.000    0.000 
#
# Total GULP energy -396807.151788 kJ/mol
# GULP energy per Si atom -12400.223493 kJ/mol
# Density = 1.610793 g / cm^3
# Si number density = 16.144678 Si / 1000 Ang^3
#
#
#
# Elastic Constant Matrix: (Units=GPa)
#
#
# Indices 1 2 3 4 5 6 
#
# 1 100.5742 44.5144 58.3372 0.0000 -8.3043 0.0000
# 2 44.5144 59.8345 40.9497 0.0000 -3.8090 0.0000
# 3 58.3372 40.9497 105.7887 0.0000 -7.6682 0.0000
# 4 0.0000 0.0000 0.0000 24.2014 0.0000 -0.5109
# 5 -8.3043 -3.8090 -7.6682 0.0000 24.9987 0.0000
# 6 0.0000 0.0000 0.0000 -0.5109 0.0000 27.1856
#
#
#
# Elastic Compliance Matrix: (Units=1/GPa)
#
#
# Indices 1 2 3 4 5 6 
#
# 1 0.017569 -0.008710 -0.006126 0.000000 0.002630 0.000000
# 2 -0.008710 0.027069 -0.005713 0.000000 -0.000521 0.000000
# 3 -0.006126 -0.005713 0.015169 0.000000 0.001748 0.000000
# 4 0.000000 0.000000 0.000000 0.041336 0.000000 0.000777
# 5 0.002630 -0.000521 0.001748 0.000000 0.041332 0.000000
# 6 0.000000 0.000000 0.000000 0.000777 0.000000 0.036799
#
#
# Mechanical properties :
#
#
# Convention : Reuss Voigt Hill
#
# Bulk Modulus (GPa) = 53.45040 61.53333 57.49186
# Shear Modulus (GPa) = 22.06447 23.43688 22.75067
#
# Velocity S-wave (km/s) = 3.70086 3.81422 3.75797
# Velocity P-wave (km/s) = 7.17223 7.58908 7.38360
#
# Compressibility (1/GPa) = 0.01870893
#
# Stress axis : x y z
#
# Youngs Moduli (GPa) = 56.91990 36.94195 65.92432
#
# Poissons Ratio (x) = 0.32178 0.40384
# Poissons Ratio (y) = 0.49580 0.37661
# Poissons Ratio (z) = 0.34868 0.21104
#
# Static dielectric constant tensor:
#      x y z
#    x 2.940090 0.000000 -0.128110 
#    y 0.000000 2.957600 0.000000 
#    z -0.128110 0.000000 3.103510 
# 
# 
# High freq. dielectric constant tensor:
#      x y z
#    x 1.601040 0.000000 -0.011520 
#    y 0.000000 1.618000 0.000000 
#    z -0.011520 0.000000 1.609850 
# 
# From -- ./inp_files/243969.got.cif
#   From: 2010.06.25/outbox.cif.g09.slc.cpg/sg12_122_cif.got.tgz:243969.got - 2010.06.28 00:19:55.
