data_PCOD8079990
_publ_section_title
;
Structure prediction by ZEFSAII (Michael W. Deem and Ramdas Pophale) SiO2 
 PCOD8079990
Probable space group: C 2/M
;
_chemical_formula_sum "Si O2"
_cell_formula_units_Z 64
_cell_length_a 27.475521
_cell_length_b 9.162865
_cell_length_c 24.145138
_cell_angle_alpha 90.000000
_cell_angle_beta 43.394082
_cell_angle_gamma 90.000000
_cell_volume 4176.106160
_symmetry_space_group_name_H-M "C 2/M"
_symmetry_group_IT_number 12
_symmetry_cell_setting 'monoclinic'
loop_
_space_group_symop_operation_xyz
x,y,z
-x,y,-z
-x,-y,-z
x,-y,z
1/2+x,1/2+y,z
1/2-x,1/2+y,-z
1/2-x,1/2-y,-z
1/2+x,1/2-y,z
loop_
_atom_site_type_symbol
_atom_site_label
_atom_site_fract_x
_atom_site_fract_y
_atom_site_fract_z
Si Si1 0.331069 0.168557 0.674478
Si Si2 0.937142 0.328845 0.014088
Si Si3 0.946590 0.672415 0.500405
Si Si4 0.610208 0.329483 0.174655
Si Si5 0.744861 0.830210 0.093067
Si Si6 0.447377 0.168775 0.673821
Si Si7 0.095732 0.834774 0.065286
Si Si8 0.720284 0.828212 0.826798
O O1 0.366755 0.215666 0.585558
O O2 0.387182 0.196800 0.677529
O O3 0.260515 0.267970 0.739092
O O4 0.307662 0.000000 0.692804
O O5 0.945532 0.500000 0.000392
O O6 0.862917 0.287216 0.104834
O O7 0.943714 0.265499 0.946716
O O8 0.000000 0.264304 0.000000
O O9 0.953314 0.500000 0.500984
O O10 0.000000 0.746394 0.500000
O O11 0.974818 0.714673 0.415580
O O12 0.625058 0.500000 0.172254
O O13 0.684728 0.246097 0.106302
O O14 0.563455 0.266813 0.263125
O O15 0.568868 0.305698 0.150237
O O16 0.740750 0.754895 0.156045
O O17 0.726709 0.000000 0.115291
O O18 0.820419 0.802961 0.002965
O O19 0.446752 0.000000 0.692633
O O20 0.081151 0.000000 0.058782
O O21 0.731304 0.000000 0.823918
#
# Coordination Sequence:
#
# PCOD8079990 Si02
#       8
#     8   8   8   8   8   8   8   8
#     4   9  15  25  41  59  82 111 145 179 205 242
#     4   9  19  35  51  65  83 108 138 174 215 256
#     4   7  12  23  38  55  76 108 147 179 204 232
#     4  11  20  28  39  59  88 114 140 176 211 243
#     4  10  18  29  42  56  79 113 149 176 201 240
#     4   9  16  26  40  57  80 115 151 176 202 240
#     4   9  20  33  44  61  83 109 141 175 211 250
#     4  10  18  27  42  64  87 109 136 174 216 252
#
# _framework density 15.325281
#
# number of rings (size 3 to 8) (size 9 to 14) (size 15 to 20)
#    0.000    2.750    1.250    3.000    0.000    2.250 
#    0.000    0.625    0.000    2.250    0.000    0.000 
#    0.000    1.000    0.000    2.250    0.000    4.000 
#
# Total GULP energy -396467.187582 kJ/mol
# GULP energy per Si atom -12389.599612 kJ/mol
# Density = 1.529040 g / cm^3
# Si number density = 15.325281 Si / 1000 Ang^3
#
#
#
# Elastic Constant Matrix: (Units=GPa)
#
#
# Indices 1 2 3 4 5 6 
#
# 1 65.0351 31.9379 37.4324 -0.0010 4.1891 -0.0010
# 2 31.9379 62.1855 38.0940 -0.0061 3.7730 0.0004
# 3 37.4324 38.0940 95.6996 -0.0022 9.9224 0.0042
# 4 -0.0010 -0.0061 -0.0022 22.7108 0.0006 1.2973
# 5 4.1891 3.7730 9.9224 0.0006 11.1397 0.0005
# 6 -0.0010 0.0004 0.0042 1.2973 0.0005 15.6893
#
#
#
# Elastic Compliance Matrix: (Units=1/GPa)
#
#
# Indices 1 2 3 4 5 6 
#
# 1 0.022621 -0.008200 -0.005498 -0.000002 -0.000832 0.000003
# 2 -0.008200 0.024240 -0.006512 0.000006 0.000673 0.000000
# 3 -0.005498 -0.006512 0.016249 0.000000 -0.010201 -0.000004
# 4 -0.000002 0.000006 0.000000 0.044241 -0.000004 -0.003658
# 5 -0.000832 0.000673 -0.010201 -0.000004 0.098940 0.000000
# 6 0.000003 0.000000 -0.000004 -0.003658 0.000000 0.064040
#
#
# Mechanical properties :
#
#
# Convention : Reuss Voigt Hill
#
# Bulk Modulus (GPa) = 44.06715 48.64987 46.35851
# Shear Modulus (GPa) = 15.70773 17.60500 16.65636
#
# Velocity S-wave (km/s) = 3.20497 3.39301 3.30033
# Velocity P-wave (km/s) = 6.52018 6.86759 6.69614
#
# Compressibility (1/GPa) = 0.02269264
#
# Stress axis : x y z
#
# Youngs Moduli (GPa) = 44.20661 41.25376 61.54038
#
# Poissons Ratio (x) = 0.33826 0.33834
# Poissons Ratio (y) = 0.36247 0.40073
# Poissons Ratio (z) = 0.24304 0.26863
#
# Static dielectric constant tensor:
#      x y z
#    x 2.571940 -0.000010 0.061750 
#    y -0.000010 2.851110 0.000010 
#    z 0.061750 0.000010 3.310480 
# 
# 
# High freq. dielectric constant tensor:
#      x y z
#    x 1.526410 0.000000 0.009900 
#    y 0.000000 1.583090 0.000000 
#    z 0.009900 0.000000 1.596540 
# 
# From -- ./inp_files/323658.got.cif
#   From: 2010.06.25/outbox.cif.g09.slc.cpg/sg12_162_cif.got.tgz:323658.got - 2010.06.28 00:19:55.
