data_PCOD8079170
_publ_section_title
;
Structure prediction by ZEFSAII (Michael W. Deem and Ramdas Pophale) SiO2 
 PCOD8079170
Probable space group: C 2/M
;
_chemical_formula_sum "Si O2"
_cell_formula_units_Z 64
_cell_length_a 29.674986
_cell_length_b 9.364365
_cell_length_c 30.480765
_cell_angle_alpha 90.000000
_cell_angle_beta 28.740462
_cell_angle_gamma 90.000000
_cell_volume 4072.844682
_symmetry_space_group_name_H-M "C 2/M"
_symmetry_group_IT_number 12
_symmetry_cell_setting 'monoclinic'
loop_
_space_group_symop_operation_xyz
x,y,z
-x,y,-z
-x,-y,-z
x,-y,z
1/2+x,1/2+y,z
1/2-x,1/2+y,-z
1/2-x,1/2-y,-z
1/2+x,1/2-y,z
loop_
_atom_site_type_symbol
_atom_site_label
_atom_site_fract_x
_atom_site_fract_y
_atom_site_fract_z
Si Si1 0.233674 0.169770 0.411611
Si Si2 0.740881 0.665936 0.073176
Si Si3 0.115599 0.164444 0.098410
Si Si4 0.412033 0.164036 0.632763
Si Si5 0.617345 0.331572 0.259024
Si Si6 0.374352 0.834931 0.566753
Si Si7 0.923385 0.831424 0.385480
Si Si8 0.406022 0.332275 0.301390
O O1 0.197336 0.231250 0.396612
O O2 0.162720 0.216638 0.510699
O O3 0.333258 0.239982 0.335985
O O4 0.243372 0.000000 0.399843
O O5 0.763869 0.500000 0.051046
O O6 0.661816 0.708882 0.105229
O O7 0.701766 0.708493 0.154242
O O8 0.837537 0.748409 0.981389
O O9 0.006010 0.198148 0.194008
O O10 0.134325 0.000000 0.072572
O O11 0.361141 0.259533 0.712719
O O12 0.520795 0.207114 0.536735
O O13 0.361330 0.191465 0.629695
O O14 0.402420 0.000000 0.654692
O O15 0.609855 0.500000 0.272381
O O16 0.519954 0.269121 0.322659
O O17 0.353735 0.000000 0.572662
O O18 0.906042 0.773867 0.351270
O O19 0.934107 0.000000 0.373840
O O20 0.380353 0.500000 0.321474
#
# Coordination Sequence:
#
# PCOD8079170 Si02
#       8
#     8   8   8   8   8   8   8   8
#     4  11  21  31  46  69  94 123 163 203 230 263
#     4   9  17  29  47  68  93 122 152 191 236 277
#     4   9  17  30  47  66  89 122 160 194 229 273
#     4   9  18  31  48  69  93 120 155 195 231 274
#     4  10  17  29  48  70  96 127 155 185 233 283
#     4   9  18  33  48  65  92 125 156 190 235 279
#     4   9  17  30  45  64  94 128 161 191 222 269
#     4  10  19  33  49  63  90 132 166 192 230 275
#
# _framework density 15.713832999999999
#
# number of rings (size 3 to 8) (size 9 to 14) (size 15 to 20)
#    0.000    2.500    2.500    1.500    0.000    1.500 
#    0.000    2.500    0.000    0.000    0.000    0.875 
#    0.000    7.000    0.000    0.000    0.000    0.000 
#
# Total GULP energy -396811.200519 kJ/mol
# GULP energy per Si atom -12400.350016 kJ/mol
# Density = 1.567807 g / cm^3
# Si number density = 15.713833 Si / 1000 Ang^3
#
#
#
# Elastic Constant Matrix: (Units=GPa)
#
#
# Indices 1 2 3 4 5 6 
#
# 1 91.7900 46.0434 52.7077 -0.0144 6.9362 0.0075
# 2 46.0434 58.0947 52.8869 -0.0212 5.4799 0.0115
# 3 52.7077 52.8869 104.2359 -0.0219 9.8966 0.0140
# 4 -0.0144 -0.0212 -0.0219 27.4746 0.0145 2.1601
# 5 6.9362 5.4799 9.8966 0.0145 22.5213 -0.0057
# 6 0.0075 0.0115 0.0140 2.1601 -0.0057 25.7151
#
#
#
# Elastic Compliance Matrix: (Units=1/GPa)
#
#
# Indices 1 2 3 4 5 6 
#
# 1 0.018834 -0.011607 -0.003498 -0.000001 -0.001439 0.000001
# 2 -0.011607 0.039152 -0.014015 0.000013 0.000207 -0.000008
# 3 -0.003498 -0.014015 0.018833 0.000005 -0.003788 -0.000004
# 4 -0.000001 0.000013 0.000005 0.036639 -0.000029 -0.003078
# 5 -0.001439 0.000207 -0.003788 -0.000029 0.046460 0.000015
# 6 0.000001 -0.000008 -0.000004 -0.003078 0.000015 0.039146
#
#
# Mechanical properties :
#
#
# Convention : Reuss Voigt Hill
#
# Bulk Modulus (GPa) = 53.82482 61.93295 57.87888
# Shear Modulus (GPa) = 18.97555 21.97437 20.47496
#
# Velocity S-wave (km/s) = 3.47878 3.74359 3.61361
# Velocity P-wave (km/s) = 7.10376 7.62788 7.37048
#
# Compressibility (1/GPa) = 0.01857879
#
# Stress axis : x y z
#
# Youngs Moduli (GPa) = 53.09561 25.54163 53.09839
#
# Poissons Ratio (x) = 0.29646 0.18573
# Poissons Ratio (y) = 0.61628 0.74418
# Poissons Ratio (z) = 0.18572 0.35797
#
# Static dielectric constant tensor:
#      x y z
#    x 2.873150 -0.000020 0.094310 
#    y -0.000020 2.850180 0.000030 
#    z 0.094310 0.000030 2.947120 
# 
# 
# High freq. dielectric constant tensor:
#      x y z
#    x 1.586080 0.000000 0.009590 
#    y 0.000000 1.594380 0.000000 
#    z 0.009590 0.000000 1.591820 
# 
# From -- ./inp_files/248517.got.cif
#   From: 2010.06.25/outbox.cif.g09.slc.cpg/sg12_125_cif.got.tgz:248517.got - 2010.06.28 00:19:55.
