data_PCOD8079315
_publ_section_title
;
Structure prediction by ZEFSAII (Michael W. Deem and Ramdas Pophale) SiO2 
 PCOD8079315
Probable space group: C 2/M
;
_chemical_formula_sum "Si O2"
_cell_formula_units_Z 44
_cell_length_a 9.092921
_cell_length_b 24.663686
_cell_length_c 14.349542
_cell_angle_alpha 90.000000
_cell_angle_beta 127.099840
_cell_angle_gamma 90.000000
_cell_volume 2566.709700
_symmetry_space_group_name_H-M "C 2/M"
_symmetry_group_IT_number 12
_symmetry_cell_setting 'monoclinic'
loop_
_space_group_symop_operation_xyz
x,y,z
-x,y,-z
-x,-y,-z
x,-y,z
1/2+x,1/2+y,z
1/2-x,1/2+y,-z
1/2-x,1/2-y,-z
1/2+x,1/2-y,z
loop_
_atom_site_type_symbol
_atom_site_label
_atom_site_fract_x
_atom_site_fract_y
_atom_site_fract_z
Si Si1 0.150751 0.639942 0.632333
Si Si2 0.115309 0.362220 0.305041
Si Si3 0.537106 0.559130 0.307333
Si Si4 0.374956 0.062030 0.865005
Si Si5 0.500000 0.591276 0.500000
Si Si6 0.798020 0.759184 0.412527
O O1 0.333015 0.605084 0.684797
O O2 0.199995 0.703133 0.643461
O O3 0.000000 0.621930 0.500000
O O4 0.063911 0.627690 0.699900
O O5 0.075686 0.395597 0.197094
O O6 0.307047 0.376674 0.429547
O O7 0.149755 0.297629 0.302462
O O8 0.615142 0.500000 0.308341
O O9 0.337012 0.568960 0.185004
O O10 0.506523 0.557210 0.407273
O O11 0.412930 0.000000 0.846158
O O12 0.500000 0.077713 0.000000
O O13 0.750000 0.750000 0.500000
O O14 0.000000 0.786106 0.500000
#
# Coordination Sequence:
#
# PCOD8079315 Si02
#       6
#     8   8   8   8   4   8
#     4  11  21  33  47  84 120 145 174 214 275 339
#     4  11  20  32  56  79 109 144 182 223 273 323
#     4  10  20  33  52  76 109 142 175 222 274 328
#     4   9  21  41  61  79 102 142 195 235 266 315
#     4  10  17  30  48  78 106 138 173 216 268 336
#     4  11  19  31  51  79 116 149 177 212 263 334
#
# _framework density 17.142571
#
# number of rings (size 3 to 8) (size 9 to 14) (size 15 to 20)
#    0.000    1.636    6.364    0.273    2.545    1.818 
#    0.000    0.909    0.000    7.636    0.000    0.000 
#    0.000    0.000    0.000    0.000    0.000    0.000 
#
# Total GULP energy -272618.675252 kJ/mol
# GULP energy per Si atom -12391.757966 kJ/mol
# Density = 1.710355 g / cm^3
# Si number density = 17.142571 Si / 1000 Ang^3
#
#
#
# Elastic Constant Matrix: (Units=GPa)
#
#
# Indices 1 2 3 4 5 6 
#
# 1 119.2143 57.6827 44.0376 0.0000 -0.9649 0.0000
# 2 57.6827 103.5118 53.5045 0.0000 -5.5466 0.0000
# 3 44.0376 53.5045 100.9882 0.0000 2.4250 0.0000
# 4 0.0000 0.0000 0.0000 25.8242 0.0000 1.0100
# 5 -0.9649 -5.5466 2.4250 0.0000 18.0174 0.0000
# 6 0.0000 0.0000 0.0000 1.0100 0.0000 26.9059
#
#
#
# Elastic Compliance Matrix: (Units=1/GPa)
#
#
# Indices 1 2 3 4 5 6 
#
# 1 0.011871 -0.005493 -0.002248 0.000000 -0.000753 0.000000
# 2 -0.005493 0.016323 -0.006387 0.000000 0.005590 0.000000
# 3 -0.002248 -0.006387 0.014363 0.000000 -0.004020 0.000000
# 4 0.000000 0.000000 0.000000 0.038780 0.000000 -0.001456
# 5 -0.000753 0.005590 -0.004020 0.000000 0.057724 0.000000
# 6 0.000000 0.000000 0.000000 -0.001456 0.000000 0.037221
#
#
# Mechanical properties :
#
#
# Convention : Reuss Voigt Hill
#
# Bulk Modulus (GPa) = 69.92977 70.46267 70.19622
# Shear Modulus (GPa) = 23.88875 25.38214 24.63545
#
# Velocity S-wave (km/s) = 3.73706 3.85210 3.79501
# Velocity P-wave (km/s) = 7.71378 7.80884 7.76146
#
# Compressibility (1/GPa) = 0.01430006
#
# Stress axis : x y z
#
# Youngs Moduli (GPa) = 84.24231 61.26406 69.62523
#
# Poissons Ratio (x) = 0.33655 0.15650
# Poissons Ratio (y) = 0.46278 0.44468
# Poissons Ratio (z) = 0.18936 0.39128
#
# Static dielectric constant tensor:
#      x y z
#    x 4.845690 0.000000 0.444650 
#    y 0.000000 3.477310 0.000000 
#    z 0.444650 0.000000 2.960440 
# 
# 
# High freq. dielectric constant tensor:
#      x y z
#    x 1.669550 0.000000 0.010650 
#    y 0.000000 1.672080 0.000000 
#    z 0.010650 0.000000 1.619560 
# 
# From -- ./inp_files/122650.got.cif
#   From: 2010.06.25/outbox.cif.g09.slc.cpg/sg12_62_cif.got.tgz:122650.got - 2010.06.28 00:19:55.
