data_PCOD8079747
_publ_section_title
;
Structure prediction by ZEFSAII (Michael W. Deem and Ramdas Pophale) SiO2 
 PCOD8079747
Probable space group: C 2/M
;
_chemical_formula_sum "Si O2"
_cell_formula_units_Z 56
_cell_length_a 22.352348
_cell_length_b 15.171088
_cell_length_c 9.401015
_cell_angle_alpha 90.000000
_cell_angle_beta 122.718428
_cell_angle_gamma 90.000000
_cell_volume 2682.159511
_symmetry_space_group_name_H-M "C 2/M"
_symmetry_group_IT_number 12
_symmetry_cell_setting 'monoclinic'
loop_
_space_group_symop_operation_xyz
x,y,z
-x,y,-z
-x,-y,-z
x,-y,z
1/2+x,1/2+y,z
1/2-x,1/2+y,-z
1/2-x,1/2-y,-z
1/2+x,1/2-y,z
loop_
_atom_site_type_symbol
_atom_site_label
_atom_site_fract_x
_atom_site_fract_y
_atom_site_fract_z
Si Si1 0.180546 0.659097 0.123988
Si Si2 0.186188 0.142168 0.031785
Si Si3 0.844552 0.403675 0.210815
Si Si4 0.569006 0.780409 0.188518
Si Si5 0.082984 0.093142 0.135715
Si Si6 0.929284 0.259122 0.493977
Si Si7 0.665736 0.602147 0.683073
O O1 0.195020 0.756751 0.086218
O O2 0.127541 0.656338 0.191275
O O3 0.253815 0.614885 0.270480
O O4 0.146743 0.606732 0.948222
O O5 0.262084 0.096570 0.149332
O O6 0.126111 0.093206 0.044074
O O7 0.160536 0.133766 0.838173
O O8 0.875560 0.500000 0.290828
O O9 0.885202 0.328645 0.347047
O O10 0.602095 0.681514 0.244992
O O11 0.552425 0.805889 0.330309
O O12 0.500000 0.782780 0.000000
O O13 0.102498 0.000000 0.240232
O O14 0.000000 0.093707 0.000000
O O15 0.887423 0.167523 0.468557
O O16 0.000000 0.235172 0.500000
O O17 0.642997 0.500000 0.634579
#
# Coordination Sequence:
#
# PCOD8079747 Si02
#       7
#     8   8   8   8   8   8   8
#     4  10  18  39  68  92 126 164 206 254 309 368
#     4  10  17  35  63  93 124 166 207 253 307 369
#     4  11  21  39  67  96 124 161 207 259 313 370
#     4  10  23  40  64  88 119 170 211 253 319 374
#     4   9  18  31  53  86 124 163 210 253 293 363
#     4  12  26  43  63  91 130 165 211 263 312 370
#     4  11  22  38  64  97 130 166 207 254 312 375
#
# _framework density 20.878698
#
# number of rings (size 3 to 8) (size 9 to 14) (size 15 to 20)
#    0.000    1.571    2.857    4.286    4.000    1.714 
#    0.000    1.429    0.000    3.000    0.000    0.000 
#    0.000    0.000    0.000    0.000    0.000    0.000 
#
# Total GULP energy -347019.770425 kJ/mol
# GULP energy per Si atom -12393.563229 kJ/mol
# Density = 2.083118 g / cm^3
# Si number density = 20.878698 Si / 1000 Ang^3
#
#
#
# Elastic Constant Matrix: (Units=GPa)
#
#
# Indices 1 2 3 4 5 6 
#
# 1 125.4977 22.6091 53.7432 0.0000 -13.4887 0.0000
# 2 22.6091 107.6960 15.8375 0.0000 5.2469 0.0000
# 3 53.7432 15.8375 94.8830 0.0000 0.8605 0.0000
# 4 0.0000 0.0000 0.0000 1.5813 0.0000 -9.5894
# 5 -13.4887 5.2469 0.8605 0.0000 18.5714 0.0000
# 6 0.0000 0.0000 0.0000 -9.5894 0.0000 3.7358
#
#
#
# Elastic Compliance Matrix: (Units=1/GPa)
#
#
# Indices 1 2 3 4 5 6 
#
# 1 0.012257 -0.002067 -0.006686 0.000000 0.009796 0.000000
# 2 -0.002067 0.009997 -0.000459 0.000000 -0.004304 0.000000
# 3 -0.006686 -0.000459 0.014452 0.000000 -0.005396 0.000000
# 4 0.000000 0.000000 0.000000 -0.043415 0.000000 -0.111441
# 5 0.009796 -0.004304 -0.005396 0.000000 0.062428 0.000000
# 6 0.000000 0.000000 0.000000 -0.111441 0.000000 -0.018377
#
#
# Mechanical properties :
#
#
# Convention : Reuss Voigt Hill
#
# Bulk Modulus (GPa) = 54.70101 56.93958 55.82030
# Shear Modulus (GPa) = 80.82845 20.50351 50.66598
#
# Velocity S-wave (km/s) = 6.22876 3.13714 4.93148
# Velocity P-wave (km/s) = 8.83098 6.36027 7.69543
#
# Compressibility (1/GPa) = 0.01828120
#
# Stress axis : x y z
#
# Youngs Moduli (GPa) = 81.58637 100.03478 69.19445
#
# Poissons Ratio (x) = 0.20679 0.46266
# Poissons Ratio (y) = 0.16865 0.03174
# Poissons Ratio (z) = 0.54551 0.04588
#
# Static dielectric constant tensor:
#      x y z
#    x 4.007690 0.000000 -0.030820 
#    y 0.000000 4.087150 0.000000 
#    z -0.030820 0.000000 3.500030 
# 
# 
# High freq. dielectric constant tensor:
#      x y z
#    x 1.823290 0.000000 -0.003860 
#    y 0.000000 1.821140 0.000000 
#    z -0.003860 0.000000 1.790660 
# 
# From -- ./inp_files/96955.got.cif
#   From: 2010.06.25/outbox.cif.g09.slc.cpg/sg12_49_cif.got.tgz:96955.got - 2010.06.28 00:19:55.
