data_PCOD8079386
_publ_section_title
;
Structure prediction by ZEFSAII (Michael W. Deem and Ramdas Pophale) SiO2 
 PCOD8079386
Probable space group: C 2/M
;
_chemical_formula_sum "Si O2"
_cell_formula_units_Z 56
_cell_length_a 19.245171
_cell_length_b 9.002478
_cell_length_c 24.082082
_cell_angle_alpha 90.000000
_cell_angle_beta 48.031988
_cell_angle_gamma 90.000000
_cell_volume 3102.198088
_symmetry_space_group_name_H-M "C 2/M"
_symmetry_group_IT_number 12
_symmetry_cell_setting 'monoclinic'
loop_
_space_group_symop_operation_xyz
x,y,z
-x,y,-z
-x,-y,-z
x,-y,z
1/2+x,1/2+y,z
1/2-x,1/2+y,-z
1/2-x,1/2-y,-z
1/2+x,1/2-y,z
loop_
_atom_site_type_symbol
_atom_site_label
_atom_site_fract_x
_atom_site_fract_y
_atom_site_fract_z
Si Si1 0.183829 0.329394 0.202958
Si Si2 0.646096 0.675997 0.396149
Si Si3 0.508484 0.674242 0.695660
Si Si4 0.042774 0.173937 0.557159
Si Si5 0.696407 0.326469 0.755687
Si Si6 0.184883 0.669979 0.078091
Si Si7 0.026751 0.323991 0.797968
O O1 0.148541 0.500000 0.227871
O O2 0.098480 0.218718 0.258645
O O3 0.264377 0.291992 0.203962
O O4 0.224236 0.304827 0.119343
O O5 0.663133 0.500000 0.380588
O O6 0.625904 0.723437 0.471246
O O7 0.558370 0.737455 0.407230
O O8 0.737739 0.761345 0.327410
O O9 0.513458 0.500000 0.706275
O O10 0.565573 0.715862 0.608809
O O11 0.553322 0.765128 0.722302
O O12 0.030086 0.000000 0.556675
O O13 0.683940 0.500000 0.751897
O O14 0.595860 0.247408 0.806005
O O15 0.186327 0.500000 0.060221
O O16 0.078254 0.728826 0.131476
O O17 0.250000 0.750000 0.000000
O O18 0.036402 0.500000 0.792946
#
# Coordination Sequence:
#
# PCOD8079386 Si02
#       7
#     8   8   8   8   8   8   8
#     4   9  19  34  52  77 109 139 169 209 257 305
#     4   9  16  30  49  72 104 140 173 215 268 310
#     4  10  17  30  53  79 101 132 181 223 254 305
#     4   8  15  27  48  75 102 134 176 219 262 309
#     4  11  21  34  52  78 107 138 178 219 256 304
#     4   9  19  37  59  81 104 132 166 205 251 306
#     4  10  22  38  54  75 107 142 170 208 263 312
#
# _framework density 18.051715999999999
#
# number of rings (size 3 to 8) (size 9 to 14) (size 15 to 20)
#    0.000    2.571    1.429    3.000    0.000    3.429 
#    0.000    4.286    0.000    4.286    0.000    0.000 
#    0.000    0.000    0.000    0.000    0.000    0.000 
#
# Total GULP energy -347088.164091 kJ/mol
# GULP energy per Si atom -12396.005860 kJ/mol
# Density = 1.801063 g / cm^3
# Si number density = 18.051716 Si / 1000 Ang^3
#
#
#
# Elastic Constant Matrix: (Units=GPa)
#
#
# Indices 1 2 3 4 5 6 
#
# 1 105.2705 36.4715 44.4688 0.0000 0.9342 0.0000
# 2 36.4715 61.6437 32.7297 0.0000 1.1675 -0.0002
# 3 44.4688 32.7297 103.6985 0.0000 6.6688 0.0000
# 4 0.0000 0.0000 0.0000 28.3745 0.0000 0.2210
# 5 0.9342 1.1675 6.6688 0.0000 20.3643 0.0000
# 6 0.0000 -0.0002 0.0000 0.2210 0.0000 28.2003
#
#
#
# Elastic Compliance Matrix: (Units=1/GPa)
#
#
# Indices 1 2 3 4 5 6 
#
# 1 0.013110 -0.005714 -0.003883 0.000000 0.000998 0.000000
# 2 -0.005714 0.021995 -0.004523 0.000000 0.000482 0.000000
# 3 -0.003883 -0.004523 0.012981 0.000000 -0.003814 0.000000
# 4 0.000000 0.000000 0.000000 0.035245 0.000000 -0.000276
# 5 0.000998 0.000482 -0.003814 0.000000 0.050281 0.000000
# 6 0.000000 0.000000 0.000000 -0.000276 0.000000 0.035463
#
#
# Mechanical properties :
#
#
# Convention : Reuss Voigt Hill
#
# Bulk Modulus (GPa) = 50.38454 55.32805 52.85630
# Shear Modulus (GPa) = 24.51811 25.85066 25.18439
#
# Velocity S-wave (km/s) = 3.68940 3.78833 3.73919
# Velocity P-wave (km/s) = 6.79122 7.06056 6.92720
#
# Compressibility (1/GPa) = 0.01984736
#
# Stress axis : x y z
#
# Youngs Moduli (GPa) = 76.27577 45.46426 77.03481
#
# Poissons Ratio (x) = 0.25979 0.29911
# Poissons Ratio (y) = 0.43585 0.34842
# Poissons Ratio (z) = 0.29616 0.20563
#
# Static dielectric constant tensor:
#      x y z
#    x 3.347990 0.000000 0.196150 
#    y 0.000000 3.221500 0.000000 
#    z 0.196150 0.000000 3.373320 
# 
# 
# High freq. dielectric constant tensor:
#      x y z
#    x 1.688690 0.000000 0.015530 
#    y 0.000000 1.690570 0.000000 
#    z 0.015530 0.000000 1.688400 
# 
# From -- ./inp_files/280169.got.cif
#   From: 2010.06.25/outbox.cif.g09.slc.cpg/sg12_141_cif.got.tgz:280169.got - 2010.06.28 00:19:55.
