data_PCOD8079612
_publ_section_title
;
Structure prediction by ZEFSAII (Michael W. Deem and Ramdas Pophale) SiO2 
 PCOD8079612
Probable space group: C 2/M
;
_chemical_formula_sum "Si O2"
_cell_formula_units_Z 40
_cell_length_a 9.805686
_cell_length_b 28.186099
_cell_length_c 6.309549
_cell_angle_alpha 90.000000
_cell_angle_beta 103.727818
_cell_angle_gamma 90.000000
_cell_volume 1694.043584
_symmetry_space_group_name_H-M "C 2/M"
_symmetry_group_IT_number 12
_symmetry_cell_setting 'monoclinic'
loop_
_space_group_symop_operation_xyz
x,y,z
-x,y,-z
-x,-y,-z
x,-y,z
1/2+x,1/2+y,z
1/2-x,1/2+y,-z
1/2-x,1/2-y,-z
1/2+x,1/2-y,z
loop_
_atom_site_type_symbol
_atom_site_label
_atom_site_fract_x
_atom_site_fract_y
_atom_site_fract_z
Si Si1 0.345322 0.128388 0.374033
Si Si2 0.154342 0.554145 0.976496
Si Si3 0.748900 0.727892 0.266025
Si Si4 0.047249 0.802521 0.760621
Si Si5 0.361108 0.601828 0.342072
O O1 0.500000 0.113363 0.500000
O O2 0.348414 0.181570 0.282559
O O3 0.234195 0.129080 0.522398
O O4 0.296401 0.088656 0.190630
O O5 0.155141 0.500000 0.897103
O O6 0.269664 0.560142 0.204134
O O7 0.000000 0.568821 0.000000
O O8 0.750000 0.750000 0.500000
O O9 0.818668 0.768230 0.139425
O O10 0.589592 0.711001 0.143675
O O11 0.091766 0.857478 0.808751
O O12 0.000000 0.794800 0.500000
O O13 0.500000 0.578882 0.500000
#
# Coordination Sequence:
#
# PCOD8079612 Si02
#       5
#     8   8   8   8   8
#     4  12  22  39  72 100 130 185 222 267 344 407
#     4  11  27  47  68 100 134 170 232 291 335 405
#     4  10  17  32  60  99 131 174 220 263 322 397
#     4   9  17  31  57  92 133 170 211 264 321 386
#     4  11  22  44  68  98 139 175 218 279 342 395
#
# _framework density 23.612143
#
# number of rings (size 3 to 8) (size 9 to 14) (size 15 to 20)
#    0.000    1.400    8.000    1.800    0.000    2.400 
#    0.000    2.000    0.000    0.000    0.000    0.000 
#    0.000    0.000    0.000    0.000    0.000    0.000 
#
# Total GULP energy -248083.202929 kJ/mol
# GULP energy per Si atom -12404.160146 kJ/mol
# Density = 2.355840 g / cm^3
# Si number density = 23.612143 Si / 1000 Ang^3
#
#
#
# Elastic Constant Matrix: (Units=GPa)
#
#
# Indices 1 2 3 4 5 6 
#
# 1 146.8876 32.2319 43.4788 0.0000 11.4836 0.0000
# 2 32.2319 125.0633 36.9873 0.0000 -2.5516 0.0000
# 3 43.4788 36.9873 63.0111 0.0000 15.0279 0.0000
# 4 0.0000 0.0000 0.0000 25.2161 0.0000 3.1823
# 5 11.4836 -2.5516 15.0279 0.0000 55.2886 0.0000
# 6 0.0000 0.0000 0.0000 3.1823 0.0000 35.5789
#
#
#
# Elastic Compliance Matrix: (Units=1/GPa)
#
#
# Indices 1 2 3 4 5 6 
#
# 1 0.008592 -0.000593 -0.005506 0.000000 -0.000315 0.000000
# 2 -0.000593 0.009957 -0.005961 0.000000 0.002203 0.000000
# 3 -0.005506 -0.005961 0.024553 0.000000 -0.005805 0.000000
# 4 0.000000 0.000000 0.000000 0.040110 0.000000 -0.003588
# 5 -0.000315 0.002203 -0.005805 0.000000 0.019832 0.000000
# 6 0.000000 0.000000 0.000000 -0.003588 0.000000 0.028427
#
#
# Mechanical properties :
#
#
# Convention : Reuss Voigt Hill
#
# Bulk Modulus (GPa) = 52.67821 62.26202 57.47011
# Shear Modulus (GPa) = 30.87991 38.03431 34.45711
#
# Velocity S-wave (km/s) = 3.62027 4.01782 3.82422
# Velocity P-wave (km/s) = 6.31137 6.92458 6.62507
#
# Compressibility (1/GPa) = 0.01898318
#
# Stress axis : x y z
#
# Youngs Moduli (GPa) = 116.38280 100.43639 40.72837
#
# Poissons Ratio (x) = 0.05951 0.22424
# Poissons Ratio (y) = 0.06896 0.24278
# Poissons Ratio (z) = 0.64078 0.59870
#
# Static dielectric constant tensor:
#      x y z
#    x 4.876710 0.000000 0.098930 
#    y 0.000000 3.990810 0.000000 
#    z 0.098930 0.000000 4.235150 
# 
# 
# High freq. dielectric constant tensor:
#      x y z
#    x 1.955980 0.000000 0.009280 
#    y 0.000000 1.916250 0.000000 
#    z 0.009280 0.000000 1.956650 
# 
# From -- ./inp_files/8508.got.cif
#   From: 2010.06.25/outbox.cif.g09.slc.cpg/sg12_5_cif.got.tgz:8508.got - 2010.06.28 00:19:55.
