data_PCOD8079630
_publ_section_title
;
Structure prediction by ZEFSAII (Michael W. Deem and Ramdas Pophale) SiO2 
 PCOD8079630
Probable space group: C 2/M
;
_chemical_formula_sum "Si O2"
_cell_formula_units_Z 64
_cell_length_a 29.908654
_cell_length_b 14.406312
_cell_length_c 9.672975
_cell_angle_alpha 90.000000
_cell_angle_beta 56.159276
_cell_angle_gamma 90.000000
_cell_volume 3461.751215
_symmetry_space_group_name_H-M "C 2/M"
_symmetry_group_IT_number 12
_symmetry_cell_setting 'monoclinic'
loop_
_space_group_symop_operation_xyz
x,y,z
-x,y,-z
-x,-y,-z
x,-y,z
1/2+x,1/2+y,z
1/2-x,1/2+y,-z
1/2-x,1/2-y,-z
1/2+x,1/2-y,z
loop_
_atom_site_type_symbol
_atom_site_label
_atom_site_fract_x
_atom_site_fract_y
_atom_site_fract_z
Si Si1 0.404503 0.391967 0.353156
Si Si2 0.039472 0.677270 0.321515
Si Si3 0.135492 0.603957 0.993009
Si Si4 0.188560 0.101917 0.962064
Si Si5 0.010527 0.205622 0.132835
Si Si6 0.709573 0.832076 0.102742
Si Si7 0.126642 0.790316 0.859868
Si Si8 0.123741 0.200008 0.314250
O O1 0.390742 0.500000 0.349505
O O2 0.469047 0.378906 0.229459
O O3 0.374023 0.323282 0.297954
O O4 0.384082 0.362570 0.538194
O O5 0.083431 0.607604 0.183382
O O6 0.001508 0.715698 0.263581
O O7 0.067066 0.765942 0.349497
O O8 0.000000 0.626661 0.500000
O O9 0.139792 0.500000 0.923469
O O10 0.187668 0.624669 0.997114
O O11 0.129905 0.678080 0.876497
O O12 0.155247 0.138547 0.149434
O O13 0.167607 0.000000 0.962706
O O14 0.253180 0.095539 0.878153
O O15 0.178013 0.166103 0.847153
O O16 0.072597 0.171061 0.029224
O O17 0.000000 0.250989 0.000000
O O18 0.660215 0.792240 0.280386
O O19 0.750000 0.750000 0.000000
#
# Coordination Sequence:
#
# PCOD8079630 Si02
#       8
#     8   8   8   8   8   8   8   8
#     4  11  22  34  52  80 114 149 178 215 270 331
#     4  10  17  33  53  78 109 142 178 224 275 311
#     4  10  19  34  58  81 104 138 187 228 268 322
#     4  11  19  32  57  82 106 137 178 221 266 328
#     4   9  18  32  51  74 107 151 179 210 259 320
#     4   9  17  34  56  80 105 134 174 221 276 314
#     4  10  20  36  52  78 109 145 179 223 267 312
#     4  10  19  34  52  79 110 143 177 219 271 322
#
# _framework density 18.487753000000001
#
# number of rings (size 3 to 8) (size 9 to 14) (size 15 to 20)
#    0.000    2.000    6.250    1.125    0.000    3.000 
#    0.000    1.250    0.000   27.750    0.000    0.000 
#    0.000    0.000    0.000    0.000    0.000    0.000 
#
# Total GULP energy -396493.103203 kJ/mol
# GULP energy per Si atom -12390.409475 kJ/mol
# Density = 1.844567 g / cm^3
# Si number density = 18.487753 Si / 1000 Ang^3
#
#
#
# Elastic Constant Matrix: (Units=GPa)
#
#
# Indices 1 2 3 4 5 6 
#
# 1 92.2457 35.9448 24.0862 0.0000 7.6649 0.0000
# 2 35.9448 115.1172 23.2522 0.0000 9.7799 0.0000
# 3 24.0862 23.2522 54.9226 0.0000 12.5376 0.0000
# 4 0.0000 0.0000 0.0000 17.6562 0.0000 2.3499
# 5 7.6649 9.7799 12.5376 0.0000 21.2495 0.0000
# 6 0.0000 0.0000 0.0000 2.3499 0.0000 20.4721
#
#
#
# Elastic Compliance Matrix: (Units=1/GPa)
#
#
# Indices 1 2 3 4 5 6 
#
# 1 0.013276 -0.003214 -0.004283 0.000000 -0.000783 0.000000
# 2 -0.003214 0.010376 -0.002494 0.000000 -0.002145 0.000000
# 3 -0.004283 -0.002494 0.023722 0.000000 -0.011304 0.000000
# 4 0.000000 0.000000 0.000000 0.057516 0.000000 -0.006602
# 5 -0.000783 -0.002145 -0.011304 0.000000 0.054999 0.000000
# 6 0.000000 0.000000 0.000000 -0.006602 0.000000 0.049605
#
#
# Mechanical properties :
#
#
# Convention : Reuss Voigt Hill
#
# Bulk Modulus (GPa) = 36.50555 47.65018 42.07787
# Shear Modulus (GPa) = 20.95500 23.80905 22.38203
#
# Velocity S-wave (km/s) = 3.37033 3.59253 3.48320
# Velocity P-wave (km/s) = 5.91051 6.56035 6.24389
#
# Compressibility (1/GPa) = 0.02739309
#
# Stress axis : x y z
#
# Youngs Moduli (GPa) = 75.32222 96.37391 42.15503
#
# Poissons Ratio (x) = 0.30973 0.18055
# Poissons Ratio (y) = 0.24207 0.10513
# Poissons Ratio (z) = 0.32260 0.24034
#
# Static dielectric constant tensor:
#      x y z
#    x 4.003950 0.000000 -0.133170 
#    y 0.000000 3.438540 0.000000 
#    z -0.133170 0.000000 3.270100 
# 
# 
# High freq. dielectric constant tensor:
#      x y z
#    x 1.730040 0.000000 0.000020 
#    y 0.000000 1.694020 0.000000 
#    z 0.000020 0.000000 1.689760 
# 
# From -- ./inp_files/111628.got.cif
#   From: 2010.06.25/outbox.cif.g09.slc.cpg/sg12_56_cif.got.tgz:111628.got - 2010.06.28 00:19:55.
