data_PCOD8079558
_publ_section_title
;
Structure prediction by ZEFSAII (Michael W. Deem and Ramdas Pophale) SiO2 
 PCOD8079558
Probable space group: C 2/M
;
_chemical_formula_sum "Si O2"
_cell_formula_units_Z 56
_cell_length_a 10.092779
_cell_length_b 30.934364
_cell_length_c 13.191075
_cell_angle_alpha 90.000000
_cell_angle_beta 54.861216
_cell_angle_gamma 90.000000
_cell_volume 3367.892105
_symmetry_space_group_name_H-M "C 2/M"
_symmetry_group_IT_number 12
_symmetry_cell_setting 'monoclinic'
loop_
_space_group_symop_operation_xyz
x,y,z
-x,y,-z
-x,-y,-z
x,-y,z
1/2+x,1/2+y,z
1/2-x,1/2+y,-z
1/2-x,1/2-y,-z
1/2+x,1/2-y,z
loop_
_atom_site_type_symbol
_atom_site_label
_atom_site_fract_x
_atom_site_fract_y
_atom_site_fract_z
Si Si1 0.154261 0.209605 0.496953
Si Si2 0.419873 0.500000 0.928282
Si Si3 0.457130 0.093092 0.901945
Si Si4 0.043706 0.500000 0.096916
Si Si5 0.075607 0.905856 0.077405
Si Si6 0.059186 0.246131 0.082008
Si Si7 0.851224 0.327049 0.231541
Si Si8 0.466910 0.329415 0.756061
O O1 0.250000 0.250000 0.500000
O O2 0.276740 0.183487 0.372763
O O3 0.094768 0.175274 0.607951
O O4 0.000000 0.226844 0.500000
O O5 0.465495 0.453818 0.856289
O O6 0.500000 0.500000 0.000000
O O7 0.232203 0.500000 0.029802
O O8 0.555368 0.127991 0.794232
O O9 0.517445 0.045978 0.831150
O O10 0.500000 0.098215 0.000000
O O11 0.266148 0.100595 0.975788
O O12 0.000000 0.500000 0.000000
O O13 0.002062 0.872178 0.190757
O O14 0.000000 0.898796 0.000000
O O15 0.981657 0.292208 0.139036
O O16 0.000377 0.212602 0.191340
O O17 0.250000 0.250000 0.000000
O O18 0.000000 0.228470 0.000000
O O19 0.715949 0.330416 0.204275
#
# Coordination Sequence:
#
# PCOD8079558 Si02
#       8
#     8   4   8   4   8   8   8   8
#     4  10  22  40  56  69  92 140 182 213 253 297
#     4   8  16  30  50  73 109 139 159 198 252 311
#     4  10  17  32  53  75 109 132 164 206 255 306
#     4   8  16  26  48  79  97 135 167 192 244 312
#     4  10  19  33  52  82 109 134 167 206 258 307
#     4  12  22  32  50  73 100 130 161 204 264 306
#     4  11  21  36  53  72 102 136 169 213 257 296
#     4  11  21  36  53  73 102 132 174 214 248 308
#
# _framework density 16.627611000000002
#
# number of rings (size 3 to 8) (size 9 to 14) (size 15 to 20)
#    0.000    1.714    4.286    1.714    0.000    0.000 
#    2.571    0.000    0.000    0.857    0.000    3.000 
#    0.000    6.857    0.000    0.000    0.000    0.000 
#
# Total GULP energy -346973.628203 kJ/mol
# GULP energy per Si atom -12391.915293 kJ/mol
# Density = 1.658977 g / cm^3
# Si number density = 16.627611 Si / 1000 Ang^3
#
#
#
# Elastic Constant Matrix: (Units=GPa)
#
#
# Indices 1 2 3 4 5 6 
#
# 1 110.1860 37.9575 38.8480 0.0000 0.7749 0.0000
# 2 37.9575 143.5600 48.7909 0.0000 4.7102 0.0000
# 3 38.8480 48.7909 84.9615 0.0000 3.2553 0.0000
# 4 0.0000 0.0000 0.0000 11.1019 0.0000 -1.1322
# 5 0.7749 4.7102 3.2553 0.0000 20.2908 0.0000
# 6 0.0000 0.0000 0.0000 -1.1322 0.0000 19.4067
#
#
#
# Elastic Compliance Matrix: (Units=1/GPa)
#
#
# Indices 1 2 3 4 5 6 
#
# 1 0.011081 -0.001516 -0.004220 0.000000 0.000606 0.000000
# 2 -0.001516 0.008892 -0.004364 0.000000 -0.001306 0.000000
# 3 -0.004220 -0.004364 0.016260 0.000000 -0.001435 0.000000
# 4 0.000000 0.000000 0.000000 0.090614 0.000000 0.005286
# 5 0.000606 -0.001306 -0.001435 0.000000 0.049794 0.000000
# 6 0.000000 0.000000 0.000000 0.005286 0.000000 0.051837
#
#
# Mechanical properties :
#
#
# Convention : Reuss Voigt Hill
#
# Bulk Modulus (GPa) = 62.35906 65.54446 63.95176
# Shear Modulus (GPa) = 19.68339 24.36728 22.02533
#
# Velocity S-wave (km/s) = 3.44434 3.83230 3.64349
# Velocity P-wave (km/s) = 7.30772 7.68678 7.49965
#
# Compressibility (1/GPa) = 0.01603616
#
# Stress axis : x y z
#
# Youngs Moduli (GPa) = 90.24369 112.45631 61.49979
#
# Poissons Ratio (x) = 0.17045 0.25950
# Poissons Ratio (y) = 0.13678 0.26836
# Poissons Ratio (z) = 0.38079 0.49071
#
# Static dielectric constant tensor:
#      x y z
#    x 3.862330 0.000000 0.018930 
#    y 0.000000 3.674220 0.000000 
#    z 0.018930 0.000000 2.927540 
# 
# 
# High freq. dielectric constant tensor:
#      x y z
#    x 1.659340 0.000000 -0.001150 
#    y 0.000000 1.653850 0.000000 
#    z -0.001150 0.000000 1.601760 
# 
# From -- ./inp_files/200548.got.cif
#   From: 2010.06.25/outbox.cif.g09.slc.cpg/sg12_101_cif.got.tgz:200548.got - 2010.06.28 00:19:55.
