data_PCOD8079406
_publ_section_title
;
Structure prediction by ZEFSAII (Michael W. Deem and Ramdas Pophale) SiO2 
 PCOD8079406
Probable space group: C 2/M
;
_chemical_formula_sum "Si O2"
_cell_formula_units_Z 60
_cell_length_a 26.697793
_cell_length_b 13.086246
_cell_length_c 12.217213
_cell_angle_alpha 90.000000
_cell_angle_beta 55.099788
_cell_angle_gamma 90.000000
_cell_volume 3500.706885
_symmetry_space_group_name_H-M "C 2/M"
_symmetry_group_IT_number 12
_symmetry_cell_setting 'monoclinic'
loop_
_space_group_symop_operation_xyz
x,y,z
-x,y,-z
-x,-y,-z
x,-y,z
1/2+x,1/2+y,z
1/2-x,1/2+y,-z
1/2-x,1/2-y,-z
1/2+x,1/2-y,z
loop_
_atom_site_type_symbol
_atom_site_label
_atom_site_fract_x
_atom_site_fract_y
_atom_site_fract_z
Si Si1 0.126660 0.883862 0.771944
Si Si2 0.447893 0.885440 0.654574
Si Si3 0.651455 0.617375 0.105633
Si Si4 0.027518 0.772920 0.202371
Si Si5 0.500000 0.690084 0.000000
Si Si6 0.907826 0.121618 0.419182
Si Si7 0.344401 0.745332 0.690610
Si Si8 0.730780 0.618521 0.798056
O O1 0.060052 0.878672 0.910721
O O2 0.125860 0.839530 0.649697
O O3 0.179326 0.833947 0.780755
O O4 0.145496 0.000000 0.741281
O O5 0.500000 0.882585 0.500000
O O6 0.471988 0.834224 0.735496
O O7 0.389603 0.829269 0.680614
O O8 0.428507 0.000000 0.708591
O O9 0.634891 0.500000 0.150350
O O10 0.592264 0.671237 0.128661
O O11 0.674907 0.669677 0.187658
O O12 0.706826 0.626041 0.951606
O O13 0.978820 0.847934 0.321128
O O14 0.010136 0.744598 0.098309
O O15 0.876211 0.177652 0.558710
O O16 0.903632 0.000000 0.440331
O O17 0.287741 0.806465 0.711140
O O18 0.747925 0.500000 0.750338
#
# Coordination Sequence:
#
# PCOD8079406 Si02
#       8
#     8   8   8   8   4   8   8   8
#     4   9  18  31  51  78 107 137 170 211 256 311
#     4  10  20  36  53  73 101 137 180 220 250 296
#     4  10  20  33  52  78 108 136 169 213 264 315
#     4  10  19  33  54  84 106 135 166 213 267 315
#     4  10  17  30  55  80 108 132 168 206 264 312
#     4  10  20  33  51  80 111 136 168 211 266 318
#     4  11  21  34  52  75 105 143 176 213 260 308
#     4  10  20  35  52  76 102 137 180 217 252 305
#
# _framework density 17.139396000000001
#
# number of rings (size 3 to 8) (size 9 to 14) (size 15 to 20)
#    0.000    2.000    2.667    1.800    0.000    1.600 
#    0.000    2.333    0.000    0.800    0.000    0.933 
#    0.000    0.000    0.000    0.000    0.000    0.000 
#
# Total GULP energy -371884.374356 kJ/mol
# GULP energy per Si atom -12396.145812 kJ/mol
# Density = 1.710039 g / cm^3
# Si number density = 17.139396 Si / 1000 Ang^3
#
#
#
# Elastic Constant Matrix: (Units=GPa)
#
#
# Indices 1 2 3 4 5 6 
#
# 1 93.2604 33.3251 30.5458 0.0000 9.2699 0.0000
# 2 33.3251 94.0799 35.5836 0.0000 10.3064 0.0000
# 3 30.5458 35.5836 63.6001 0.0000 7.6571 0.0000
# 4 0.0000 0.0000 0.0000 12.0365 0.0000 -1.2707
# 5 9.2699 10.3064 7.6571 0.0000 26.0349 0.0000
# 6 0.0000 0.0000 0.0000 -1.2707 0.0000 25.1604
#
#
#
# Elastic Compliance Matrix: (Units=1/GPa)
#
#
# Indices 1 2 3 4 5 6 
#
# 1 0.013460 -0.002757 -0.004641 0.000000 -0.002336 0.000000
# 2 -0.002757 0.014315 -0.006346 0.000000 -0.002819 0.000000
# 3 -0.004641 -0.006346 0.021772 0.000000 -0.002239 0.000000
# 4 0.000000 0.000000 0.000000 0.083526 0.000000 0.004218
# 5 -0.002336 -0.002819 -0.002239 0.000000 0.041016 0.000000
# 6 0.000000 0.000000 0.000000 0.004218 0.000000 0.039958
#
#
# Mechanical properties :
#
#
# Convention : Reuss Voigt Hill
#
# Bulk Modulus (GPa) = 45.33014 49.98328 47.65671
# Shear Modulus (GPa) = 20.08950 22.74543 21.41747
#
# Velocity S-wave (km/s) = 3.42734 3.64687 3.53881
# Velocity P-wave (km/s) = 6.49366 6.85266 6.67557
#
# Compressibility (1/GPa) = 0.02206038
#
# Stress axis : x y z
#
# Youngs Moduli (GPa) = 74.29443 69.85891 45.93045
#
# Poissons Ratio (x) = 0.19257 0.21316
# Poissons Ratio (y) = 0.20479 0.29146
# Poissons Ratio (z) = 0.34480 0.44330
#
# Static dielectric constant tensor:
#      x y z
#    x 3.427950 0.000000 0.162280 
#    y 0.000000 3.116740 0.000000 
#    z 0.162280 0.000000 3.171010 
# 
# 
# High freq. dielectric constant tensor:
#      x y z
#    x 1.669670 0.000000 0.007050 
#    y 0.000000 1.641450 0.000000 
#    z 0.007050 0.000000 1.663430 
# 
# From -- ./inp_files/176464.got.cif
#   From: 2010.06.25/outbox.cif.g09.slc.cpg/sg12_89_cif.got.tgz:176464.got - 2010.06.28 00:19:55.
