data_PCOD8079338
_publ_section_title
;
Structure prediction by ZEFSAII (Michael W. Deem and Ramdas Pophale) SiO2 
 PCOD8079338
Probable space group: C 2/M
;
_chemical_formula_sum "Si O2"
_cell_formula_units_Z 56
_cell_length_a 23.164710
_cell_length_b 7.789085
_cell_length_c 20.429463
_cell_angle_alpha 90.000000
_cell_angle_beta 125.006824
_cell_angle_gamma 90.000000
_cell_volume 3019.246409
_symmetry_space_group_name_H-M "C 2/M"
_symmetry_group_IT_number 12
_symmetry_cell_setting 'monoclinic'
loop_
_space_group_symop_operation_xyz
x,y,z
-x,y,-z
-x,-y,-z
x,-y,z
1/2+x,1/2+y,z
1/2-x,1/2+y,-z
1/2-x,1/2-y,-z
1/2+x,1/2-y,z
loop_
_atom_site_type_symbol
_atom_site_label
_atom_site_fract_x
_atom_site_fract_y
_atom_site_fract_z
Si Si1 0.457413 0.804988 0.175985
Si Si2 0.517766 0.798659 0.663019
Si Si3 0.196087 0.198513 0.909811
Si Si4 0.518435 0.500000 0.905758
Si Si5 0.222460 0.305737 0.168333
Si Si6 0.115289 0.000000 0.088926
Si Si7 0.068085 0.198901 0.506156
Si Si8 0.347266 0.195732 0.326875
O O1 0.487690 0.738123 0.265425
O O2 0.373130 0.811751 0.125846
O O3 0.483534 0.673432 0.138100
O O4 0.483038 0.000000 0.176393
O O5 0.445412 0.741445 0.579142
O O6 0.587688 0.720937 0.672838
O O7 0.525303 0.000000 0.664879
O O8 0.230514 0.244115 0.863239
O O9 0.174388 0.000000 0.901127
O O10 0.250000 0.250000 0.000000
O O11 0.449598 0.500000 0.904560
O O12 0.588564 0.500000 0.996412
O O13 0.192099 0.500000 0.143364
O O14 0.158586 0.172842 0.131647
O O15 0.274500 0.294617 0.264638
O O16 0.135628 0.289368 0.583964
O O17 0.000000 0.271097 0.500000
O O18 0.079245 0.000000 0.524076
O O19 0.334901 0.000000 0.298925
#
# Coordination Sequence:
#
# PCOD8079338 Si02
#       8
#     8   8   8   4   8   4   8   8
#     4  11  22  37  59  87 118 152 192 241 292 348
#     4   9  18  30  48  77 116 157 190 228 283 347
#     4  11  22  33  53  84 119 151 185 232 292 357
#     4  11  26  46  64  84 111 154 205 247 288 347
#     4  11  23  37  58  87 117 152 194 240 292 350
#     4  11  26  46  64  82 113 154 203 249 290 339
#     4   9  17  26  42  71 114 159 193 226 270 338
#     4  10  17  30  50  76 118 158 190 229 281 348
#
# _framework density 18.547673
#
# number of rings (size 3 to 8) (size 9 to 14) (size 15 to 20)
#    0.000    1.714    2.857    2.143    3.000    4.571 
#    0.000    1.429    0.000    0.000    0.000    1.000 
#    0.000    0.000    0.000    0.000    0.000    0.000 
#
# Total GULP energy -347148.287190 kJ/mol
# GULP energy per Si atom -12398.153114 kJ/mol
# Density = 1.850546 g / cm^3
# Si number density = 18.547673 Si / 1000 Ang^3
#
#
#
# Elastic Constant Matrix: (Units=GPa)
#
#
# Indices 1 2 3 4 5 6 
#
# 1 45.8489 28.1051 29.7376 0.0000 -4.7744 0.0000
# 2 28.1051 82.0050 37.2541 0.0000 -3.9879 0.0000
# 3 29.7376 37.2541 151.9969 0.0000 -11.3761 0.0000
# 4 0.0000 0.0000 0.0000 29.8920 0.0000 -2.3137
# 5 -4.7744 -3.9879 -11.3761 0.0000 15.0292 0.0000
# 6 0.0000 0.0000 0.0000 -2.3137 0.0000 22.2597
#
#
#
# Elastic Compliance Matrix: (Units=1/GPa)
#
#
# Indices 1 2 3 4 5 6 
#
# 1 0.029638 -0.008390 -0.003397 0.000000 0.004618 0.000000
# 2 -0.008390 0.016117 -0.002319 0.000000 -0.000144 0.000000
# 3 -0.003397 -0.002319 0.008147 0.000000 0.004472 0.000000
# 4 0.000000 0.000000 0.000000 0.033725 0.000000 0.003505
# 5 0.004618 -0.000144 0.004472 0.000000 0.071351 0.000000
# 6 0.000000 0.000000 0.000000 0.003505 0.000000 0.045289
#
#
# Mechanical properties :
#
#
# Convention : Reuss Voigt Hill
#
# Bulk Modulus (GPa) = 38.92707 52.22715 45.57711
# Shear Modulus (GPa) = 20.74342 25.75311 23.24827
#
# Velocity S-wave (km/s) = 3.34785 3.73028 3.54423
# Velocity P-wave (km/s) = 5.99811 6.83906 6.43234
#
# Compressibility (1/GPa) = 0.02568906
#
# Stress axis : x y z
#
# Youngs Moduli (GPa) = 33.74090 62.04819 122.74750
#
# Poissons Ratio (x) = 0.52058 0.41691
# Poissons Ratio (y) = 0.28308 0.28471
# Poissons Ratio (z) = 0.11460 0.14392
#
# Static dielectric constant tensor:
#      x y z
#    x 2.877520 0.000000 -0.122670 
#    y 0.000000 3.436100 0.000000 
#    z -0.122670 0.000000 3.811820 
# 
# 
# High freq. dielectric constant tensor:
#      x y z
#    x 1.645430 0.000000 -0.005480 
#    y 0.000000 1.731520 0.000000 
#    z -0.005480 0.000000 1.745220 
# 
# From -- ./inp_files/323840.got.cif
#   From: 2010.06.25/outbox.cif.g09.slc.cpg/sg12_162_cif.got.tgz:323840.got - 2010.06.28 00:19:55.
