data_PCOD8079596
_publ_section_title
;
Structure prediction by ZEFSAII (Michael W. Deem and Ramdas Pophale) SiO2 
 PCOD8079596
Probable space group: C 2/M
;
_chemical_formula_sum "Si O2"
_cell_formula_units_Z 64
_cell_length_a 22.496649
_cell_length_b 16.857550
_cell_length_c 11.493159
_cell_angle_alpha 90.000000
_cell_angle_beta 50.710857
_cell_angle_gamma 90.000000
_cell_volume 3373.419419
_symmetry_space_group_name_H-M "C 2/M"
_symmetry_group_IT_number 12
_symmetry_cell_setting 'monoclinic'
loop_
_space_group_symop_operation_xyz
x,y,z
-x,y,-z
-x,-y,-z
x,-y,z
1/2+x,1/2+y,z
1/2-x,1/2+y,-z
1/2-x,1/2-y,-z
1/2+x,1/2-y,z
loop_
_atom_site_type_symbol
_atom_site_label
_atom_site_fract_x
_atom_site_fract_y
_atom_site_fract_z
Si Si1 0.745189 0.196433 0.174886
Si Si2 0.569511 0.090205 0.831833
Si Si3 0.781121 0.702371 0.347411
Si Si4 0.513006 0.302880 0.614261
Si Si5 0.513265 0.866894 0.663103
Si Si6 0.655941 0.590878 0.398571
Si Si7 0.343800 0.665172 0.839119
Si Si8 0.613473 0.087905 0.331624
O O1 0.789357 0.236253 0.228883
O O2 0.687450 0.255964 0.182477
O O3 0.690110 0.127523 0.288100
O O4 0.801864 0.153423 0.013692
O O5 0.638129 0.155274 0.740885
O O6 0.528545 0.084045 0.758959
O O7 0.597726 0.000000 0.830206
O O8 0.500000 0.119732 0.000000
O O9 0.750000 0.750000 0.500000
O O10 0.719990 0.635288 0.392885
O O11 0.500000 0.271285 0.500000
O O12 0.541666 0.224397 0.646730
O O13 0.574486 0.373009 0.539292
O O14 0.432976 0.333545 0.764674
O O15 0.422923 0.867578 0.737044
O O16 0.555809 0.914340 0.510027
O O17 0.656951 0.500000 0.434683
O O18 0.669045 0.596813 0.242419
O O19 0.634193 0.000000 0.265071
#
# Coordination Sequence:
#
# PCOD8079596 Si02
#       8
#     8   8   8   8   8   8   8   8
#     4  10  20  36  54  84 115 149 195 235 297 355
#     4  11  25  40  57  87 123 158 199 250 303 355
#     4  11  23  41  62  84 116 165 212 248 284 355
#     4  10  17  32  57  84 111 146 186 237 285 352
#     4  11  19  35  57  81 115 149 191 236 287 353
#     4  10  21  36  58  86 115 151 194 247 303 351
#     4   9  19  33  55  81 113 148 183 238 293 357
#     4  11  20  32  55  85 113 142 179 235 300 351
#
# _framework density 18.971848000000001
#
# number of rings (size 3 to 8) (size 9 to 14) (size 15 to 20)
#    0.000    1.625    2.500    4.875    1.750    3.750 
#    0.000    0.625    0.000    0.000    0.000    0.875 
#    0.000    0.000    0.000    0.000    0.000    0.000 
#
# Total GULP energy -396513.578628 kJ/mol
# GULP energy per Si atom -12391.049332 kJ/mol
# Density = 1.892867 g / cm^3
# Si number density = 18.971848 Si / 1000 Ang^3
#
#
#
# Elastic Constant Matrix: (Units=GPa)
#
#
# Indices 1 2 3 4 5 6 
#
# 1 91.4422 38.1498 51.3934 0.0000 -1.3271 0.0000
# 2 38.1498 112.3788 40.4520 0.0000 -4.0795 0.0000
# 3 51.3934 40.4520 95.5601 0.0000 -6.3740 0.0000
# 4 0.0000 0.0000 0.0000 9.5281 0.0000 2.0104
# 5 -1.3271 -4.0795 -6.3740 0.0000 26.6278 0.0000
# 6 0.0000 0.0000 0.0000 2.0104 0.0000 23.4083
#
#
#
# Elastic Compliance Matrix: (Units=1/GPa)
#
#
# Indices 1 2 3 4 5 6 
#
# 1 0.016455 -0.002853 -0.007740 0.000000 -0.001470 0.000000
# 2 -0.002853 0.011001 -0.003068 0.000000 0.000809 0.000000
# 3 -0.007740 -0.003068 0.016127 0.000000 0.003004 0.000000
# 4 0.000000 0.000000 0.000000 0.106889 0.000000 -0.009180
# 5 -0.001470 0.000809 0.003004 0.000000 0.038325 0.000000
# 6 0.000000 0.000000 0.000000 -0.009180 0.000000 0.043508
#
#
# Mechanical properties :
#
#
# Convention : Reuss Voigt Hill
#
# Bulk Modulus (GPa) = 61.50329 62.15238 61.82784
# Shear Modulus (GPa) = 18.86454 23.20525 21.03490
#
# Velocity S-wave (km/s) = 3.15674 3.50114 3.33339
# Velocity P-wave (km/s) = 6.76574 7.01252 6.89023
#
# Compressibility (1/GPa) = 0.01625929
#
# Stress axis : x y z
#
# Youngs Moduli (GPa) = 60.77170 90.90112 62.00971
#
# Poissons Ratio (x) = 0.25937 0.47995
# Poissons Ratio (y) = 0.17340 0.19027
# Poissons Ratio (z) = 0.47037 0.27892
#
# Static dielectric constant tensor:
#      x y z
#    x 3.639750 0.000000 -0.123570 
#    y 0.000000 3.334920 0.000000 
#    z -0.123570 0.000000 3.535430 
# 
# 
# High freq. dielectric constant tensor:
#      x y z
#    x 1.725620 0.000000 -0.009810 
#    y 0.000000 1.731540 0.000000 
#    z -0.009810 0.000000 1.729970 
# 
# From -- ./inp_files/168782.got.cif
#   From: 2010.06.25/outbox.cif.g09.slc.cpg/sg12_85_cif.got.tgz:168782.got - 2010.06.28 00:19:55.
