data_PCOD8079263
_publ_section_title
;
Structure prediction by ZEFSAII (Michael W. Deem and Ramdas Pophale) SiO2 
 PCOD8079263
Probable space group: C 2/M
;
_chemical_formula_sum "Si O2"
_cell_formula_units_Z 52
_cell_length_a 32.972997
_cell_length_b 14.395640
_cell_length_c 8.832431
_cell_angle_alpha 90.000000
_cell_angle_beta 139.211068
_cell_angle_gamma 90.000000
_cell_volume 2738.831206
_symmetry_space_group_name_H-M "C 2/M"
_symmetry_group_IT_number 12
_symmetry_cell_setting 'monoclinic'
loop_
_space_group_symop_operation_xyz
x,y,z
-x,y,-z
-x,-y,-z
x,-y,z
1/2+x,1/2+y,z
1/2-x,1/2+y,-z
1/2-x,1/2-y,-z
1/2+x,1/2-y,z
loop_
_atom_site_type_symbol
_atom_site_label
_atom_site_fract_x
_atom_site_fract_y
_atom_site_fract_z
Si Si1 0.196361 0.291625 0.105280
Si Si2 0.801588 0.104893 0.248195
Si Si3 0.407389 0.107294 0.024988
Si Si4 0.392487 0.104107 0.644574
Si Si5 0.747732 0.601797 0.223464
Si Si6 0.394985 0.747459 0.409475
Si Si7 0.500000 0.212995 0.500000
O O1 0.262027 0.343178 0.265906
O O2 0.208417 0.184456 0.190303
O O3 0.157897 0.341042 0.128405
O O4 0.158562 0.295736 0.841206
O O5 0.868170 0.155397 0.413848
O O6 0.815376 0.000000 0.339637
O O7 0.761641 0.107636 0.982770
O O8 0.462235 0.147222 0.280958
O O9 0.397565 0.000000 0.038296
O O10 0.424975 0.120736 0.898665
O O11 0.319354 0.116924 0.461331
O O12 0.418725 0.178150 0.599811
O O13 0.407619 0.000000 0.628116
O O14 0.725504 0.500000 0.220290
O O15 0.453488 0.722062 0.466497
#
# Coordination Sequence:
#
# PCOD8079263 Si02
#       7
#     8   8   8   8   8   8   4
#     4  10  17  31  53  78 106 139 169 205 248 303
#     4  10  17  29  53  81 105 135 170 205 251 307
#     4  10  22  35  50  77 107 135 170 209 256 306
#     4  10  19  32  51  76 106 137 166 206 257 306
#     4   9  16  28  48  77 109 138 167 201 246 301
#     4  10  19  35  52  76 101 136 175 213 249 301
#     4  10  23  38  55  68 100 136 177 216 257 296
#
# _framework density 18.986201000000001
#
# number of rings (size 3 to 8) (size 9 to 14) (size 15 to 20)
#    0.000    2.154    3.077    1.615    0.000    4.308 
#    0.000    1.923    0.000    0.923    0.000    1.077 
#    0.000    0.000    0.000    0.000    0.000    0.000 
#
# Total GULP energy -322345.235421 kJ/mol
# GULP energy per Si atom -12397.893670 kJ/mol
# Density = 1.894299 g / cm^3
# Si number density = 18.986201 Si / 1000 Ang^3
#
#
#
# Elastic Constant Matrix: (Units=GPa)
#
#
# Indices 1 2 3 4 5 6 
#
# 1 88.7169 50.0369 24.4202 0.0000 20.5796 0.0000
# 2 50.0369 111.1443 24.4642 0.0000 12.3897 0.0000
# 3 24.4202 24.4642 57.1861 0.0000 2.7120 0.0000
# 4 0.0000 0.0000 0.0000 14.6827 0.0000 -1.4968
# 5 20.5796 12.3897 2.7120 0.0000 24.4699 0.0000
# 6 0.0000 0.0000 0.0000 -1.4968 0.0000 22.8482
#
#
#
# Elastic Compliance Matrix: (Units=1/GPa)
#
#
# Indices 1 2 3 4 5 6 
#
# 1 0.018879 -0.006055 -0.004890 0.000000 -0.012270 0.000000
# 2 -0.006055 0.012414 -0.002682 0.000000 -0.000895 0.000000
# 3 -0.004890 -0.002682 0.020571 0.000000 0.003190 0.000000
# 4 0.000000 0.000000 0.000000 0.068565 0.000000 0.004492
# 5 -0.012270 -0.000895 0.003190 0.000000 0.051285 0.000000
# 6 0.000000 0.000000 0.000000 0.004492 0.000000 0.044061
#
#
# Mechanical properties :
#
#
# Convention : Reuss Voigt Hill
#
# Bulk Modulus (GPa) = 40.63503 50.54332 45.58917
# Shear Modulus (GPa) = 19.90183 22.94191 21.42187
#
# Velocity S-wave (km/s) = 3.24114 3.47990 3.36264
# Velocity P-wave (km/s) = 5.95446 6.54409 6.25622
#
# Compressibility (1/GPa) = 0.02460931
#
# Stress axis : x y z
#
# Youngs Moduli (GPa) = 52.96840 80.55670 48.61225
#
# Poissons Ratio (x) = 0.48780 0.23770
# Poissons Ratio (y) = 0.32074 0.13039
# Poissons Ratio (z) = 0.25900 0.21607
#
# Static dielectric constant tensor:
#      x y z
#    x 3.345910 0.000000 0.034700 
#    y 0.000000 3.624150 0.000000 
#    z 0.034700 0.000000 3.332920 
# 
# 
# High freq. dielectric constant tensor:
#      x y z
#    x 1.721760 0.000000 0.001010 
#    y 0.000000 1.729990 0.000000 
#    z 0.001010 0.000000 1.719640 
# 
# From -- ./inp_files/103932.got.cif
#   From: 2010.06.25/outbox.cif.g09.slc.cpg/sg12_52_cif.got.tgz:103932.got - 2010.06.28 00:19:55.
