data_PCOD8079717
_publ_section_title
;
Structure prediction by ZEFSAII (Michael W. Deem and Ramdas Pophale) SiO2 
 PCOD8079717
Probable space group: C 2/M
;
_chemical_formula_sum "Si O2"
_cell_formula_units_Z 48
_cell_length_a 19.640874
_cell_length_b 15.009014
_cell_length_c 18.188046
_cell_angle_alpha 90.000000
_cell_angle_beta 153.669493
_cell_angle_gamma 90.000000
_cell_volume 2378.154644
_symmetry_space_group_name_H-M "C 2/M"
_symmetry_group_IT_number 12
_symmetry_cell_setting 'monoclinic'
loop_
_space_group_symop_operation_xyz
x,y,z
-x,y,-z
-x,-y,-z
x,-y,z
1/2+x,1/2+y,z
1/2-x,1/2+y,-z
1/2-x,1/2-y,-z
1/2+x,1/2-y,z
loop_
_atom_site_type_symbol
_atom_site_label
_atom_site_fract_x
_atom_site_fract_y
_atom_site_fract_z
Si Si1 0.563062 0.000000 0.297474
Si Si2 0.682584 0.500000 0.181779
Si Si3 0.886704 0.810087 0.708480
Si Si4 0.156210 0.000000 0.321544
Si Si5 0.971649 0.318615 0.672060
Si Si6 0.654715 0.808556 0.192411
Si Si7 0.139727 0.330251 0.685827
Si Si8 0.378423 0.000000 0.815804
O O1 0.731788 0.000000 0.498965
O O2 0.475670 0.089001 0.239409
O O3 0.553105 0.000000 0.200000
O O4 0.741631 0.500000 0.324095
O O5 0.741942 0.412082 0.197299
O O6 0.500000 0.500000 0.000000
O O7 0.987159 0.765557 0.741404
O O8 0.706596 0.823737 0.520497
O O9 0.901045 0.748140 0.792452
O O10 0.950632 0.910939 0.780795
O O11 0.080828 0.302474 0.708830
O O12 0.784343 0.758671 0.272350
O O13 0.720364 0.907772 0.275516
O O14 0.500000 0.824802 0.000000
O O15 0.000000 0.361600 0.500000
O O16 0.500000 0.000000 0.000000
#
# Coordination Sequence:
#
# PCOD8079717 Si02
#       8
#     4   4   8   4   8   8   8   4
#     4  10  17  34  60  89 116 155 212 266 298 363
#     4  12  24  39  63  94 137 169 208 262 332 394
#     4  10  19  36  58  88 122 162 209 259 314 383
#     4  10  20  32  58  92 121 161 207 255 313 382
#     4  10  20  34  59  90 121 157 209 263 318 362
#     4  11  22  40  64  88 123 166 215 264 325 389
#     4  12  22  38  62  95 128 163 216 268 312 382
#     4  10  22  39  65  89 115 165 222 264 312 383
#
# _framework density 20.183716
#
# number of rings (size 3 to 8) (size 9 to 14) (size 15 to 20)
#    0.000    1.333    5.000    2.250    0.000    0.000 
#    0.000    2.083    0.000    0.000    0.000    0.000 
#    0.000    0.000    0.000    0.000    0.000    0.000 
#
# Total GULP energy -297399.381764 kJ/mol
# GULP energy per Si atom -12391.640907 kJ/mol
# Density = 2.013778 g / cm^3
# Si number density = 20.183716 Si / 1000 Ang^3
#
#
#
# Elastic Constant Matrix: (Units=GPa)
#
#
# Indices 1 2 3 4 5 6 
#
# 1 177.9657 78.5318 33.0921 -0.0047 -5.7437 -0.0016
# 2 78.5318 217.7479 23.0365 -0.0057 4.1444 -0.0017
# 3 33.0921 23.0365 37.2711 -0.0084 3.6248 0.0012
# 4 -0.0047 -0.0057 -0.0084 19.8050 -0.0058 3.6823
# 5 -5.7437 4.1444 3.6248 -0.0058 30.3477 -0.0015
# 6 -0.0016 -0.0017 0.0012 3.6823 -0.0015 33.8741
#
#
#
# Elastic Compliance Matrix: (Units=1/GPa)
#
#
# Indices 1 2 3 4 5 6 
#
# 1 0.007752 -0.002235 -0.005740 -0.000001 0.002458 0.000001
# 2 -0.002235 0.005561 -0.001353 0.000000 -0.001021 0.000000
# 3 -0.005740 -0.001353 0.033237 0.000011 -0.004872 -0.000003
# 4 -0.000001 0.000000 0.000011 0.051534 0.000008 -0.005602
# 5 0.002458 -0.001021 -0.004872 0.000008 0.034138 0.000001
# 6 0.000001 0.000000 -0.000003 -0.005602 0.000001 0.030130
#
#
# Mechanical properties :
#
#
# Convention : Reuss Voigt Hill
#
# Bulk Modulus (GPa) = 35.85161 78.03393 56.94277
# Shear Modulus (GPa) = 26.27314 36.69365 31.48340
#
# Velocity S-wave (km/s) = 3.61182 4.26841 3.95377
# Velocity P-wave (km/s) = 5.93253 7.93966 7.00832
#
# Compressibility (1/GPa) = 0.02789275
#
# Stress axis : x y z
#
# Youngs Moduli (GPa) = 128.99547 179.81536 30.08655
#
# Poissons Ratio (x) = 0.40195 0.17271
# Poissons Ratio (y) = 0.28835 0.04072
# Poissons Ratio (z) = 0.74049 0.24335
#
# Static dielectric constant tensor:
#      x y z
#    x 3.637760 0.000000 -0.280560 
#    y 0.000000 4.634730 -0.000010 
#    z -0.280560 -0.000010 3.274860 
# 
# 
# High freq. dielectric constant tensor:
#      x y z
#    x 1.787050 0.000000 -0.027320 
#    y 0.000000 1.819540 0.000000 
#    z -0.027320 0.000000 1.743170 
# 
# From -- ./inp_files/278305.got.cif
#   From: 2010.06.25/outbox.cif.g09.slc.cpg/sg12_140_cif.got.tgz:278305.got - 2010.06.28 00:19:55.
