data_PCOD8079031
_publ_section_title
;
Structure prediction by ZEFSAII (Michael W. Deem and Ramdas Pophale) SiO2 
 PCOD8079031
Probable space group: C 2/M
;
_chemical_formula_sum "Si O2"
_cell_formula_units_Z 56
_cell_length_a 17.921155
_cell_length_b 17.698812
_cell_length_c 12.206415
_cell_angle_alpha 90.000000
_cell_angle_beta 60.439433
_cell_angle_gamma 90.000000
_cell_volume 3367.712107
_symmetry_space_group_name_H-M "C 2/M"
_symmetry_group_IT_number 12
_symmetry_cell_setting 'monoclinic'
loop_
_space_group_symop_operation_xyz
x,y,z
-x,y,-z
-x,-y,-z
x,-y,z
1/2+x,1/2+y,z
1/2-x,1/2+y,-z
1/2-x,1/2-y,-z
1/2+x,1/2-y,z
loop_
_atom_site_type_symbol
_atom_site_label
_atom_site_fract_x
_atom_site_fract_y
_atom_site_fract_z
Si Si1 0.535654 0.830821 0.588529
Si Si2 0.138471 0.587944 0.885407
Si Si3 0.987528 0.587548 0.834145
Si Si4 0.353559 0.588751 0.425311
Si Si5 0.195665 0.168054 0.310658
Si Si6 0.985600 0.840978 0.629757
Si Si7 0.223914 0.307584 0.426454
O O1 0.500000 0.862650 0.500000
O O2 0.482094 0.867472 0.725293
O O3 0.527389 0.741293 0.602605
O O4 0.636278 0.850772 0.522285
O O5 0.161517 0.500000 0.857936
O O6 0.071669 0.612401 0.840147
O O7 0.222848 0.637418 0.812611
O O8 0.097221 0.605202 0.033721
O O9 0.992989 0.500000 0.801915
O O10 0.337598 0.500000 0.430998
O O11 0.321578 0.620727 0.566022
O O12 0.455543 0.607525 0.332220
O O13 0.298449 0.628472 0.367466
O O14 0.117210 0.160363 0.278977
O O15 0.210307 0.257643 0.325804
O O16 0.000000 0.876723 0.500000
O O17 0.250000 0.250000 0.500000
#
# Coordination Sequence:
#
# PCOD8079031 Si02
#       7
#     8   8   8   8   8   8   8
#     4  11  18  32  50  70 102 133 161 204 248 295
#     4   9  18  32  50  74 100 127 162 209 250 291
#     4   9  19  33  49  72 101 130 165 204 247 297
#     4  10  19  28  43  72 102 128 162 205 253 300
#     4  10  17  29  48  70  94 130 164 199 252 299
#     4   9  17  30  44  67  97 129 158 204 253 290
#     4  10  17  28  47  69  96 131 164 203 243 294
#
# _framework density 16.628499999999999
#
# number of rings (size 3 to 8) (size 9 to 14) (size 15 to 20)
#    0.000    2.286    5.714    3.000    0.000    5.143 
#    0.000    0.714    0.000    0.000    0.000    0.000 
#    0.000    1.143    0.000    0.000    0.000    0.000 
#
# Total GULP energy -346958.185246 kJ/mol
# GULP energy per Si atom -12391.363759 kJ/mol
# Density = 1.659065 g / cm^3
# Si number density = 16.628500 Si / 1000 Ang^3
#
#
#
# Elastic Constant Matrix: (Units=GPa)
#
#
# Indices 1 2 3 4 5 6 
#
# 1 112.5310 47.3106 36.3243 0.0000 -23.1585 0.0000
# 2 47.3106 76.0863 25.7435 0.0000 -4.0245 0.0000
# 3 36.3243 25.7435 66.2906 0.0000 -5.2856 0.0000
# 4 0.0000 0.0000 0.0000 19.2092 0.0000 -4.7024
# 5 -23.1585 -4.0245 -5.2856 0.0000 25.4327 0.0000
# 6 0.0000 0.0000 0.0000 -4.7024 0.0000 13.8353
#
#
#
# Elastic Compliance Matrix: (Units=1/GPa)
#
#
# Indices 1 2 3 4 5 6 
#
# 1 0.016377 -0.007851 -0.004917 0.000000 0.012649 0.000000
# 2 -0.007851 0.018930 -0.003438 0.000000 -0.004868 0.000000
# 3 -0.004917 -0.003438 0.019029 0.000000 -0.001066 0.000000
# 4 0.000000 0.000000 0.000000 0.056783 0.000000 0.019300
# 5 0.012649 -0.004868 -0.001066 0.000000 0.049845 0.000000
# 6 0.000000 0.000000 0.000000 0.019300 0.000000 0.078838
#
#
# Mechanical properties :
#
#
# Convention : Reuss Voigt Hill
#
# Bulk Modulus (GPa) = 45.60711 52.62940 49.11825
# Shear Modulus (GPa) = 17.88768 21.39743 19.64255
#
# Velocity S-wave (km/s) = 3.28338 3.59108 3.44067
# Velocity P-wave (km/s) = 6.46999 6.99380 6.73699
#
# Compressibility (1/GPa) = 0.02192641
#
# Stress axis : x y z
#
# Youngs Moduli (GPa) = 61.06059 52.82548 52.55092
#
# Poissons Ratio (x) = 0.41472 0.25837
# Poissons Ratio (y) = 0.47937 0.18065
# Poissons Ratio (z) = 0.30021 0.18160
#
# Static dielectric constant tensor:
#      x y z
#    x 3.567940 0.000000 -0.113150 
#    y 0.000000 3.078970 0.000000 
#    z -0.113150 0.000000 2.759410 
# 
# 
# High freq. dielectric constant tensor:
#      x y z
#    x 1.654910 0.000000 -0.019200 
#    y 0.000000 1.628330 0.000000 
#    z -0.019200 0.000000 1.587380 
# 
# From -- ./inp_files/157724.got.cif
#   From: 2010.06.25/outbox.cif.g09.slc.cpg/sg12_79_cif.got.tgz:157724.got - 2010.06.28 00:19:55.
