data_PCOD8079188
_publ_section_title
;
Structure prediction by ZEFSAII (Michael W. Deem and Ramdas Pophale) SiO2 
 PCOD8079188
Probable space group: C 2/M
;
_chemical_formula_sum "Si O2"
_cell_formula_units_Z 56
_cell_length_a 29.076259
_cell_length_b 13.704247
_cell_length_c 13.035461
_cell_angle_alpha 90.000000
_cell_angle_beta 141.010389
_cell_angle_gamma 90.000000
_cell_volume 3268.094770
_symmetry_space_group_name_H-M "C 2/M"
_symmetry_group_IT_number 12
_symmetry_cell_setting 'monoclinic'
loop_
_space_group_symop_operation_xyz
x,y,z
-x,y,-z
-x,-y,-z
x,-y,z
1/2+x,1/2+y,z
1/2-x,1/2+y,-z
1/2-x,1/2-y,-z
1/2+x,1/2-y,z
loop_
_atom_site_type_symbol
_atom_site_label
_atom_site_fract_x
_atom_site_fract_y
_atom_site_fract_z
Si Si1 0.251076 0.606490 0.802558
Si Si2 0.636974 0.611272 0.370341
Si Si3 0.202659 0.780586 0.821733
Si Si4 0.975319 0.885556 0.156381
Si Si5 0.387158 0.392374 0.191508
Si Si6 0.151328 0.793615 0.184299
Si Si7 0.269021 0.888309 0.753179
O O1 0.214944 0.500000 0.727838
O O2 0.188539 0.683697 0.728333
O O3 0.285535 0.638987 0.754687
O O4 0.314680 0.605296 0.996940
O O5 0.635671 0.500000 0.325530
O O6 0.559711 0.638126 0.287220
O O7 0.653965 0.688180 0.310227
O O8 0.696405 0.624478 0.560797
O O9 0.126182 0.824786 0.731335
O O10 0.248767 0.858557 0.834535
O O11 0.250000 0.750000 0.000000
O O12 0.953412 0.854209 0.234798
O O13 0.956671 0.000000 0.107883
O O14 0.928840 0.823155 0.994585
O O15 0.405170 0.500000 0.264895
O O16 0.167239 0.680433 0.183335
O O17 0.297228 0.000000 0.801199
#
# Coordination Sequence:
#
# PCOD8079188 Si02
#       7
#     8   8   8   8   8   8   8
#     4   8  14  23  38  64  89 107 142 195 235 266
#     4  10  19  31  48  72 102 130 155 194 248 292
#     4   9  16  27  44  63  88 122 158 192 234 285
#     4   9  17  29  48  74  97 121 160 202 237 281
#     4   8  13  23  39  59  85 113 143 184 229 273
#     4  10  17  29  49  70  95 128 165 196 230 279
#     4  10  21  33  46  71 103 129 157 196 243 291
#
# _framework density 17.135365
#
# number of rings (size 3 to 8) (size 9 to 14) (size 15 to 20)
#    0.000    2.857    0.000    4.286    0.000    1.714 
#    0.000    0.714    0.000    5.143    0.000    0.000 
#    0.000    5.714    0.000    0.000    0.000    0.000 
#
# Total GULP energy -347013.242929 kJ/mol
# GULP energy per Si atom -12393.330105 kJ/mol
# Density = 1.709636 g / cm^3
# Si number density = 17.135365 Si / 1000 Ang^3
#
#
#
# Elastic Constant Matrix: (Units=GPa)
#
#
# Indices 1 2 3 4 5 6 
#
# 1 105.3131 47.2305 16.8150 0.0000 -7.2485 0.0000
# 2 47.2305 109.6848 15.6936 0.0000 0.2302 0.0000
# 3 16.8150 15.6936 27.8369 0.0000 9.1740 0.0000
# 4 0.0000 0.0000 0.0000 14.1610 0.0000 -3.1523
# 5 -7.2485 0.2302 9.1740 0.0000 12.9822 0.0000
# 6 0.0000 0.0000 0.0000 -3.1523 0.0000 29.9442
#
#
#
# Elastic Compliance Matrix: (Units=1/GPa)
#
#
# Indices 1 2 3 4 5 6 
#
# 1 0.014555 -0.004646 -0.011573 0.000000 0.016387 0.000000
# 2 -0.004646 0.011647 -0.003698 0.000000 -0.000187 0.000000
# 3 -0.011573 -0.003698 0.061409 0.000000 -0.049791 0.000000
# 4 0.000000 0.000000 0.000000 0.072311 0.000000 0.007612
# 5 0.016387 -0.000187 -0.049791 0.000000 0.121367 0.000000
# 6 0.000000 0.000000 0.000000 0.007612 0.000000 0.034197
#
#
# Mechanical properties :
#
#
# Convention : Reuss Voigt Hill
#
# Bulk Modulus (GPa) = 20.93115 44.70143 32.81629
# Shear Modulus (GPa) = 13.46818 22.29052 17.87935
#
# Velocity S-wave (km/s) = 2.80659 3.61064 3.23370
# Velocity P-wave (km/s) = 4.76910 6.59744 5.75632
#
# Compressibility (1/GPa) = 0.04777569
#
# Stress axis : x y z
#
# Youngs Moduli (GPa) = 68.70577 85.85841 16.28432
#
# Poissons Ratio (x) = 0.39888 0.18846
# Poissons Ratio (y) = 0.31919 0.06022
# Poissons Ratio (z) = 0.79516 0.31753
#
# Static dielectric constant tensor:
#      x y z
#    x 3.478430 0.000000 -0.159620 
#    y 0.000000 3.552350 0.000000 
#    z -0.159620 0.000000 2.795160 
# 
# 
# High freq. dielectric constant tensor:
#      x y z
#    x 1.667940 0.000000 -0.023880 
#    y 0.000000 1.653510 0.000000 
#    z -0.023880 0.000000 1.617950 
# 
# From -- ./inp_files/189224.got.cif
#   From: 2010.06.25/outbox.cif.g09.slc.cpg/sg12_95_cif.got.tgz:189224.got - 2010.06.28 00:19:55.
