data_PCOD8079642
_publ_section_title
;
Structure prediction by ZEFSAII (Michael W. Deem and Ramdas Pophale) SiO2 
 PCOD8079642
Probable space group: C 2/M
;
_chemical_formula_sum "Si O2"
_cell_formula_units_Z 56
_cell_length_a 18.397670
_cell_length_b 19.552538
_cell_length_c 15.930469
_cell_angle_alpha 90.000000
_cell_angle_beta 146.817956
_cell_angle_gamma 90.000000
_cell_volume 3136.322665
_symmetry_space_group_name_H-M "C 2/M"
_symmetry_group_IT_number 12
_symmetry_cell_setting 'monoclinic'
loop_
_space_group_symop_operation_xyz
x,y,z
-x,y,-z
-x,-y,-z
x,-y,z
1/2+x,1/2+y,z
1/2-x,1/2+y,-z
1/2-x,1/2-y,-z
1/2+x,1/2-y,z
loop_
_atom_site_type_symbol
_atom_site_label
_atom_site_fract_x
_atom_site_fract_y
_atom_site_fract_z
Si Si1 0.683722 0.236574 0.345698
Si Si2 0.015514 0.669736 0.302455
Si Si3 0.453692 0.701154 0.550293
Si Si4 0.764565 0.420441 0.078786
Si Si5 0.357320 0.576301 0.872327
Si Si6 0.716087 0.384147 0.371355
Si Si7 0.491429 0.577216 0.281527
O O1 0.750000 0.250000 0.500000
O O2 0.551584 0.193887 0.241185
O O3 0.791842 0.197393 0.393035
O O4 0.653253 0.311433 0.279648
O O5 0.994646 0.734292 0.344876
O O6 0.133543 0.621509 0.450876
O O7 0.885141 0.625385 0.163177
O O8 0.500000 0.709652 0.500000
O O9 0.508135 0.630439 0.641271
O O10 0.807510 0.500000 0.119812
O O11 0.731792 0.391004 0.140351
O O12 0.637764 0.407165 0.898321
O O13 0.387122 0.500000 0.935065
O O14 0.279697 0.571610 0.709269
O O15 0.500000 0.614041 0.000000
O O16 0.623590 0.416853 0.352869
O O17 0.486240 0.500000 0.312754
#
# Coordination Sequence:
#
# PCOD8079642 Si02
#       7
#     8   8   8   8   8   8   8
#     4   8  16  34  53  76 103 132 174 222 258 310
#     4  10  20  36  57  78 111 142 175 220 272 316
#     4  10  20  36  58  84 106 136 181 231 269 307
#     4  10  23  35  50  82 115 141 179 220 262 321
#     4  10  19  31  48  75 112 144 174 216 257 315
#     4  10  17  33  55  76 102 144 183 210 264 322
#     4  11  20  36  56  77 107 146 182 223 266 312
#
# _framework density 17.855307
#
# number of rings (size 3 to 8) (size 9 to 14) (size 15 to 20)
#    0.000    2.429    5.714    0.429    4.000    2.000 
#    0.000    1.429    0.000    0.000    0.000    2.000 
#    0.000    0.000    0.000    0.000    0.000    0.000 
#
# Total GULP energy -346928.521120 kJ/mol
# GULP energy per Si atom -12390.304326 kJ/mol
# Density = 1.781467 g / cm^3
# Si number density = 17.855307 Si / 1000 Ang^3
#
#
#
# Elastic Constant Matrix: (Units=GPa)
#
#
# Indices 1 2 3 4 5 6 
#
# 1 108.3240 34.0378 21.6800 0.0000 16.3818 0.0000
# 2 34.0378 81.7736 36.0351 0.0000 9.0300 0.0000
# 3 21.6800 36.0351 55.5711 0.0000 14.5469 -0.0001
# 4 0.0000 0.0000 0.0000 23.5962 0.0000 5.8922
# 5 16.3818 9.0300 14.5469 0.0000 25.2340 0.0000
# 6 0.0000 0.0000 -0.0001 5.8922 0.0000 17.9189
#
#
#
# Elastic Compliance Matrix: (Units=1/GPa)
#
#
# Indices 1 2 3 4 5 6 
#
# 1 0.011423 -0.003947 -0.000383 0.000000 -0.005782 0.000000
# 2 -0.003947 0.018488 -0.011056 0.000000 0.002320 0.000000
# 3 -0.000383 -0.011056 0.028516 0.000000 -0.012234 0.000000
# 4 0.000000 0.000000 0.000000 0.046171 0.000000 -0.015182
# 5 -0.005782 0.002320 -0.012234 0.000000 0.049605 0.000000
# 6 0.000000 0.000000 0.000000 -0.015182 0.000000 0.060799
#
#
# Mechanical properties :
#
#
# Convention : Reuss Voigt Hill
#
# Bulk Modulus (GPa) = 36.16084 47.68606 41.92345
# Shear Modulus (GPa) = 19.60841 23.61088 21.60965
#
# Velocity S-wave (km/s) = 3.31748 3.64035 3.48266
# Velocity P-wave (km/s) = 5.91357 6.66592 6.30098
#
# Compressibility (1/GPa) = 0.02765423
#
# Stress axis : x y z
#
# Youngs Moduli (GPa) = 87.54213 54.09001 35.06802
#
# Poissons Ratio (x) = 0.21352 0.01344
# Poissons Ratio (y) = 0.34557 0.38770
# Poissons Ratio (z) = 0.03354 0.59800
#
# Static dielectric constant tensor:
#      x y z
#    x 3.518410 0.000000 0.281850 
#    y 0.000000 3.556950 0.000000 
#    z 0.281850 0.000000 3.073840 
# 
# 
# High freq. dielectric constant tensor:
#      x y z
#    x 1.685050 0.000000 0.020160 
#    y 0.000000 1.685790 0.000000 
#    z 0.020160 0.000000 1.665110 
# 
# From -- ./inp_files/279020.got.cif
#   From: 2010.06.25/outbox.cif.g09.slc.cpg/sg12_140_cif.got.tgz:279020.got - 2010.06.28 00:19:55.
