data_PCOD8079778
_publ_section_title
;
Structure prediction by ZEFSAII (Michael W. Deem and Ramdas Pophale) SiO2 
 PCOD8079778
Probable space group: C 2/M
;
_chemical_formula_sum "Si O2"
_cell_formula_units_Z 64
_cell_length_a 24.455015
_cell_length_b 15.259646
_cell_length_c 16.866371
_cell_angle_alpha 90.000000
_cell_angle_beta 29.209328
_cell_angle_gamma 90.000000
_cell_volume 3071.534777
_symmetry_space_group_name_H-M "C 2/M"
_symmetry_group_IT_number 12
_symmetry_cell_setting 'monoclinic'
loop_
_space_group_symop_operation_xyz
x,y,z
-x,y,-z
-x,-y,-z
x,-y,z
1/2+x,1/2+y,z
1/2-x,1/2+y,-z
1/2-x,1/2-y,-z
1/2+x,1/2-y,z
loop_
_atom_site_type_symbol
_atom_site_label
_atom_site_fract_x
_atom_site_fract_y
_atom_site_fract_z
Si Si1 0.989078 0.598479 0.262563
Si Si2 0.031762 0.139547 0.872045
Si Si3 0.740856 0.191070 0.434227
Si Si4 0.629560 0.403875 0.328611
Si Si5 0.475879 0.836915 0.945811
Si Si6 0.766571 0.396926 0.001889
Si Si7 0.806987 0.100486 0.078258
Si Si8 0.746318 0.740545 0.258355
O O1 0.976677 0.500000 0.309892
O O2 0.882009 0.652542 0.427538
O O3 0.984531 0.597717 0.172706
O O4 0.106999 0.641173 0.143622
O O5 0.161128 0.114917 0.686069
O O6 0.040008 0.244640 0.859941
O O7 0.000000 0.104647 0.000000
O O8 0.941508 0.103457 0.923485
O O9 0.750000 0.250000 0.500000
O O10 0.765346 0.250878 0.327140
O O11 0.500000 0.421654 0.500000
O O12 0.686067 0.500000 0.277133
O O13 0.642891 0.323560 0.373198
O O14 0.677155 0.370472 0.183008
O O15 0.500000 0.882471 0.000000
O O16 0.346273 0.816657 0.094859
O O17 0.778925 0.500000 0.984504
O O18 0.718646 0.364131 0.977874
O O19 0.741473 0.163404 0.222884
O O20 0.765606 0.000000 0.141824
#
# Coordination Sequence:
#
# PCOD8079778 Si02
#       8
#     8   8   8   8   8   8   8   8
#     4  11  23  38  61  90 126 172 209 257 324 386
#     4  10  19  39  62  87 120 165 209 265 324 369
#     4  12  23  39  61  90 132 165 206 269 321 386
#     4  10  22  41  65  94 127 159 207 272 326 379
#     4  10  17  37  61  86 117 156 208 258 317 373
#     4   9  20  41  62  88 128 166 208 265 318 373
#     4  10  22  39  65  94 123 170 223 264 310 379
#     4  11  22  39  64  92 122 170 210 254 322 384
#
# _framework density 20.836487999999999
#
# number of rings (size 3 to 8) (size 9 to 14) (size 15 to 20)
#    0.000    1.625    6.250    0.000    0.000    4.000 
#    0.000    1.875    0.000    2.625    0.000    0.000 
#    0.000    0.000    0.000    0.000    0.000    0.000 
#
# Total GULP energy -396448.777595 kJ/mol
# GULP energy per Si atom -12389.024300 kJ/mol
# Density = 2.078906 g / cm^3
# Si number density = 20.836488 Si / 1000 Ang^3
#
#
#
# Elastic Constant Matrix: (Units=GPa)
#
#
# Indices 1 2 3 4 5 6 
#
# 1 127.7332 29.7115 35.8804 0.0000 -5.8312 0.0000
# 2 29.7115 73.0802 21.6894 0.0000 -0.4361 0.0000
# 3 35.8804 21.6894 111.9467 0.0000 -12.6581 0.0000
# 4 0.0000 0.0000 0.0000 17.4849 0.0000 -3.7990
# 5 -5.8312 -0.4361 -12.6581 0.0000 30.9480 0.0000
# 6 0.0000 0.0000 0.0000 -3.7990 0.0000 18.4026
#
#
#
# Elastic Compliance Matrix: (Units=1/GPa)
#
#
# Indices 1 2 3 4 5 6 
#
# 1 0.009216 -0.003068 -0.002273 0.000000 0.000763 0.000000
# 2 -0.003068 0.015569 -0.002174 0.000000 -0.001248 0.000000
# 3 -0.002273 -0.002174 0.010517 0.000000 0.003843 0.000000
# 4 0.000000 0.000000 0.000000 0.059878 0.000000 0.012361
# 5 0.000763 -0.001248 0.003843 0.000000 0.034010 0.000000
# 6 0.000000 0.000000 0.000000 0.012361 0.000000 0.056892
#
#
# Mechanical properties :
#
#
# Convention : Reuss Voigt Hill
#
# Bulk Modulus (GPa) = 49.33017 54.14698 51.73858
# Shear Modulus (GPa) = 24.05365 28.39902 26.22634
#
# Velocity S-wave (km/s) = 3.40133 3.69582 3.55163
# Velocity P-wave (km/s) = 6.25713 6.65245 6.45782
#
# Compressibility (1/GPa) = 0.02027157
#
# Stress axis : x y z
#
# Youngs Moduli (GPa) = 108.51029 64.23189 95.08277
#
# Poissons Ratio (x) = 0.19703 0.21613
# Poissons Ratio (y) = 0.33286 0.20674
# Poissons Ratio (z) = 0.24666 0.13966
#
# Static dielectric constant tensor:
#      x y z
#    x 3.936030 0.000000 -0.185360 
#    y 0.000000 3.532900 0.000000 
#    z -0.185360 0.000000 3.961740 
# 
# 
# High freq. dielectric constant tensor:
#      x y z
#    x 1.817930 0.000000 -0.008820 
#    y 0.000000 1.792980 0.000000 
#    z -0.008820 0.000000 1.813470 
# 
# From -- ./inp_files/290093.got.cif
#   From: 2010.06.25/outbox.cif.g09.slc.cpg/sg12_146_cif.got.tgz:290093.got - 2010.06.28 00:19:55.
