data_PCOD8079518
_publ_section_title
;
Structure prediction by ZEFSAII (Michael W. Deem and Ramdas Pophale) SiO2 
 PCOD8079518
Probable space group: C 2/M
;
_chemical_formula_sum "Si O2"
_cell_formula_units_Z 64
_cell_length_a 17.610172
_cell_length_b 13.404585
_cell_length_c 30.244469
_cell_angle_alpha 90.000000
_cell_angle_beta 145.341228
_cell_angle_gamma 90.000000
_cell_volume 4060.101016
_symmetry_space_group_name_H-M "C 2/M"
_symmetry_group_IT_number 12
_symmetry_cell_setting 'monoclinic'
loop_
_space_group_symop_operation_xyz
x,y,z
-x,y,-z
-x,-y,-z
x,-y,z
1/2+x,1/2+y,z
1/2-x,1/2+y,-z
1/2-x,1/2-y,-z
1/2+x,1/2-y,z
loop_
_atom_site_type_symbol
_atom_site_label
_atom_site_fract_x
_atom_site_fract_y
_atom_site_fract_z
Si Si1 0.970266 0.117343 0.066391
Si Si2 0.087115 0.887436 0.291913
Si Si3 0.374402 0.385652 0.260469
Si Si4 0.381937 0.117020 0.411855
Si Si5 0.812295 0.615415 0.111940
Si Si6 0.986447 0.768498 0.824804
Si Si7 0.313057 0.233025 0.295029
Si Si8 0.759973 0.800131 0.831655
O O1 0.961197 0.159587 0.111501
O O2 0.083548 0.172984 0.091761
O O3 0.001984 0.000000 0.083157
O O4 0.833053 0.140856 0.976189
O O5 0.242386 0.855432 0.368820
O O6 0.002238 0.825035 0.216242
O O7 0.020227 0.876141 0.307883
O O8 0.079926 0.000000 0.271190
O O9 0.326319 0.500000 0.239967
O O10 0.386553 0.336494 0.315471
O O11 0.264881 0.320807 0.179852
O O12 0.500000 0.154585 0.500000
O O13 0.395179 0.175411 0.371813
O O14 0.395290 0.000000 0.408148
O O15 0.847099 0.500000 0.124793
O O16 0.818894 0.647817 0.166348
O O17 0.921223 0.671273 0.134186
O O18 0.834322 0.735906 0.759502
O O19 0.299230 0.162171 0.244453
#
# Coordination Sequence:
#
# PCOD8079518 Si02
#       8
#     8   8   8   8   8   8   8   8
#     4  10  20  32  47  67  91 127 162 199 246 289
#     4   9  16  29  52  72  91 123 162 195 229 276
#     4   9  17  32  51  69  91 122 164 199 232 277
#     4   9  17  30  50  78 106 125 148 189 237 279
#     4  11  21  31  46  68  97 126 157 199 250 289
#     4  10  17  32  46  67  94 123 161 199 235 280
#     4   8  18  30  49  72  93 126 158 193 230 277
#     4   9  18  33  49  68  91 122 163 203 237 278
#
# _framework density 15.763154999999999
#
# number of rings (size 3 to 8) (size 9 to 14) (size 15 to 20)
#    0.750    1.875    1.250    1.500    0.000    5.000 
#    0.000    0.625    0.000    2.625    0.000    0.000 
#    0.000    0.000    0.000    0.000    0.000    0.000 
#
# Total GULP energy -396522.915815 kJ/mol
# GULP energy per Si atom -12391.341119 kJ/mol
# Density = 1.572728 g / cm^3
# Si number density = 15.763155 Si / 1000 Ang^3
#
#
#
# Elastic Constant Matrix: (Units=GPa)
#
#
# Indices 1 2 3 4 5 6 
#
# 1 83.5235 40.3277 36.5576 0.0000 -3.4164 0.0000
# 2 40.3277 83.3281 46.2726 0.0000 3.0446 0.0000
# 3 36.5576 46.2726 77.3316 -0.0002 -6.4507 -0.0001
# 4 0.0000 0.0000 -0.0002 19.5896 0.0000 -0.0728
# 5 -3.4164 3.0446 -6.4507 0.0000 16.0222 0.0000
# 6 0.0000 0.0000 -0.0001 -0.0728 0.0000 28.2933
#
#
#
# Elastic Compliance Matrix: (Units=1/GPa)
#
#
# Indices 1 2 3 4 5 6 
#
# 1 0.016768 -0.005939 -0.004119 0.000000 0.003045 0.000000
# 2 -0.005939 0.021129 -0.010633 0.000000 -0.009562 0.000000
# 3 -0.004119 -0.010633 0.022078 0.000000 0.010031 0.000000
# 4 0.000000 0.000000 0.000000 0.051048 0.000000 0.000131
# 5 0.003045 -0.009562 0.010031 0.000000 0.068918 0.000000
# 6 0.000000 0.000000 0.000000 0.000131 0.000000 0.035344
#
#
# Mechanical properties :
#
#
# Convention : Reuss Voigt Hill
#
# Bulk Modulus (GPa) = 53.78507 54.49988 54.14248
# Shear Modulus (GPa) = 19.02127 20.84939 19.93533
#
# Velocity S-wave (km/s) = 3.47752 3.64079 3.56009
# Velocity P-wave (km/s) = 7.09359 7.23347 7.16387
#
# Compressibility (1/GPa) = 0.01859252
#
# Stress axis : x y z
#
# Youngs Moduli (GPa) = 59.63891 47.32867 45.29460
#
# Poissons Ratio (x) = 0.28108 0.18657
# Poissons Ratio (y) = 0.35419 0.48161
# Poissons Ratio (z) = 0.24565 0.50324
#
# Static dielectric constant tensor:
#      x y z
#    x 3.090520 0.000000 -0.003170 
#    y 0.000000 2.913420 0.000000 
#    z -0.003170 0.000000 2.813840 
# 
# 
# High freq. dielectric constant tensor:
#      x y z
#    x 1.615690 0.000000 0.000780 
#    y 0.000000 1.594090 0.000000 
#    z 0.000780 0.000000 1.578760 
# 
# From -- ./inp_files/379114.got.cif
#   From: 2010.06.25/outbox.cif.g09.slc.cpg/sg12_190_cif.got.tgz:379114.got - 2010.06.28 00:19:55.
