data_PCOD8079326
_publ_section_title
;
Structure prediction by ZEFSAII (Michael W. Deem and Ramdas Pophale) SiO2 
 PCOD8079326
Probable space group: C 2/M
;
_chemical_formula_sum "Si O2"
_cell_formula_units_Z 52
_cell_length_a 13.532974
_cell_length_b 18.945827
_cell_length_c 12.106942
_cell_angle_alpha 90.000000
_cell_angle_beta 121.036220
_cell_angle_gamma 90.000000
_cell_volume 2659.755966
_symmetry_space_group_name_H-M "C 2/M"
_symmetry_group_IT_number 12
_symmetry_cell_setting 'monoclinic'
loop_
_space_group_symop_operation_xyz
x,y,z
-x,y,-z
-x,-y,-z
x,-y,z
1/2+x,1/2+y,z
1/2-x,1/2+y,-z
1/2-x,1/2-y,-z
1/2+x,1/2-y,z
loop_
_atom_site_type_symbol
_atom_site_label
_atom_site_fract_x
_atom_site_fract_y
_atom_site_fract_z
Si Si1 0.129651 0.744595 0.074721
Si Si2 0.240837 0.000000 0.076259
Si Si3 0.257354 0.848525 0.023397
Si Si4 0.782533 0.212371 0.350341
Si Si5 0.940257 0.849520 0.264650
Si Si6 0.209134 0.850805 0.415912
Si Si7 0.446837 0.500000 0.210464
Si Si8 0.208660 0.000000 0.315973
O O1 0.137876 0.690719 0.976158
O O2 0.168633 0.703829 0.208122
O O3 0.220261 0.810495 0.116724
O O4 0.000000 0.772777 0.000000
O O5 0.245693 0.000000 0.210312
O O6 0.301111 0.071861 0.068350
O O7 0.117747 0.000000 0.944959
O O8 0.140334 0.833717 0.886306
O O9 0.898650 0.194777 0.347322
O O10 0.771476 0.155082 0.441516
O O11 0.787995 0.292058 0.401181
O O12 0.073851 0.833945 0.312308
O O13 0.922665 0.933389 0.275706
O O14 0.251618 0.928468 0.401819
O O15 0.573517 0.500000 0.237554
#
# Coordination Sequence:
#
# PCOD8079326 Si02
#       8
#     8   4   8   8   8   8   4   4
#     4  10  19  34  52  73 100 132 166 207 246 285
#     4  10  17  30  49  75 106 128 154 201 246 296
#     4   9  19  31  51  79 102 128 164 197 247 302
#     4  10  20  32  49  73 102 133 165 201 244 285
#     4   9  17  32  51  75 105 131 156 200 244 291
#     4  10  20  33  49  76 101 130 169 197 238 299
#     4   8  17  29  48  78 104 127 158 190 247 310
#     4  10  19  31  50  71 101 133 159 199 250 294
#
# _framework density 19.550666
#
# number of rings (size 3 to 8) (size 9 to 14) (size 15 to 20)
#    0.000    2.462    0.000    2.538    0.000    3.077 
#    0.000    3.462    0.000    0.000    0.000   10.769 
#    0.000    0.000    0.000    0.000    0.000    0.000 
#
# Total GULP energy -322129.566738 kJ/mol
# GULP energy per Si atom -12389.598721 kJ/mol
# Density = 1.950617 g / cm^3
# Si number density = 19.550666 Si / 1000 Ang^3
#
#
#
# Elastic Constant Matrix: (Units=GPa)
#
#
# Indices 1 2 3 4 5 6 
#
# 1 42.7318 27.0385 9.9464 0.0000 -14.6338 0.0000
# 2 27.0385 137.5133 17.9997 0.0000 -20.4862 0.0000
# 3 9.9464 17.9997 65.2942 0.0000 -16.0292 0.0000
# 4 0.0000 0.0000 0.0000 27.0751 0.0000 -2.5991
# 5 -14.6338 -20.4862 -16.0292 0.0000 23.9859 0.0000
# 6 0.0000 0.0000 0.0000 -2.5991 0.0000 25.7715
#
#
#
# Elastic Compliance Matrix: (Units=1/GPa)
#
#
# Indices 1 2 3 4 5 6 
#
# 1 0.031211 -0.003789 0.000204 0.000000 0.015942 0.000000
# 2 -0.003789 0.008816 -0.000684 0.000000 0.004761 0.000000
# 3 0.000204 -0.000684 0.018374 0.000000 0.011819 0.000000
# 4 0.000000 0.000000 0.000000 0.037295 0.000000 0.003761
# 5 0.015942 0.004761 0.011819 0.000000 0.063382 0.000000
# 6 0.000000 0.000000 0.000000 0.003761 0.000000 0.039182
#
#
# Mechanical properties :
#
#
# Convention : Reuss Voigt Hill
#
# Bulk Modulus (GPa) = 20.05514 39.50093 29.77804
# Shear Modulus (GPa) = 22.37942 28.07015 25.22478
#
# Velocity S-wave (km/s) = 3.38699 3.79326 3.59587
# Velocity P-wave (km/s) = 5.05727 6.27960 5.70128
#
# Compressibility (1/GPa) = 0.04986253
#
# Stress axis : x y z
#
# Youngs Moduli (GPa) = 32.03990 113.43325 54.42364
#
# Poissons Ratio (x) = 0.42974 -0.01108
# Poissons Ratio (y) = 0.12138 0.03725
# Poissons Ratio (z) = -0.00652 0.07764
#
# Static dielectric constant tensor:
#      x y z
#    x 3.293760 0.000000 -0.153340 
#    y 0.000000 3.922860 0.000000 
#    z -0.153340 0.000000 3.570690 
# 
# 
# High freq. dielectric constant tensor:
#      x y z
#    x 1.727290 0.000000 -0.021400 
#    y 0.000000 1.766580 0.000000 
#    z -0.021400 0.000000 1.756810 
# 
# From -- ./inp_files/133369.got.cif
#   From: 2010.06.25/outbox.cif.g09.slc.cpg/sg12_67_cif.got.tgz:133369.got - 2010.06.28 00:19:55.
