data_PCOD8079498
_publ_section_title
;
Structure prediction by ZEFSAII (Michael W. Deem and Ramdas Pophale) SiO2 
 PCOD8079498
Probable space group: C 2/M
;
_chemical_formula_sum "Si O2"
_cell_formula_units_Z 56
_cell_length_a 24.731655
_cell_length_b 18.522960
_cell_length_c 7.241958
_cell_angle_alpha 90.000000
_cell_angle_beta 56.171892
_cell_angle_gamma 90.000000
_cell_volume 2755.940099
_symmetry_space_group_name_H-M "C 2/M"
_symmetry_group_IT_number 12
_symmetry_cell_setting 'monoclinic'
loop_
_space_group_symop_operation_xyz
x,y,z
-x,y,-z
-x,-y,-z
x,-y,z
1/2+x,1/2+y,z
1/2-x,1/2+y,-z
1/2-x,1/2-y,-z
1/2+x,1/2-y,z
loop_
_atom_site_type_symbol
_atom_site_label
_atom_site_fract_x
_atom_site_fract_y
_atom_site_fract_z
Si Si1 0.681821 0.305455 0.957803
Si Si2 0.085199 0.728394 0.647197
Si Si3 0.213557 0.811218 0.302733
Si Si4 0.862035 0.578107 0.441095
Si Si5 0.055710 0.577299 0.046305
Si Si6 0.943041 0.727217 0.866095
Si Si7 0.281708 0.582476 0.383349
O O1 0.729124 0.246943 0.767979
O O2 0.611084 0.271301 0.144470
O O3 0.669291 0.371257 0.839090
O O4 0.714589 0.332916 0.084859
O O5 0.142765 0.781303 0.485901
O O6 0.101465 0.647274 0.540194
O O7 0.077263 0.729870 0.881537
O O8 0.016655 0.755429 0.687506
O O9 0.225610 0.882635 0.400182
O O10 0.882982 0.500000 0.491622
O O11 0.876656 0.574013 0.194052
O O12 0.784998 0.587462 0.604344
O O13 0.042560 0.500000 0.170060
O O14 0.058206 0.642133 0.189816
O O15 0.000000 0.594449 0.000000
O O16 0.306267 0.500000 0.358052
#
# Coordination Sequence:
#
# PCOD8079498 Si02
#       7
#     8   8   8   8   8   8   8
#     4  11  23  37  59  88 118 152 196 240 287 343
#     4  10  17  31  56  81 113 152 189 236 286 341
#     4  11  22  38  60  84 118 154 191 243 292 337
#     4   9  16  27  49  82 114 150 188 225 277 340
#     4   9  14  22  41  76 112 146 187 224 265 326
#     4  10  18  30  53  84 111 151 196 239 284 342
#     4  11  22  38  62  85 114 154 192 240 293 342
#
# _framework density 20.319745999999999
#
# number of rings (size 3 to 8) (size 9 to 14) (size 15 to 20)
#    0.000    1.857    5.714    2.143    0.000    1.143 
#    0.000    0.000    0.000    3.429    0.000    4.000 
#    0.000    0.000    0.000    0.000    0.000    0.000 
#
# Total GULP energy -346932.566389 kJ/mol
# GULP energy per Si atom -12390.448800 kJ/mol
# Density = 2.027350 g / cm^3
# Si number density = 20.319746 Si / 1000 Ang^3
#
#
#
# Elastic Constant Matrix: (Units=GPa)
#
#
# Indices 1 2 3 4 5 6 
#
# 1 70.0758 39.8008 22.3255 0.0000 -15.3070 0.0000
# 2 39.8008 128.2318 33.6233 0.0000 1.3123 0.0000
# 3 22.3255 33.6233 41.6278 0.0000 -14.4365 0.0000
# 4 0.0000 0.0000 0.0000 12.7543 0.0000 -5.8858
# 5 -15.3070 1.3123 -14.4365 0.0000 36.9267 0.0000
# 6 0.0000 0.0000 0.0000 -5.8858 0.0000 20.9989
#
#
#
# Elastic Compliance Matrix: (Units=1/GPa)
#
#
# Indices 1 2 3 4 5 6 
#
# 1 0.020053 -0.005200 -0.004174 0.000000 0.006866 0.000000
# 2 -0.005200 0.011787 -0.008820 0.000000 -0.006023 0.000000
# 3 -0.004174 -0.008820 0.038053 0.000000 0.013460 0.000000
# 4 0.000000 0.000000 0.000000 0.090053 0.000000 0.025241
# 5 0.006866 -0.006023 0.013460 0.000000 0.035403 0.000000
# 6 0.000000 0.000000 0.000000 0.025241 0.000000 0.054696
#
#
# Mechanical properties :
#
#
# Convention : Reuss Voigt Hill
#
# Bulk Modulus (GPa) = 29.84605 47.93718 38.89161
# Shear Modulus (GPa) = 16.80104 23.74837 20.27471
#
# Velocity S-wave (km/s) = 2.87859 3.42238 3.16220
# Velocity P-wave (km/s) = 5.07626 6.26575 5.70211
#
# Compressibility (1/GPa) = 0.03350527
#
# Stress axis : x y z
#
# Youngs Moduli (GPa) = 49.86772 84.84138 26.27921
#
# Poissons Ratio (x) = 0.44118 0.10968
# Poissons Ratio (y) = 0.25931 0.23179
# Poissons Ratio (z) = 0.20813 0.74831
#
# Static dielectric constant tensor:
#      x y z
#    x 3.565450 0.000000 -0.275030 
#    y 0.000000 3.743150 0.000000 
#    z -0.275030 0.000000 3.598260 
# 
# 
# High freq. dielectric constant tensor:
#      x y z
#    x 1.770920 0.000000 -0.020980 
#    y 0.000000 1.774570 0.000000 
#    z -0.020980 0.000000 1.781680 
# 
# From -- ./inp_files/97642.got.cif
#   From: 2010.06.25/outbox.cif.g09.slc.cpg/sg12_49_cif.got.tgz:97642.got - 2010.06.28 00:19:55.
