data_PCOD8079841
_publ_section_title
;
Structure prediction by ZEFSAII (Michael W. Deem and Ramdas Pophale) SiO2 
 PCOD8079841
Probable space group: C 2/M
;
_chemical_formula_sum "Si O2"
_cell_formula_units_Z 56
_cell_length_a 27.230262
_cell_length_b 9.618261
_cell_length_c 14.261750
_cell_angle_alpha 90.000000
_cell_angle_beta 74.656912
_cell_angle_gamma 90.000000
_cell_volume 3602.133486
_symmetry_space_group_name_H-M "C 2/M"
_symmetry_group_IT_number 12
_symmetry_cell_setting 'monoclinic'
loop_
_space_group_symop_operation_xyz
x,y,z
-x,y,-z
-x,-y,-z
x,-y,z
1/2+x,1/2+y,z
1/2-x,1/2+y,-z
1/2-x,1/2-y,-z
1/2+x,1/2-y,z
loop_
_atom_site_type_symbol
_atom_site_label
_atom_site_fract_x
_atom_site_fract_y
_atom_site_fract_z
Si Si1 0.704820 0.340329 0.908528
Si Si2 0.682053 0.156839 0.084270
Si Si3 0.211929 0.160358 0.380981
Si Si4 0.874202 0.155668 0.426898
Si Si5 0.141134 0.658642 0.296141
Si Si6 0.556941 0.161305 0.484988
Si Si7 0.194452 0.838797 0.701398
O O1 0.691918 0.500000 0.932824
O O2 0.764427 0.308011 0.892159
O O3 0.687881 0.294615 0.813017
O O4 0.671685 0.254701 0.000695
O O5 0.637825 0.178315 0.185066
O O6 0.682219 0.000000 0.046141
O O7 0.178559 0.174756 0.490972
O O8 0.182899 0.233555 0.310310
O O9 0.264676 0.240282 0.370087
O O10 0.222321 0.000000 0.349705
O O11 0.917147 0.261045 0.440616
O O12 0.859449 0.182543 0.325475
O O13 0.895635 0.000000 0.430577
O O14 0.158777 0.500000 0.309948
O O15 0.087002 0.689319 0.372617
O O16 0.500000 0.218747 0.500000
O O17 0.556309 0.000000 0.512312
O O18 0.212184 0.000000 0.685152
#
# Coordination Sequence:
#
# PCOD8079841 Si02
#       7
#     8   8   8   8   8   8   8
#     4   9  17  27  40  58  83 116 149 180 210 243
#     4   9  16  27  41  59  82 114 149 178 212 248
#     4  10  18  26  39  63  89 114 148 181 208 241
#     4   9  19  31  44  63  87 116 146 177 212 258
#     4   9  16  29  46  62  86 118 146 173 214 264
#     4   9  18  32  50  70  89 110 139 178 221 263
#     4  10  18  30  43  58  86 122 152 173 210 258
#
# _framework density 15.546341999999999
#
# number of rings (size 3 to 8) (size 9 to 14) (size 15 to 20)
#    0.000    2.714    1.429    0.857    0.000    2.571 
#    0.000    0.000    0.000    0.000    0.000    1.000 
#    0.000    8.000    0.000    0.000    0.000    0.000 
#
# Total GULP energy -347106.680510 kJ/mol
# GULP energy per Si atom -12396.667161 kJ/mol
# Density = 1.551096 g / cm^3
# Si number density = 15.546342 Si / 1000 Ang^3
#
#
#
# Elastic Constant Matrix: (Units=GPa)
#
#
# Indices 1 2 3 4 5 6 
#
# 1 79.0969 44.2777 42.2066 0.0000 7.2523 0.0000
# 2 44.2777 71.0631 38.6707 0.0000 7.8572 0.0000
# 3 42.2066 38.6707 85.4193 0.0000 16.1396 0.0000
# 4 0.0000 0.0000 0.0000 23.5100 0.0000 2.6500
# 5 7.2523 7.8572 16.1396 0.0000 18.2732 0.0000
# 6 0.0000 0.0000 0.0000 2.6500 0.0000 19.4283
#
#
#
# Elastic Compliance Matrix: (Units=1/GPa)
#
#
# Indices 1 2 3 4 5 6 
#
# 1 0.021575 -0.010154 -0.006326 0.000000 0.001391 0.000000
# 2 -0.010154 0.023458 -0.005351 0.000000 -0.001330 0.000000
# 3 -0.006326 -0.005351 0.019621 0.000000 -0.012518 0.000000
# 4 0.000000 0.000000 0.000000 0.043199 0.000000 -0.005892
# 5 0.001391 -0.001330 -0.012518 0.000000 0.065801 0.000000
# 6 0.000000 0.000000 0.000000 -0.005892 0.000000 0.052275
#
#
# Mechanical properties :
#
#
# Convention : Reuss Voigt Hill
#
# Bulk Modulus (GPa) = 47.64104 53.98771 50.81438
# Shear Modulus (GPa) = 18.07736 19.60392 18.84064
#
# Velocity S-wave (km/s) = 3.41369 3.55491 3.48501
# Velocity P-wave (km/s) = 6.80065 7.18694 6.99646
#
# Compressibility (1/GPa) = 0.02099031
#
# Stress axis : x y z
#
# Youngs Moduli (GPa) = 46.34961 42.62978 50.96670
#
# Poissons Ratio (x) = 0.43287 0.32244
# Poissons Ratio (y) = 0.47064 0.27273
# Poissons Ratio (z) = 0.29323 0.22812
#
# Static dielectric constant tensor:
#      x y z
#    x 2.654350 0.000000 0.065450 
#    y 0.000000 3.053310 0.000000 
#    z 0.065450 0.000000 3.047860 
# 
# 
# High freq. dielectric constant tensor:
#      x y z
#    x 1.548510 0.000000 0.012660 
#    y 0.000000 1.602890 0.000000 
#    z 0.012660 0.000000 1.591710 
# 
# From -- ./inp_files/242999.got.cif
#   From: 2010.06.25/outbox.cif.g09.slc.cpg/sg12_122_cif.got.tgz:242999.got - 2010.06.28 00:19:55.
