data_PCOD8079572
_publ_section_title
;
Structure prediction by ZEFSAII (Michael W. Deem and Ramdas Pophale) SiO2 
 PCOD8079572
Probable space group: C 2/M
;
_chemical_formula_sum "Si O2"
_cell_formula_units_Z 60
_cell_length_a 12.063340
_cell_length_b 21.879763
_cell_length_c 16.170348
_cell_angle_alpha 90.000000
_cell_angle_beta 46.560789
_cell_angle_gamma 90.000000
_cell_volume 3099.049748
_symmetry_space_group_name_H-M "C 2/M"
_symmetry_group_IT_number 12
_symmetry_cell_setting 'monoclinic'
loop_
_space_group_symop_operation_xyz
x,y,z
-x,y,-z
-x,-y,-z
x,-y,z
1/2+x,1/2+y,z
1/2-x,1/2+y,-z
1/2-x,1/2-y,-z
1/2+x,1/2-y,z
loop_
_atom_site_type_symbol
_atom_site_label
_atom_site_fract_x
_atom_site_fract_y
_atom_site_fract_z
Si Si1 0.675433 0.565749 0.005913
Si Si2 0.355412 0.706524 0.632315
Si Si3 0.362003 0.931841 0.744210
Si Si4 0.873454 0.349758 0.996803
Si Si5 0.315798 0.672939 0.240136
Si Si6 0.915785 0.204647 0.780706
Si Si7 0.000000 0.158173 0.000000
Si Si8 0.460736 0.832953 0.259009
O O1 0.603288 0.500000 0.067260
O O2 0.758600 0.558841 0.876511
O O3 0.787042 0.586288 0.022618
O O4 0.549653 0.617142 0.053642
O O5 0.500000 0.703620 0.500000
O O6 0.302404 0.776538 0.668997
O O7 0.395113 0.675271 0.700186
O O8 0.220594 0.667877 0.658890
O O9 0.269293 0.892884 0.722609
O O10 0.507260 0.892559 0.701304
O O11 0.408148 0.000000 0.686787
O O12 0.747518 0.299345 0.088183
O O13 0.000000 0.362254 0.000000
O O14 0.956662 0.328068 0.871767
O O15 0.454810 0.668687 0.234071
O O16 0.371552 0.695779 0.117096
O O17 0.970223 0.273481 0.732050
#
# Coordination Sequence:
#
# PCOD8079572 Si02
#       8
#     8   8   8   8   8   8   4   8
#     4   9  18  30  49  79 117 157 190 219 272 341
#     4  11  24  40  60  84 113 152 196 246 296 346
#     4   9  18  36  59  87 120 156 194 229 278 344
#     4  11  20  33  53  81 117 150 187 235 286 346
#     4  10  21  35  57  89 118 153 189 232 289 342
#     4  11  21  37  55  84 117 150 188 237 294 345
#     4  10  17  32  54  82 120 152 187 222 280 346
#     4  10  21  36  59  86 117 154 190 230 292 347
#
# _framework density 19.360772999999998
#
# number of rings (size 3 to 8) (size 9 to 14) (size 15 to 20)
#    0.000    1.867    4.000    0.600    0.000    5.067 
#    0.000    0.000    0.000    1.600    0.000    0.000 
#    0.000    0.000    0.000    0.000    0.000    0.000 
#
# Total GULP energy -371663.950242 kJ/mol
# GULP energy per Si atom -12388.798341 kJ/mol
# Density = 1.931671 g / cm^3
# Si number density = 19.360773 Si / 1000 Ang^3
#
#
#
# Elastic Constant Matrix: (Units=GPa)
#
#
# Indices 1 2 3 4 5 6 
#
# 1 132.7526 40.6547 30.8902 0.0002 -23.3044 0.0000
# 2 40.6547 93.0932 16.1379 0.0001 -10.6715 0.0000
# 3 30.8902 16.1379 98.9399 0.0006 -18.3783 -0.0001
# 4 0.0002 0.0001 0.0006 -3.0201 -0.0004 -20.1402
# 5 -23.3044 -10.6715 -18.3783 -0.0004 16.1463 0.0001
# 6 0.0000 0.0000 -0.0001 -20.1402 0.0001 -4.7238
#
#
#
# Elastic Compliance Matrix: (Units=1/GPa)
#
#
# Indices 1 2 3 4 5 6 
#
# 1 0.010920 -0.003184 -0.000448 0.000000 0.013147 0.000000
# 2 -0.003184 0.012579 -0.000465 0.000000 0.003188 0.000000
# 3 -0.000448 -0.000465 0.012866 0.000000 0.013690 0.000000
# 4 0.000000 0.000000 0.000000 0.012070 0.000001 -0.051462
# 5 0.013147 0.003188 0.013690 0.000001 0.098599 -0.000002
# 6 0.000000 0.000000 0.000000 -0.051462 -0.000002 0.007717
#
#
# Mechanical properties :
#
#
# Convention : Reuss Voigt Hill
#
# Bulk Modulus (GPa) = 35.49923 55.57237 45.53580
# Shear Modulus (GPa) = 29.01319 17.48734 23.25027
#
# Velocity S-wave (km/s) = 3.87532 3.00865 3.46915
# Velocity P-wave (km/s) = 6.19674 6.39024 6.29423
#
# Compressibility (1/GPa) = 0.02816962
#
# Stress axis : x y z
#
# Youngs Moduli (GPa) = 91.57438 79.50008 77.72472
#
# Poissons Ratio (x) = 0.25314 0.03482
# Poissons Ratio (y) = 0.29159 0.03617
# Poissons Ratio (z) = 0.04102 0.03700
#
# Static dielectric constant tensor:
#      x y z
#    x 3.847520 0.000000 -0.132200 
#    y 0.000000 3.921660 0.000000 
#    z -0.132200 0.000000 3.184440 
# 
# 
# High freq. dielectric constant tensor:
#      x y z
#    x 1.774270 0.000000 -0.014470 
#    y 0.000000 1.729130 0.000000 
#    z -0.014470 0.000000 1.712670 
# 
# From -- ./inp_files/265695.got.cif
#   From: 2010.06.25/outbox.cif.g09.slc.cpg/sg12_133_cif.got.tgz:265695.got - 2010.06.28 00:19:55.
