data_PCOD8079227
_publ_section_title
;
Structure prediction by ZEFSAII (Michael W. Deem and Ramdas Pophale) SiO2 
 PCOD8079227
Probable space group: C 2/M
;
_chemical_formula_sum "Si O2"
_cell_formula_units_Z 56
_cell_length_a 10.181116
_cell_length_b 27.931036
_cell_length_c 14.140846
_cell_angle_alpha 90.000000
_cell_angle_beta 58.792922
_cell_angle_gamma 90.000000
_cell_volume 3439.350422
_symmetry_space_group_name_H-M "C 2/M"
_symmetry_group_IT_number 12
_symmetry_cell_setting 'monoclinic'
loop_
_space_group_symop_operation_xyz
x,y,z
-x,y,-z
-x,-y,-z
x,-y,z
1/2+x,1/2+y,z
1/2-x,1/2+y,-z
1/2-x,1/2-y,-z
1/2+x,1/2-y,z
loop_
_atom_site_type_symbol
_atom_site_label
_atom_site_fract_x
_atom_site_fract_y
_atom_site_fract_z
Si Si1 0.652841 0.054032 0.504567
Si Si2 0.412077 0.944888 0.937092
Si Si3 0.484854 0.106084 0.721795
Si Si4 0.741634 0.789753 0.372709
Si Si5 0.555259 0.791174 0.628298
Si Si6 0.687090 0.392679 0.711513
Si Si7 0.557608 0.555372 0.081535
O O1 0.500000 0.056837 0.500000
O O2 0.621088 0.077855 0.617860
O O3 0.785136 0.082725 0.400377
O O4 0.708697 0.000000 0.499625
O O5 0.481119 0.910692 0.831111
O O6 0.432016 0.000000 0.897408
O O7 0.500000 0.933494 0.000000
O O8 0.235916 0.932967 0.022391
O O9 0.521907 0.162354 0.703886
O O10 0.322232 0.093671 0.734098
O O11 0.672487 0.804545 0.500301
O O12 0.604080 0.771531 0.356262
O O13 0.869883 0.748787 0.332632
O O14 0.823724 0.835765 0.297376
O O15 0.526521 0.411791 0.810391
O O16 0.519966 0.500000 0.117198
O O17 0.500000 0.570027 0.000000
#
# Coordination Sequence:
#
# PCOD8079227 Si02
#       7
#     8   8   8   8   8   8   8
#     4   9  16  24  42  76 107 129 154 199 258 303
#     4  10  21  36  52  72 101 140 177 205 242 296
#     4  10  17  30  51  74 102 133 167 207 251 299
#     4   9  17  31  50  74 103 131 163 204 250 305
#     4   9  17  31  51  74 101 130 166 205 250 303
#     4  10  17  29  50  77 105 128 162 211 257 296
#     4  10  19  32  52  76 100 133 174 210 244 290
#
# _framework density 16.282143999999999
#
# number of rings (size 3 to 8) (size 9 to 14) (size 15 to 20)
#    0.000    2.429    2.857    0.857    0.000    1.143 
#    2.571    0.000    0.000    2.571    0.000    4.000 
#    0.000    0.000    0.000    0.000    0.000    0.000 
#
# Total GULP energy -347234.500974 kJ/mol
# GULP energy per Si atom -12401.232178 kJ/mol
# Density = 1.624509 g / cm^3
# Si number density = 16.282144 Si / 1000 Ang^3
#
#
#
# Elastic Constant Matrix: (Units=GPa)
#
#
# Indices 1 2 3 4 5 6 
#
# 1 86.6333 50.7962 50.6872 0.0000 0.7477 0.0000
# 2 50.7962 96.7297 60.5337 0.0000 -0.5546 0.0000
# 3 50.6872 60.5337 112.4042 0.0000 -2.8213 0.0000
# 4 0.0000 0.0000 0.0000 25.8568 0.0000 0.6382
# 5 0.7477 -0.5546 -2.8213 0.0000 15.2971 0.0000
# 6 0.0000 0.0000 0.0000 0.6382 0.0000 32.3907
#
#
#
# Elastic Compliance Matrix: (Units=1/GPa)
#
#
# Indices 1 2 3 4 5 6 
#
# 1 0.018187 -0.006634 -0.004678 0.000000 -0.001992 0.000000
# 2 -0.006634 0.018028 -0.006724 0.000000 -0.000262 0.000000
# 3 -0.004678 -0.006724 0.014695 0.000000 0.002695 0.000000
# 4 0.000000 0.000000 0.000000 0.038693 0.000000 -0.000762
# 5 -0.001992 -0.000262 0.002695 0.000000 0.065957 0.000000
# 6 0.000000 0.000000 0.000000 -0.000762 0.000000 0.030888
#
#
# Mechanical properties :
#
#
# Convention : Reuss Voigt Hill
#
# Bulk Modulus (GPa) = 67.39856 68.86682 68.13269
# Shear Modulus (GPa) = 21.98112 23.62559 22.80336
#
# Velocity S-wave (km/s) = 3.67824 3.81335 3.74640
# Velocity P-wave (km/s) = 7.71513 7.85981 7.78781
#
# Compressibility (1/GPa) = 0.01483711
#
# Stress axis : x y z
#
# Youngs Moduli (GPa) = 54.98311 55.46825 68.05129
#
# Poissons Ratio (x) = 0.36800 0.31838
# Poissons Ratio (y) = 0.36478 0.45756
# Poissons Ratio (z) = 0.25724 0.37295
#
# Static dielectric constant tensor:
#      x y z
#    x 2.842490 0.000000 -0.021910 
#    y 0.000000 3.008020 0.000000 
#    z -0.021910 0.000000 2.949830 
# 
# 
# High freq. dielectric constant tensor:
#      x y z
#    x 1.600910 0.000000 -0.004350 
#    y 0.000000 1.622440 0.000000 
#    z -0.004350 0.000000 1.618430 
# 
# From -- ./inp_files/125627.got.cif
#   From: 2010.06.25/outbox.cif.g09.slc.cpg/sg12_63_cif.got.tgz:125627.got - 2010.06.28 00:19:55.
