data_PCOD8079832
_publ_section_title
;
Structure prediction by ZEFSAII (Michael W. Deem and Ramdas Pophale) SiO2 
 PCOD8079832
Probable space group: C 2/M
;
_chemical_formula_sum "Si O2"
_cell_formula_units_Z 64
_cell_length_a 24.283820
_cell_length_b 9.118589
_cell_length_c 20.121561
_cell_angle_alpha 90.000000
_cell_angle_beta 114.939769
_cell_angle_gamma 90.000000
_cell_volume 4040.123351
_symmetry_space_group_name_H-M "C 2/M"
_symmetry_group_IT_number 12
_symmetry_cell_setting 'monoclinic'
loop_
_space_group_symop_operation_xyz
x,y,z
-x,y,-z
-x,-y,-z
x,-y,z
1/2+x,1/2+y,z
1/2-x,1/2+y,-z
1/2-x,1/2-y,-z
1/2+x,1/2-y,z
loop_
_atom_site_type_symbol
_atom_site_label
_atom_site_fract_x
_atom_site_fract_y
_atom_site_fract_z
Si Si1 0.207786 0.171160 0.385615
Si Si2 0.722974 0.829422 0.261051
Si Si3 0.569994 0.831013 0.548293
Si Si4 0.813978 0.827928 0.026510
Si Si5 0.138134 0.827956 0.697074
Si Si6 0.835623 0.330773 0.514281
Si Si7 0.844212 0.333735 0.164260
Si Si8 0.202718 0.162638 0.125395
O O1 0.193632 0.246535 0.308316
O O2 0.162125 0.234243 0.417904
O O3 0.276636 0.209361 0.440853
O O4 0.196136 0.000000 0.372373
O O5 0.793958 0.789099 0.292163
O O6 0.688368 0.777778 0.176422
O O7 0.711779 0.000000 0.264784
O O8 0.500000 0.799423 0.500000
O O9 0.591245 0.727691 0.618447
O O10 0.605525 0.791180 0.498930
O O11 0.582551 0.000000 0.574258
O O12 0.859275 0.752101 0.102902
O O13 0.807113 0.000000 0.039562
O O14 0.750000 0.750000 0.000000
O O15 0.836763 0.805017 0.961623
O O16 0.122153 0.747182 0.757910
O O17 0.129999 0.000000 0.703791
O O18 0.834064 0.500000 0.534888
O O19 0.868325 0.500000 0.171181
O O20 0.772724 0.328473 0.140293
O O21 0.187963 0.000000 0.144919
#
# Coordination Sequence:
#
# PCOD8079832 Si02
#       8
#     8   8   8   8   8   8   8   8
#     4  10  18  28  45  63  83 110 138 175 216 255
#     4  10  18  26  39  59  82 109 140 176 212 250
#     4  10  20  34  50  65  84 112 143 177 219 263
#     4   9  15  23  34  50  73 103 138 173 208 247
#     4  10  19  29  42  60  82 107 140 179 216 256
#     4   9  18  31  45  63  84 107 137 175 214 257
#     4   9  16  25  38  53  73 103 138 176 212 248
#     4   8  15  24  34  50  75 106 137 169 205 247
#
# _framework density 15.841100000000001
#
# number of rings (size 3 to 8) (size 9 to 14) (size 15 to 20)
#    0.000    2.625    1.250    2.625    0.000    5.750 
#    0.000    0.000    0.000    0.000    0.000    0.000 
#    0.000    0.000    0.000    1.125    0.000   21.875 
#
# Total GULP energy -396706.831895 kJ/mol
# GULP energy per Si atom -12397.088497 kJ/mol
# Density = 1.580504 g / cm^3
# Si number density = 15.841100 Si / 1000 Ang^3
#
#
#
# Elastic Constant Matrix: (Units=GPa)
#
#
# Indices 1 2 3 4 5 6 
#
# 1 50.0253 26.9952 36.6477 0.0000 -10.7952 0.0000
# 2 26.9952 101.6277 69.0424 0.0000 -18.7220 0.0000
# 3 36.6477 69.0424 113.7517 0.0000 -31.7564 0.0000
# 4 0.0000 0.0000 0.0000 34.3222 0.0000 -8.6737
# 5 -10.7952 -18.7220 -31.7564 0.0000 18.2545 0.0000
# 6 0.0000 0.0000 0.0000 -8.6737 0.0000 14.5857
#
#
#
# Elastic Compliance Matrix: (Units=1/GPa)
#
#
# Indices 1 2 3 4 5 6 
#
# 1 0.026454 -0.002121 -0.006757 0.000000 0.001715 0.000000
# 2 -0.002121 0.016923 -0.009902 0.000000 -0.001124 0.000000
# 3 -0.006757 -0.009902 0.025329 0.000000 0.029911 0.000000
# 4 0.000000 0.000000 0.000000 0.034289 0.000000 0.020390
# 5 0.001715 -0.001124 0.029911 0.000000 0.106677 0.000000
# 6 0.000000 0.000000 0.000000 0.020390 0.000000 0.080686
#
#
# Mechanical properties :
#
#
# Convention : Reuss Voigt Hill
#
# Bulk Modulus (GPa) = 32.10648 58.97503 45.54076
# Shear Modulus (GPa) = 14.77979 22.28044 18.53012
#
# Velocity S-wave (km/s) = 3.05782 3.75440 3.42387
# Velocity P-wave (km/s) = 5.72528 7.49026 6.66644
#
# Compressibility (1/GPa) = 0.03114636
#
# Stress axis : x y z
#
# Youngs Moduli (GPa) = 37.80087 59.08977 39.48102
#
# Poissons Ratio (x) = 0.12531 0.26678
# Poissons Ratio (y) = 0.08016 0.39095
# Poissons Ratio (z) = 0.25542 0.58512
#
# Static dielectric constant tensor:
#      x y z
#    x 2.534290 0.000000 -0.347250 
#    y 0.000000 3.115220 0.000000 
#    z -0.347250 0.000000 3.297760 
# 
# 
# High freq. dielectric constant tensor:
#      x y z
#    x 1.535910 0.000000 -0.036590 
#    y 0.000000 1.622890 0.000000 
#    z -0.036590 0.000000 1.612130 
# 
# From -- ./inp_files/326628.got.cif
#   From: 2010.06.25/outbox.cif.g09.slc.cpg/sg12_164_cif.got.tgz:326628.got - 2010.06.28 00:19:55.
