data_PCOD8079087
_publ_section_title
;
Structure prediction by ZEFSAII (Michael W. Deem and Ramdas Pophale) SiO2 
 PCOD8079087
Probable space group: C 2/M
;
_chemical_formula_sum "Si O2"
_cell_formula_units_Z 48
_cell_length_a 11.481584
_cell_length_b 19.556636
_cell_length_c 11.865757
_cell_angle_alpha 90.000000
_cell_angle_beta 90.765213
_cell_angle_gamma 90.000000
_cell_volume 2664.113214
_symmetry_space_group_name_H-M "C 2/M"
_symmetry_group_IT_number 12
_symmetry_cell_setting 'monoclinic'
loop_
_space_group_symop_operation_xyz
x,y,z
-x,y,-z
-x,-y,-z
x,-y,z
1/2+x,1/2+y,z
1/2-x,1/2+y,-z
1/2-x,1/2-y,-z
1/2+x,1/2-y,z
loop_
_atom_site_type_symbol
_atom_site_label
_atom_site_fract_x
_atom_site_fract_y
_atom_site_fract_z
Si Si1 0.720084 0.828059 0.232907
Si Si2 0.599102 0.421663 0.345732
Si Si3 0.385735 0.682524 0.040591
Si Si4 0.235493 0.177620 0.192670
Si Si5 0.663076 0.578525 0.595431
Si Si6 0.025177 0.328511 0.879653
O O1 0.805156 0.854643 0.132610
O O2 0.743396 0.748383 0.262741
O O3 0.743513 0.872789 0.343839
O O4 0.585360 0.838519 0.201216
O O5 0.612931 0.500000 0.308523
O O6 0.646917 0.374499 0.247540
O O7 0.464769 0.403022 0.361245
O O8 0.669705 0.408271 0.461825
O O9 0.442611 0.749321 0.098706
O O10 0.500000 0.638467 0.000000
O O11 0.305832 0.700927 0.932379
O O12 0.361555 0.140333 0.182413
O O13 0.693337 0.500000 0.622923
O O14 0.000000 0.364708 0.000000
#
# Coordination Sequence:
#
# PCOD8079087 Si02
#       6
#     8   8   8   8   8   8
#     4  11  19  31  55  82 112 141 181 221 262 324
#     4   9  20  40  59  77 105 142 183 228 279 316
#     4  10  17  28  49  81 109 143 175 215 270 315
#     4  11  19  30  56  83 108 145 181 220 262 321
#     4   9  20  39  60  77 103 144 183 228 277 317
#     4  10  17  31  47  80 112 149 172 203 271 326
#
# _framework density 18.017253
#
# number of rings (size 3 to 8) (size 9 to 14) (size 15 to 20)
#    0.000    2.000    5.000    3.000    2.333    0.667 
#    0.000    2.500    0.000    6.000    0.000    0.000 
#    0.000    0.000    0.000    0.000    0.000    0.000 
#
# Total GULP energy -297457.792123 kJ/mol
# GULP energy per Si atom -12394.074672 kJ/mol
# Density = 1.797624 g / cm^3
# Si number density = 18.017253 Si / 1000 Ang^3
#
#
#
# Elastic Constant Matrix: (Units=GPa)
#
#
# Indices 1 2 3 4 5 6 
#
# 1 93.5457 17.2639 18.8054 0.0000 13.0114 0.0000
# 2 17.2639 51.8049 31.8872 0.0000 9.0208 0.0000
# 3 18.8054 31.8872 59.1070 0.0000 14.5045 0.0000
# 4 0.0000 0.0000 0.0000 17.3421 0.0000 -9.2013
# 5 13.0114 9.0208 14.5045 0.0000 35.2291 0.0000
# 6 0.0000 0.0000 0.0000 -9.2013 0.0000 14.5917
#
#
#
# Elastic Compliance Matrix: (Units=1/GPa)
#
#
# Indices 1 2 3 4 5 6 
#
# 1 0.011905 -0.002343 -0.001771 0.000000 -0.003068 0.000000
# 2 -0.002343 0.029399 -0.014995 0.000000 -0.000489 0.000000
# 3 -0.001771 -0.014995 0.027218 0.000000 -0.006713 0.000000
# 4 0.000000 0.000000 0.000000 0.086655 0.000000 0.054643
# 5 -0.003068 -0.000489 -0.006713 0.000000 0.032408 0.000000
# 6 0.000000 0.000000 0.000000 0.054643 0.000000 0.102989
#
#
# Mechanical properties :
#
#
# Convention : Reuss Voigt Hill
#
# Bulk Modulus (GPa) = 32.99767 37.81896 35.40832
# Shear Modulus (GPa) = 14.75389 22.53266 18.64327
#
# Velocity S-wave (km/s) = 2.86471 3.54024 3.22024
# Velocity P-wave (km/s) = 5.41260 6.14386 5.78979
#
# Compressibility (1/GPa) = 0.03030517
#
# Stress axis : x y z
#
# Youngs Moduli (GPa) = 83.99765 34.01498 36.73976
#
# Poissons Ratio (x) = 0.07970 0.06506
# Poissons Ratio (y) = 0.19682 0.55090
# Poissons Ratio (z) = 0.14874 0.51004
#
# Static dielectric constant tensor:
#      x y z
#    x 3.816580 0.000000 -0.215600 
#    y 0.000000 2.857530 0.000000 
#    z -0.215600 0.000000 3.259050 
# 
# 
# High freq. dielectric constant tensor:
#      x y z
#    x 1.713510 0.000000 -0.001570 
#    y 0.000000 1.646290 0.000000 
#    z -0.001570 0.000000 1.688250 
# 
# From -- ./inp_files/131013.got.cif
#   From: 2010.06.25/outbox.cif.g09.slc.cpg/sg12_66_cif.got.tgz:131013.got - 2010.06.28 00:19:55.
