data_PCOD8079721
_publ_section_title
;
Structure prediction by ZEFSAII (Michael W. Deem and Ramdas Pophale) SiO2 
 PCOD8079721
Probable space group: C 2/M
;
_chemical_formula_sum "Si O2"
_cell_formula_units_Z 52
_cell_length_a 24.712228
_cell_length_b 11.596081
_cell_length_c 12.357604
_cell_angle_alpha 90.000000
_cell_angle_beta 47.080019
_cell_angle_gamma 90.000000
_cell_volume 2593.281674
_symmetry_space_group_name_H-M "C 2/M"
_symmetry_group_IT_number 12
_symmetry_cell_setting 'monoclinic'
loop_
_space_group_symop_operation_xyz
x,y,z
-x,y,-z
-x,-y,-z
x,-y,z
1/2+x,1/2+y,z
1/2-x,1/2+y,-z
1/2-x,1/2-y,-z
1/2+x,1/2-y,z
loop_
_atom_site_type_symbol
_atom_site_label
_atom_site_fract_x
_atom_site_fract_y
_atom_site_fract_z
Si Si1 0.146173 0.133574 0.832717
Si Si2 0.944370 0.244744 0.860159
Si Si3 0.801411 0.737517 0.635289
Si Si4 0.172091 0.735534 0.161552
Si Si5 0.402352 0.632377 0.344469
Si Si6 0.392052 0.000000 0.711870
Si Si7 0.476732 0.000000 0.802251
Si Si8 0.378050 0.000000 0.495341
O O1 0.212950 0.223679 0.759302
O O2 0.112617 0.151574 0.760801
O O3 0.169395 0.000000 0.820211
O O4 0.082233 0.167832 0.003878
O O5 0.893809 0.216012 0.824111
O O6 0.942874 0.381401 0.897362
O O7 0.027647 0.209522 0.714634
O O8 0.829428 0.785844 0.713879
O O9 0.829394 0.830663 0.510321
O O10 0.828897 0.613528 0.557063
O O11 0.164214 0.601135 0.187472
O O12 0.250000 0.750000 0.000000
O O13 0.420096 0.500000 0.346038
O O14 0.462074 0.000000 0.693895
O O15 0.422449 0.000000 0.548643
O O16 0.566042 0.000000 0.683467
#
# Coordination Sequence:
#
# PCOD8079721 Si02
#       8
#     8   8   8   8   8   4   4   4
#     4  11  23  42  67  88 121 168 214 252 296 366
#     4  11  22  40  64  91 125 161 205 252 311 367
#     4  11  21  40  66  92 121 159 207 252 308 365
#     4  10  20  37  59  91 124 156 194 252 312 368
#     4  11  25  44  61  89 125 167 211 256 303 360
#     4   8  19  30  56  85 117 157 195 237 300 363
#     4  10  19  36  58  90 125 149 194 258 307 361
#     4  10  17  34  63  88 116 153 203 249 294 366
#
# _framework density 20.051814
#
# number of rings (size 3 to 8) (size 9 to 14) (size 15 to 20)
#    0.000    1.538    3.846    1.615    0.000    1.846 
#    4.154    3.077    0.000    0.000    0.000    0.000 
#    0.000    0.000    0.000    0.000    0.000    0.000 
#
# Total GULP energy -322271.362177 kJ/mol
# GULP energy per Si atom -12395.052391 kJ/mol
# Density = 2.000618 g / cm^3
# Si number density = 20.051814 Si / 1000 Ang^3
#
#
#
# Elastic Constant Matrix: (Units=GPa)
#
#
# Indices 1 2 3 4 5 6 
#
# 1 73.6567 34.9768 26.2943 0.0000 -0.0042 0.0000
# 2 34.9768 79.3556 29.8717 0.0000 8.5390 0.0001
# 3 26.2943 29.8717 93.9901 0.0000 -2.9528 0.0000
# 4 0.0000 0.0000 0.0000 -11.5507 0.0000 134.8449
# 5 -0.0042 8.5390 -2.9528 0.0000 32.2048 0.0000
# 6 0.0000 0.0001 0.0000 134.8449 0.0000 -430.6416
#
#
#
# Elastic Compliance Matrix: (Units=1/GPa)
#
#
# Indices 1 2 3 4 5 6 
#
# 1 0.017887 -0.007035 -0.002717 0.000000 0.001619 0.000000
# 2 -0.007035 0.017678 -0.003808 0.000000 -0.005037 0.000000
# 3 -0.002717 -0.003808 0.012678 0.000000 0.002172 0.000000
# 4 0.000000 0.000000 0.000000 0.032602 0.000000 0.010209
# 5 0.001619 -0.005037 0.002172 0.000000 0.032586 0.000000
# 6 0.000000 0.000000 0.000000 0.010209 0.000000 0.000874
#
#
# Mechanical properties :
#
#
# Convention : Reuss Voigt Hill
#
# Bulk Modulus (GPa) = 47.34523 47.69869 47.52196
# Shear Modulus (GPa) = 33.67690 -71.60688 -18.96499
#
# Velocity S-wave (km/s) = 4.10261 -5.98234 -3.07872
# Velocity P-wave (km/s) = 6.79003 4.88657 3.33362
#
# Compressibility (1/GPa) = 0.02112145
#
# Stress axis : x y z
#
# Youngs Moduli (GPa) = 55.90502 56.56719 78.87534
#
# Poissons Ratio (x) = 0.39797 0.21433
# Poissons Ratio (y) = 0.39331 0.30039
# Poissons Ratio (z) = 0.15191 0.21543
#
# Static dielectric constant tensor:
#      x y z
#    x 3.645570 0.000000 0.041830 
#    y 0.000000 3.632800 0.000000 
#    z 0.041830 0.000000 3.511350 
# 
# 
# High freq. dielectric constant tensor:
#      x y z
#    x 1.783120 0.000000 -0.006340 
#    y 0.000000 1.773040 0.000000 
#    z -0.006340 0.000000 1.783870 
# 
# From -- ./inp_files/175212.got.cif
#   From: 2010.06.25/outbox.cif.g09.slc.cpg/sg12_88_cif.got.tgz:175212.got - 2010.06.28 00:19:55.
