data_PCOD8079956
_publ_section_title
;
Structure prediction by ZEFSAII (Michael W. Deem and Ramdas Pophale) SiO2 
 PCOD8079956
Probable space group: C 2/M
;
_chemical_formula_sum "Si O2"
_cell_formula_units_Z 64
_cell_length_a 20.839677
_cell_length_b 9.229371
_cell_length_c 19.938219
_cell_angle_alpha 90.000000
_cell_angle_beta 104.039178
_cell_angle_gamma 90.000000
_cell_volume 3720.312476
_symmetry_space_group_name_H-M "C 2/M"
_symmetry_group_IT_number 12
_symmetry_cell_setting 'monoclinic'
loop_
_space_group_symop_operation_xyz
x,y,z
-x,y,-z
-x,-y,-z
x,-y,z
1/2+x,1/2+y,z
1/2-x,1/2+y,-z
1/2-x,1/2-y,-z
1/2+x,1/2-y,z
loop_
_atom_site_type_symbol
_atom_site_label
_atom_site_fract_x
_atom_site_fract_y
_atom_site_fract_z
Si Si1 0.806901 0.837670 0.429193
Si Si2 0.842710 0.660877 0.557621
Si Si3 0.275471 0.166848 0.148693
Si Si4 0.260910 0.833002 0.297190
Si Si5 0.855493 0.672314 0.927284
Si Si6 0.892824 0.327974 0.084804
Si Si7 0.962988 0.329630 0.849416
Si Si8 0.128477 0.330383 0.291718
O O1 0.854302 0.768485 0.498307
O O2 0.732587 0.836208 0.436923
O O3 0.810473 0.745487 0.361737
O O4 0.831889 0.000000 0.421309
O O5 0.862041 0.500000 0.538240
O O6 0.886193 0.707430 0.633715
O O7 0.291967 0.183000 0.231433
O O8 0.213566 0.262026 0.112333
O O9 0.338829 0.226704 0.124469
O O10 0.260415 0.000000 0.126484
O O11 0.188812 0.761697 0.278071
O O12 0.253762 0.000000 0.317151
O O13 0.849250 0.500000 0.921614
O O14 0.912694 0.731849 0.892513
O O15 0.872848 0.726724 0.006094
O O16 0.897025 0.500000 0.087242
O O17 0.964314 0.260594 0.122622
O O18 0.967980 0.500000 0.861327
O O19 0.936294 0.292251 0.768150
O O20 0.147899 0.500000 0.290020
#
# Coordination Sequence:
#
# PCOD8079956 Si02
#       8
#     8   8   8   8   8   8   8   8
#     4   9  16  25  39  60  87 117 149 185 223 265
#     4   8  14  23  36  58  89 117 141 176 227 276
#     4  10  20  32  46  67  96 127 155 188 235 282
#     4  10  18  27  41  61  88 122 153 184 225 272
#     4  10  18  30  52  73  90 118 157 198 235 275
#     4   9  18  31  47  70  96 121 154 195 236 278
#     4   9  16  28  48  72  94 118 155 198 234 269
#     4   9  16  27  44  66  89 116 151 190 227 266
#
# _framework density 17.202855
#
# number of rings (size 3 to 8) (size 9 to 14) (size 15 to 20)
#    0.000    2.750    1.250    2.250    0.000    5.000 
#    0.000    0.000    0.000    3.750    0.000    0.875 
#    0.000    7.000    0.000    0.000    0.000    0.000 
#
# Total GULP energy -396686.270867 kJ/mol
# GULP energy per Si atom -12396.445965 kJ/mol
# Density = 1.716370 g / cm^3
# Si number density = 17.202855 Si / 1000 Ang^3
#
#
#
# Elastic Constant Matrix: (Units=GPa)
#
#
# Indices 1 2 3 4 5 6 
#
# 1 90.0087 25.8070 55.9674 0.0000 -1.3759 0.0000
# 2 25.8070 62.6383 49.6809 0.0000 1.4587 0.0000
# 3 55.9674 49.6809 153.3800 0.0000 7.5808 0.0000
# 4 0.0000 0.0000 0.0000 22.7986 0.0000 1.5607
# 5 -1.3759 1.4587 7.5808 0.0000 7.3235 0.0000
# 6 0.0000 0.0000 0.0000 1.5607 0.0000 12.2166
#
#
#
# Elastic Compliance Matrix: (Units=1/GPa)
#
#
# Indices 1 2 3 4 5 6 
#
# 1 0.015143 -0.002312 -0.005207 0.000000 0.008695 0.000000
# 2 -0.002312 0.021903 -0.006338 0.000000 0.001764 0.000000
# 3 -0.005207 -0.006338 0.011022 0.000000 -0.011126 0.000000
# 4 0.000000 0.000000 0.000000 0.044249 0.000000 -0.005653
# 5 0.008695 0.001764 -0.011126 0.000000 0.149345 0.000000
# 6 0.000000 0.000000 0.000000 -0.005653 0.000000 0.082578
#
#
# Mechanical properties :
#
#
# Convention : Reuss Voigt Hill
#
# Bulk Modulus (GPa) = 49.12676 63.21526 56.17101
# Shear Modulus (GPa) = 13.93767 20.10586 17.02176
#
# Velocity S-wave (km/s) = 2.84948 3.42241 3.14900
# Velocity P-wave (km/s) = 6.28056 7.24182 6.77825
#
# Compressibility (1/GPa) = 0.02035551
#
# Stress axis : x y z
#
# Youngs Moduli (GPa) = 66.03587 45.65548 90.72385
#
# Poissons Ratio (x) = 0.10555 0.47236
# Poissons Ratio (y) = 0.15267 0.57502
# Poissons Ratio (z) = 0.34382 0.28937
#
# Static dielectric constant tensor:
#      x y z
#    x 2.968780 0.000000 0.041110 
#    y 0.000000 3.068320 0.000000 
#    z 0.041110 0.000000 3.594380 
# 
# 
# High freq. dielectric constant tensor:
#      x y z
#    x 1.614930 0.000000 0.005000 
#    y 0.000000 1.641060 0.000000 
#    z 0.005000 0.000000 1.686210 
# 
# From -- ./inp_files/319234.got.cif
#   From: 2010.06.25/outbox.cif.g09.slc.cpg/sg12_160_cif.got.tgz:319234.got - 2010.06.28 00:19:55.
