data_PCOD8079568
_publ_section_title
;
Structure prediction by ZEFSAII (Michael W. Deem and Ramdas Pophale) SiO2 
 PCOD8079568
Probable space group: C 2/M
;
_chemical_formula_sum "Si O2"
_cell_formula_units_Z 44
_cell_length_a 23.016243
_cell_length_b 21.443343
_cell_length_c 14.393561
_cell_angle_alpha 90.000000
_cell_angle_beta 160.742327
_cell_angle_gamma 90.000000
_cell_volume 2342.978555
_symmetry_space_group_name_H-M "C 2/M"
_symmetry_group_IT_number 12
_symmetry_cell_setting 'monoclinic'
loop_
_space_group_symop_operation_xyz
x,y,z
-x,y,-z
-x,-y,-z
x,-y,z
1/2+x,1/2+y,z
1/2-x,1/2+y,-z
1/2-x,1/2-y,-z
1/2+x,1/2-y,z
loop_
_atom_site_type_symbol
_atom_site_label
_atom_site_fract_x
_atom_site_fract_y
_atom_site_fract_z
Si Si1 0.101279 0.198668 0.752517
Si Si2 0.296130 0.699063 0.439638
Si Si3 0.000000 0.392848 0.000000
Si Si4 0.957059 0.432599 0.739455
Si Si5 0.322371 0.331810 0.691939
Si Si6 0.689969 0.431765 0.832362
O O1 0.194564 0.130358 0.902375
O O2 0.000000 0.209112 0.500000
O O3 0.963936 0.199909 0.628027
O O4 0.250000 0.250000 0.000000
O O5 0.151598 0.650770 0.183962
O O6 0.347360 0.678546 0.620488
O O7 0.211646 0.767110 0.308019
O O8 0.936029 0.435407 0.819220
O O9 0.891446 0.500000 0.602977
O O10 0.835862 0.377596 0.517622
O O11 0.159791 0.422002 0.018107
O O12 0.500000 0.361988 0.000000
O O13 0.500000 0.433760 0.500000
O O14 0.719139 0.500000 0.927220
#
# Coordination Sequence:
#
# PCOD8079568 Si02
#       6
#     8   8   4   8   8   8
#     4  11  23  36  57  87 117 149 189 236 284 339
#     4  10  21  35  57  84 110 141 186 230 288 331
#     4  10  17  32  54  80 107 136 180 238 280 318
#     4  10  20  33  53  81 111 146 186 226 275 334
#     4  10  21  36  57  80 113 150 181 229 281 337
#     4   9  18  35  56  79 110 149 188 231 283 333
#
# _framework density 18.779515
#
# number of rings (size 3 to 8) (size 9 to 14) (size 15 to 20)
#    0.000    2.000    0.909    3.545    2.545    0.364 
#    0.000    3.636    0.000    0.545    0.000    0.000 
#    0.000    0.000    0.000    0.000    0.000    0.000 
#
# Total GULP energy -272583.649936 kJ/mol
# GULP energy per Si atom -12390.165906 kJ/mol
# Density = 1.873677 g / cm^3
# Si number density = 18.779515 Si / 1000 Ang^3
#
#
#
# Elastic Constant Matrix: (Units=GPa)
#
#
# Indices 1 2 3 4 5 6 
#
# 1 77.5481 44.1309 28.4615 0.0000 32.5018 0.0000
# 2 44.1309 129.2911 49.7462 0.0000 11.4570 0.0000
# 3 28.4615 49.7462 99.2456 -0.0002 21.3433 0.0000
# 4 0.0000 0.0000 -0.0002 23.1355 -0.0001 9.0987
# 5 32.5018 11.4570 21.3433 -0.0001 33.4541 0.0000
# 6 0.0000 0.0000 0.0000 9.0987 0.0000 23.1640
#
#
#
# Elastic Compliance Matrix: (Units=1/GPa)
#
#
# Indices 1 2 3 4 5 6 
#
# 1 0.026941 -0.007532 0.001302 0.000000 -0.024425 0.000000
# 2 -0.007532 0.011690 -0.005114 0.000000 0.006577 0.000000
# 3 0.001302 -0.005114 0.014095 0.000000 -0.008506 0.000000
# 4 0.000000 0.000000 0.000000 0.051121 0.000000 -0.020080
# 5 -0.024425 0.006577 -0.008506 0.000000 0.056796 0.000000
# 6 0.000000 0.000000 0.000000 -0.020080 0.000000 0.051058
#
#
# Mechanical properties :
#
#
# Convention : Reuss Voigt Hill
#
# Bulk Modulus (GPa) = 33.29095 61.19579 47.24337
# Shear Modulus (GPa) = 20.45810 28.20046 24.32928
#
# Velocity S-wave (km/s) = 3.30416 3.87933 3.60324
# Velocity P-wave (km/s) = 5.68528 7.26105 6.52094
#
# Compressibility (1/GPa) = 0.03003819
#
# Stress axis : x y z
#
# Youngs Moduli (GPa) = 37.11850 85.54059 70.94575
#
# Poissons Ratio (x) = 0.64432 -0.09239
# Poissons Ratio (y) = 0.27959 0.36282
# Poissons Ratio (z) = -0.04834 0.43746
#
# Static dielectric constant tensor:
#      x y z
#    x 3.445410 0.000000 0.054080 
#    y 0.000000 3.979040 0.000000 
#    z 0.054080 0.000000 3.478940 
# 
# 
# High freq. dielectric constant tensor:
#      x y z
#    x 1.713060 0.000000 0.028160 
#    y 0.000000 1.748290 0.000000 
#    z 0.028160 0.000000 1.717740 
# 
# From -- ./inp_files/241787.got.cif
#   From: 2010.06.25/outbox.cif.g09.slc.cpg/sg12_121_cif.got.tgz:241787.got - 2010.06.28 00:19:55.
