data_PCOD8079588
_publ_section_title
;
Structure prediction by ZEFSAII (Michael W. Deem and Ramdas Pophale) SiO2 
 PCOD8079588
Probable space group: C 2/M
;
_chemical_formula_sum "Si O2"
_cell_formula_units_Z 44
_cell_length_a 26.567645
_cell_length_b 7.809355
_cell_length_c 11.725662
_cell_angle_alpha 90.000000
_cell_angle_beta 74.553925
_cell_angle_gamma 90.000000
_cell_volume 2344.926639
_symmetry_space_group_name_H-M "C 2/M"
_symmetry_group_IT_number 12
_symmetry_cell_setting 'monoclinic'
loop_
_space_group_symop_operation_xyz
x,y,z
-x,y,-z
-x,-y,-z
x,-y,z
1/2+x,1/2+y,z
1/2-x,1/2+y,-z
1/2-x,1/2-y,-z
1/2+x,1/2-y,z
loop_
_atom_site_type_symbol
_atom_site_label
_atom_site_fract_x
_atom_site_fract_y
_atom_site_fract_z
Si Si1 0.886152 0.500000 0.186167
Si Si2 0.191427 0.310560 0.629530
Si Si3 0.367699 0.310064 0.779961
Si Si4 0.983075 0.805652 0.637273
Si Si5 0.701551 0.806938 0.373222
Si Si6 0.495504 0.000000 0.219300
Si Si7 0.886650 0.500000 0.923943
O O1 0.861334 0.329983 0.262540
O O2 0.948599 0.500000 0.156882
O O3 0.869526 0.500000 0.065057
O O4 0.216354 0.500000 0.595030
O O5 0.235179 0.200070 0.668169
O O6 0.180201 0.236866 0.508985
O O7 0.367221 0.500000 0.836125
O O8 0.421250 0.276178 0.680404
O O9 0.321457 0.304238 0.715664
O O10 0.361570 0.169079 0.882448
O O11 0.000000 0.763125 0.500000
O O12 0.011722 0.671487 0.702015
O O13 0.998501 0.000000 0.663220
O O14 0.682442 0.000000 0.363694
O O15 0.550560 0.000000 0.121278
#
# Coordination Sequence:
#
# PCOD8079588 Si02
#       7
#     4   8   8   8   8   4   4
#     4  10  21  38  58  78 112 152 195 231 275 325
#     4   8  19  33  52  78 111 141 179 228 273 335
#     4  10  20  34  58  81 111 151 183 229 285 330
#     4   9  19  32  49  84 119 139 180 227 275 348
#     4  10  17  32  56  83 112 142 180 224 290 339
#     4  10  20  34  60  78 110 153 183 231 283 317
#     4  10  21  40  56  84 110 150 198 232 265 335
#
# _framework density 18.763912999999999
#
# number of rings (size 3 to 8) (size 9 to 14) (size 15 to 20)
#    0.545    2.000    0.909    1.091    2.545    0.727 
#    0.000    3.636    0.000    4.364    0.000    0.000 
#    0.000    0.000    0.000    0.000    0.000    0.000 
#
# Total GULP energy -272671.968219 kJ/mol
# GULP energy per Si atom -12394.180374 kJ/mol
# Density = 1.872121 g / cm^3
# Si number density = 18.763913 Si / 1000 Ang^3
#
#
#
# Elastic Constant Matrix: (Units=GPa)
#
#
# Indices 1 2 3 4 5 6 
#
# 1 68.6084 19.7418 38.0966 0.0000 16.5720 0.0000
# 2 19.7418 87.4605 33.4689 0.0000 9.3974 0.0000
# 3 38.0966 33.4689 99.2331 0.0000 11.1752 0.0000
# 4 0.0000 0.0000 0.0000 10.1252 0.0000 3.5564
# 5 16.5720 9.3974 11.1752 0.0000 26.1273 0.0000
# 6 0.0000 0.0000 0.0000 3.5564 0.0000 16.1980
#
#
#
# Elastic Compliance Matrix: (Units=1/GPa)
#
#
# Indices 1 2 3 4 5 6 
#
# 1 0.020968 -0.001151 -0.006525 0.000000 -0.010095 0.000000
# 2 -0.001151 0.013415 -0.003805 0.000000 -0.002467 0.000000
# 3 -0.006525 -0.003805 0.013915 0.000000 -0.000445 0.000000
# 4 0.000000 0.000000 0.000000 0.107017 0.000000 -0.023496
# 5 -0.010095 -0.002467 -0.000445 0.000000 0.045755 0.000000
# 6 0.000000 0.000000 0.000000 -0.023496 0.000000 0.066895
#
#
# Mechanical properties :
#
#
# Convention : Reuss Voigt Hill
#
# Bulk Modulus (GPa) = 39.46816 48.65741 44.06278
# Shear Modulus (GPa) = 16.70164 21.42306 19.06235
#
# Velocity S-wave (km/s) = 2.98668 3.38259 3.19078
# Velocity P-wave (km/s) = 5.74225 6.42212 6.09168
#
# Compressibility (1/GPa) = 0.02533688
#
# Stress axis : x y z
#
# Youngs Moduli (GPa) = 47.69140 74.54543 71.86250
#
# Poissons Ratio (x) = 0.08584 0.46888
# Poissons Ratio (y) = 0.05492 0.27340
# Poissons Ratio (z) = 0.31117 0.28361
#
# Static dielectric constant tensor:
#      x y z
#    x 3.197210 0.000000 0.043520 
#    y 0.000000 3.449830 0.000000 
#    z 0.043520 0.000000 3.160490 
# 
# 
# High freq. dielectric constant tensor:
#      x y z
#    x 1.714440 0.000000 0.008730 
#    y 0.000000 1.726060 0.000000 
#    z 0.008730 0.000000 1.706450 
# 
# From -- ./inp_files/108179.got.cif
#   From: 2010.06.25/outbox.cif.g09.slc.cpg/sg12_55_cif.got.tgz:108179.got - 2010.06.28 00:19:55.
