data_PCOD8079370
_publ_section_title
;
Structure prediction by ZEFSAII (Michael W. Deem and Ramdas Pophale) SiO2 
 PCOD8079370
Probable space group: C 2/M
;
_chemical_formula_sum "Si O2"
_cell_formula_units_Z 56
_cell_length_a 29.198679
_cell_length_b 8.473906
_cell_length_c 19.432952
_cell_angle_alpha 90.000000
_cell_angle_beta 138.656693
_cell_angle_gamma 90.000000
_cell_volume 3176.172083
_symmetry_space_group_name_H-M "C 2/M"
_symmetry_group_IT_number 12
_symmetry_cell_setting 'monoclinic'
loop_
_space_group_symop_operation_xyz
x,y,z
-x,y,-z
-x,-y,-z
x,-y,z
1/2+x,1/2+y,z
1/2-x,1/2+y,-z
1/2-x,1/2-y,-z
1/2+x,1/2-y,z
loop_
_atom_site_type_symbol
_atom_site_label
_atom_site_fract_x
_atom_site_fract_y
_atom_site_fract_z
Si Si1 0.610866 0.813253 0.610849
Si Si2 0.744352 0.185073 0.197782
Si Si3 0.391676 0.187118 0.883860
Si Si4 0.010250 0.312382 0.118532
Si Si5 0.297530 0.685049 0.993389
Si Si6 0.550632 0.187213 0.812292
Si Si7 0.487215 0.812988 0.378546
O O1 0.682851 0.722218 0.684153
O O2 0.562285 0.760964 0.492063
O O3 0.573811 0.756620 0.639420
O O4 0.623796 0.000000 0.625734
O O5 0.685235 0.247091 0.184223
O O6 0.738859 0.276989 0.119929
O O7 0.736208 0.000000 0.173995
O O8 0.418491 0.246231 0.838458
O O9 0.392982 0.000000 0.885668
O O10 0.444642 0.251558 0.001212
O O11 0.008038 0.500000 0.116379
O O12 0.002212 0.250524 0.187873
O O13 0.305826 0.500000 0.011657
O O14 0.250000 0.750000 0.000000
O O15 0.372128 0.764759 0.081221
O O16 0.526044 0.261367 0.711830
O O17 0.548555 0.000000 0.805076
O O18 0.485159 0.000000 0.373649
#
# Coordination Sequence:
#
# PCOD8079370 Si02
#       7
#     8   8   8   8   8   8   8
#     4   9  17  32  49  68  95 128 162 200 244 294
#     4  11  20  32  50  73  98 127 163 203 242 287
#     4   8  14  25  43  69  97 124 157 197 239 284
#     4   8  13  24  45  70  95 123 158 200 238 281
#     4  12  24  35  47  69 102 134 159 191 240 294
#     4  10  17  30  52  75  95 123 164 207 243 284
#     4   8  16  30  50  70  91 123 164 202 241 288
#
# _framework density 17.631287
#
# number of rings (size 3 to 8) (size 9 to 14) (size 15 to 20)
#    0.000    2.571    1.429    4.286    0.000    1.143 
#    0.000    2.143    0.000    3.429    0.000    0.000 
#    0.000    0.000    0.000    0.000    0.000    0.143 
#
# Total GULP energy -347002.752560 kJ/mol
# GULP energy per Si atom -12392.955449 kJ/mol
# Density = 1.759116 g / cm^3
# Si number density = 17.631287 Si / 1000 Ang^3
#
#
#
# Elastic Constant Matrix: (Units=GPa)
#
#
# Indices 1 2 3 4 5 6 
#
# 1 151.3200 14.0432 56.9894 0.0000 5.4647 0.0000
# 2 14.0432 10.1314 5.3853 0.0000 -5.0148 0.0000
# 3 56.9894 5.3853 90.1887 0.0000 5.4253 0.0000
# 4 0.0000 0.0000 0.0000 19.7607 0.0000 5.2958
# 5 5.4647 -5.0148 5.4253 0.0000 26.3083 0.0000
# 6 0.0000 0.0000 0.0000 5.2958 0.0000 15.1057
#
#
#
# Elastic Compliance Matrix: (Units=1/GPa)
#
#
# Indices 1 2 3 4 5 6 
#
# 1 0.009890 -0.012553 -0.005298 0.000000 -0.003355 0.000000
# 2 -0.012553 0.130707 -0.001548 0.000000 0.027842 0.000000
# 3 -0.005298 -0.001548 0.014661 0.000000 -0.002218 0.000000
# 4 0.000000 0.000000 0.000000 0.055853 0.000000 -0.019581
# 5 -0.003355 0.027842 -0.002218 0.000000 0.044472 0.000000
# 6 0.000000 0.000000 0.000000 -0.019581 0.000000 0.073065
#
#
# Mechanical properties :
#
#
# Convention : Reuss Voigt Hill
#
# Bulk Modulus (GPa) = 8.58653 44.94178 26.76415
# Shear Modulus (GPa) = 12.30721 23.91640 18.11181
#
# Velocity S-wave (km/s) = 2.64490 3.68703 3.20856
# Velocity P-wave (km/s) = 3.76934 6.60838 5.37953
#
# Compressibility (1/GPa) = 0.11646146
#
# Stress axis : x y z
#
# Youngs Moduli (GPa) = 101.11298 7.65071 68.20607
#
# Poissons Ratio (x) = 0.09604 0.36136
# Poissons Ratio (y) = 1.26926 0.10555
# Poissons Ratio (z) = 0.53570 0.01184
#
# Static dielectric constant tensor:
#      x y z
#    x 3.799220 0.000000 -0.181560 
#    y 0.000000 2.873860 0.000000 
#    z -0.181560 0.000000 3.351890 
# 
# 
# High freq. dielectric constant tensor:
#      x y z
#    x 1.692200 0.000000 -0.002410 
#    y 0.000000 1.644320 0.000000 
#    z -0.002410 0.000000 1.662790 
# 
# From -- ./inp_files/291966.got.cif
#   From: 2010.06.25/outbox.cif.g09.slc.cpg/sg12_146_cif.got.tgz:291966.got - 2010.06.28 00:19:55.
