data_PCOD8079840
_publ_section_title
;
Structure prediction by ZEFSAII (Michael W. Deem and Ramdas Pophale) SiO2 
 PCOD8079840
Probable space group: C 2/M
;
_chemical_formula_sum "Si O2"
_cell_formula_units_Z 56
_cell_length_a 29.135656
_cell_length_b 9.476951
_cell_length_c 13.505094
_cell_angle_alpha 90.000000
_cell_angle_beta 76.855316
_cell_angle_gamma 90.000000
_cell_volume 3631.284963
_symmetry_space_group_name_H-M "C 2/M"
_symmetry_group_IT_number 12
_symmetry_cell_setting 'monoclinic'
loop_
_space_group_symop_operation_xyz
x,y,z
-x,y,-z
-x,-y,-z
x,-y,z
1/2+x,1/2+y,z
1/2-x,1/2+y,-z
1/2-x,1/2-y,-z
1/2+x,1/2-y,z
loop_
_atom_site_type_symbol
_atom_site_label
_atom_site_fract_x
_atom_site_fract_y
_atom_site_fract_z
Si Si1 0.451366 0.163744 0.630651
Si Si2 0.852400 0.662802 0.735085
Si Si3 0.264370 0.161383 0.899160
Si Si4 0.721056 0.336402 0.713275
Si Si5 0.054274 0.333355 0.589351
Si Si6 0.362988 0.340406 0.372529
Si Si7 0.802714 0.163911 0.594663
O O1 0.408115 0.194171 0.727963
O O2 0.438042 0.220417 0.527411
O O3 0.501519 0.220630 0.646910
O O4 0.460334 0.000000 0.610013
O O5 0.845998 0.500000 0.703214
O O6 0.819761 0.689544 0.847109
O O7 0.837891 0.766509 0.655428
O O8 0.231981 0.205502 0.821535
O O9 0.255752 0.000000 0.931327
O O10 0.250000 0.250000 0.000000
O O11 0.734770 0.500000 0.688601
O O12 0.665835 0.310907 0.715420
O O13 0.752460 0.241660 0.624490
O O14 0.061337 0.500000 0.598558
O O15 0.092061 0.260596 0.642683
O O16 0.381987 0.500000 0.366777
O O17 0.324780 0.313603 0.476548
O O18 0.795916 0.000000 0.624033
#
# Coordination Sequence:
#
# PCOD8079840 Si02
#       7
#     8   8   8   8   8   8   8
#     4   8  14  26  43  63  85 114 152 181 202 244
#     4   9  16  29  47  63  85 119 148 170 209 263
#     4   9  18  31  48  66  83 107 138 177 222 260
#     4   9  19  33  45  58  82 118 149 170 209 267
#     4   9  16  26  43  63  85 117 152 181 205 237
#     4  10  19  29  40  60  90 119 146 175 209 250
#     4  10  18  26  39  63  89 113 144 181 210 235
#
# _framework density 15.421538
#
# number of rings (size 3 to 8) (size 9 to 14) (size 15 to 20)
#    0.000    2.857    1.429    2.571    0.000    3.429 
#    0.000    2.143    0.000    0.000    0.000    1.000 
#    0.000    8.000    0.000    0.000    0.000    0.000 
#
# Total GULP energy -346938.016325 kJ/mol
# GULP energy per Si atom -12390.643440 kJ/mol
# Density = 1.538644 g / cm^3
# Si number density = 15.421538 Si / 1000 Ang^3
#
#
#
# Elastic Constant Matrix: (Units=GPa)
#
#
# Indices 1 2 3 4 5 6 
#
# 1 140.1369 47.3008 49.3555 0.0000 -4.8027 0.0000
# 2 47.3008 56.9895 30.6623 0.0000 -0.0482 0.0000
# 3 49.3555 30.6623 65.1625 0.0000 -4.9903 0.0000
# 4 0.0000 0.0000 0.0000 20.0135 0.0000 0.2847
# 5 -4.8027 -0.0482 -4.9903 0.0000 15.1198 0.0000
# 6 0.0000 0.0000 0.0000 0.2847 0.0000 23.9794
#
#
#
# Elastic Compliance Matrix: (Units=1/GPa)
#
#
# Indices 1 2 3 4 5 6 
#
# 1 0.011266 -0.006470 -0.005351 0.000000 0.001792 0.000000
# 2 -0.006470 0.027411 -0.008360 0.000000 -0.004727 0.000000
# 3 -0.005351 -0.008360 0.023803 0.000000 0.006130 0.000000
# 4 0.000000 0.000000 0.000000 0.049975 0.000000 -0.000593
# 5 0.001792 -0.004727 0.006130 0.000000 0.068716 0.000000
# 6 0.000000 0.000000 0.000000 -0.000593 0.000000 0.041709
#
#
# Mechanical properties :
#
#
# Convention : Reuss Voigt Hill
#
# Bulk Modulus (GPa) = 45.21355 57.43625 51.32490
# Shear Modulus (GPa) = 18.47653 20.82056 19.64855
#
# Velocity S-wave (km/s) = 3.46511 3.67835 3.57332
# Velocity P-wave (km/s) = 6.73732 7.44079 7.09777
#
# Compressibility (1/GPa) = 0.02211727
#
# Stress axis : x y z
#
# Youngs Moduli (GPa) = 88.76447 36.48193 42.01208
#
# Poissons Ratio (x) = 0.23603 0.22482
# Poissons Ratio (y) = 0.57428 0.35122
# Poissons Ratio (z) = 0.47501 0.30498
#
# Static dielectric constant tensor:
#      x y z
#    x 3.195900 0.000000 -0.040540 
#    y 0.000000 2.862420 0.000000 
#    z -0.040540 0.000000 2.608370 
# 
# 
# High freq. dielectric constant tensor:
#      x y z
#    x 1.598390 0.000000 -0.005250 
#    y 0.000000 1.582930 0.000000 
#    z -0.005250 0.000000 1.542640 
# 
# From -- ./inp_files/247789.got.cif
#   From: 2010.06.25/outbox.cif.g09.slc.cpg/sg12_124_cif.got.tgz:247789.got - 2010.06.28 00:19:55.
