data_PCOD8079871
_publ_section_title
;
Structure prediction by ZEFSAII (Michael W. Deem and Ramdas Pophale) SiO2 
 PCOD8079871
Probable space group: C 2/M
;
_chemical_formula_sum "Si O2"
_cell_formula_units_Z 64
_cell_length_a 33.426679
_cell_length_b 9.636263
_cell_length_c 12.526625
_cell_angle_alpha 90.000000
_cell_angle_beta 65.025613
_cell_angle_gamma 90.000000
_cell_volume 3657.649961
_symmetry_space_group_name_H-M "C 2/M"
_symmetry_group_IT_number 12
_symmetry_cell_setting 'monoclinic'
loop_
_space_group_symop_operation_xyz
x,y,z
-x,y,-z
-x,-y,-z
x,-y,z
1/2+x,1/2+y,z
1/2-x,1/2+y,-z
1/2-x,1/2-y,-z
1/2+x,1/2-y,z
loop_
_atom_site_type_symbol
_atom_site_label
_atom_site_fract_x
_atom_site_fract_y
_atom_site_fract_z
Si Si1 0.761708 0.154739 0.293703
Si Si2 0.158983 0.335447 0.728389
Si Si3 0.065837 0.335432 0.906945
Si Si4 0.032468 0.334345 0.369723
Si Si5 0.720620 0.155150 0.108238
Si Si6 0.369264 0.834510 0.691938
Si Si7 0.991537 0.335049 0.835953
Si Si8 0.829388 0.664088 0.521115
O O1 0.800891 0.263050 0.258168
O O2 0.744594 0.150581 0.193554
O O3 0.721774 0.209186 0.412926
O O4 0.777174 0.000000 0.310824
O O5 0.166122 0.500000 0.726405
O O6 0.115661 0.284203 0.839200
O O7 0.153157 0.284710 0.612777
O O8 0.062932 0.500000 0.906266
O O9 0.036847 0.280653 0.839008
O O10 0.047853 0.283216 0.041561
O O11 0.032738 0.500000 0.370208
O O12 0.082570 0.277870 0.328398
O O13 0.014747 0.274895 0.276313
O O14 0.000000 0.279374 0.500000
O O15 0.670090 0.211769 0.181974
O O16 0.718811 0.000000 0.061032
O O17 0.750000 0.250000 0.000000
O O18 0.358782 0.774271 0.584942
O O19 0.369517 0.000000 0.688780
O O20 0.991243 0.500000 0.828341
O O21 0.832013 0.500000 0.528034
#
# Coordination Sequence:
#
# PCOD8079871 Si02
#       8
#     8   8   8   8   8   8   8   8
#     4   9  18  32  44  60  90 122 145 176 227 270
#     4  10  18  26  44  70  86 110 154 189 211 252
#     4   8  15  25  37  55  83 116 141 173 225 268
#     4   9  16  22  35  58  83 116 153 182 215 270
#     4   9  18  32  49  66  89 123 154 183 225 272
#     4   8  15  27  40  60  90 122 148 179 231 276
#     4   8  14  25  35  50  84 118 140 171 221 272
#     4   8  15  27  42  58  85 118 147 179 218 265
#
# _framework density 17.497575000000001
#
# number of rings (size 3 to 8) (size 9 to 14) (size 15 to 20)
#    0.000    3.375    0.000    2.625    1.750    1.500 
#    0.000    2.500    0.000    0.750    0.000    1.750 
#    0.000    1.500    0.000    0.125    0.000    0.125 
#
# Total GULP energy -396482.683929 kJ/mol
# GULP energy per Si atom -12390.083873 kJ/mol
# Density = 1.745775 g / cm^3
# Si number density = 17.497575 Si / 1000 Ang^3
#
#
#
# Elastic Constant Matrix: (Units=GPa)
#
#
# Indices 1 2 3 4 5 6 
#
# 1 112.5216 17.8755 62.1111 0.0000 -11.8561 0.0000
# 2 17.8755 19.8207 18.7364 0.0000 -4.3600 0.0000
# 3 62.1111 18.7364 117.9411 0.0000 -11.2290 0.0000
# 4 0.0000 0.0000 0.0000 14.4351 0.0000 -1.7653
# 5 -11.8561 -4.3600 -11.2290 0.0000 25.7331 0.0000
# 6 0.0000 0.0000 0.0000 -1.7653 0.0000 15.8567
#
#
#
# Elastic Compliance Matrix: (Units=1/GPa)
#
#
# Indices 1 2 3 4 5 6 
#
# 1 0.013318 -0.005936 -0.005824 0.000000 0.002589 0.000000
# 2 -0.005936 0.062977 -0.006389 0.000000 0.005148 0.000000
# 3 -0.005824 -0.006389 0.012731 0.000000 0.001790 0.000000
# 4 0.000000 0.000000 0.000000 0.070232 0.000000 0.007819
# 5 0.002589 0.005148 0.001790 0.000000 0.041706 0.000000
# 6 0.000000 0.000000 0.000000 0.007819 0.000000 0.063935
#
#
# Mechanical properties :
#
#
# Convention : Reuss Voigt Hill
#
# Bulk Modulus (GPa) = 18.96486 49.74774 34.35630
# Shear Modulus (GPa) = 15.68513 21.30899 18.49706
#
# Velocity S-wave (km/s) = 2.99727 3.49352 3.25487
# Velocity P-wave (km/s) = 4.77915 6.69073 5.81404
#
# Compressibility (1/GPa) = 0.05272909
#
# Stress axis : x y z
#
# Youngs Moduli (GPa) = 75.08754 15.87876 78.54702
#
# Poissons Ratio (x) = 0.09425 0.45746
# Poissons Ratio (y) = 0.44571 0.50181
# Poissons Ratio (z) = 0.43731 0.10144
#
# Static dielectric constant tensor:
#      x y z
#    x 3.497420 0.000000 -0.152880 
#    y 0.000000 2.965350 0.000000 
#    z -0.152880 0.000000 3.711450 
# 
# 
# High freq. dielectric constant tensor:
#      x y z
#    x 1.682730 0.000000 -0.004200 
#    y 0.000000 1.594280 0.000000 
#    z -0.004200 0.000000 1.687080 
# 
# From -- ./inp_files/188348.got.cif
#   From: 2010.06.25/outbox.cif.g09.slc.cpg/sg12_95_cif.got.tgz:188348.got - 2010.06.28 00:19:55.
