data_PCOD8079597
_publ_section_title
;
Structure prediction by ZEFSAII (Michael W. Deem and Ramdas Pophale) SiO2 
 PCOD8079597
Probable space group: C 2/M
;
_chemical_formula_sum "Si O2"
_cell_formula_units_Z 64
_cell_length_a 14.829604
_cell_length_b 17.840121
_cell_length_c 12.503422
_cell_angle_alpha 90.000000
_cell_angle_beta 78.047436
_cell_angle_gamma 90.000000
_cell_volume 3236.211553
_symmetry_space_group_name_H-M "C 2/M"
_symmetry_group_IT_number 12
_symmetry_cell_setting 'monoclinic'
loop_
_space_group_symop_operation_xyz
x,y,z
-x,y,-z
-x,-y,-z
x,-y,z
1/2+x,1/2+y,z
1/2-x,1/2+y,-z
1/2-x,1/2-y,-z
1/2+x,1/2-y,z
loop_
_atom_site_type_symbol
_atom_site_label
_atom_site_fract_x
_atom_site_fract_y
_atom_site_fract_z
Si Si1 0.303975 0.832633 0.872917
Si Si2 0.676071 0.911062 0.755851
Si Si3 0.747420 0.417205 0.471891
Si Si4 0.563622 0.417130 0.389172
Si Si5 0.998249 0.840866 0.206254
Si Si6 0.695675 0.588826 0.716628
Si Si7 0.507379 0.181085 0.873855
Si Si8 0.305168 0.656757 0.893643
O O1 0.268377 0.871336 0.774654
O O2 0.411443 0.853023 0.856320
O O3 0.288663 0.743889 0.870604
O O4 0.249672 0.867119 0.986903
O O5 0.678011 0.880896 0.629711
O O6 0.586808 0.878907 0.836297
O O7 0.767355 0.889804 0.801813
O O8 0.668229 0.000000 0.756158
O O9 0.780281 0.500000 0.497496
O O10 0.665281 0.421853 0.407973
O O11 0.719038 0.377777 0.590972
O O12 0.500000 0.391520 0.500000
O O13 0.533756 0.500000 0.352149
O O14 0.548500 0.351748 0.307368
O O15 0.908738 0.893353 0.220311
O O16 0.965429 0.756007 0.197268
O O17 0.085842 0.859451 0.106685
O O18 0.707722 0.500000 0.718366
O O19 0.500000 0.202030 0.000000
#
# Coordination Sequence:
#
# PCOD8079597 Si02
#       8
#     8   8   8   8   8   8   8   8
#     4  10  23  42  62  82 121 168 202 245 306 368
#     4  11  22  39  66  94 115 149 213 270 303 347
#     4   9  19  36  59  88 123 162 195 240 305 357
#     4  10  17  32  57  87 125 162 198 240 291 354
#     4  11  22  34  62  92 126 163 197 236 302 376
#     4  11  23  39  61  90 129 167 196 237 301 373
#     4  11  24  44  65  84 117 164 207 256 313 358
#     4  10  21  39  62  88 119 158 203 250 308 358
#
# _framework density 19.776209999999999
#
# number of rings (size 3 to 8) (size 9 to 14) (size 15 to 20)
#    0.000    1.625    3.750    1.125    3.500    1.750 
#    0.000    6.250    0.000    2.250    0.000    0.000 
#    0.000    0.000    0.000    0.000    0.000    0.000 
#
# Total GULP energy -396469.594035 kJ/mol
# GULP energy per Si atom -12389.674814 kJ/mol
# Density = 1.973120 g / cm^3
# Si number density = 19.776210 Si / 1000 Ang^3
#
#
#
# Elastic Constant Matrix: (Units=GPa)
#
#
# Indices 1 2 3 4 5 6 
#
# 1 84.2551 24.6753 33.1325 0.0000 6.4227 0.0000
# 2 24.6753 61.9180 47.3018 0.0000 1.1434 0.0000
# 3 33.1325 47.3018 117.9116 0.0000 1.5534 0.0000
# 4 0.0000 0.0000 0.0000 32.9610 0.0000 4.9133
# 5 6.4227 1.1434 1.5534 0.0000 32.4586 0.0000
# 6 0.0000 0.0000 0.0000 4.9133 0.0000 23.5923
#
#
#
# Elastic Compliance Matrix: (Units=1/GPa)
#
#
# Indices 1 2 3 4 5 6 
#
# 1 0.014110 -0.003710 -0.002443 0.000000 -0.002544 0.000000
# 2 -0.003710 0.024267 -0.008697 0.000000 0.000295 0.000000
# 3 -0.002443 -0.008697 0.012654 0.000000 0.000184 0.000000
# 4 0.000000 0.000000 0.000000 0.031311 0.000000 -0.006521
# 5 -0.002544 0.000295 0.000184 0.000000 0.031293 0.000000
# 6 0.000000 0.000000 0.000000 -0.006521 0.000000 0.043745
#
#
# Mechanical properties :
#
#
# Convention : Reuss Voigt Hill
#
# Bulk Modulus (GPa) = 46.87790 52.70043 49.78917
# Shear Modulus (GPa) = 25.74825 28.40071 27.07448
#
# Velocity S-wave (km/s) = 3.61221 3.79371 3.70407
# Velocity P-wave (km/s) = 6.41507 6.77465 6.59731
#
# Compressibility (1/GPa) = 0.02133201
#
# Stress axis : x y z
#
# Youngs Moduli (GPa) = 70.87272 41.20838 79.02810
#
# Poissons Ratio (x) = 0.15287 0.19307
# Poissons Ratio (y) = 0.26291 0.68727
# Poissons Ratio (z) = 0.17315 0.35837
#
# Static dielectric constant tensor:
#      x y z
#    x 3.720920 0.000000 -0.215580 
#    y 0.000000 3.362190 0.000000 
#    z -0.215580 0.000000 3.856270 
# 
# 
# High freq. dielectric constant tensor:
#      x y z
#    x 1.775710 0.000000 -0.014860 
#    y 0.000000 1.742470 0.000000 
#    z -0.014860 0.000000 1.781750 
# 
# From -- ./inp_files/146127.got.cif
#   From: 2010.06.25/outbox.cif.g09.slc.cpg/sg12_74_cif.got.tgz:146127.got - 2010.06.28 00:19:55.
