data_PCOD8079680
_publ_section_title
;
Structure prediction by ZEFSAII (Michael W. Deem and Ramdas Pophale) SiO2 
 PCOD8079680
Probable space group: C 2/M
;
_chemical_formula_sum "Si O2"
_cell_formula_units_Z 44
_cell_length_a 16.407682
_cell_length_b 20.210353
_cell_length_c 7.225984
_cell_angle_alpha 90.000000
_cell_angle_beta 132.178680
_cell_angle_gamma 90.000000
_cell_volume 1775.694588
_symmetry_space_group_name_H-M "C 2/M"
_symmetry_group_IT_number 12
_symmetry_cell_setting 'monoclinic'
loop_
_space_group_symop_operation_xyz
x,y,z
-x,y,-z
-x,-y,-z
x,-y,z
1/2+x,1/2+y,z
1/2-x,1/2+y,-z
1/2-x,1/2-y,-z
1/2+x,1/2-y,z
loop_
_atom_site_type_symbol
_atom_site_label
_atom_site_fract_x
_atom_site_fract_y
_atom_site_fract_z
Si Si1 0.571488 0.000000 0.425941
Si Si2 0.122288 0.636793 0.369296
Si Si3 0.118184 0.000000 0.581706
Si Si4 0.176633 0.857452 0.048181
Si Si5 0.200390 0.135247 0.649786
Si Si6 0.982180 0.766099 0.690823
Si Si7 0.186945 0.000000 0.066669
O O1 0.500000 0.000000 0.500000
O O2 0.553123 0.068399 0.286897
O O3 0.699899 0.000000 0.657246
O O4 0.179055 0.635982 0.255302
O O5 0.031344 0.694356 0.238478
O O6 0.212571 0.652691 0.666127
O O7 0.138481 0.933380 0.496899
O O8 0.000000 0.000000 0.500000
O O9 0.211243 0.000000 0.883836
O O10 0.210815 0.854264 0.884746
O O11 0.086262 0.801138 0.950507
O O12 0.124254 0.930587 0.016203
O O13 0.127719 0.191575 0.441558
O O14 0.000000 0.760695 0.500000
#
# Coordination Sequence:
#
# PCOD8079680 Si02
#       7
#     4   8   4   8   8   8   4
#     4  10  21  39  63  86 116 159 201 244 294 353
#     4  11  22  39  62  87 119 159 201 247 297 349
#     4  10  17  33  61  88 124 159 191 246 302 359
#     4   9  20  38  61  88 120 156 194 243 300 356
#     4  10  20  35  58  89 120 155 199 244 299 356
#     4  10  21  37  57  85 120 157 197 242 297 355
#     4   8  16  34  62  88 112 148 192 236 296 352
#
# _framework density 24.779036999999999
#
# number of rings (size 3 to 8) (size 9 to 14) (size 15 to 20)
#    0.000    2.182    0.000    4.364    0.000    3.636 
#    0.000    5.455    0.000   40.364    0.000    0.000 
#    0.000    0.000    0.000    0.000    0.000    0.000 
#
# Total GULP energy -272648.615424 kJ/mol
# GULP energy per Si atom -12393.118883 kJ/mol
# Density = 2.472264 g / cm^3
# Si number density = 24.779037 Si / 1000 Ang^3
#
#
#
# Elastic Constant Matrix: (Units=GPa)
#
#
# Indices 1 2 3 4 5 6 
#
# 1 107.4732 67.0674 2.9683 0.0000 5.4370 0.0000
# 2 67.0674 232.8563 19.7633 0.0000 19.9305 0.0000
# 3 2.9683 19.7633 68.7863 0.0000 -2.5766 0.0000
# 4 0.0000 0.0000 0.0000 13.4577 0.0000 17.6270
# 5 5.4370 19.9305 -2.5766 0.0000 16.8178 0.0000
# 6 0.0000 0.0000 0.0000 17.6270 0.0000 44.3071
#
#
#
# Elastic Compliance Matrix: (Units=1/GPa)
#
#
# Indices 1 2 3 4 5 6 
#
# 1 0.011360 -0.003344 0.000484 0.000000 0.000365 0.000000
# 2 -0.003344 0.005944 -0.001797 0.000000 -0.006239 0.000000
# 3 0.000484 -0.001797 0.015194 0.000000 0.004301 0.000000
# 4 0.000000 0.000000 0.000000 0.155158 0.000000 -0.061727
# 5 0.000365 -0.006239 0.004301 0.000000 0.067395 0.000000
# 6 0.000000 0.000000 0.000000 -0.061727 0.000000 0.047127
#
#
# Mechanical properties :
#
#
# Convention : Reuss Voigt Hill
#
# Bulk Modulus (GPa) = 43.13311 65.41266 54.27289
# Shear Modulus (GPa) = 15.66316 36.20432 25.93374
#
# Velocity S-wave (km/s) = 2.51691 3.82656 3.23863
# Velocity P-wave (km/s) = 5.08836 6.78079 5.99460
#
# Compressibility (1/GPa) = 0.02318404
#
# Stress axis : x y z
#
# Youngs Moduli (GPa) = 88.03055 168.23151 65.81389
#
# Poissons Ratio (x) = 0.56259 -0.03187
# Poissons Ratio (y) = 0.29439 0.11828
# Poissons Ratio (z) = -0.04263 0.30235
#
# Static dielectric constant tensor:
#      x y z
#    x 1.869350 0.000000 -2.312310 
#    y 0.000000 5.227530 0.000000 
#    z -2.312310 0.000000 2.064590 
# 
# 
# High freq. dielectric constant tensor:
#      x y z
#    x 1.964300 0.000000 -0.007140 
#    y 0.000000 2.009710 0.000000 
#    z -0.007140 0.000000 1.973260 
# 
# From -- ./inp_files/63750.got.cif
#   From: 2010.06.25/outbox.cif.g09.slc.cpg/sg12_32_cif.got.tgz:63750.got - 2010.06.28 00:19:55.
