data_PCOD8079097
_publ_section_title
;
Structure prediction by ZEFSAII (Michael W. Deem and Ramdas Pophale) SiO2 
 PCOD8079097
Probable space group: C 2/M
;
_chemical_formula_sum "Si O2"
_cell_formula_units_Z 64
_cell_length_a 24.283780
_cell_length_b 9.018915
_cell_length_c 20.203902
_cell_angle_alpha 90.000000
_cell_angle_beta 56.894170
_cell_angle_gamma 90.000000
_cell_volume 3706.595933
_symmetry_space_group_name_H-M "C 2/M"
_symmetry_group_IT_number 12
_symmetry_cell_setting 'monoclinic'
loop_
_space_group_symop_operation_xyz
x,y,z
-x,y,-z
-x,-y,-z
x,-y,z
1/2+x,1/2+y,z
1/2-x,1/2+y,-z
1/2-x,1/2-y,-z
1/2+x,1/2-y,z
loop_
_atom_site_type_symbol
_atom_site_label
_atom_site_fract_x
_atom_site_fract_y
_atom_site_fract_z
Si Si1 0.839008 0.824465 0.629236
Si Si2 0.460126 0.825969 0.934212
Si Si3 0.468163 0.174132 0.784137
Si Si4 0.599059 0.824322 0.893624
Si Si5 0.555956 0.325311 0.329795
Si Si6 0.088404 0.828894 0.546103
Si Si7 0.200252 0.825953 0.735377
Si Si8 0.604245 0.329219 0.682155
O O1 0.888146 0.779851 0.655763
O O2 0.869325 0.757967 0.541093
O O3 0.771225 0.745579 0.687797
O O4 0.827488 0.000000 0.633357
O O5 0.436009 0.781558 0.876358
O O6 0.533398 0.763594 0.900282
O O7 0.469047 0.000000 0.934966
O O8 0.407506 0.776632 0.024445
O O9 0.427880 0.254283 0.752315
O O10 0.543735 0.223371 0.737879
O O11 0.465310 0.000000 0.773600
O O12 0.661243 0.740066 0.823080
O O13 0.609697 0.000000 0.878099
O O14 0.551360 0.500000 0.322297
O O15 0.485529 0.262177 0.401444
O O16 0.125821 0.804644 0.591415
O O17 0.080548 0.000000 0.532831
O O18 0.164542 0.785918 0.689691
O O19 0.207123 0.000000 0.740779
O O20 0.582335 0.500000 0.707073
#
# Coordination Sequence:
#
# PCOD8079097 Si02
#       8
#     8   8   8   8   8   8   8   8
#     4  10  20  34  53  71  90 130 177 204 234 288
#     4   8  15  27  49  77 100 123 158 200 237 278
#     4  10  17  28  50  78 102 125 156 197 244 292
#     4   9  16  31  51  71  98 131 163 195 231 286
#     4   9  18  33  52  74  98 124 160 208 251 285
#     4   8  15  31  54  74  91 119 165 211 242 281
#     4  11  22  33  46  70 106 136 159 198 247 290
#     4   9  18  32  48  69 100 133 160 195 245 290
#
# _framework density 17.266515999999999
#
# number of rings (size 3 to 8) (size 9 to 14) (size 15 to 20)
#    0.000    2.750    1.250    2.625    0.000    3.000 
#    0.000    5.000    0.000    4.500    0.000    0.000 
#    0.000    0.000    0.000    0.000    0.000    0.000 
#
# Total GULP energy -396628.613162 kJ/mol
# GULP energy per Si atom -12394.644161 kJ/mol
# Density = 1.722722 g / cm^3
# Si number density = 17.266516 Si / 1000 Ang^3
#
#
#
# Elastic Constant Matrix: (Units=GPa)
#
#
# Indices 1 2 3 4 5 6 
#
# 1 92.2779 34.9111 86.1150 0.0002 -0.2947 0.0004
# 2 34.9111 39.0844 44.5734 0.0001 4.3515 0.0012
# 3 86.1150 44.5734 153.7100 -0.0004 20.4218 -0.0001
# 4 0.0002 0.0001 -0.0004 20.3748 0.0003 2.8145
# 5 -0.2947 4.3515 20.4218 0.0003 20.9401 0.0000
# 6 0.0004 0.0012 -0.0001 2.8145 0.0000 22.9886
#
#
#
# Elastic Compliance Matrix: (Units=1/GPa)
#
#
# Indices 1 2 3 4 5 6 
#
# 1 0.029928 -0.010268 -0.016232 -0.000001 0.018385 0.000000
# 2 -0.010268 0.041949 -0.006014 0.000000 -0.002997 -0.000002
# 3 -0.016232 -0.006014 0.019770 0.000001 -0.018259 0.000001
# 4 -0.000001 0.000000 0.000001 0.049925 -0.000002 -0.006112
# 5 0.018385 -0.002997 -0.018259 -0.000002 0.066444 0.000000
# 6 0.000000 -0.000002 0.000001 -0.006112 0.000000 0.044248
#
#
# Mechanical properties :
#
#
# Convention : Reuss Voigt Hill
#
# Bulk Modulus (GPa) = 37.56697 68.47458 53.02077
# Shear Modulus (GPa) = 15.32965 20.82554 18.07760
#
# Velocity S-wave (km/s) = 2.98287 3.47670 3.23921
# Velocity P-wave (km/s) = 5.80239 7.47396 6.69058
#
# Compressibility (1/GPa) = 0.02661913
#
# Stress axis : x y z
#
# Youngs Moduli (GPa) = 33.41316 23.83831 50.58235
#
# Poissons Ratio (x) = 0.24476 0.82107
# Poissons Ratio (y) = 0.34307 0.30421
# Poissons Ratio (z) = 0.54238 0.14337
#
# Static dielectric constant tensor:
#      x y z
#    x 3.113180 0.000000 0.290780 
#    y 0.000000 2.972730 0.000000 
#    z 0.290780 0.000000 3.552150 
# 
# 
# High freq. dielectric constant tensor:
#      x y z
#    x 1.645230 0.000000 0.020970 
#    y 0.000000 1.642920 0.000000 
#    z 0.020970 0.000000 1.673760 
# 
# From -- ./inp_files/323661.got.cif
#   From: 2010.06.25/outbox.cif.g09.slc.cpg/sg12_162_cif.got.tgz:323661.got - 2010.06.28 00:19:55.
