data_PCOD8079802
_publ_section_title
;
Structure prediction by ZEFSAII (Michael W. Deem and Ramdas Pophale) SiO2 
 PCOD8079802
Probable space group: C 2/M
;
_chemical_formula_sum "Si O2"
_cell_formula_units_Z 56
_cell_length_a 24.506404
_cell_length_b 9.122813
_cell_length_c 17.723738
_cell_angle_alpha 90.000000
_cell_angle_beta 62.133648
_cell_angle_gamma 90.000000
_cell_volume 3502.964496
_symmetry_space_group_name_H-M "C 2/M"
_symmetry_group_IT_number 12
_symmetry_cell_setting 'monoclinic'
loop_
_space_group_symop_operation_xyz
x,y,z
-x,y,-z
-x,-y,-z
x,-y,z
1/2+x,1/2+y,z
1/2-x,1/2+y,-z
1/2-x,1/2-y,-z
1/2+x,1/2-y,z
loop_
_atom_site_type_symbol
_atom_site_label
_atom_site_fract_x
_atom_site_fract_y
_atom_site_fract_z
Si Si1 0.038546 0.169088 0.215069
Si Si2 0.542371 0.826710 0.362282
Si Si3 0.604774 0.329796 0.722663
Si Si4 0.086356 0.327511 0.491367
Si Si5 0.415976 0.834905 0.120389
Si Si6 0.684449 0.174591 0.546819
Si Si7 0.939673 0.664243 0.941784
O O1 0.965658 0.199473 0.255325
O O2 0.065214 0.248312 0.271825
O O3 0.075324 0.229633 0.118437
O O4 0.054076 0.000000 0.211641
O O5 0.587816 0.781080 0.402217
O O6 0.474267 0.765462 0.427307
O O7 0.542647 0.000000 0.347896
O O8 0.622675 0.500000 0.704250
O O9 0.616868 0.277162 0.800865
O O10 0.648310 0.232245 0.642576
O O11 0.079053 0.500000 0.500030
O O12 0.147763 0.276000 0.494901
O O13 0.488236 0.833134 0.088673
O O14 0.390603 0.000000 0.149390
O O15 0.404050 0.784576 0.041219
O O16 0.750000 0.250000 0.500000
O O17 0.691341 0.000000 0.547870
O O18 0.918863 0.500000 0.933692
#
# Coordination Sequence:
#
# PCOD8079802 Si02
#       7
#     8   8   8   8   8   8   8
#     4  10  18  25  37  62  92 117 143 177 218 260
#     4   9  15  28  47  64  82 111 149 182 214 260
#     4  10  19  29  41  60  86 116 148 179 218 265
#     4   8  16  29  47  65  81 108 148 185 218 258
#     4   8  14  25  40  57  78 109 148 183 213 250
#     4  11  21  34  49  65  86 114 148 188 225 260
#     4   8  14  24  38  56  80 113 148 177 209 254
#
# _framework density 15.986459999999999
#
# number of rings (size 3 to 8) (size 9 to 14) (size 15 to 20)
#    0.000    2.857    1.429    3.000    0.000    1.714 
#    0.000    5.714    0.000    0.000    0.000    0.000 
#    0.000    1.143    0.000    3.429    0.000    4.571 
#
# Total GULP energy -347004.569273 kJ/mol
# GULP energy per Si atom -12393.020331 kJ/mol
# Density = 1.595007 g / cm^3
# Si number density = 15.986460 Si / 1000 Ang^3
#
#
#
# Elastic Constant Matrix: (Units=GPa)
#
#
# Indices 1 2 3 4 5 6 
#
# 1 70.3353 35.7228 49.7974 0.0000 16.7748 0.0000
# 2 35.7228 79.3630 57.3513 0.0000 15.3818 0.0000
# 3 49.7974 57.3513 111.0390 0.0000 37.1063 0.0000
# 4 0.0000 0.0000 0.0000 21.5827 0.0000 -1.3100
# 5 16.7748 15.3818 37.1063 0.0000 25.2138 0.0000
# 6 0.0000 0.0000 0.0000 -1.3100 0.0000 13.0068
#
#
#
# Elastic Compliance Matrix: (Units=1/GPa)
#
#
# Indices 1 2 3 4 5 6 
#
# 1 0.021773 -0.004497 -0.006922 0.000000 -0.001555 0.000000
# 2 -0.004497 0.021495 -0.011222 0.000000 0.006393 0.000000
# 3 -0.006922 -0.011222 0.027704 0.000000 -0.029320 0.000000
# 4 0.000000 0.000000 0.000000 0.046618 0.000000 0.004695
# 5 -0.001555 0.006393 -0.029320 0.000000 0.079944 0.000000
# 6 0.000000 0.000000 0.000000 0.004695 0.000000 0.077356
#
#
# Mechanical properties :
#
#
# Convention : Reuss Voigt Hill
#
# Bulk Modulus (GPa) = 38.92500 60.72005 49.82252
# Shear Modulus (GPa) = 15.20976 19.81837 17.51407
#
# Velocity S-wave (km/s) = 3.08785 3.52475 3.31351
# Velocity P-wave (km/s) = 6.09218 7.39120 6.77290
#
# Compressibility (1/GPa) = 0.02569043
#
# Stress axis : x y z
#
# Youngs Moduli (GPa) = 45.92744 46.52327 36.09554
#
# Poissons Ratio (x) = 0.20921 0.24987
# Poissons Ratio (y) = 0.20653 0.40506
# Poissons Ratio (z) = 0.31793 0.52207
#
# Static dielectric constant tensor:
#      x y z
#    x 2.937630 0.000000 0.379980 
#    y 0.000000 2.964220 0.000000 
#    z 0.379980 0.000000 3.231510 
# 
# 
# High freq. dielectric constant tensor:
#      x y z
#    x 1.560150 0.000000 0.036940 
#    y 0.000000 1.608330 0.000000 
#    z 0.036940 0.000000 1.614720 
# 
# From -- ./inp_files/287320.got.cif
#   From: 2010.06.25/outbox.cif.g09.slc.cpg/sg12_144_cif.got.tgz:287320.got - 2010.06.28 00:19:55.
