data_PCOD8079899
_publ_section_title
;
Structure prediction by ZEFSAII (Michael W. Deem and Ramdas Pophale) SiO2 
 PCOD8079899
Probable space group: C 2/M
;
_chemical_formula_sum "Si O2"
_cell_formula_units_Z 64
_cell_length_a 24.580686
_cell_length_b 13.881582
_cell_length_c 12.260047
_cell_angle_alpha 90.000000
_cell_angle_beta 112.062313
_cell_angle_gamma 90.000000
_cell_volume 3877.035942
_symmetry_space_group_name_H-M "C 2/M"
_symmetry_group_IT_number 12
_symmetry_cell_setting 'monoclinic'
loop_
_space_group_symop_operation_xyz
x,y,z
-x,y,-z
-x,-y,-z
x,-y,z
1/2+x,1/2+y,z
1/2-x,1/2+y,-z
1/2-x,1/2-y,-z
1/2+x,1/2-y,z
loop_
_atom_site_type_symbol
_atom_site_label
_atom_site_fract_x
_atom_site_fract_y
_atom_site_fract_z
Si Si1 0.336724 0.779445 0.639450
Si Si2 0.346808 0.113258 0.084878
Si Si3 0.565224 0.886143 0.668849
Si Si4 0.211171 0.109094 0.006412
Si Si5 0.780009 0.892012 0.223349
Si Si6 0.831861 0.730696 0.878446
Si Si7 0.567009 0.885988 0.425100
Si Si8 0.214667 0.889101 0.535065
O O1 0.359963 0.758912 0.779993
O O2 0.390986 0.828668 0.622242
O O3 0.281685 0.851750 0.590495
O O4 0.322600 0.676024 0.575208
O O5 0.387062 0.157031 0.211435
O O6 0.279285 0.144222 0.054911
O O7 0.354447 0.000000 0.081524
O O8 0.367831 0.159116 0.985510
O O9 0.581810 0.852891 0.559590
O O10 0.499638 0.854221 0.652482
O O11 0.567764 0.000000 0.673158
O O12 0.173202 0.166945 0.064975
O O13 0.208464 0.000000 0.044919
O O14 0.183602 0.121542 0.862632
O O15 0.732242 0.809781 0.191997
O O16 0.814693 0.883419 0.364799
O O17 0.751274 0.000000 0.195530
O O18 0.575800 0.000000 0.416235
O O19 0.214591 0.000000 0.493447
#
# Coordination Sequence:
#
# PCOD8079899 Si02
#       8
#     8   8   8   8   8   8   8   8
#     4  10  20  29  43  66  90 124 155 170 216 276
#     4   9  16  27  45  67  88 113 146 180 218 261
#     4   8  16  30  48  69  88 110 144 186 230 265
#     4   9  17  27  41  62  89 121 150 178 214 254
#     4   8  14  26  42  58  80 112 146 178 215 250
#     4  10  18  27  39  61  93 122 146 175 209 256
#     4   9  17  31  48  66  91 116 142 183 226 264
#     4   9  18  31  44  63  92 120 151 188 214 254
#
# _framework density 16.507456000000001
#
# number of rings (size 3 to 8) (size 9 to 14) (size 15 to 20)
#    0.000    3.000    0.000    3.750    0.000    6.000 
#    0.000    1.875    0.000    2.250    0.000    2.625 
#    0.000    2.000    0.000    0.000    0.000    0.000 
#
# Total GULP energy -396434.894425 kJ/mol
# GULP energy per Si atom -12388.590451 kJ/mol
# Density = 1.646988 g / cm^3
# Si number density = 16.507456 Si / 1000 Ang^3
#
#
#
# Elastic Constant Matrix: (Units=GPa)
#
#
# Indices 1 2 3 4 5 6 
#
# 1 67.6831 30.4169 51.8480 0.0000 -20.9413 0.0000
# 2 30.4169 70.7765 44.5174 0.0000 -13.3196 0.0000
# 3 51.8480 44.5174 133.5294 0.0000 -19.6521 0.0000
# 4 0.0000 0.0000 0.0000 25.7562 0.0000 -5.4071
# 5 -20.9413 -13.3196 -19.6521 0.0000 23.5310 0.0000
# 6 0.0000 0.0000 0.0000 -5.4071 0.0000 18.2102
#
#
#
# Elastic Compliance Matrix: (Units=1/GPa)
#
#
# Indices 1 2 3 4 5 6 
#
# 1 0.026641 -0.004348 -0.006576 0.000000 0.015756 0.000000
# 2 -0.004348 0.019326 -0.004235 0.000000 0.003533 0.000000
# 3 -0.006576 -0.004235 0.011675 0.000000 0.001501 0.000000
# 4 0.000000 0.000000 0.000000 0.041407 0.000000 0.012295
# 5 0.015756 0.003533 0.001501 0.000000 0.059773 0.000000
# 6 0.000000 0.000000 0.000000 0.012295 0.000000 0.058565
#
#
# Mechanical properties :
#
#
# Convention : Reuss Voigt Hill
#
# Bulk Modulus (GPa) = 36.59677 58.39485 47.49581
# Shear Modulus (GPa) = 19.46943 23.17993 21.32468
#
# Velocity S-wave (km/s) = 3.43801 3.75134 3.59809
# Velocity P-wave (km/s) = 6.16262 7.36309 6.78944
#
# Compressibility (1/GPa) = 0.02732482
#
# Stress axis : x y z
#
# Youngs Moduli (GPa) = 37.53590 51.74332 85.65163
#
# Poissons Ratio (x) = 0.22498 0.56325
# Poissons Ratio (y) = 0.16320 0.36273
# Poissons Ratio (z) = 0.24684 0.21913
#
# Static dielectric constant tensor:
#      x y z
#    x 2.727770 0.000000 -0.126840 
#    y 0.000000 2.990840 0.000000 
#    z -0.126840 0.000000 3.656930 
# 
# 
# High freq. dielectric constant tensor:
#      x y z
#    x 1.576920 0.000000 -0.021850 
#    y 0.000000 1.629090 0.000000 
#    z -0.021850 0.000000 1.648430 
# 
# From -- ./inp_files/176149.got.cif
#   From: 2010.06.25/outbox.cif.g09.slc.cpg/sg12_89_cif.got.tgz:176149.got - 2010.06.28 00:19:55.
