data_PCOD8079109
_publ_section_title
;
Structure prediction by ZEFSAII (Michael W. Deem and Ramdas Pophale) SiO2 
 PCOD8079109
Probable space group: C 2/M
;
_chemical_formula_sum "Si O2"
_cell_formula_units_Z 40
_cell_length_a 10.419026
_cell_length_b 22.776546
_cell_length_c 10.306485
_cell_angle_alpha 90.000000
_cell_angle_beta 53.774882
_cell_angle_gamma 90.000000
_cell_volume 1973.051081
_symmetry_space_group_name_H-M "C 2/M"
_symmetry_group_IT_number 12
_symmetry_cell_setting 'monoclinic'
loop_
_space_group_symop_operation_xyz
x,y,z
-x,y,-z
-x,-y,-z
x,-y,z
1/2+x,1/2+y,z
1/2-x,1/2+y,-z
1/2-x,1/2-y,-z
1/2+x,1/2-y,z
loop_
_atom_site_type_symbol
_atom_site_label
_atom_site_fract_x
_atom_site_fract_y
_atom_site_fract_z
Si Si1 0.375021 0.122142 0.826057
Si Si2 0.118792 0.303960 0.808011
Si Si3 0.353729 0.500000 0.683141
Si Si4 0.121518 0.169937 0.808691
Si Si5 0.008143 0.500000 0.837014
Si Si6 0.640584 0.376005 0.196388
O O1 0.527593 0.165392 0.741808
O O2 0.283187 0.133331 0.744444
O O3 0.426148 0.055288 0.818366
O O4 0.249522 0.140231 0.009969
O O5 0.164069 0.237172 0.751244
O O6 0.284938 0.338803 0.729508
O O7 0.000000 0.310018 0.000000
O O8 0.500000 0.500000 0.500000
O O9 0.357422 0.444629 0.775597
O O10 0.194566 0.500000 0.691092
O O11 0.040347 0.142689 0.728334
O O12 0.000000 0.166019 0.000000
O O13 0.000000 0.500000 0.000000
#
# Coordination Sequence:
#
# PCOD8079109 Si02
#       6
#     8   8   4   8   4   8
#     4  10  17  28  52  79 107 137 167 208 257 305
#     4   9  15  27  48  77 111 140 166 201 249 309
#     4  12  24  37  55  75  99 137 181 220 259 304
#     4   9  18  27  45  83 116 133 160 209 265 302
#     4  12  18  35  55  77  99 133 178 219 253 308
#     4  10  18  32  50  75 108 138 169 212 253 304
#
# _framework density 20.273171000000001
#
# number of rings (size 3 to 8) (size 9 to 14) (size 15 to 20)
#    0.000    2.000    4.000    1.800    0.000    5.600 
#    0.000    3.000    0.000    3.600    0.000    0.000 
#    0.000    0.000    0.000    0.000    0.000    0.000 
#
# Total GULP energy -247883.575542 kJ/mol
# GULP energy per Si atom -12394.178777 kJ/mol
# Density = 2.022703 g / cm^3
# Si number density = 20.273171 Si / 1000 Ang^3
#
#
#
# Elastic Constant Matrix: (Units=GPa)
#
#
# Indices 1 2 3 4 5 6 
#
# 1 232.6468 113.6221 13.0527 0.0000 -18.3168 0.0000
# 2 113.6221 178.3645 -4.9491 0.0000 -5.9881 0.0000
# 3 13.0527 -4.9491 14.6649 0.0000 -8.1430 0.0000
# 4 0.0000 0.0000 0.0000 0.9486 0.0000 -5.7571
# 5 -18.3168 -5.9881 -8.1430 0.0000 11.0062 0.0000
# 6 0.0000 0.0000 0.0000 -5.7571 0.0000 36.4334
#
#
#
# Elastic Compliance Matrix: (Units=1/GPa)
#
#
# Indices 1 2 3 4 5 6 
#
# 1 0.007264 -0.004542 -0.004511 0.000000 0.006281 0.000000
# 2 -0.004542 0.008903 0.009402 0.000000 0.004242 0.000000
# 3 -0.004511 0.009402 0.125682 0.000000 0.090596 0.000000
# 4 0.000000 0.000000 0.000000 25.713318 0.000000 4.063139
# 5 0.006281 0.004242 0.090596 0.000000 0.170647 0.000000
# 6 0.000000 0.000000 0.000000 4.063139 0.000000 0.669492
#
#
# Mechanical properties :
#
#
# Convention : Reuss Voigt Hill
#
# Bulk Modulus (GPa) = 7.01511 74.34750 40.68131
# Shear Modulus (GPa) = 0.18697 29.94100 15.06398
#
# Velocity S-wave (km/s) = 0.30402 3.84719 2.72885
# Velocity P-wave (km/s) = 1.89500 7.51578 5.48078
#
# Compressibility (1/GPa) = 0.14254934
#
# Stress axis : x y z
#
# Youngs Moduli (GPa) = 137.66488 112.32289 7.95656
#
# Poissons Ratio (x) = 0.51013 0.03589
# Poissons Ratio (y) = 0.62522 -0.07481
# Poissons Ratio (z) = 0.62094 -1.05608
#
# Static dielectric constant tensor:
#      x y z
#    x 4.318040 0.000000 -0.200590 
#    y 0.000000 3.638060 0.000000 
#    z -0.200590 0.000000 2.952320 
# 
# 
# High freq. dielectric constant tensor:
#      x y z
#    x 1.814280 0.000000 -0.019320 
#    y 0.000000 1.802200 0.000000 
#    z -0.019320 0.000000 1.708950 
# 
# From -- ./inp_files/48827.got.cif
#   From: 2010.06.25/outbox.cif.g09.slc.cpg/sg12_25_cif.got.tgz:48827.got - 2010.06.28 00:19:55.
