data_PCOD8079848
_publ_section_title
;
Structure prediction by ZEFSAII (Michael W. Deem and Ramdas Pophale) SiO2 
 PCOD8079848
Probable space group: C 2/M
;
_chemical_formula_sum "Si O2"
_cell_formula_units_Z 56
_cell_length_a 28.686259
_cell_length_b 9.163577
_cell_length_c 28.706678
_cell_angle_alpha 90.000000
_cell_angle_beta 151.825979
_cell_angle_gamma 90.000000
_cell_volume 3562.894048
_symmetry_space_group_name_H-M "C 2/M"
_symmetry_group_IT_number 12
_symmetry_cell_setting 'monoclinic'
loop_
_space_group_symop_operation_xyz
x,y,z
-x,y,-z
-x,-y,-z
x,-y,z
1/2+x,1/2+y,z
1/2-x,1/2+y,-z
1/2-x,1/2-y,-z
1/2+x,1/2-y,z
loop_
_atom_site_type_symbol
_atom_site_label
_atom_site_fract_x
_atom_site_fract_y
_atom_site_fract_z
Si Si1 0.607122 0.168475 0.574221
Si Si2 0.467034 0.170073 0.865891
Si Si3 0.350774 0.331705 0.579183
Si Si4 0.384964 0.666552 0.710657
Si Si5 0.155856 0.331309 0.513946
Si Si6 0.287853 0.170581 0.776575
Si Si7 0.408944 0.665010 0.954730
O O1 0.500000 0.200189 0.500000
O O2 0.605035 0.209585 0.517870
O O3 0.682679 0.269983 0.668096
O O4 0.639105 0.000000 0.608837
O O5 0.453887 0.229072 0.801999
O O6 0.367255 0.203798 0.806345
O O7 0.491616 0.000000 0.886329
O O8 0.559993 0.251861 0.970840
O O9 0.328411 0.500000 0.549357
O O10 0.250000 0.250000 0.500000
O O11 0.416555 0.314838 0.684075
O O12 0.399184 0.259968 0.575633
O O13 0.400398 0.500000 0.740760
O O14 0.271041 0.711440 0.617843
O O15 0.143143 0.500000 0.490130
O O16 0.317712 0.251204 0.850656
O O17 0.280277 0.000000 0.780487
O O18 0.376931 0.500000 0.938590
O O19 0.500000 0.666957 0.000000
#
# Coordination Sequence:
#
# PCOD8079848 Si02
#       7
#     8   8   8   8   8   8   8
#     4  10  20  33  48  64  84 115 155 191 222 260
#     4  10  18  26  40  63  88 114 143 176 214 257
#     4   9  17  27  40  59  82 111 144 177 214 259
#     4   9  16  26  40  59  84 114 145 175 209 257
#     4   9  17  29  43  59  82 112 146 184 221 257
#     4  10  19  30  43  61  86 113 144 184 223 258
#     4   9  17  28  43  60  81 113 146 175 211 259
#
# _framework density 15.717560000000001
#
# number of rings (size 3 to 8) (size 9 to 14) (size 15 to 20)
#    0.000    2.571    1.429    2.571    0.000    6.571 
#    0.000    0.000    0.000    0.000    0.000    0.000 
#    0.000    1.143    0.000    3.429    0.000    5.286 
#
# Total GULP energy -347137.642168 kJ/mol
# GULP energy per Si atom -12397.772935 kJ/mol
# Density = 1.568179 g / cm^3
# Si number density = 15.717560 Si / 1000 Ang^3
#
#
#
# Elastic Constant Matrix: (Units=GPa)
#
#
# Indices 1 2 3 4 5 6 
#
# 1 77.6068 42.2249 46.8530 0.0000 -22.3147 0.0000
# 2 42.2249 107.0012 61.5783 0.0002 -22.7850 0.0004
# 3 46.8530 61.5783 78.6810 -0.0002 -26.8149 -0.0001
# 4 0.0000 0.0002 -0.0002 29.0678 -0.0001 -10.1949
# 5 -22.3147 -22.7850 -26.8149 -0.0001 25.1450 0.0000
# 6 0.0000 0.0004 -0.0001 -10.1949 0.0000 21.0173
#
#
#
# Elastic Compliance Matrix: (Units=1/GPa)
#
#
# Indices 1 2 3 4 5 6 
#
# 1 0.021372 -0.001766 -0.008524 0.000000 0.008276 0.000000
# 2 -0.001766 0.017209 -0.011996 0.000000 0.001234 -0.000001
# 3 -0.008524 -0.011996 0.032819 0.000001 0.016564 0.000001
# 4 0.000000 0.000000 0.000001 0.041455 0.000000 0.020109
# 5 0.008276 0.001234 0.016564 0.000000 0.065895 0.000000
# 6 0.000000 -0.000001 0.000001 0.020109 0.000000 0.057334
#
#
# Mechanical properties :
#
#
# Convention : Reuss Voigt Hill
#
# Bulk Modulus (GPa) = 37.27496 62.73350 50.00423
# Shear Modulus (GPa) = 17.26521 22.55488 19.91004
#
# Velocity S-wave (km/s) = 3.31791 3.79226 3.56299
# Velocity P-wave (km/s) = 6.20040 7.69251 6.98640
#
# Compressibility (1/GPa) = 0.02682766
#
# Stress axis : x y z
#
# Youngs Moduli (GPa) = 46.78984 58.10878 30.47008
#
# Poissons Ratio (x) = 0.10263 0.25972
# Poissons Ratio (y) = 0.08264 0.36553
# Poissons Ratio (z) = 0.39883 0.69709
#
# Static dielectric constant tensor:
#      x y z
#    x 2.989580 0.000000 -0.437330 
#    y 0.000000 3.137240 0.000000 
#    z -0.437330 0.000000 2.859640 
# 
# 
# High freq. dielectric constant tensor:
#      x y z
#    x 1.566180 0.000000 -0.043360 
#    y 0.000000 1.616810 0.000000 
#    z -0.043360 0.000000 1.578480 
# 
# From -- ./inp_files/247913.got.cif
#   From: 2010.06.25/outbox.cif.g09.slc.cpg/sg12_124_cif.got.tgz:247913.got - 2010.06.28 00:19:55.
