data_PCOD8079576
_publ_section_title
;
Structure prediction by ZEFSAII (Michael W. Deem and Ramdas Pophale) SiO2 
 PCOD8079576
Probable space group: C 2/M
;
_chemical_formula_sum "Si O2"
_cell_formula_units_Z 56
_cell_length_a 15.076630
_cell_length_b 17.068709
_cell_length_c 13.972923
_cell_angle_alpha 90.000000
_cell_angle_beta 122.906288
_cell_angle_gamma 90.000000
_cell_volume 3018.867723
_symmetry_space_group_name_H-M "C 2/M"
_symmetry_group_IT_number 12
_symmetry_cell_setting 'monoclinic'
loop_
_space_group_symop_operation_xyz
x,y,z
-x,y,-z
-x,-y,-z
x,-y,z
1/2+x,1/2+y,z
1/2-x,1/2+y,-z
1/2-x,1/2-y,-z
1/2+x,1/2-y,z
loop_
_atom_site_type_symbol
_atom_site_label
_atom_site_fract_x
_atom_site_fract_y
_atom_site_fract_z
Si Si1 0.891568 0.590165 0.524861
Si Si2 0.901673 0.631065 0.134697
Si Si3 0.140314 0.413289 0.284244
Si Si4 0.601129 0.277693 0.992394
Si Si5 0.884989 0.661791 0.334649
Si Si6 0.269281 0.691822 0.219248
Si Si7 0.308868 0.588194 0.075390
O O1 0.929497 0.500000 0.538700
O O2 0.826645 0.601431 0.585062
O O3 0.828356 0.615408 0.390676
O O4 0.989565 0.649926 0.585389
O O5 0.851211 0.628072 0.211450
O O6 0.013800 0.587811 0.197134
O O7 0.919007 0.720359 0.109400
O O8 0.817845 0.587675 0.017325
O O9 0.178407 0.500000 0.275156
O O10 0.195099 0.347519 0.254289
O O11 0.700375 0.246781 0.109971
O O12 0.500000 0.283673 0.000000
O O13 0.628166 0.363338 0.967916
O O14 0.855042 0.753748 0.322963
O O15 0.328403 0.625780 0.191479
O O16 0.352711 0.500000 0.100878
#
# Coordination Sequence:
#
# PCOD8079576 Si02
#       7
#     8   8   8   8   8   8   8
#     4   9  20  35  55  84 108 126 173 232 269 307
#     4  10  18  34  54  77 105 137 176 218 266 309
#     4  10  20  33  52  80 110 139 168 217 275 307
#     4  11  20  36  53  74 108 141 176 219 252 307
#     4  10  17  32  55  76 105 138 169 215 269 312
#     4  11  20  34  52  78 107 141 178 212 257 319
#     4  11  22  34  51  77 105 140 182 217 255 311
#
# _framework density 18.550000000000001
#
# number of rings (size 3 to 8) (size 9 to 14) (size 15 to 20)
#    0.000    1.714    4.286    2.571    0.000    2.571 
#    0.000    2.143    0.000    0.000    0.000   12.000 
#    0.000    0.000    0.000    0.000    0.000    0.000 
#
# Total GULP energy -347021.234949 kJ/mol
# GULP energy per Si atom -12393.615534 kJ/mol
# Density = 1.850778 g / cm^3
# Si number density = 18.550000 Si / 1000 Ang^3
#
#
#
# Elastic Constant Matrix: (Units=GPa)
#
#
# Indices 1 2 3 4 5 6 
#
# 1 41.3347 27.4421 26.6386 0.0000 -10.9684 0.0000
# 2 27.4421 125.3240 45.0486 0.0000 -8.9323 0.0000
# 3 26.6386 45.0486 78.3609 0.0000 -23.6275 0.0000
# 4 0.0000 0.0000 0.0000 22.7690 0.0000 0.2647
# 5 -10.9684 -8.9323 -23.6275 0.0000 23.1805 0.0000
# 6 0.0000 0.0000 0.0000 0.2647 0.0000 23.9669
#
#
#
# Elastic Compliance Matrix: (Units=1/GPa)
#
#
# Indices 1 2 3 4 5 6 
#
# 1 0.033306 -0.004407 -0.006567 0.000000 0.007367 0.000000
# 2 -0.004407 0.010779 -0.005883 0.000000 -0.003928 0.000000
# 3 -0.006567 -0.005883 0.024190 0.000000 0.019282 0.000000
# 4 0.000000 0.000000 0.000000 0.043925 0.000000 -0.000485
# 5 0.007367 -0.003928 0.019282 0.000000 0.064766 0.000000
# 6 0.000000 0.000000 0.000000 -0.000485 0.000000 0.041729
#
#
# Mechanical properties :
#
#
# Convention : Reuss Voigt Hill
#
# Bulk Modulus (GPa) = 28.93494 49.25313 39.09404
# Shear Modulus (GPa) = 18.94436 23.70930 21.32683
#
# Velocity S-wave (km/s) = 3.19918 3.57897 3.39439
# Velocity P-wave (km/s) = 5.41097 6.60968 6.04014
#
# Compressibility (1/GPa) = 0.03456029
#
# Stress axis : x y z
#
# Youngs Moduli (GPa) = 30.02459 92.77240 41.33937
#
# Poissons Ratio (x) = 0.40887 0.27148
# Poissons Ratio (y) = 0.13233 0.24320
# Poissons Ratio (z) = 0.19718 0.54578
#
# Static dielectric constant tensor:
#      x y z
#    x 3.198330 0.000000 -0.367810 
#    y 0.000000 3.418230 0.000000 
#    z -0.367810 0.000000 3.838010 
# 
# 
# High freq. dielectric constant tensor:
#      x y z
#    x 1.693630 0.000000 -0.037190 
#    y 0.000000 1.718100 0.000000 
#    z -0.037190 0.000000 1.712340 
# 
# From -- ./inp_files/224875.got.cif
#   From: 2010.06.25/outbox.cif.g09.slc.cpg/sg12_113_cif.got.tgz:224875.got - 2010.06.28 00:19:55.
