data_PCOD8079010
_publ_section_title
;
Structure prediction by ZEFSAII (Michael W. Deem and Ramdas Pophale) SiO2 
 PCOD8079010
Probable space group: C 2/M
;
_chemical_formula_sum "Si O2"
_cell_formula_units_Z 48
_cell_length_a 30.040451
_cell_length_b 8.897808
_cell_length_c 12.145311
_cell_angle_alpha 90.000000
_cell_angle_beta 118.312979
_cell_angle_gamma 90.000000
_cell_volume 2858.007228
_symmetry_space_group_name_H-M "C 2/M"
_symmetry_group_IT_number 12
_symmetry_cell_setting 'monoclinic'
loop_
_space_group_symop_operation_xyz
x,y,z
-x,y,-z
-x,-y,-z
x,-y,z
1/2+x,1/2+y,z
1/2-x,1/2+y,-z
1/2-x,1/2-y,-z
1/2+x,1/2-y,z
loop_
_atom_site_type_symbol
_atom_site_label
_atom_site_fract_x
_atom_site_fract_y
_atom_site_fract_z
Si Si1 0.225447 0.822213 0.865117
Si Si2 0.417308 0.323918 0.586978
Si Si3 0.610972 0.674801 0.693810
Si Si4 0.757530 0.176153 0.680695
Si Si5 0.172506 0.323890 0.405351
Si Si6 0.514954 0.830260 0.644378
O O1 0.166680 0.775837 0.795259
O O2 0.253589 0.758616 0.791897
O O3 0.232085 0.000000 0.874684
O O4 0.250000 0.750000 0.000000
O O5 0.414998 0.500000 0.608101
O O6 0.396071 0.282484 0.441901
O O7 0.383351 0.237463 0.636101
O O8 0.474890 0.266829 0.667429
O O9 0.600792 0.500000 0.700165
O O10 0.571153 0.763121 0.723883
O O11 0.807049 0.239092 0.678118
O O12 0.708079 0.214028 0.550946
O O13 0.764000 0.000000 0.707958
O O14 0.170778 0.500000 0.378854
O O15 0.500000 0.821336 0.500000
O O16 0.514456 0.000000 0.688115
#
# Coordination Sequence:
#
# PCOD8079010 Si02
#       6
#     8   8   8   8   8   8
#     4  11  22  36  52  72  98 131 171 209 247 289
#     4  10  17  28  46  69  98 130 162 195 242 296
#     4   9  18  31  46  65  94 129 163 201 243 289
#     4  10  20  33  49  70  97 130 166 203 247 294
#     4  10  19  30  48  72 100 130 162 201 246 295
#     4   9  17  27  42  66  95 125 159 197 241 292
#
# _framework density 16.794919
#
# number of rings (size 3 to 8) (size 9 to 14) (size 15 to 20)
#    0.000    2.167    1.667    2.500    0.000    5.333 
#    0.000    0.000    0.000    0.000    0.000    1.167 
#    0.000    9.333    0.000    0.000    0.000    0.000 
#
# Total GULP energy -297660.559270 kJ/mol
# GULP energy per Si atom -12402.523303 kJ/mol
# Density = 1.675669 g / cm^3
# Si number density = 16.794919 Si / 1000 Ang^3
#
#
#
# Elastic Constant Matrix: (Units=GPa)
#
#
# Indices 1 2 3 4 5 6 
#
# 1 142.8048 56.0501 44.5314 0.0000 -2.9286 0.0000
# 2 56.0501 80.6107 33.5370 0.0000 -2.8212 0.0000
# 3 44.5314 33.5370 65.5563 0.0000 -4.7838 0.0000
# 4 0.0000 0.0000 0.0000 21.6564 0.0000 -2.3766
# 5 -2.9286 -2.8212 -4.7838 0.0000 16.4248 0.0000
# 6 0.0000 0.0000 0.0000 -2.3766 0.0000 38.0465
#
#
#
# Elastic Compliance Matrix: (Units=1/GPa)
#
#
# Indices 1 2 3 4 5 6 
#
# 1 0.010516 -0.005515 -0.004346 0.000000 -0.000338 0.000000
# 2 -0.005515 0.018654 -0.005757 0.000000 0.000544 0.000000
# 3 -0.004346 -0.005757 0.021479 0.000000 0.004492 0.000000
# 4 0.000000 0.000000 0.000000 0.046494 0.000000 0.002904
# 5 -0.000338 0.000544 0.004492 0.000000 0.062225 0.000000
# 6 0.000000 0.000000 0.000000 0.002904 0.000000 0.026465
#
#
# Mechanical properties :
#
#
# Convention : Reuss Voigt Hill
#
# Bulk Modulus (GPa) = 51.51391 61.91210 56.71300
# Shear Modulus (GPa) = 22.36719 25.54911 23.95815
#
# Velocity S-wave (km/s) = 3.65332 3.90454 3.78102
# Velocity P-wave (km/s) = 6.96668 7.56775 7.27342
#
# Compressibility (1/GPa) = 0.01941223
#
# Stress axis : x y z
#
# Youngs Moduli (GPa) = 95.09574 53.60676 46.55632
#
# Poissons Ratio (x) = 0.29566 0.20235
# Poissons Ratio (y) = 0.52449 0.26802
# Poissons Ratio (z) = 0.41332 0.30861
#
# Static dielectric constant tensor:
#      x y z
#    x 3.314460 0.000000 0.015520 
#    y 0.000000 3.243560 0.000000 
#    z 0.015520 0.000000 2.659710 
# 
# 
# High freq. dielectric constant tensor:
#      x y z
#    x 1.662700 0.000000 -0.002100 
#    y 0.000000 1.664140 0.000000 
#    z -0.002100 0.000000 1.584670 
# 
# From -- ./inp_files/179202.got.cif
#   From: 2010.06.25/outbox.cif.g09.slc.cpg/sg12_90_cif.got.tgz:179202.got - 2010.06.28 00:19:55.
