data_PCOD8079898
_publ_section_title
;
Structure prediction by ZEFSAII (Michael W. Deem and Ramdas Pophale) SiO2 
 PCOD8079898
Probable space group: C 2/M
;
_chemical_formula_sum "Si O2"
_cell_formula_units_Z 64
_cell_length_a 27.719119
_cell_length_b 9.041169
_cell_length_c 24.265959
_cell_angle_alpha 90.000000
_cell_angle_beta 42.714068
_cell_angle_gamma 90.000000
_cell_volume 4125.237506
_symmetry_space_group_name_H-M "C 2/M"
_symmetry_group_IT_number 12
_symmetry_cell_setting 'monoclinic'
loop_
_space_group_symop_operation_xyz
x,y,z
-x,y,-z
-x,-y,-z
x,-y,z
1/2+x,1/2+y,z
1/2-x,1/2+y,-z
1/2-x,1/2-y,-z
1/2+x,1/2-y,z
loop_
_atom_site_type_symbol
_atom_site_label
_atom_site_fract_x
_atom_site_fract_y
_atom_site_fract_z
Si Si1 0.341330 0.174560 0.666258
Si Si2 0.935592 0.325407 0.017539
Si Si3 0.937497 0.836516 0.508153
Si Si4 0.614443 0.328349 0.167405
Si Si5 0.744893 0.830536 0.099090
Si Si6 0.442631 0.327530 0.667651
Si Si7 0.094834 0.833503 0.064568
Si Si8 0.720771 0.825402 0.821063
O O1 0.376229 0.223571 0.578712
O O2 0.387223 0.230519 0.679555
O O3 0.261930 0.244451 0.736498
O O4 0.335902 0.000000 0.672199
O O5 0.939108 0.500000 0.011760
O O6 0.861570 0.273340 0.107589
O O7 0.943050 0.269374 0.948600
O O8 0.000000 0.260874 0.000000
O O9 0.000000 0.838184 0.500000
O O10 0.975848 0.788587 0.418603
O O11 0.903415 0.000000 0.531495
O O12 0.638208 0.500000 0.147339
O O13 0.684051 0.225440 0.109039
O O14 0.564305 0.291955 0.261728
O O15 0.571142 0.293377 0.147083
O O16 0.740331 0.724653 0.155843
O O17 0.730961 0.000000 0.128607
O O18 0.820281 0.813560 0.006361
O O19 0.426680 0.500000 0.667984
O O20 0.073227 0.000000 0.067149
O O21 0.727621 0.000000 0.808271
#
# Coordination Sequence:
#
# PCOD8079898 Si02
#       8
#     8   8   8   8   8   8   8   8
#     4  11  19  26  39  60  85 110 143 183 214 250
#     4   9  19  35  52  67  83 107 141 180 221 262
#     4   8  15  27  40  54  76 111 150 180 209 248
#     4  10  18  28  42  59  85 119 149 175 205 247
#     4  10  18  27  39  59  86 113 145 181 210 241
#     4   9  17  28  41  56  80 117 153 179 208 245
#     4   9  19  31  43  63  87 112 143 175 212 256
#     4  10  18  29  45  62  83 112 143 176 216 260
#
# _framework density 15.514258
#
# number of rings (size 3 to 8) (size 9 to 14) (size 15 to 20)
#    0.000    2.500    1.250    3.000    0.000    4.000 
#    0.000    0.000    0.000    0.000    0.000    0.000 
#    0.000    1.000    0.000    2.000    0.000    2.750 
#
# Total GULP energy -396635.983008 kJ/mol
# GULP energy per Si atom -12394.874469 kJ/mol
# Density = 1.547895 g / cm^3
# Si number density = 15.514258 Si / 1000 Ang^3
#
#
#
# Elastic Constant Matrix: (Units=GPa)
#
#
# Indices 1 2 3 4 5 6 
#
# 1 70.2329 26.4230 43.1103 -0.0047 4.1211 0.0091
# 2 26.4230 66.8673 38.9420 -0.0058 -1.0851 0.0134
# 3 43.1103 38.9420 99.8898 -0.0040 10.3183 0.0024
# 4 -0.0047 -0.0058 -0.0040 19.7318 -0.0003 1.9151
# 5 4.1211 -1.0851 10.3183 -0.0003 14.5262 0.0002
# 6 0.0091 0.0134 0.0024 1.9151 0.0002 14.6306
#
#
#
# Elastic Compliance Matrix: (Units=1/GPa)
#
#
# Indices 1 2 3 4 5 6 
#
# 1 0.020077 -0.003830 -0.007073 0.000003 -0.000958 -0.000008
# 2 -0.003830 0.020832 -0.007275 0.000005 0.007811 -0.000016
# 3 -0.007073 -0.007275 0.016996 -0.000001 -0.010609 0.000009
# 4 0.000003 0.000005 -0.000001 0.051332 0.000002 -0.006719
# 5 -0.000958 0.007811 -0.010609 0.000002 0.077233 -0.000006
# 6 -0.000008 -0.000016 0.000009 -0.006719 -0.000006 0.069229
#
#
# Mechanical properties :
#
#
# Convention : Reuss Voigt Hill
#
# Bulk Modulus (GPa) = 46.40651 50.43786 48.42219
# Shear Modulus (GPa) = 16.70917 18.34536 17.52726
#
# Velocity S-wave (km/s) = 3.28536 3.44246 3.36482
# Velocity P-wave (km/s) = 6.66097 6.95571 6.80994
#
# Compressibility (1/GPa) = 0.02154870
#
# Stress axis : x y z
#
# Youngs Moduli (GPa) = 49.80871 48.00267 58.83873
#
# Poissons Ratio (x) = 0.18385 0.41614
# Poissons Ratio (y) = 0.19077 0.42807
# Poissons Ratio (z) = 0.35228 0.34923
#
# Static dielectric constant tensor:
#      x y z
#    x 2.616330 -0.000010 0.089280 
#    y -0.000010 2.946520 0.000010 
#    z 0.089280 0.000010 3.412770 
# 
# 
# High freq. dielectric constant tensor:
#      x y z
#    x 1.532250 0.000000 0.011390 
#    y 0.000000 1.598070 0.000000 
#    z 0.011390 0.000000 1.602500 
# 
# From -- ./inp_files/348527.got.cif
#   From: 2010.06.25/outbox.cif.g09.slc.cpg/sg12_175_cif.got.tgz:348527.got - 2010.06.28 00:19:55.
