data_PCOD8079046
_publ_section_title
;
Structure prediction by ZEFSAII (Michael W. Deem and Ramdas Pophale) SiO2 
 PCOD8079046
Probable space group: C 2/M
;
_chemical_formula_sum "Si O2"
_cell_formula_units_Z 48
_cell_length_a 9.930575
_cell_length_b 18.429043
_cell_length_c 13.973064
_cell_angle_alpha 90.000000
_cell_angle_beta 96.257148
_cell_angle_gamma 90.000000
_cell_volume 2541.990300
_symmetry_space_group_name_H-M "C 2/M"
_symmetry_group_IT_number 12
_symmetry_cell_setting 'monoclinic'
loop_
_space_group_symop_operation_xyz
x,y,z
-x,y,-z
-x,-y,-z
x,-y,z
1/2+x,1/2+y,z
1/2-x,1/2+y,-z
1/2-x,1/2-y,-z
1/2+x,1/2-y,z
loop_
_atom_site_type_symbol
_atom_site_label
_atom_site_fract_x
_atom_site_fract_y
_atom_site_fract_z
Si Si1 0.972786 0.340178 0.152551
Si Si2 0.615937 0.418904 0.827235
Si Si3 0.213147 0.669121 0.025695
Si Si4 0.994852 0.790099 0.281645
Si Si5 0.357937 0.079341 0.696403
Si Si6 0.255953 0.219017 0.605897
O O1 0.108049 0.325397 0.103497
O O2 0.002803 0.398513 0.238632
O O3 0.932743 0.263722 0.197422
O O4 0.853264 0.368323 0.073849
O O5 0.559844 0.500000 0.844008
O O6 0.660446 0.380343 0.930542
O O7 0.502293 0.370520 0.764784
O O8 0.742890 0.423494 0.767117
O O9 0.250000 0.750000 0.000000
O O10 0.895971 0.784646 0.365522
O O11 0.148097 0.770517 0.322338
O O12 0.320712 0.137937 0.611609
O O13 0.376716 0.000000 0.650029
O O14 0.250000 0.250000 0.500000
#
# Coordination Sequence:
#
# PCOD8079046 Si02
#       6
#     8   8   8   8   8   8
#     4   9  18  28  48  75  96 136 174 209 249 291
#     4   9  17  30  48  73 103 135 168 207 250 294
#     4  10  17  28  47  74 103 133 175 214 243 289
#     4  10  19  34  54  76 102 135 168 209 256 303
#     4   8  16  31  50  73 101 130 167 211 255 296
#     4  10  20  34  56  81 100 127 169 214 258 308
#
# _framework density 18.882843000000001
#
# number of rings (size 3 to 8) (size 9 to 14) (size 15 to 20)
#    0.000    2.667    1.667    1.500    0.000    0.667 
#    0.000    4.167    0.000   18.000    0.000    0.000 
#    0.000    0.000    0.000    0.000    0.000    0.000 
#
# Total GULP energy -297426.332361 kJ/mol
# GULP energy per Si atom -12392.763848 kJ/mol
# Density = 1.883986 g / cm^3
# Si number density = 18.882843 Si / 1000 Ang^3
#
#
#
# Elastic Constant Matrix: (Units=GPa)
#
#
# Indices 1 2 3 4 5 6 
#
# 1 21.8433 10.7913 4.0134 0.0000 11.8438 0.0000
# 2 10.7913 156.8229 50.7055 0.0000 15.7855 0.0000
# 3 4.0134 50.7055 93.0397 0.0000 9.8160 0.0000
# 4 0.0000 0.0000 0.0000 26.6080 0.0000 -0.1141
# 5 11.8438 15.7855 9.8160 0.0000 19.8824 0.0000
# 6 0.0000 0.0000 0.0000 -0.1141 0.0000 17.6022
#
#
#
# Elastic Compliance Matrix: (Units=1/GPa)
#
#
# Indices 1 2 3 4 5 6 
#
# 1 0.067992 -0.001256 0.002025 0.000000 -0.040505 0.000000
# 2 -0.001256 0.008126 -0.003980 0.000000 -0.003738 0.000000
# 3 0.002025 -0.003980 0.013317 0.000000 -0.004621 0.000000
# 4 0.000000 0.000000 0.000000 0.037584 0.000000 0.000244
# 5 -0.040505 -0.003738 -0.004621 0.000000 0.079674 0.000000
# 6 0.000000 0.000000 0.000000 0.000244 0.000000 0.056813
#
#
# Mechanical properties :
#
#
# Convention : Reuss Voigt Hill
#
# Bulk Modulus (GPa) = 12.04635 44.74739 28.39687
# Shear Modulus (GPa) = 16.80113 26.56489 21.68301
#
# Velocity S-wave (km/s) = 2.98611 3.75484 3.39232
# Velocity P-wave (km/s) = 4.27581 6.52282 5.51497
#
# Compressibility (1/GPa) = 0.08301267
#
# Stress axis : x y z
#
# Youngs Moduli (GPa) = 14.70770 123.05790 75.08972
#
# Poissons Ratio (x) = 0.15460 -0.15207
# Poissons Ratio (y) = 0.01848 0.29886
# Poissons Ratio (z) = -0.02978 0.48978
#
# Static dielectric constant tensor:
#      x y z
#    x 3.204640 0.000000 0.194440 
#    y 0.000000 3.856880 0.000000 
#    z 0.194440 0.000000 3.486170 
# 
# 
# High freq. dielectric constant tensor:
#      x y z
#    x 1.702790 0.000000 0.014840 
#    y 0.000000 1.726720 0.000000 
#    z 0.014840 0.000000 1.726610 
# 
# From -- ./inp_files/205580.got.cif
#   From: 2010.06.25/outbox.cif.g09.slc.cpg/sg12_103_cif.got.tgz:205580.got - 2010.06.28 00:19:55.
