data_PCOD8079613
_publ_section_title
;
Structure prediction by ZEFSAII (Michael W. Deem and Ramdas Pophale) SiO2 
 PCOD8079613
Probable space group: C 2/M
;
_chemical_formula_sum "Si O2"
_cell_formula_units_Z 56
_cell_length_a 23.676237
_cell_length_b 17.951647
_cell_length_c 17.894762
_cell_angle_alpha 90.000000
_cell_angle_beta 157.647807
_cell_angle_gamma 90.000000
_cell_volume 2892.463412
_symmetry_space_group_name_H-M "C 2/M"
_symmetry_group_IT_number 12
_symmetry_cell_setting 'monoclinic'
loop_
_space_group_symop_operation_xyz
x,y,z
-x,y,-z
-x,-y,-z
x,-y,z
1/2+x,1/2+y,z
1/2-x,1/2+y,-z
1/2-x,1/2-y,-z
1/2+x,1/2-y,z
loop_
_atom_site_type_symbol
_atom_site_label
_atom_site_fract_x
_atom_site_fract_y
_atom_site_fract_z
Si Si1 0.152602 0.178687 0.095904
Si Si2 0.179640 0.822680 0.290514
Si Si3 0.151952 0.341471 0.951317
Si Si4 0.653464 0.912402 0.389686
Si Si5 0.192231 0.836188 0.550207
Si Si6 0.827442 0.172966 0.306333
Si Si7 0.875048 0.164650 0.096391
O O1 0.186912 0.137876 0.216971
O O2 0.275597 0.242236 0.241671
O O3 0.159324 0.128711 0.028130
O O4 0.984165 0.210711 0.894273
O O5 0.216269 0.885442 0.395739
O O6 0.292210 0.753246 0.435672
O O7 0.124893 0.253321 0.917097
O O8 0.000172 0.386569 0.761932
O O9 0.238033 0.369021 0.131311
O O10 0.247930 0.363556 0.996380
O O11 0.678634 0.876570 0.338760
O O12 0.658984 0.000000 0.388543
O O13 0.204972 0.862910 0.651995
O O14 0.033144 0.860208 0.322464
O O15 0.000000 0.169761 0.500000
#
# Coordination Sequence:
#
# PCOD8079613 Si02
#       7
#     8   8   8   8   8   8   8
#     4   9  19  30  56  93 122 145 187 243 293 340
#     4  10  19  36  59  89 118 151 191 246 291 335
#     4  10  21  35  56  89 121 151 187 236 298 341
#     4  12  25  40  59  83 118 159 199 240 291 352
#     4  11  19  35  62  87 113 150 195 243 285 346
#     4  10  19  32  56  94 122 145 184 244 300 345
#     4  10  17  32  61  90 113 147 191 239 286 343
#
# _framework density 19.360661
#
# number of rings (size 3 to 8) (size 9 to 14) (size 15 to 20)
#    0.000    1.714    4.286    2.143    0.000    1.714 
#    0.000    3.571    0.000    1.714    0.000    0.000 
#    0.000    0.000    0.000    0.000    0.000    0.000 
#
# Total GULP energy -346989.816800 kJ/mol
# GULP energy per Si atom -12392.493457 kJ/mol
# Density = 1.931659 g / cm^3
# Si number density = 19.360661 Si / 1000 Ang^3
#
#
#
# Elastic Constant Matrix: (Units=GPa)
#
#
# Indices 1 2 3 4 5 6 
#
# 1 175.7020 36.2085 37.5894 -0.0005 -17.4889 -0.0004
# 2 36.2085 45.3187 26.2334 0.0002 -7.0387 0.0003
# 3 37.5894 26.2334 65.3154 -0.0003 0.8142 0.0000
# 4 -0.0005 0.0002 -0.0003 9.3850 0.0004 3.6999
# 5 -17.4889 -7.0387 0.8142 0.0004 37.2473 0.0004
# 6 -0.0004 0.0003 0.0000 3.6999 0.0004 5.7148
#
#
#
# Elastic Compliance Matrix: (Units=1/GPa)
#
#
# Indices 1 2 3 4 5 6 
#
# 1 0.007344 -0.003870 -0.002707 0.000000 0.002776 0.000000
# 2 -0.003870 0.032046 -0.010700 -0.000001 0.004473 -0.000002
# 3 -0.002707 -0.010700 0.021213 0.000001 -0.003757 0.000000
# 4 0.000000 -0.000001 0.000001 0.143069 0.000000 -0.092626
# 5 0.002776 0.004473 -0.003757 0.000000 0.029079 -0.000002
# 6 0.000000 -0.000002 0.000000 -0.092626 -0.000002 0.234953
#
#
# Mechanical properties :
#
#
# Convention : Reuss Voigt Hill
#
# Bulk Modulus (GPa) = 38.38786 54.04430 46.21608
# Shear Modulus (GPa) = 9.78589 22.88975 16.33782
#
# Velocity S-wave (km/s) = 2.25067 3.44216 2.90809
# Velocity P-wave (km/s) = 5.15992 6.61612 5.93287
#
# Compressibility (1/GPa) = 0.02604990
#
# Stress axis : x y z
#
# Youngs Moduli (GPa) = 136.15747 31.20494 47.14180
#
# Poissons Ratio (x) = 0.12076 0.12762
# Poissons Ratio (y) = 0.52690 0.50441
# Poissons Ratio (z) = 0.36859 0.33389
#
# Static dielectric constant tensor:
#      x y z
#    x 4.174200 0.000000 -0.274360 
#    y 0.000000 2.760820 0.000000 
#    z -0.274360 0.000000 3.693240 
# 
# 
# High freq. dielectric constant tensor:
#      x y z
#    x 1.787690 0.000000 -0.006670 
#    y 0.000000 1.663450 0.000000 
#    z -0.006670 0.000000 1.767380 
# 
# From -- ./inp_files/290855.got.cif
#   From: 2010.06.25/outbox.cif.g09.slc.cpg/sg12_146_cif.got.tgz:290855.got - 2010.06.28 00:19:55.
