data_PCOD8079018
_publ_section_title
;
Structure prediction by ZEFSAII (Michael W. Deem and Ramdas Pophale) SiO2 
 PCOD8079018
Probable space group: C 2/M
;
_chemical_formula_sum "Si O2"
_cell_formula_units_Z 56
_cell_length_a 17.449749
_cell_length_b 13.081925
_cell_length_c 23.337945
_cell_angle_alpha 90.000000
_cell_angle_beta 37.536159
_cell_angle_gamma 90.000000
_cell_volume 3245.843188
_symmetry_space_group_name_H-M "C 2/M"
_symmetry_group_IT_number 12
_symmetry_cell_setting 'monoclinic'
loop_
_space_group_symop_operation_xyz
x,y,z
-x,y,-z
-x,-y,-z
x,-y,z
1/2+x,1/2+y,z
1/2-x,1/2+y,-z
1/2-x,1/2-y,-z
1/2+x,1/2-y,z
loop_
_atom_site_type_symbol
_atom_site_label
_atom_site_fract_x
_atom_site_fract_y
_atom_site_fract_z
Si Si1 0.743114 0.813260 0.583866
Si Si2 0.241164 0.878242 0.301990
Si Si3 0.633835 0.616614 0.601440
Si Si4 0.524528 0.120729 0.134990
Si Si5 0.965694 0.615885 0.744815
Si Si6 0.126238 0.620658 0.956744
Si Si7 0.867248 0.195111 0.748276
O O1 0.803648 0.836474 0.609769
O O2 0.714702 0.691833 0.594321
O O3 0.843049 0.851500 0.478049
O O4 0.616251 0.878574 0.650227
O O5 0.383432 0.839746 0.206388
O O6 0.154052 0.827468 0.305680
O O7 0.227465 0.000000 0.306761
O O8 0.673884 0.500000 0.590347
O O9 0.485173 0.629406 0.701568
O O10 0.573470 0.157338 0.168262
O O11 0.514500 0.000000 0.142986
O O12 0.616883 0.155350 0.029014
O O13 0.921592 0.500000 0.760684
O O14 0.898242 0.684844 0.737143
O O15 0.141031 0.500000 0.941113
O O16 0.246425 0.672052 0.857976
O O17 0.000000 0.657913 0.000000
#
# Coordination Sequence:
#
# PCOD8079018 Si02
#       7
#     8   8   8   8   8   8   8
#     4   9  19  33  53  72  93 134 167 184 233 292
#     4  10  17  30  49  73  98 123 159 199 236 284
#     4  10  19  33  50  74 103 126 155 200 240 279
#     4   8  15  28  49  68  89 124 162 192 230 283
#     4   9  18  34  50  67  92 128 169 201 228 283
#     4  10  17  28  46  72  99 124 151 191 248 297
#     4  11  21  29  47  76 100 122 156 202 252 283
#
# _framework density 17.252835999999999
#
# number of rings (size 3 to 8) (size 9 to 14) (size 15 to 20)
#    0.000    2.429    1.429    3.429    0.000    1.143 
#    0.000    2.143    0.000    0.429    0.000    6.000 
#    0.000    0.000    0.000    0.000    0.000    0.000 
#
# Total GULP energy -347116.603712 kJ/mol
# GULP energy per Si atom -12397.021561 kJ/mol
# Density = 1.721357 g / cm^3
# Si number density = 17.252836 Si / 1000 Ang^3
#
#
#
# Elastic Constant Matrix: (Units=GPa)
#
#
# Indices 1 2 3 4 5 6 
#
# 1 77.6027 51.0008 19.6703 0.0000 15.9597 0.0000
# 2 51.0008 103.3257 22.8873 0.0001 6.8961 0.0000
# 3 19.6703 22.8873 77.2708 0.0001 3.9435 0.0000
# 4 0.0000 0.0001 0.0001 18.3285 -0.0001 4.9398
# 5 15.9597 6.8961 3.9435 -0.0001 24.3887 0.0000
# 6 0.0000 0.0000 0.0000 4.9398 0.0000 23.2222
#
#
#
# Elastic Compliance Matrix: (Units=1/GPa)
#
#
# Indices 1 2 3 4 5 6 
#
# 1 0.022154 -0.009689 -0.002188 0.000000 -0.011404 0.000000
# 2 -0.009689 0.014743 -0.002028 0.000000 0.002500 0.000000
# 3 -0.002188 -0.002028 0.014113 0.000000 -0.000277 0.000000
# 4 0.000000 0.000000 0.000000 0.057878 0.000000 -0.012312
# 5 -0.011404 0.002500 -0.000277 0.000000 0.047803 0.000000
# 6 0.000000 0.000000 0.000000 -0.012312 0.000000 0.045681
#
#
# Mechanical properties :
#
#
# Convention : Reuss Voigt Hill
#
# Bulk Modulus (GPa) = 43.10258 49.47954 46.29106
# Shear Modulus (GPa) = 21.01588 24.16392 22.58990
#
# Velocity S-wave (km/s) = 3.49393 3.74649 3.62241
# Velocity P-wave (km/s) = 6.42759 6.88885 6.66221
#
# Compressibility (1/GPa) = 0.02320047
#
# Stress axis : x y z
#
# Youngs Moduli (GPa) = 45.13913 67.82864 70.85576
#
# Poissons Ratio (x) = 0.65721 0.15500
# Poissons Ratio (y) = 0.43736 0.14369
# Poissons Ratio (z) = 0.09875 0.13755
#
# Static dielectric constant tensor:
#      x y z
#    x 3.162210 0.000000 0.248800 
#    y 0.000000 3.050810 0.000000 
#    z 0.248800 0.000000 3.414440 
# 
# 
# High freq. dielectric constant tensor:
#      x y z
#    x 1.645950 0.000000 0.011630 
#    y 0.000000 1.641370 0.000000 
#    z 0.011630 0.000000 1.676280 
# 
# From -- ./inp_files/224333.got.cif
#   From: 2010.06.25/outbox.cif.g09.slc.cpg/sg12_113_cif.got.tgz:224333.got - 2010.06.28 00:19:55.
