data_PCOD8079624
_publ_section_title
;
Structure prediction by ZEFSAII (Michael W. Deem and Ramdas Pophale) SiO2 
 PCOD8079624
Probable space group: C 2/M
;
_chemical_formula_sum "Si O2"
_cell_formula_units_Z 64
_cell_length_a 19.909072
_cell_length_b 20.049023
_cell_length_c 19.579527
_cell_angle_alpha 90.000000
_cell_angle_beta 150.702550
_cell_angle_gamma 90.000000
_cell_volume 3824.374155
_symmetry_space_group_name_H-M "C 2/M"
_symmetry_group_IT_number 12
_symmetry_cell_setting 'monoclinic'
loop_
_space_group_symop_operation_xyz
x,y,z
-x,y,-z
-x,-y,-z
x,-y,z
1/2+x,1/2+y,z
1/2-x,1/2+y,-z
1/2-x,1/2-y,-z
1/2+x,1/2-y,z
loop_
_atom_site_type_symbol
_atom_site_label
_atom_site_fract_x
_atom_site_fract_y
_atom_site_fract_z
Si Si1 0.167034 0.423072 0.340984
Si Si2 0.761649 0.923859 0.066414
Si Si3 0.987653 0.219850 0.066215
Si Si4 0.434771 0.811186 0.654715
Si Si5 0.262682 0.810914 0.063315
Si Si6 0.932308 0.075836 0.651373
Si Si7 0.513224 0.122632 0.934851
Si Si8 0.166224 0.809149 0.343538
O O1 0.128214 0.500000 0.317701
O O2 0.082094 0.381264 0.321259
O O3 0.330242 0.409908 0.496747
O O4 0.123615 0.400006 0.226860
O O5 0.648932 0.909275 0.023435
O O6 0.911421 0.910102 0.232985
O O7 0.748819 0.000000 0.030796
O O8 0.742139 0.879519 0.982275
O O9 0.125643 0.196907 0.228187
O O10 0.854826 0.187959 0.984113
O O11 0.970977 0.298637 0.053426
O O12 0.000000 0.193206 0.000000
O O13 0.591155 0.805505 0.767922
O O14 0.331291 0.806166 0.498563
O O15 0.405377 0.751740 0.681068
O O16 0.250000 0.750000 0.000000
O O17 0.892606 0.121884 0.679805
O O18 0.913842 0.000000 0.660413
O O19 0.500000 0.095999 0.000000
#
# Coordination Sequence:
#
# PCOD8079624 Si02
#       8
#     8   8   8   8   8   8   8   8
#     4  10  18  32  49  74 108 136 168 211 259 306
#     4  11  20  32  53  80 105 132 177 219 255 305
#     4  11  22  36  54  77 109 143 174 213 264 313
#     4  10  19  28  53  81  96 130 176 217 258 301
#     4  12  18  34  54  78 101 136 175 219 260 298
#     4   9  19  31  51  78 102 130 171 219 260 303
#     4  11  22  35  50  75 109 144 177 210 258 314
#     4  10  17  33  52  74 104 131 169 218 261 302
#
# _framework density 16.734763999999998
#
# number of rings (size 3 to 8) (size 9 to 14) (size 15 to 20)
#    0.000    1.500    6.250    0.375    0.000    1.000 
#    0.000    1.250    0.000    6.750    0.000    0.000 
#    0.000    5.000    0.000    0.000    0.000    0.000 
#
# Total GULP energy -396740.087154 kJ/mol
# GULP energy per Si atom -12398.127724 kJ/mol
# Density = 1.669668 g / cm^3
# Si number density = 16.734764 Si / 1000 Ang^3
#
#
#
# Elastic Constant Matrix: (Units=GPa)
#
#
# Indices 1 2 3 4 5 6 
#
# 1 93.0816 33.3573 65.5167 -0.0032 0.6640 -0.0015
# 2 33.3573 78.5532 31.7348 -0.0020 -1.2170 -0.0013
# 3 65.5167 31.7348 155.6449 -0.0068 5.3416 -0.0038
# 4 -0.0032 -0.0020 -0.0068 22.8693 -0.0039 -0.0157
# 5 0.6640 -1.2170 5.3416 -0.0039 28.4514 -0.0025
# 6 -0.0015 -0.0013 -0.0038 -0.0157 -0.0025 16.6858
#
#
#
# Elastic Compliance Matrix: (Units=1/GPa)
#
#
# Indices 1 2 3 4 5 6 
#
# 1 0.016688 -0.004612 -0.006103 0.000000 0.000559 0.000000
# 2 -0.004612 0.015184 -0.001188 0.000001 0.000980 0.000001
# 3 -0.006103 -0.001188 0.009293 0.000002 -0.001653 0.000001
# 4 0.000000 0.000001 0.000002 0.043727 0.000006 0.000041
# 5 0.000559 0.000980 -0.001653 0.000006 0.035487 0.000005
# 6 0.000000 0.000001 0.000001 0.000041 0.000005 0.059931
#
#
# Mechanical properties :
#
#
# Convention : Reuss Voigt Hill
#
# Bulk Modulus (GPa) = 57.61141 65.38860 61.50000
# Shear Modulus (GPa) = 23.82050 26.71268 25.26659
#
# Velocity S-wave (km/s) = 3.77691 3.99963 3.88986
# Velocity P-wave (km/s) = 7.31580 7.77739 7.55012
#
# Compressibility (1/GPa) = 0.01735767
#
# Stress axis : x y z
#
# Youngs Moduli (GPa) = 59.92294 65.85914 107.60754
#
# Poissons Ratio (x) = 0.30375 0.65678
# Poissons Ratio (y) = 0.27637 0.12785
# Poissons Ratio (z) = 0.36574 0.07825
#
# Static dielectric constant tensor:
#      x y z
#    x 2.933250 0.000000 0.156860 
#    y 0.000000 3.306870 0.000000 
#    z 0.156860 0.000000 3.587600 
# 
# 
# High freq. dielectric constant tensor:
#      x y z
#    x 1.596330 0.000000 0.020160 
#    y 0.000000 1.656730 0.000000 
#    z 0.020160 0.000000 1.665010 
# 
# From -- ./inp_files/285228.got.cif
#   From: 2010.06.25/outbox.cif.g09.slc.cpg/sg12_143_cif.got.tgz:285228.got - 2010.06.28 00:19:55.
