data_PCOD8079398
_publ_section_title
;
Structure prediction by ZEFSAII (Michael W. Deem and Ramdas Pophale) SiO2 
 PCOD8079398
Probable space group: C 2/M
;
_chemical_formula_sum "Si O2"
_cell_formula_units_Z 64
_cell_length_a 30.634968
_cell_length_b 9.042539
_cell_length_c 22.333546
_cell_angle_alpha 90.000000
_cell_angle_beta 32.964671
_cell_angle_gamma 90.000000
_cell_volume 3366.368326
_symmetry_space_group_name_H-M "C 2/M"
_symmetry_group_IT_number 12
_symmetry_cell_setting 'monoclinic'
loop_
_space_group_symop_operation_xyz
x,y,z
-x,y,-z
-x,-y,-z
x,-y,z
1/2+x,1/2+y,z
1/2-x,1/2+y,-z
1/2-x,1/2-y,-z
1/2+x,1/2-y,z
loop_
_atom_site_type_symbol
_atom_site_label
_atom_site_fract_x
_atom_site_fract_y
_atom_site_fract_z
Si Si1 0.745827 0.327270 0.631388
Si Si2 0.902825 0.326639 0.258662
Si Si3 0.925990 0.675560 0.745223
Si Si4 0.425527 0.825904 0.978740
Si Si5 0.784799 0.173305 0.196989
Si Si6 0.186833 0.172026 0.206807
Si Si7 0.659081 0.170457 0.040873
Si Si8 0.410030 0.824621 0.385982
O O1 0.737993 0.500000 0.627898
O O2 0.673125 0.250957 0.681716
O O3 0.745284 0.291797 0.702040
O O4 0.828471 0.263349 0.509214
O O5 0.885969 0.500000 0.280084
O O6 0.917884 0.266765 0.308737
O O7 0.979682 0.292066 0.127833
O O8 0.920778 0.500000 0.741637
O O9 0.897102 0.753973 0.716981
O O10 0.867007 0.737161 0.865541
O O11 0.015391 0.729506 0.659268
O O12 0.394020 0.762760 0.951645
O O13 0.407397 0.000000 0.007105
O O14 0.375061 0.739457 0.087405
O O15 0.721383 0.250894 0.226098
O O16 0.786947 0.000000 0.180439
O O17 0.174200 0.000000 0.235677
O O18 0.247852 0.196841 0.080995
O O19 0.635489 0.000000 0.071282
O O20 0.410858 0.000000 0.384799
#
# Coordination Sequence:
#
# PCOD8079398 Si02
#       8
#     8   8   8   8   8   8   8   8
#     4  10  22  38  55  77 106 141 182 224 263 307
#     4  10  19  34  59  85 108 136 173 216 270 326
#     4  10  17  30  54  79 104 136 174 212 262 320
#     4   9  17  32  54  81 110 138 171 216 265 315
#     4  10  21  37  54  74 105 145 185 219 256 308
#     4  10  20  33  51  77 109 139 173 217 265 314
#     4   8  14  27  48  74 105 136 164 203 255 312
#     4   9  18  35  58  81 107 139 175 219 265 313
#
# _framework density 19.011585
#
# number of rings (size 3 to 8) (size 9 to 14) (size 15 to 20)
#    0.000    2.500    1.250    2.250    0.000    2.000 
#    0.000    6.875    0.000    3.750    0.000    0.000 
#    0.000    0.000    0.000    0.000    0.000    0.000 
#
# Total GULP energy -396662.018403 kJ/mol
# GULP energy per Si atom -12395.688075 kJ/mol
# Density = 1.896831 g / cm^3
# Si number density = 19.011585 Si / 1000 Ang^3
#
#
#
# Elastic Constant Matrix: (Units=GPa)
#
#
# Indices 1 2 3 4 5 6 
#
# 1 108.5928 41.1086 95.6680 -0.0027 -16.3318 -0.0051
# 2 41.1086 71.2475 -11.4363 -0.0048 -12.3124 0.0115
# 3 95.6680 -11.4363 334.6293 -0.0277 24.3236 -0.0232
# 4 -0.0027 -0.0048 -0.0277 22.6133 -0.0009 -5.8835
# 5 -16.3318 -12.3124 24.3236 -0.0009 34.6712 -0.0036
# 6 -0.0051 0.0115 -0.0232 -5.8835 -0.0036 31.1393
#
#
#
# Elastic Compliance Matrix: (Units=1/GPa)
#
#
# Indices 1 2 3 4 5 6 
#
# 1 0.022172 -0.012024 -0.007585 -0.000008 0.011495 0.000002
# 2 -0.012024 0.021479 0.004245 0.000007 -0.001014 -0.000006
# 3 -0.007585 0.004245 0.005745 0.000007 -0.006096 0.000002
# 4 -0.000008 0.000007 0.000007 0.046508 -0.000004 0.008787
# 5 0.011495 -0.001014 -0.006096 -0.000004 0.038174 0.000001
# 6 0.000002 -0.000006 0.000002 0.008787 0.000001 0.033774
#
#
# Mechanical properties :
#
#
# Convention : Reuss Voigt Hill
#
# Bulk Modulus (GPa) = 53.56542 85.01668 69.29105
# Shear Modulus (GPa) = 24.41385 43.62671 34.02028
#
# Velocity S-wave (km/s) = 3.58740 4.79555 4.23478
# Velocity P-wave (km/s) = 6.73762 8.68783 7.77412
#
# Compressibility (1/GPa) = 0.01866876
#
# Stress axis : x y z
#
# Youngs Moduli (GPa) = 45.10276 46.55678 174.06088
#
# Poissons Ratio (x) = 0.55978 1.32029
# Poissons Ratio (y) = 0.54230 -0.73893
# Poissons Ratio (z) = 0.34211 -0.19765
#
# Static dielectric constant tensor:
#      x y z
#    x 3.425490 0.000000 -0.018450 
#    y 0.000000 3.200540 0.000020 
#    z -0.018450 0.000020 3.651370 
# 
# 
# High freq. dielectric constant tensor:
#      x y z
#    x 1.740960 0.000000 -0.008960 
#    y 0.000000 1.709220 0.000000 
#    z -0.008960 0.000000 1.734000 
# 
# From -- ./inp_files/353311.got.cif
#   From: 2010.06.25/outbox.cif.g09.slc.cpg/sg12_177_cif.got.tgz:353311.got - 2010.06.28 00:19:55.
