data_PCOD8079279
_publ_section_title
;
Structure prediction by ZEFSAII (Michael W. Deem and Ramdas Pophale) SiO2 
 PCOD8079279
Probable space group: C 2/M
;
_chemical_formula_sum "Si O2"
_cell_formula_units_Z 64
_cell_length_a 20.190168
_cell_length_b 19.399706
_cell_length_c 11.970062
_cell_angle_alpha 90.000000
_cell_angle_beta 53.242443
_cell_angle_gamma 90.000000
_cell_volume 3756.287372
_symmetry_space_group_name_H-M "C 2/M"
_symmetry_group_IT_number 12
_symmetry_cell_setting 'monoclinic'
loop_
_space_group_symop_operation_xyz
x,y,z
-x,y,-z
-x,-y,-z
x,-y,z
1/2+x,1/2+y,z
1/2-x,1/2+y,-z
1/2-x,1/2-y,-z
1/2+x,1/2-y,z
loop_
_atom_site_type_symbol
_atom_site_label
_atom_site_fract_x
_atom_site_fract_y
_atom_site_fract_z
Si Si1 0.618141 0.785654 0.131049
Si Si2 0.211240 0.784285 0.431241
Si Si3 0.308751 0.425404 0.028062
Si Si4 0.020205 0.788676 0.601473
Si Si5 0.423230 0.421410 0.713530
Si Si6 0.156648 0.425490 0.014289
Si Si7 0.764895 0.212956 0.154395
Si Si8 0.773790 0.078614 0.698435
O O1 0.533628 0.748845 0.249284
O O2 0.596831 0.864666 0.117536
O O3 0.680222 0.779125 0.172020
O O4 0.659966 0.751707 0.981214
O O5 0.250000 0.750000 0.500000
O O6 0.113752 0.773594 0.537939
O O7 0.251521 0.743548 0.288581
O O8 0.230755 0.866237 0.398315
O O9 0.315493 0.500000 0.081618
O O10 0.236136 0.426419 0.012044
O O11 0.292195 0.367211 0.137405
O O12 0.390708 0.410479 0.872682
O O13 0.000000 0.757107 0.500000
O O14 0.000879 0.870770 0.619325
O O15 0.453039 0.500000 0.665247
O O16 0.352465 0.401285 0.695700
O O17 0.110712 0.500000 0.068000
O O18 0.189943 0.413574 0.855165
O O19 0.781578 0.000000 0.645083
#
# Coordination Sequence:
#
# PCOD8079279 Si02
#       8
#     8   8   8   8   8   8   8   8
#     4  10  17  29  56  81 102 131 182 227 272 317
#     4  12  25  38  50  77 117 152 182 220 268 331
#     4   8  14  25  47  79 109 134 172 218 263 320
#     4  12  21  33  52  83 114 144 179 222 277 318
#     4   9  16  28  52  88 117 133 164 223 282 329
#     4   8  14  25  49  81 105 126 170 232 280 310
#     4  10  17  31  54  77 103 144 178 221 265 316
#     4   9  16  31  55  82 109 140 176 219 272 332
#
# _framework density 17.038101000000001
#
# number of rings (size 3 to 8) (size 9 to 14) (size 15 to 20)
#    0.000    2.250    5.000    1.500    0.000    0.750 
#    0.000    1.250    0.000    1.875    0.000    3.500 
#    0.000    0.000    0.000    0.000    0.000    0.000 
#
# Total GULP energy -396596.784836 kJ/mol
# GULP energy per Si atom -12393.649526 kJ/mol
# Density = 1.699932 g / cm^3
# Si number density = 17.038101 Si / 1000 Ang^3
#
#
#
# Elastic Constant Matrix: (Units=GPa)
#
#
# Indices 1 2 3 4 5 6 
#
# 1 55.7588 42.0362 38.9356 0.0000 2.7085 0.0000
# 2 42.0362 139.2165 62.6632 0.0000 5.9362 0.0000
# 3 38.9356 62.6632 98.2698 0.0000 1.0464 0.0000
# 4 0.0000 0.0000 0.0000 27.5721 0.0000 0.6472
# 5 2.7085 5.9362 1.0464 0.0000 16.0810 0.0000
# 6 0.0000 0.0000 0.0000 0.6472 0.0000 15.0341
#
#
#
# Elastic Compliance Matrix: (Units=1/GPa)
#
#
# Indices 1 2 3 4 5 6 
#
# 1 0.026862 -0.004532 -0.007728 0.000000 -0.002348 0.000000
# 2 -0.004532 0.011018 -0.005198 0.000000 -0.002966 0.000000
# 3 -0.007728 -0.005198 0.016530 0.000000 0.002145 0.000000
# 4 0.000000 0.000000 0.000000 0.036305 0.000000 -0.001563
# 5 -0.002348 -0.002966 0.002145 0.000000 0.063536 0.000000
# 6 0.000000 0.000000 0.000000 -0.001563 0.000000 0.066583
#
#
# Mechanical properties :
#
#
# Convention : Reuss Voigt Hill
#
# Bulk Modulus (GPa) = 51.30201 64.50168 57.90185
# Shear Modulus (GPa) = 19.06596 21.71144 20.38870
#
# Velocity S-wave (km/s) = 3.34880 3.57359 3.46302
# Velocity P-wave (km/s) = 6.71775 7.41397 7.07443
#
# Compressibility (1/GPa) = 0.01949241
#
# Stress axis : x y z
#
# Youngs Moduli (GPa) = 37.22795 90.76142 60.49649
#
# Poissons Ratio (x) = 0.41136 0.46750
# Poissons Ratio (y) = 0.16873 0.31448
# Poissons Ratio (z) = 0.28769 0.47181
#
# Static dielectric constant tensor:
#      x y z
#    x 2.580440 0.000000 -0.084610 
#    y 0.000000 3.837080 0.000000 
#    z -0.084610 0.000000 3.142600 
# 
# 
# High freq. dielectric constant tensor:
#      x y z
#    x 1.585050 0.000000 -0.012440 
#    y 0.000000 1.676760 0.000000 
#    z -0.012440 0.000000 1.651600 
# 
# From -- ./inp_files/159240.got.cif
#   From: 2010.06.25/outbox.cif.g09.slc.cpg/sg12_80_cif.got.tgz:159240.got - 2010.06.28 00:19:55.
