data_PCOD8079404
_publ_section_title
;
Structure prediction by ZEFSAII (Michael W. Deem and Ramdas Pophale) SiO2 
 PCOD8079404
Probable space group: C 2/M
;
_chemical_formula_sum "Si O2"
_cell_formula_units_Z 56
_cell_length_a 13.957211
_cell_length_b 13.156468
_cell_length_c 26.150180
_cell_angle_alpha 90.000000
_cell_angle_beta 143.095689
_cell_angle_gamma 90.000000
_cell_volume 2883.443670
_symmetry_space_group_name_H-M "C 2/M"
_symmetry_group_IT_number 12
_symmetry_cell_setting 'monoclinic'
loop_
_space_group_symop_operation_xyz
x,y,z
-x,y,-z
-x,-y,-z
x,-y,z
1/2+x,1/2+y,z
1/2-x,1/2+y,-z
1/2-x,1/2-y,-z
1/2+x,1/2-y,z
loop_
_atom_site_type_symbol
_atom_site_label
_atom_site_fract_x
_atom_site_fract_y
_atom_site_fract_z
Si Si1 0.517433 0.708427 0.800631
Si Si2 0.715134 0.296217 0.539945
Si Si3 0.667571 0.880353 0.096718
Si Si4 0.718125 0.750777 0.217942
Si Si5 0.179724 0.888512 0.368098
Si Si6 0.047283 0.886970 0.630767
Si Si7 0.977636 0.618404 0.277113
O O1 0.696686 0.666173 0.882076
O O2 0.446632 0.711775 0.827634
O O3 0.415336 0.627165 0.724706
O O4 0.513807 0.819012 0.772069
O O5 0.750000 0.250000 0.500000
O O6 0.689450 0.200798 0.568005
O O7 0.554624 0.362064 0.464168
O O8 0.861199 0.366312 0.621199
O O9 0.678769 0.830070 0.156903
O O10 0.691140 0.000000 0.113592
O O11 0.500000 0.852563 0.000000
O O12 0.807898 0.808457 0.302773
O O13 0.824666 0.656800 0.243974
O O14 0.053113 0.877824 0.359925
O O15 0.260997 0.000000 0.402814
O O16 0.115676 0.000000 0.652905
O O17 0.955281 0.500000 0.254894
#
# Coordination Sequence:
#
# PCOD8079404 Si02
#       7
#     8   8   8   8   8   8   8
#     4  10  21  36  57  82 118 144 181 228 278 331
#     4   9  15  30  49  77 107 146 194 239 276 319
#     4  10  21  40  66  90 111 140 180 225 276 338
#     4  11  21  36  57  84 114 147 183 229 278 338
#     4   9  16  30  53  75 105 149 189 231 276 318
#     4  10  17  30  55  78 103 148 197 237 278 322
#     4  10  20  35  52  78 112 152 192 231 273 324
#
# _framework density 19.421223000000001
#
# number of rings (size 3 to 8) (size 9 to 14) (size 15 to 20)
#    0.000    2.143    5.714    1.286    0.000    3.429 
#    0.000    2.857    0.000   12.000    0.000    0.000 
#    0.000    0.000    0.000    0.000    0.000    0.000 
#
# Total GULP energy -347082.463758 kJ/mol
# GULP energy per Si atom -12395.802277 kJ/mol
# Density = 1.937702 g / cm^3
# Si number density = 19.421223 Si / 1000 Ang^3
#
#
#
# Elastic Constant Matrix: (Units=GPa)
#
#
# Indices 1 2 3 4 5 6 
#
# 1 77.7714 27.7970 29.9951 0.0000 17.3753 0.0000
# 2 27.7970 115.5316 34.8139 0.0000 0.8884 0.0000
# 3 29.9951 34.8139 97.1258 0.0000 6.0963 0.0000
# 4 0.0000 0.0000 0.0000 26.9363 0.0000 -1.1491
# 5 17.3753 0.8884 6.0963 0.0000 11.4511 0.0000
# 6 0.0000 0.0000 0.0000 -1.1491 0.0000 8.6516
#
#
#
# Elastic Compliance Matrix: (Units=1/GPa)
#
#
# Indices 1 2 3 4 5 6 
#
# 1 0.023059 -0.004227 -0.003549 0.000000 -0.032772 0.000000
# 2 -0.004227 0.010493 -0.002904 0.000000 0.007145 0.000000
# 3 -0.003549 -0.002904 0.012499 0.000000 -0.001043 0.000000
# 4 0.000000 0.000000 0.000000 0.037336 0.000000 0.004959
# 5 -0.032772 0.007145 -0.001043 0.000000 0.137054 0.000000
# 6 0.000000 0.000000 0.000000 0.004959 0.000000 0.116244
#
#
# Mechanical properties :
#
#
# Convention : Reuss Voigt Hill
#
# Bulk Modulus (GPa) = 40.50170 52.84896 46.67533
# Shear Modulus (GPa) = 13.65092 22.59600 18.12346
#
# Velocity S-wave (km/s) = 2.65408 3.41467 3.05811
# Velocity P-wave (km/s) = 5.50380 6.54352 6.04605
#
# Compressibility (1/GPa) = 0.02469032
#
# Stress axis : x y z
#
# Youngs Moduli (GPa) = 43.36615 95.30383 80.00927
#
# Poissons Ratio (x) = 0.40281 0.28399
# Poissons Ratio (y) = 0.18329 0.23237
# Poissons Ratio (z) = 0.15393 0.27679
#
# Static dielectric constant tensor:
#      x y z
#    x 3.262920 0.000000 0.065250 
#    y 0.000000 3.772450 0.000000 
#    z 0.065250 0.000000 3.778970 
# 
# 
# High freq. dielectric constant tensor:
#      x y z
#    x 1.732770 0.000000 -0.001080 
#    y 0.000000 1.762630 0.000000 
#    z -0.001080 0.000000 1.738230 
# 
# From -- ./inp_files/376387.got.cif
#   From: 2010.06.25/outbox.cif.g09.slc.cpg/sg12_189_cif.got.tgz:376387.got - 2010.06.28 00:19:55.
