data_PCOD8079440
_publ_section_title
;
Structure prediction by ZEFSAII (Michael W. Deem and Ramdas Pophale) SiO2 
 PCOD8079440
Probable space group: C 2/M
;
_chemical_formula_sum "Si O2"
_cell_formula_units_Z 60
_cell_length_a 12.870523
_cell_length_b 25.143682
_cell_length_c 11.907099
_cell_angle_alpha 90.000000
_cell_angle_beta 122.459190
_cell_angle_gamma 90.000000
_cell_volume 3251.300716
_symmetry_space_group_name_H-M "C 2/M"
_symmetry_group_IT_number 12
_symmetry_cell_setting 'monoclinic'
loop_
_space_group_symop_operation_xyz
x,y,z
-x,y,-z
-x,-y,-z
x,-y,z
1/2+x,1/2+y,z
1/2-x,1/2+y,-z
1/2-x,1/2-y,-z
1/2+x,1/2-y,z
loop_
_atom_site_type_symbol
_atom_site_label
_atom_site_fract_x
_atom_site_fract_y
_atom_site_fract_z
Si Si1 0.857891 0.202263 0.128647
Si Si2 0.367271 0.851251 0.667811
Si Si3 0.618846 0.333075 0.622011
Si Si4 0.874375 0.322018 0.127778
Si Si5 0.367350 0.214633 0.457552
Si Si6 0.000000 0.161631 0.000000
Si Si7 0.128071 0.559292 0.511692
Si Si8 0.238603 0.869064 0.245893
O O1 0.910748 0.168405 0.262483
O O2 0.867384 0.262847 0.177725
O O3 0.930380 0.197480 0.052709
O O4 0.715900 0.182251 0.032332
O O5 0.247412 0.862773 0.674471
O O6 0.485236 0.839803 0.817450
O O7 0.349655 0.798615 0.579441
O O8 0.385280 0.903808 0.604449
O O9 0.500000 0.362972 0.500000
O O10 0.632706 0.276648 0.567446
O O11 0.825219 0.365934 0.186783
O O12 0.500000 0.188902 0.500000
O O13 0.257739 0.185470 0.326858
O O14 0.097396 0.125365 0.123351
O O15 0.167269 0.500000 0.496776
O O16 0.230688 0.580757 0.658366
O O17 0.000000 0.558114 0.500000
#
# Coordination Sequence:
#
# PCOD8079440 Si02
#       8
#     8   8   8   8   8   4   8   8
#     4  10  22  34  47  77 113 155 190 219 254 316
#     4  11  20  32  55  77 106 147 180 228 281 328
#     4  11  23  33  46  77 113 150 187 224 257 325
#     4  10  18  33  50  73 111 145 189 223 259 315
#     4  10  17  31  49  74 107 142 185 224 262 309
#     4  10  24  32  55  74 114 158 181 218 260 320
#     4  10  20  36  61  87 105 129 178 242 291 326
#     4  10  17  34  50  78 108 141 178 224 269 315
#
# _framework density 18.454153000000002
#
# number of rings (size 3 to 8) (size 9 to 14) (size 15 to 20)
#    0.000    1.733    4.000    2.000    5.600    0.533 
#    0.000    0.333    0.000    0.400    0.000    2.800 
#    0.000    0.000    0.000    0.000    0.000    0.000 
#
# Total GULP energy -371764.194399 kJ/mol
# GULP energy per Si atom -12392.139813 kJ/mol
# Density = 1.841215 g / cm^3
# Si number density = 18.454153 Si / 1000 Ang^3
#
#
#
# Elastic Constant Matrix: (Units=GPa)
#
#
# Indices 1 2 3 4 5 6 
#
# 1 97.3052 11.2160 49.3905 0.0000 14.7093 0.0000
# 2 11.2160 65.3953 22.4401 0.0000 4.9051 0.0000
# 3 49.3905 22.4401 110.7796 0.0000 27.7838 0.0000
# 4 0.0000 0.0000 0.0000 14.4071 0.0000 2.2614
# 5 14.7093 4.9051 27.7838 0.0000 40.2571 0.0000
# 6 0.0000 0.0000 0.0000 2.2614 0.0000 9.7914
#
#
#
# Elastic Compliance Matrix: (Units=1/GPa)
#
#
# Indices 1 2 3 4 5 6 
#
# 1 0.013316 -0.000276 -0.005647 0.000000 -0.000935 0.000000
# 2 -0.000276 0.016444 -0.003302 0.000000 0.000376 0.000000
# 3 -0.005647 -0.003302 0.014022 0.000000 -0.007212 0.000000
# 4 0.000000 0.000000 0.000000 0.072021 0.000000 -0.016634
# 5 -0.000935 0.000376 -0.007212 0.000000 0.030113 0.000000
# 6 0.000000 0.000000 0.000000 -0.016634 0.000000 0.105972
#
#
# Mechanical properties :
#
#
# Convention : Reuss Voigt Hill
#
# Bulk Modulus (GPa) = 39.47527 48.84146 44.15837
# Shear Modulus (GPa) = 17.93513 25.58670 21.76092
#
# Velocity S-wave (km/s) = 3.12087 3.72761 3.43766
# Velocity P-wave (km/s) = 5.86719 6.71198 6.30375
#
# Compressibility (1/GPa) = 0.02533232
#
# Stress axis : x y z
#
# Youngs Moduli (GPa) = 75.09663 60.81280 71.31597
#
# Poissons Ratio (x) = 0.01679 0.40269
# Poissons Ratio (y) = 0.02074 0.23550
# Poissons Ratio (z) = 0.42404 0.20082
#
# Static dielectric constant tensor:
#      x y z
#    x 3.479470 0.000000 0.277510 
#    y 0.000000 2.998620 0.000000 
#    z 0.277510 0.000000 3.570400 
# 
# 
# High freq. dielectric constant tensor:
#      x y z
#    x 1.711960 0.000000 0.015270 
#    y 0.000000 1.646310 0.000000 
#    z 0.015270 0.000000 1.728760 
# 
# From -- ./inp_files/136991.got.cif
#   From: 2010.06.25/outbox.cif.g09.slc.cpg/sg12_69_cif.got.tgz:136991.got - 2010.06.28 00:19:55.
