data_PCOD8079586
_publ_section_title
;
Structure prediction by ZEFSAII (Michael W. Deem and Ramdas Pophale) SiO2 
 PCOD8079586
Probable space group: C 2/M
;
_chemical_formula_sum "Si O2"
_cell_formula_units_Z 64
_cell_length_a 18.747549
_cell_length_b 17.108759
_cell_length_c 22.340495
_cell_angle_alpha 90.000000
_cell_angle_beta 28.997661
_cell_angle_gamma 90.000000
_cell_volume 3473.721852
_symmetry_space_group_name_H-M "C 2/M"
_symmetry_group_IT_number 12
_symmetry_cell_setting 'monoclinic'
loop_
_space_group_symop_operation_xyz
x,y,z
-x,y,-z
-x,-y,-z
x,-y,z
1/2+x,1/2+y,z
1/2-x,1/2+y,-z
1/2-x,1/2-y,-z
1/2+x,1/2-y,z
loop_
_atom_site_type_symbol
_atom_site_label
_atom_site_fract_x
_atom_site_fract_y
_atom_site_fract_z
Si Si1 0.471411 0.660405 0.757554
Si Si2 0.178180 0.909970 0.520059
Si Si3 0.681701 0.910826 0.132351
Si Si4 0.542916 0.184545 0.636135
Si Si5 0.607782 0.283379 0.476391
Si Si6 0.012660 0.914072 0.920683
Si Si7 0.090636 0.217886 0.789898
Si Si8 0.172000 0.679747 0.024159
O O1 0.544627 0.590175 0.666363
O O2 0.534568 0.740400 0.684222
O O3 0.525113 0.662004 0.786236
O O4 0.292260 0.649626 0.886890
O O5 0.316755 0.866678 0.448144
O O6 0.125634 0.864803 0.498972
O O7 0.216151 0.000000 0.476533
O O8 0.603796 0.865312 0.244211
O O9 0.626061 0.884587 0.107384
O O10 0.638635 0.000000 0.172878
O O11 0.854447 0.895739 0.008260
O O12 0.551598 0.213061 0.560871
O O13 0.500000 0.296754 0.500000
O O14 0.762611 0.260820 0.335304
O O15 0.121530 0.844683 0.820174
O O16 0.069184 0.000000 0.858533
O O17 0.000000 0.912450 0.000000
O O18 0.977118 0.285836 0.895437
O O19 0.250000 0.750000 0.000000
#
# Coordination Sequence:
#
# PCOD8079586 Si02
#       8
#     8   8   8   8   8   8   8   8
#     4  10  17  33  58  82 110 138 182 235 281 326
#     4  11  22  37  60  85 113 147 184 237 287 327
#     4  11  20  31  52  81 110 141 177 223 277 327
#     4  11  19  37  56  80 114 145 188 234 273 330
#     4  11  24  39  58  83 112 153 192 228 274 336
#     4  10  22  35  49  75 112 150 182 220 274 334
#     4  11  18  37  58  79 108 143 186 231 271 329
#     4  10  17  32  56  82 108 136 175 231 280 320
#
# _framework density 18.424042
#
# number of rings (size 3 to 8) (size 9 to 14) (size 15 to 20)
#    0.000    1.375    7.500    1.125    1.750    1.250 
#    0.000    0.000    0.000    1.875    0.000    0.875 
#    0.000    0.000    0.000    0.000    0.000    0.000 
#
# Total GULP energy -396618.002600 kJ/mol
# GULP energy per Si atom -12394.312581 kJ/mol
# Density = 1.838211 g / cm^3
# Si number density = 18.424042 Si / 1000 Ang^3
#
#
#
# Elastic Constant Matrix: (Units=GPa)
#
#
# Indices 1 2 3 4 5 6 
#
# 1 71.1927 32.4351 17.8818 -0.0016 1.0284 -0.0007
# 2 32.4351 95.5951 30.7184 -0.0024 4.9311 -0.0005
# 3 17.8818 30.7184 99.5299 -0.0098 11.5327 -0.0032
# 4 -0.0016 -0.0024 -0.0098 -39.0294 -0.0007 -18.9205
# 5 1.0284 4.9311 11.5327 -0.0007 13.0321 0.0003
# 6 -0.0007 -0.0005 -0.0032 -18.9205 0.0003 10.2350
#
#
#
# Elastic Compliance Matrix: (Units=1/GPa)
#
#
# Indices 1 2 3 4 5 6 
#
# 1 0.016840 -0.005297 -0.001637 0.000000 0.002124 0.000000
# 2 -0.005297 0.013301 -0.002918 0.000000 -0.002033 0.000000
# 3 -0.001637 -0.002918 0.012367 -0.000002 -0.009711 -0.000001
# 4 0.000000 0.000000 -0.000002 -0.013512 0.000002 -0.024979
# 5 0.002124 -0.002033 -0.009711 0.000002 0.085929 -0.000002
# 6 0.000000 0.000000 -0.000001 -0.024979 -0.000002 0.051527
#
#
# Mechanical properties :
#
#
# Convention : Reuss Voigt Hill
#
# Bulk Modulus (GPa) = 43.85169 47.59867 45.72518
# Shear Modulus (GPa) = 25.80550 9.19970 17.50260
#
# Velocity S-wave (km/s) = 3.74658 2.23700 3.08553
# Velocity P-wave (km/s) = 6.52448 5.70643 6.12912
#
# Compressibility (1/GPa) = 0.02280414
#
# Stress axis : x y z
#
# Youngs Moduli (GPa) = 59.38136 75.18430 80.86007
#
# Poissons Ratio (x) = 0.39829 0.13234
# Poissons Ratio (y) = 0.31457 0.23593
# Poissons Ratio (z) = 0.09719 0.21937
#
# Static dielectric constant tensor:
#      x y z
#    x 3.209900 0.000000 0.115850 
#    y 0.000000 3.527740 0.000000 
#    z 0.115850 0.000000 4.005250 
# 
# 
# High freq. dielectric constant tensor:
#      x y z
#    x 1.678080 0.000000 0.012210 
#    y 0.000000 1.706990 0.000000 
#    z 0.012210 0.000000 1.730250 
# 
# From -- ./inp_files/344345.got.cif
#   From: 2010.06.25/outbox.cif.g09.slc.cpg/sg12_173_cif.got.tgz:344345.got - 2010.06.28 00:19:55.
