data_PCOD8079968
_publ_section_title
;
Structure prediction by ZEFSAII (Michael W. Deem and Ramdas Pophale) SiO2 
 PCOD8079968
Probable space group: C 2/M
;
_chemical_formula_sum "Si O2"
_cell_formula_units_Z 64
_cell_length_a 16.731093
_cell_length_b 17.692791
_cell_length_c 13.402618
_cell_angle_alpha 90.000000
_cell_angle_beta 98.901164
_cell_angle_gamma 90.000000
_cell_volume 3919.658410
_symmetry_space_group_name_H-M "C 2/M"
_symmetry_group_IT_number 12
_symmetry_cell_setting 'monoclinic'
loop_
_space_group_symop_operation_xyz
x,y,z
-x,y,-z
-x,-y,-z
x,-y,z
1/2+x,1/2+y,z
1/2-x,1/2+y,-z
1/2-x,1/2-y,-z
1/2+x,1/2-y,z
loop_
_atom_site_type_symbol
_atom_site_label
_atom_site_fract_x
_atom_site_fract_y
_atom_site_fract_z
Si Si1 0.502251 0.312936 0.384856
Si Si2 0.037193 0.658172 0.704660
Si Si3 0.174689 0.155978 0.630888
Si Si4 0.686792 0.827560 0.610980
Si Si5 0.904607 0.416943 0.569811
Si Si6 0.340085 0.588841 0.581479
Si Si7 0.187560 0.583534 0.240361
Si Si8 0.528370 0.910410 0.113866
O O1 0.500000 0.287429 0.500000
O O2 0.508743 0.238803 0.317183
O O3 0.416238 0.352247 0.344992
O O4 0.574676 0.371121 0.376843
O O5 0.133130 0.662062 0.700774
O O6 0.027798 0.630877 0.815980
O O7 0.997909 0.601942 0.614541
O O8 0.200204 0.238622 0.596505
O O9 0.185147 0.099426 0.538957
O O10 0.232955 0.135063 0.734627
O O11 0.635179 0.854605 0.507086
O O12 0.770888 0.873111 0.637305
O O13 0.899708 0.500000 0.519004
O O14 0.858335 0.416076 0.664525
O O15 0.346646 0.500000 0.606843
O O16 0.217030 0.500000 0.216637
O O17 0.122879 0.613158 0.145751
O O18 0.518479 0.000000 0.127208
O O19 0.500000 0.883464 0.000000
#
# Coordination Sequence:
#
# PCOD8079968 Si02
#       8
#     8   8   8   8   8   8   8   8
#     4   9  20  33  46  68  98 134 172 202 232 271
#     4  10  19  32  48  68  95 128 160 193 241 291
#     4  10  19  31  46  65  93 132 171 203 233 265
#     4  11  21  29  43  68 101 130 166 196 233 280
#     4  10  18  27  41  65  95 128 161 189 219 274
#     4  11  21  30  43  67 102 141 173 201 233 271
#     4   9  17  28  47  71  90 119 159 195 234 280
#     4   9  19  34  52  75  98 119 148 191 249 306
#
# _framework density 16.327953000000001
#
# number of rings (size 3 to 8) (size 9 to 14) (size 15 to 20)
#    0.000    2.125    1.250    4.875    3.500    5.250 
#    0.000    0.000    0.000    3.000    0.000    0.000 
#    0.000    0.500    0.000    0.375    0.000    0.000 
#
# Total GULP energy -396689.144820 kJ/mol
# GULP energy per Si atom -12396.535776 kJ/mol
# Density = 1.629079 g / cm^3
# Si number density = 16.327953 Si / 1000 Ang^3
#
#
#
# Elastic Constant Matrix: (Units=GPa)
#
#
# Indices 1 2 3 4 5 6 
#
# 1 110.4471 48.1292 40.1172 0.0000 17.9370 0.0000
# 2 48.1292 91.1578 38.9258 0.0000 5.7062 0.0000
# 3 40.1172 38.9258 78.3333 0.0000 16.7583 0.0000
# 4 0.0000 0.0000 0.0000 17.0043 0.0000 3.1709
# 5 17.9370 5.7062 16.7583 0.0000 17.7661 0.0000
# 6 0.0000 0.0000 0.0000 3.1709 0.0000 20.5329
#
#
#
# Elastic Compliance Matrix: (Units=1/GPa)
#
#
# Indices 1 2 3 4 5 6 
#
# 1 0.014049 -0.005894 -0.002051 0.000000 -0.010357 0.000000
# 2 -0.005894 0.016492 -0.006661 0.000000 0.006936 0.000000
# 3 -0.002051 -0.006661 0.020328 0.000000 -0.014965 0.000000
# 4 0.000000 0.000000 0.000000 0.060552 0.000000 -0.009351
# 5 -0.010357 0.006936 -0.014965 0.000000 0.078632 0.000000
# 6 0.000000 0.000000 0.000000 -0.009351 0.000000 0.050146
#
#
# Mechanical properties :
#
#
# Convention : Reuss Voigt Hill
#
# Bulk Modulus (GPa) = 46.17131 59.36472 52.76802
# Shear Modulus (GPa) = 18.07474 21.24506 19.65990
#
# Velocity S-wave (km/s) = 3.33074 3.61105 3.47373
# Velocity P-wave (km/s) = 6.56739 7.33641 6.96253
#
# Compressibility (1/GPa) = 0.02165847
#
# Stress axis : x y z
#
# Youngs Moduli (GPa) = 71.17800 60.63622 49.19425
#
# Poissons Ratio (x) = 0.35737 0.10088
# Poissons Ratio (y) = 0.41950 0.32767
# Poissons Ratio (z) = 0.14596 0.40388
#
# Static dielectric constant tensor:
#      x y z
#    x 3.325180 0.000000 0.221340 
#    y 0.000000 3.115860 0.000000 
#    z 0.221340 0.000000 2.778990 
# 
# 
# High freq. dielectric constant tensor:
#      x y z
#    x 1.636710 0.000000 0.017270 
#    y 0.000000 1.630580 0.000000 
#    z 0.017270 0.000000 1.569320 
# 
# From -- ./inp_files/226111.got.cif
#   From: 2010.06.25/outbox.cif.g09.slc.cpg/sg12_114_cif.got.tgz:226111.got - 2010.06.28 00:19:55.
