data_PCOD8079249
_publ_section_title
;
Structure prediction by ZEFSAII (Michael W. Deem and Ramdas Pophale) SiO2 
 PCOD8079249
Probable space group: C 2/M
;
_chemical_formula_sum "Si O2"
_cell_formula_units_Z 48
_cell_length_a 13.982773
_cell_length_b 12.690511
_cell_length_c 16.724653
_cell_angle_alpha 90.000000
_cell_angle_beta 67.611319
_cell_angle_gamma 90.000000
_cell_volume 2744.058878
_symmetry_space_group_name_H-M "C 2/M"
_symmetry_group_IT_number 12
_symmetry_cell_setting 'monoclinic'
loop_
_space_group_symop_operation_xyz
x,y,z
-x,y,-z
-x,-y,-z
x,-y,z
1/2+x,1/2+y,z
1/2-x,1/2+y,-z
1/2-x,1/2-y,-z
1/2+x,1/2-y,z
loop_
_atom_site_type_symbol
_atom_site_label
_atom_site_fract_x
_atom_site_fract_y
_atom_site_fract_z
Si Si1 0.978767 0.377489 0.262770
Si Si2 0.527241 0.500000 0.860853
Si Si3 0.708109 0.117682 0.162681
Si Si4 0.701834 0.381831 0.568735
Si Si5 0.145924 0.190506 0.756679
Si Si6 0.919186 0.693145 0.453849
Si Si7 0.840188 0.000000 0.021213
O O1 0.951803 0.500000 0.258146
O O2 0.090511 0.346235 0.191154
O O3 0.899012 0.307775 0.237580
O O4 0.977346 0.347714 0.356499
O O5 0.555699 0.604944 0.802435
O O6 0.582882 0.500000 0.927759
O O7 0.402685 0.500000 0.918186
O O8 0.770676 0.197660 0.198945
O O9 0.766065 0.104137 0.057197
O O10 0.710249 0.000000 0.203366
O O11 0.659621 0.500000 0.576999
O O12 0.705967 0.340413 0.657596
O O13 0.818836 0.379408 0.499027
O O14 0.621808 0.312765 0.542117
O O15 0.000000 0.685578 0.500000
#
# Coordination Sequence:
#
# PCOD8079249 Si02
#       7
#     8   4   8   8   8   8   4
#     4  10  20  32  48  69  98 127 160 195 234 287
#     4   9  14  28  50  79  91 118 154 205 229 282
#     4   8  15  30  50  70  97 120 154 198 230 275
#     4  10  19  32  47  68  97 121 158 199 235 278
#     4  10  17  29  52  72  93 125 160 194 240 273
#     4  10  21  32  47  69  92 127 163 196 235 275
#     4   7  14  26  50  75  98 110 158 197 239 266
#
# _framework density 17.492336000000002
#
# number of rings (size 3 to 8) (size 9 to 14) (size 15 to 20)
#    0.500    2.167    1.667    1.500    0.000    3.000 
#    0.000    0.833    1.833    4.000    0.000    9.333 
#    0.000    0.000    0.000    0.000    0.000    0.000 
#
# Total GULP energy -297382.405961 kJ/mol
# GULP energy per Si atom -12390.933582 kJ/mol
# Density = 1.745252 g / cm^3
# Si number density = 17.492336 Si / 1000 Ang^3
#
#
#
# Elastic Constant Matrix: (Units=GPa)
#
#
# Indices 1 2 3 4 5 6 
#
# 1 49.5253 30.5264 5.0484 0.0000 -11.3390 0.0000
# 2 30.5264 100.4932 1.4348 0.0000 -1.0435 0.0000
# 3 5.0484 1.4348 41.4862 0.0000 -24.2230 0.0000
# 4 0.0000 0.0000 0.0000 18.8228 0.0000 0.1802
# 5 -11.3390 -1.0435 -24.2230 0.0000 30.9690 0.0000
# 6 0.0000 0.0000 0.0000 0.1802 0.0000 17.2507
#
#
#
# Elastic Compliance Matrix: (Units=1/GPa)
#
#
# Indices 1 2 3 4 5 6 
#
# 1 0.028077 -0.008456 0.004991 0.000000 0.013899 0.000000
# 2 -0.008456 0.012503 -0.001776 0.000000 -0.004064 0.000000
# 3 0.004991 -0.001776 0.045261 0.000000 0.037169 0.000000
# 4 0.000000 0.000000 0.000000 0.053132 0.000000 -0.000555
# 5 0.013899 -0.004064 0.037169 0.000000 0.066315 0.000000
# 6 0.000000 0.000000 0.000000 -0.000555 0.000000 0.057975
#
#
# Mechanical properties :
#
#
# Convention : Reuss Voigt Hill
#
# Bulk Modulus (GPa) = 13.26985 29.50266 21.38625
# Shear Modulus (GPa) = 16.72999 23.70816 20.21907
#
# Velocity S-wave (km/s) = 3.09596 3.68550 3.40351
# Velocity P-wave (km/s) = 4.51470 5.91719 5.26287
#
# Compressibility (1/GPa) = 0.07535880
#
# Stress axis : x y z
#
# Youngs Moduli (GPa) = 35.61604 79.98283 22.09416
#
# Poissons Ratio (x) = 0.67632 -0.11028
# Poissons Ratio (y) = 0.30116 0.03925
# Poissons Ratio (z) = -0.17777 0.14209
#
# Static dielectric constant tensor:
#      x y z
#    x 3.113750 0.000000 -0.480580 
#    y 0.000000 3.140300 0.000000 
#    z -0.480580 0.000000 3.455120 
# 
# 
# High freq. dielectric constant tensor:
#      x y z
#    x 1.657290 0.000000 -0.031370 
#    y 0.000000 1.662170 0.000000 
#    z -0.031370 0.000000 1.670030 
# 
# From -- ./inp_files/268105.got.cif
#   From: 2010.06.25/outbox.cif.g09.slc.cpg/sg12_135_cif.got.tgz:268105.got - 2010.06.28 00:19:55.
