data_PCOD8079587
_publ_section_title
;
Structure prediction by ZEFSAII (Michael W. Deem and Ramdas Pophale) SiO2 
 PCOD8079587
Probable space group: C 2/M
;
_chemical_formula_sum "Si O2"
_cell_formula_units_Z 64
_cell_length_a 25.411186
_cell_length_b 8.736113
_cell_length_c 29.586077
_cell_angle_alpha 90.000000
_cell_angle_beta 150.566463
_cell_angle_gamma 90.000000
_cell_volume 3227.585447
_symmetry_space_group_name_H-M "C 2/M"
_symmetry_group_IT_number 12
_symmetry_cell_setting 'monoclinic'
loop_
_space_group_symop_operation_xyz
x,y,z
-x,y,-z
-x,-y,-z
x,-y,z
1/2+x,1/2+y,z
1/2-x,1/2+y,-z
1/2-x,1/2-y,-z
1/2+x,1/2-y,z
loop_
_atom_site_type_symbol
_atom_site_label
_atom_site_fract_x
_atom_site_fract_y
_atom_site_fract_z
Si Si1 0.979302 0.328591 0.531583
Si Si2 0.386132 0.317899 0.689696
Si Si3 0.876910 0.821152 0.784457
Si Si4 0.844900 0.317749 0.510047
Si Si5 0.013435 0.681499 0.709379
Si Si6 0.214612 0.670436 0.735071
Si Si7 0.954507 0.181183 0.015065
Si Si8 0.234151 0.821940 0.840485
O O1 0.938283 0.500000 0.488600
O O2 0.891744 0.248732 0.497959
O O3 0.000000 0.237897 0.500000
O O4 0.087633 0.335059 0.640995
O O5 0.396480 0.500000 0.697512
O O6 0.383723 0.249784 0.739111
O O7 0.278919 0.266960 0.581573
O O8 0.487407 0.244524 0.739948
O O9 0.761632 0.782005 0.721129
O O10 0.966546 0.759902 0.886248
O O11 0.891117 0.000000 0.788343
O O12 0.856742 0.500000 0.517566
O O13 0.917647 0.254099 0.605387
O O14 0.015320 0.500000 0.711170
O O15 0.129590 0.738247 0.781390
O O16 0.260271 0.500000 0.781659
O O17 0.250577 0.790413 0.799581
O O18 0.940086 0.000000 0.005288
O O19 0.841692 0.258559 0.943907
O O20 0.000000 0.233363 0.000000
O O21 0.221291 0.000000 0.840425
#
# Coordination Sequence:
#
# PCOD8079587 Si02
#       8
#     8   8   8   8   8   8   8   8
#     4   9  15  24  46  81 114 145 184 228 271 322
#     4  10  20  36  57  86 118 146 186 238 286 328
#     4   9  18  33  58  88 116 148 184 227 280 339
#     4   9  17  30  52  82 113 146 186 232 274 325
#     4  11  22  39  59  80 110 154 200 234 276 333
#     4  10  17  32  56  82 114 151 188 226 273 337
#     4  10  19  36  62  88 115 148 185 224 275 344
#     4  12  24  37  56  85 115 146 186 238 289 329
#
# _framework density 19.829065
#
# number of rings (size 3 to 8) (size 9 to 14) (size 15 to 20)
#    0.000    2.000    2.500    2.625    0.000    3.250 
#    0.000    2.500    0.000    0.375    0.000    0.000 
#    0.000    0.000    0.000    0.000    0.000    0.000 
#
# Total GULP energy -396588.490594 kJ/mol
# GULP energy per Si atom -12393.390331 kJ/mol
# Density = 1.978393 g / cm^3
# Si number density = 19.829065 Si / 1000 Ang^3
#
#
#
# Elastic Constant Matrix: (Units=GPa)
#
#
# Indices 1 2 3 4 5 6 
#
# 1 131.9295 23.2261 37.9538 0.0000 13.9119 0.0000
# 2 23.2261 42.7034 22.4413 -0.0007 5.0956 0.0008
# 3 37.9538 22.4413 84.2495 0.0002 11.9281 0.0001
# 4 0.0000 -0.0007 0.0002 14.3804 0.0001 4.4855
# 5 13.9119 5.0956 11.9281 0.0001 24.7800 0.0000
# 6 0.0000 0.0008 0.0001 4.4855 0.0000 23.0414
#
#
#
# Elastic Compliance Matrix: (Units=1/GPa)
#
#
# Indices 1 2 3 4 5 6 
#
# 1 0.009305 -0.003157 -0.002901 0.000000 -0.003179 0.000000
# 2 -0.003157 0.028419 -0.005979 0.000002 -0.001193 -0.000001
# 3 -0.002901 -0.005979 0.015415 -0.000001 -0.004562 0.000000
# 4 0.000000 0.000002 -0.000001 0.074035 0.000000 -0.014412
# 5 -0.003179 -0.001193 -0.004562 0.000000 0.044581 0.000000
# 6 0.000000 -0.000001 0.000000 -0.014412 0.000000 0.046206
#
#
# Mechanical properties :
#
#
# Convention : Reuss Voigt Hill
#
# Bulk Modulus (GPa) = 34.40530 47.34719 40.87625
# Shear Modulus (GPa) = 19.86314 24.12444 21.99379
#
# Velocity S-wave (km/s) = 3.16843 3.49179 3.33403
# Velocity P-wave (km/s) = 5.54742 6.33927 5.95652
#
# Compressibility (1/GPa) = 0.02906529
#
# Stress axis : x y z
#
# Youngs Moduli (GPa) = 107.46461 35.18794 64.87292
#
# Poissons Ratio (x) = 0.11110 0.18819
# Poissons Ratio (y) = 0.33930 0.38784
# Poissons Ratio (z) = 0.31175 0.21037
#
# Static dielectric constant tensor:
#      x y z
#    x 3.798350 0.000000 -0.035030 
#    y 0.000000 3.059400 0.000000 
#    z -0.035030 0.000000 3.721420 
# 
# 
# High freq. dielectric constant tensor:
#      x y z
#    x 1.782710 0.000000 0.007910 
#    y 0.000000 1.715730 0.000000 
#    z 0.007910 0.000000 1.773380 
# 
# From -- ./inp_files/382515.got.cif
#   From: 2010.06.25/outbox.cif.g09.slc.cpg/sg12_192_cif.got.tgz:382515.got - 2010.06.28 00:19:55.
