data_PCOD8079758
_publ_section_title
;
Structure prediction by ZEFSAII (Michael W. Deem and Ramdas Pophale) SiO2 
 PCOD8079758
Probable space group: C 2/M
;
_chemical_formula_sum "Si O2"
_cell_formula_units_Z 48
_cell_length_a 22.719381
_cell_length_b 16.280542
_cell_length_c 18.112618
_cell_angle_alpha 90.000000
_cell_angle_beta 23.292229
_cell_angle_gamma 90.000000
_cell_volume 2649.148082
_symmetry_space_group_name_H-M "C 2/M"
_symmetry_group_IT_number 12
_symmetry_cell_setting 'monoclinic'
loop_
_space_group_symop_operation_xyz
x,y,z
-x,y,-z
-x,-y,-z
x,-y,z
1/2+x,1/2+y,z
1/2-x,1/2+y,-z
1/2-x,1/2-y,-z
1/2+x,1/2-y,z
loop_
_atom_site_type_symbol
_atom_site_label
_atom_site_fract_x
_atom_site_fract_y
_atom_site_fract_z
Si Si1 0.112443 0.908207 0.707759
Si Si2 0.632274 0.742156 0.792185
Si Si3 0.138489 0.325531 0.644123
Si Si4 0.032715 0.232735 0.548425
Si Si5 0.578998 0.593284 0.211629
Si Si6 0.361931 0.823176 0.858476
O O1 0.108245 0.845690 0.780555
O O2 0.276144 0.907385 0.480531
O O3 0.994879 0.881035 0.780872
O O4 0.080660 0.000000 0.773854
O O5 0.610515 0.820757 0.763514
O O6 0.792984 0.747451 0.645052
O O7 0.500000 0.753000 0.000000
O O8 0.250000 0.250000 0.500000
O O9 0.984446 0.318396 0.780169
O O10 0.000000 0.219852 0.500000
O O11 0.982635 0.151943 0.652167
O O12 0.941061 0.311354 0.687090
O O13 0.538530 0.500000 0.280353
O O14 0.758052 0.596923 0.989589
O O15 0.250000 0.750000 0.000000
#
# Coordination Sequence:
#
# PCOD8079758 Si02
#       6
#     8   8   8   8   8   8
#     4  10  20  38  61  80 109 151 191 239 284 326
#     4  11  22  35  58  85 114 145 192 233 278 335
#     4  10  17  36  58  81 106 146 193 239 271 321
#     4  11  22  36  58  85 116 149 182 232 284 337
#     4  10  22  39  60  84 114 150 189 234 284 338
#     4  10  19  34  58  84 110 142 194 230 274 332
#
# _framework density 18.119032000000001
#
# number of rings (size 3 to 8) (size 9 to 14) (size 15 to 20)
#    0.000    1.667    5.000    3.000    7.000    1.333 
#    0.000    0.000    0.000    2.000    0.000    0.000 
#    0.000    0.000    0.000    0.000    0.000    0.000 
#
# Total GULP energy -297333.709934 kJ/mol
# GULP energy per Si atom -12388.904581 kJ/mol
# Density = 1.807779 g / cm^3
# Si number density = 18.119032 Si / 1000 Ang^3
#
#
#
# Elastic Constant Matrix: (Units=GPa)
#
#
# Indices 1 2 3 4 5 6 
#
# 1 117.3814 19.0444 59.2496 -0.0006 -8.3461 0.0005
# 2 19.0444 34.1044 15.4925 0.0006 1.9338 0.0003
# 3 59.2496 15.4925 144.6419 -0.0004 -6.1440 0.0012
# 4 -0.0006 0.0006 -0.0004 18.9004 0.0020 1.6040
# 5 -8.3461 1.9338 -6.1440 0.0020 46.0633 -0.0015
# 6 0.0005 0.0003 0.0012 1.6040 -0.0015 16.8155
#
#
#
# Elastic Compliance Matrix: (Units=1/GPa)
#
#
# Indices 1 2 3 4 5 6 
#
# 1 0.011479 -0.004630 -0.004133 0.000000 0.001723 0.000000
# 2 -0.004630 0.032829 -0.001724 -0.000001 -0.002447 0.000000
# 3 -0.004133 -0.001724 0.008812 0.000000 0.000499 0.000000
# 4 0.000000 -0.000001 0.000000 0.053341 -0.000002 -0.005088
# 5 0.001723 -0.002447 0.000499 -0.000002 0.022191 0.000002
# 6 0.000000 0.000000 0.000000 -0.005088 0.000002 0.059954
#
#
# Mechanical properties :
#
#
# Convention : Reuss Voigt Hill
#
# Bulk Modulus (GPa) = 31.10725 53.74451 42.42588
# Shear Modulus (GPa) = 22.69672 29.84524 26.27098
#
# Velocity S-wave (km/s) = 3.54311 4.06294 3.81190
# Velocity P-wave (km/s) = 5.82613 7.19280 6.54523
#
# Compressibility (1/GPa) = 0.03214685
#
# Stress axis : x y z
#
# Youngs Moduli (GPa) = 87.11402 30.46082 113.47569
#
# Poissons Ratio (x) = 0.14104 0.46900
# Poissons Ratio (y) = 0.40337 0.19558
# Poissons Ratio (z) = 0.36005 0.05250
#
# Static dielectric constant tensor:
#      x y z
#    x 3.397410 0.000010 -0.208720 
#    y 0.000010 3.741860 0.000020 
#    z -0.208720 0.000020 4.191810 
# 
# 
# High freq. dielectric constant tensor:
#      x y z
#    x 1.699800 0.000000 -0.014920 
#    y 0.000000 1.679280 0.000000 
#    z -0.014920 0.000000 1.715950 
# 
# From -- ./inp_files/285338.got.cif
#   From: 2010.06.25/outbox.cif.g09.slc.cpg/sg12_143_cif.got.tgz:285338.got - 2010.06.28 00:19:55.
