data_PCOD8079690
_publ_section_title
;
Structure prediction by ZEFSAII (Michael W. Deem and Ramdas Pophale) SiO2 
 PCOD8079690
Probable space group: C 2/M
;
_chemical_formula_sum "Si O2"
_cell_formula_units_Z 48
_cell_length_a 23.422373
_cell_length_b 17.364372
_cell_length_c 17.650096
_cell_angle_alpha 90.000000
_cell_angle_beta 158.442706
_cell_angle_gamma 90.000000
_cell_volume 2637.626827
_symmetry_space_group_name_H-M "C 2/M"
_symmetry_group_IT_number 12
_symmetry_cell_setting 'monoclinic'
loop_
_space_group_symop_operation_xyz
x,y,z
-x,y,-z
-x,-y,-z
x,-y,z
1/2+x,1/2+y,z
1/2-x,1/2+y,-z
1/2-x,1/2-y,-z
1/2+x,1/2-y,z
loop_
_atom_site_type_symbol
_atom_site_label
_atom_site_fract_x
_atom_site_fract_y
_atom_site_fract_z
Si Si1 0.742139 0.586309 0.454060
Si Si2 0.917376 0.088109 0.140195
Si Si3 0.102086 0.218293 0.773524
Si Si4 0.223252 0.292513 0.629658
Si Si5 0.285753 0.285924 0.880587
Si Si6 0.614231 0.208402 0.284292
O O1 0.790851 0.500000 0.494815
O O2 0.578617 0.590933 0.294692
O O3 0.731791 0.630808 0.361293
O O4 0.875063 0.619854 0.675248
O O5 0.932016 0.130805 0.240522
O O6 0.863624 0.000000 0.087355
O O7 0.789994 0.133248 0.931878
O O8 0.149037 0.228779 0.742723
O O9 0.953593 0.271142 0.607130
O O10 0.250000 0.250000 0.000000
O O11 0.253014 0.306907 0.754082
O O12 0.338136 0.222841 0.744644
O O13 0.446849 0.242431 0.095078
O O14 0.750000 0.250000 0.500000
#
# Coordination Sequence:
#
# PCOD8079690 Si02
#       6
#     8   8   8   8   8   8
#     4  10  19  33  56  82 109 142 181 222 265 317
#     4  10  19  34  56  81 108 143 182 221 264 319
#     4  10  20  37  56  77 106 147 189 217 254 324
#     4  11  20  34  56  82 112 138 177 225 274 314
#     4  11  21  34  55  84 111 141 177 225 273 318
#     4  10  17  34  54  76 106 142 187 217 250 316
#
# _framework density 18.198177000000001
#
# number of rings (size 3 to 8) (size 9 to 14) (size 15 to 20)
#    0.000    1.667    5.000    4.000    0.000    0.667 
#    0.000    9.167    0.000   11.000    0.000    0.000 
#    0.000    0.000    0.000    0.000    0.000    0.000 
#
# Total GULP energy -297361.585317 kJ/mol
# GULP energy per Si atom -12390.066055 kJ/mol
# Density = 1.815676 g / cm^3
# Si number density = 18.198177 Si / 1000 Ang^3
#
#
#
# Elastic Constant Matrix: (Units=GPa)
#
#
# Indices 1 2 3 4 5 6 
#
# 1 109.6294 80.6764 17.9732 0.0002 9.6442 0.0001
# 2 80.6764 138.2273 43.8429 0.0002 -13.9193 0.0002
# 3 17.9732 43.8429 53.8730 0.0004 7.2739 0.0003
# 4 0.0002 0.0002 0.0004 16.9633 0.0003 4.1868
# 5 9.6442 -13.9193 7.2739 0.0003 23.7812 0.0002
# 6 0.0001 0.0002 0.0003 4.1868 0.0002 22.7673
#
#
#
# Elastic Compliance Matrix: (Units=1/GPa)
#
#
# Indices 1 2 3 4 5 6 
#
# 1 0.024997 -0.021200 0.012473 0.000000 -0.026361 0.000000
# 2 -0.021200 0.029705 -0.021498 0.000000 0.032560 0.000000
# 3 0.012473 -0.021498 0.035755 0.000000 -0.028578 0.000000
# 4 0.000000 0.000000 0.000000 0.061754 -0.000001 -0.011356
# 5 -0.026361 0.032560 -0.028578 -0.000001 0.080539 -0.000001
# 6 0.000000 0.000000 0.000000 -0.011356 -0.000001 0.046011
#
#
# Mechanical properties :
#
#
# Convention : Reuss Voigt Hill
#
# Bulk Modulus (GPa) = 33.32630 65.19053 49.25842
# Shear Modulus (GPa) = 14.31784 23.31816 18.81800
#
# Velocity S-wave (km/s) = 2.80799 3.58347 3.21917
# Velocity P-wave (km/s) = 5.37269 7.28162 6.39874
#
# Compressibility (1/GPa) = 0.03000633
#
# Stress axis : x y z
#
# Youngs Moduli (GPa) = 40.00499 33.66389 27.96794
#
# Poissons Ratio (x) = 0.71368 -0.34883
# Poissons Ratio (y) = 0.84811 0.60126
# Poissons Ratio (z) = -0.49897 0.72371
#
# Static dielectric constant tensor:
#      x y z
#    x 4.021100 0.000000 0.131150 
#    y 0.000000 3.761620 0.000000 
#    z 0.131150 0.000000 3.265120 
# 
# 
# High freq. dielectric constant tensor:
#      x y z
#    x 1.718950 0.000000 0.013740 
#    y 0.000000 1.681590 0.000000 
#    z 0.013740 0.000000 1.691470 
# 
# From -- ./inp_files/74459.got.cif
#   From: 2010.06.25/outbox.cif.g09.slc.cpg/sg12_38_cif.got.tgz:74459.got - 2010.06.28 00:19:55.
