data_PCOD8079399
_publ_section_title
;
Structure prediction by ZEFSAII (Michael W. Deem and Ramdas Pophale) SiO2 
 PCOD8079399
Probable space group: C 2/M
;
_chemical_formula_sum "Si O2"
_cell_formula_units_Z 48
_cell_length_a 25.177229
_cell_length_b 8.954214
_cell_length_c 12.574122
_cell_angle_alpha 90.000000
_cell_angle_beta 109.591987
_cell_angle_gamma 90.000000
_cell_volume 2670.619907
_symmetry_space_group_name_H-M "C 2/M"
_symmetry_group_IT_number 12
_symmetry_cell_setting 'monoclinic'
loop_
_space_group_symop_operation_xyz
x,y,z
-x,y,-z
-x,-y,-z
x,-y,z
1/2+x,1/2+y,z
1/2-x,1/2+y,-z
1/2-x,1/2-y,-z
1/2+x,1/2-y,z
loop_
_atom_site_type_symbol
_atom_site_label
_atom_site_fract_x
_atom_site_fract_y
_atom_site_fract_z
Si Si1 0.866199 0.823051 0.884574
Si Si2 0.059914 0.825557 0.253785
Si Si3 0.627921 0.823524 0.714607
Si Si4 0.247144 0.675685 0.883862
Si Si5 0.566925 0.674620 0.865840
Si Si6 0.059921 0.822502 0.492139
O O1 0.893243 0.755317 0.794554
O O2 0.801034 0.774337 0.849735
O O3 0.873384 0.000000 0.887240
O O4 0.900047 0.762732 0.009761
O O5 0.064628 0.757906 0.375352
O O6 0.999051 0.794864 0.161172
O O7 0.070531 0.000000 0.272487
O O8 0.691648 0.772707 0.783810
O O9 0.586098 0.765362 0.776398
O O10 0.610957 0.750730 0.591443
O O11 0.622858 0.000000 0.702692
O O12 0.247716 0.500000 0.903969
O O13 0.250000 0.750000 0.000000
O O14 0.579086 0.500000 0.853173
O O15 0.000000 0.771798 0.500000
O O16 0.065719 0.000000 0.501293
#
# Coordination Sequence:
#
# PCOD8079399 Si02
#       6
#     8   8   8   8   8   8
#     4   9  17  30  52  79 104 132 167 213 260 300
#     4   9  17  30  51  80 105 127 168 219 259 298
#     4  11  22  33  49  77 109 137 169 208 256 308
#     4  10  20  34  53  76 103 136 173 210 250 302
#     4  10  17  30  54  80 104 130 167 213 259 307
#     4  10  19  34  55  77 101 132 175 219 253 295
#
# _framework density 17.973355999999999
#
# number of rings (size 3 to 8) (size 9 to 14) (size 15 to 20)
#    0.000    2.167    3.333    1.000    0.000    3.000 
#    0.000    0.833    0.000    5.000    0.000    0.000 
#    0.000    0.000    0.000    0.000    0.000    0.000 
#
# Total GULP energy -297575.017849 kJ/mol
# GULP energy per Si atom -12398.959077 kJ/mol
# Density = 1.793245 g / cm^3
# Si number density = 17.973356 Si / 1000 Ang^3
#
#
#
# Elastic Constant Matrix: (Units=GPa)
#
#
# Indices 1 2 3 4 5 6 
#
# 1 110.9851 14.9095 50.0231 0.0000 -0.1576 0.0000
# 2 14.9095 20.0928 20.1038 0.0000 5.4291 0.0000
# 3 50.0231 20.1038 120.6591 0.0000 4.3598 0.0000
# 4 0.0000 0.0000 0.0000 22.3775 0.0000 4.7529
# 5 -0.1576 5.4291 4.3598 0.0000 33.7741 0.0000
# 6 0.0000 0.0000 0.0000 4.7529 0.0000 14.9253
#
#
#
# Elastic Compliance Matrix: (Units=1/GPa)
#
#
# Indices 1 2 3 4 5 6 
#
# 1 0.011466 -0.004883 -0.003989 0.000000 0.001353 0.000000
# 2 -0.004883 0.064248 -0.008345 0.000000 -0.009273 0.000000
# 3 -0.003989 -0.008345 0.011337 0.000000 -0.000141 0.000000
# 4 0.000000 0.000000 0.000000 0.047930 0.000000 -0.015263
# 5 0.001353 -0.009273 -0.000141 0.000000 0.031124 0.000000
# 6 0.000000 0.000000 0.000000 -0.015263 0.000000 0.071860
#
#
# Mechanical properties :
#
#
# Convention : Reuss Voigt Hill
#
# Bulk Modulus (GPa) = 19.00533 46.86775 32.93654
# Shear Modulus (GPa) = 17.24511 25.32877 21.28694
#
# Velocity S-wave (km/s) = 3.10091 3.75806 3.44519
# Velocity P-wave (km/s) = 4.83921 6.70548 5.84729
#
# Compressibility (1/GPa) = 0.05261683
#
# Stress axis : x y z
#
# Youngs Moduli (GPa) = 87.21473 15.56477 88.20589
#
# Poissons Ratio (x) = 0.07600 0.35185
# Poissons Ratio (y) = 0.42584 0.73611
# Poissons Ratio (z) = 0.34790 0.12989
#
# Static dielectric constant tensor:
#      x y z
#    x 3.593330 0.000000 -0.050830 
#    y 0.000000 2.962160 0.000000 
#    z -0.050830 0.000000 3.568110 
# 
# 
# High freq. dielectric constant tensor:
#      x y z
#    x 1.699010 0.000000 0.002030 
#    y 0.000000 1.654750 0.000000 
#    z 0.002030 0.000000 1.701760 
# 
# From -- ./inp_files/172063.got.cif
#   From: 2010.06.25/outbox.cif.g09.slc.cpg/sg12_87_cif.got.tgz:172063.got - 2010.06.28 00:19:55.
