data_PCOD8079078
_publ_section_title
;
Structure prediction by ZEFSAII (Michael W. Deem and Ramdas Pophale) SiO2 
 PCOD8079078
Probable space group: C 2/M
;
_chemical_formula_sum "Si O2"
_cell_formula_units_Z 48
_cell_length_a 23.737265
_cell_length_b 12.774047
_cell_length_c 11.616542
_cell_angle_alpha 90.000000
_cell_angle_beta 128.209133
_cell_angle_gamma 90.000000
_cell_volume 2767.738384
_symmetry_space_group_name_H-M "C 2/M"
_symmetry_group_IT_number 12
_symmetry_cell_setting 'monoclinic'
loop_
_space_group_symop_operation_xyz
x,y,z
-x,y,-z
-x,-y,-z
x,-y,z
1/2+x,1/2+y,z
1/2-x,1/2+y,-z
1/2-x,1/2-y,-z
1/2+x,1/2-y,z
loop_
_atom_site_type_symbol
_atom_site_label
_atom_site_fract_x
_atom_site_fract_y
_atom_site_fract_z
Si Si1 0.934248 0.119018 0.483302
Si Si2 0.336846 0.778736 0.990376
Si Si3 0.685658 0.376332 0.833009
Si Si4 0.962871 0.826852 0.776511
Si Si5 0.515703 0.883179 0.884369
Si Si6 0.390211 0.382983 0.910940
O O1 0.857638 0.157256 0.337199
O O2 0.940277 0.125511 0.627405
O O3 0.000000 0.177731 0.500000
O O4 0.938581 0.000000 0.450816
O O5 0.268716 0.852684 0.916512
O O6 0.329425 0.700041 0.871619
O O7 0.346813 0.699744 0.110498
O O8 0.403425 0.856178 0.051718
O O9 0.677723 0.500000 0.855841
O O10 0.905352 0.865954 0.795943
O O11 0.962230 0.700832 0.759190
O O12 0.040656 0.863185 0.919969
O O13 0.497575 0.000000 0.818100
O O14 0.500000 0.872948 0.000000
O O15 0.361972 0.500000 0.894637
#
# Coordination Sequence:
#
# PCOD8079078 Si02
#       6
#     8   8   8   8   8   8
#     4  10  19  31  50  75 103 134 166 206 256 307
#     4  10  19  34  52  75 102 132 173 214 255 299
#     4  10  21  35  53  76 103 136 172 210 255 305
#     4  10  17  30  48  76 104 130 167 212 254 299
#     4  10  18  31  52  76 102 132 170 210 251 298
#     4  10  17  28  49  76 102 130 164 213 260 295
#
# _framework density 17.342679
#
# number of rings (size 3 to 8) (size 9 to 14) (size 15 to 20)
#    0.000    2.000    3.333    5.000    0.000    1.333 
#    0.000    0.833    0.000    9.500    0.000    0.000 
#    0.000    0.000    0.000    0.000    0.000    0.000 
#
# Total GULP energy -297316.850986 kJ/mol
# GULP energy per Si atom -12388.202124 kJ/mol
# Density = 1.730321 g / cm^3
# Si number density = 17.342679 Si / 1000 Ang^3
#
#
#
# Elastic Constant Matrix: (Units=GPa)
#
#
# Indices 1 2 3 4 5 6 
#
# 1 80.3201 15.4486 32.1855 0.0000 -14.0113 0.0000
# 2 15.4486 94.2951 10.3502 0.0000 4.7301 0.0000
# 3 32.1855 10.3502 82.2243 0.0000 -14.1270 0.0000
# 4 0.0000 0.0000 0.0000 14.0014 0.0000 -7.4261
# 5 -14.0113 4.7301 -14.1270 0.0000 18.5447 0.0000
# 6 0.0000 0.0000 0.0000 -7.4261 0.0000 16.7330
#
#
#
# Elastic Compliance Matrix: (Units=1/GPa)
#
#
# Indices 1 2 3 4 5 6 
#
# 1 0.016440 -0.002697 -0.004422 0.000000 0.009740 0.000000
# 2 -0.002697 0.011509 -0.001435 0.000000 -0.006066 0.000000
# 3 -0.004422 -0.001435 0.015605 0.000000 0.008912 0.000000
# 4 0.000000 0.000000 0.000000 0.093408 0.000000 0.041454
# 5 0.009740 -0.006066 0.008912 0.000000 0.069619 0.000000
# 6 0.000000 0.000000 0.000000 0.041454 0.000000 0.078159
#
#
# Mechanical properties :
#
#
# Convention : Reuss Voigt Hill
#
# Bulk Modulus (GPa) = 37.81445 41.42310 39.61877
# Shear Modulus (GPa) = 16.09457 23.11285 19.60371
#
# Velocity S-wave (km/s) = 3.04967 3.65460 3.36575
# Velocity P-wave (km/s) = 5.85254 6.46104 6.16430
#
# Compressibility (1/GPa) = 0.02644492
#
# Stress axis : x y z
#
# Youngs Moduli (GPa) = 60.82726 86.89117 64.08269
#
# Poissons Ratio (x) = 0.23431 0.28339
# Poissons Ratio (y) = 0.16403 0.09198
# Poissons Ratio (z) = 0.26900 0.12472
#
# Static dielectric constant tensor:
#      x y z
#    x 3.356120 0.000000 -0.070720 
#    y 0.000000 3.480200 0.000000 
#    z -0.070720 0.000000 2.912390 
# 
# 
# High freq. dielectric constant tensor:
#      x y z
#    x 1.679290 0.000000 -0.017470 
#    y 0.000000 1.677070 0.000000 
#    z -0.017470 0.000000 1.625940 
# 
# From -- ./inp_files/175844.got.cif
#   From: 2010.06.25/outbox.cif.g09.slc.cpg/sg12_88_cif.got.tgz:175844.got - 2010.06.28 00:19:55.
