data_PCOD8079029
_publ_section_title
;
Structure prediction by ZEFSAII (Michael W. Deem and Ramdas Pophale) SiO2 
 PCOD8079029
Probable space group: C 2/M
;
_chemical_formula_sum "Si O2"
_cell_formula_units_Z 60
_cell_length_a 21.369396
_cell_length_b 22.331439
_cell_length_c 14.949472
_cell_angle_alpha 90.000000
_cell_angle_beta 152.434430
_cell_angle_gamma 90.000000
_cell_volume 3301.367179
_symmetry_space_group_name_H-M "C 2/M"
_symmetry_group_IT_number 12
_symmetry_cell_setting 'monoclinic'
loop_
_space_group_symop_operation_xyz
x,y,z
-x,y,-z
-x,-y,-z
x,-y,z
1/2+x,1/2+y,z
1/2-x,1/2+y,-z
1/2-x,1/2-y,-z
1/2+x,1/2-y,z
loop_
_atom_site_type_symbol
_atom_site_label
_atom_site_fract_x
_atom_site_fract_y
_atom_site_fract_z
Si Si1 0.000000 0.150912 0.000000
Si Si2 0.816705 0.568581 0.109434
Si Si3 0.690395 0.065896 0.094978
Si Si4 0.161137 0.350466 0.212763
Si Si5 0.804856 0.930199 0.860781
Si Si6 0.236464 0.771248 0.379615
Si Si7 0.630573 0.065508 0.329626
Si Si8 0.399337 0.878183 0.527875
O O1 0.928842 0.108211 0.981860
O O2 0.898782 0.190463 0.811618
O O3 0.872766 0.500000 0.183671
O O4 0.705083 0.578564 0.044515
O O5 0.940482 0.614512 0.278773
O O6 0.748346 0.580510 0.925675
O O7 0.731359 0.116674 0.217472
O O8 0.739523 0.000000 0.189758
O O9 0.529532 0.065532 0.883871
O O10 0.230827 0.286422 0.308777
O O11 0.198660 0.388243 0.348200
O O12 0.000000 0.343835 0.000000
O O13 0.666776 0.902752 0.646285
O O14 0.821943 0.000000 0.857560
O O15 0.250000 0.750000 0.500000
O O16 0.366453 0.808902 0.510647
O O17 0.667737 0.083222 0.477357
O O18 0.690280 0.000000 0.384522
#
# Coordination Sequence:
#
# PCOD8079029 Si02
#       8
#     4   8   8   8   8   8   8   8
#     4  10  23  36  54  78 103 136 184 220 258 328
#     4   9  17  30  51  79 105 134 171 215 276 328
#     4   8  15  26  44  72 101 125 157 210 267 315
#     4  10  17  28  47  69 100 138 174 211 259 308
#     4  10  19  33  53  76 106 137 169 217 270 320
#     4  11  21  35  51  73 105 150 185 216 259 306
#     4   9  15  24  41  71 101 125 160 211 266 312
#     4  10  18  28  47  74 107 138 174 219 257 315
#
# _framework density 18.174289000000002
#
# number of rings (size 3 to 8) (size 9 to 14) (size 15 to 20)
#    0.000    2.400    2.000    3.000    0.000    2.667 
#    0.000    0.000    0.000   10.400    0.000    0.000 
#    0.000    3.200    0.000    0.000    0.000    0.000 
#
# Total GULP energy -371834.331160 kJ/mol
# GULP energy per Si atom -12394.477705 kJ/mol
# Density = 1.813292 g / cm^3
# Si number density = 18.174289 Si / 1000 Ang^3
#
#
#
# Elastic Constant Matrix: (Units=GPa)
#
#
# Indices 1 2 3 4 5 6 
#
# 1 121.5764 60.5314 28.2944 0.0000 -15.0582 0.0000
# 2 60.5314 134.3820 25.6183 0.0000 -4.2922 0.0000
# 3 28.2944 25.6183 30.9091 0.0000 -4.2905 0.0000
# 4 0.0000 0.0000 0.0000 24.7428 0.0000 -6.2122
# 5 -15.0582 -4.2922 -4.2905 0.0000 21.8826 0.0000
# 6 0.0000 0.0000 0.0000 -6.2122 0.0000 22.2207
#
#
#
# Elastic Compliance Matrix: (Units=1/GPa)
#
#
# Indices 1 2 3 4 5 6 
#
# 1 0.012828 -0.004161 -0.007383 0.000000 0.006564 0.000000
# 2 -0.004161 0.010190 -0.004889 0.000000 -0.001823 0.000000
# 3 -0.007383 -0.004889 0.043510 0.000000 0.002491 0.000000
# 4 0.000000 0.000000 0.000000 0.043467 0.000000 0.012152
# 5 0.006564 -0.001823 0.002491 0.000000 0.050346 0.000000
# 6 0.000000 0.000000 0.000000 0.012152 0.000000 0.048400
#
#
# Mechanical properties :
#
#
# Convention : Reuss Voigt Hill
#
# Bulk Modulus (GPa) = 29.70859 57.30619 43.50739
# Shear Modulus (GPa) = 19.77624 25.26411 22.52017
#
# Velocity S-wave (km/s) = 3.30228 3.73245 3.52394
# Velocity P-wave (km/s) = 5.56076 7.08342 6.36777
#
# Compressibility (1/GPa) = 0.03366030
#
# Stress axis : x y z
#
# Youngs Moduli (GPa) = 77.95210 98.13773 22.98344
#
# Poissons Ratio (x) = 0.40838 0.16969
# Poissons Ratio (y) = 0.32438 0.11237
# Poissons Ratio (z) = 0.57552 0.47983
#
# Static dielectric constant tensor:
#      x y z
#    x 3.417840 0.000000 -0.377510 
#    y 0.000000 3.517590 0.000000 
#    z -0.377510 0.000000 3.063810 
# 
# 
# High freq. dielectric constant tensor:
#      x y z
#    x 1.698200 0.000000 -0.032320 
#    y 0.000000 1.708900 0.000000 
#    z -0.032320 0.000000 1.663350 
# 
# From -- ./inp_files/235195.got.cif
#   From: 2010.06.25/outbox.cif.g09.slc.cpg/sg12_118_cif.got.tgz:235195.got - 2010.06.28 00:19:55.
