data_PCOD8079356
_publ_section_title
;
Structure prediction by ZEFSAII (Michael W. Deem and Ramdas Pophale) SiO2 
 PCOD8079356
Probable space group: C 2/M
;
_chemical_formula_sum "Si O2"
_cell_formula_units_Z 64
_cell_length_a 29.742283
_cell_length_b 8.831960
_cell_length_c 15.106808
_cell_angle_alpha 90.000000
_cell_angle_beta 79.050637
_cell_angle_gamma 90.000000
_cell_volume 3896.055300
_symmetry_space_group_name_H-M "C 2/M"
_symmetry_group_IT_number 12
_symmetry_cell_setting 'monoclinic'
loop_
_space_group_symop_operation_xyz
x,y,z
-x,y,-z
-x,-y,-z
x,-y,z
1/2+x,1/2+y,z
1/2-x,1/2+y,-z
1/2-x,1/2-y,-z
1/2+x,1/2-y,z
loop_
_atom_site_type_symbol
_atom_site_label
_atom_site_fract_x
_atom_site_fract_y
_atom_site_fract_z
Si Si1 0.400294 0.678536 0.577565
Si Si2 0.630124 0.676835 0.742588
Si Si3 0.460238 0.821792 0.706151
Si Si4 0.213634 0.322769 0.627731
Si Si5 0.193525 0.322250 0.435215
Si Si6 0.562938 0.321519 0.914255
Si Si7 0.055191 0.824077 0.623275
Si Si8 0.464977 0.320698 0.886713
O O1 0.396924 0.500000 0.587136
O O2 0.425392 0.744779 0.652497
O O3 0.349447 0.743664 0.593903
O O4 0.428726 0.725137 0.479970
O O5 0.642377 0.500000 0.741560
O O6 0.676506 0.770882 0.713629
O O7 0.606916 0.735521 0.842689
O O8 0.596001 0.711928 0.675036
O O9 0.511895 0.775227 0.665272
O O10 0.445809 0.767498 0.809388
O O11 0.455147 0.000000 0.700506
O O12 0.222645 0.500000 0.631872
O O13 0.195188 0.276513 0.537794
O O14 0.260892 0.236999 0.630377
O O15 0.189521 0.500000 0.423263
O O16 0.559396 0.500000 0.906766
O O17 0.516267 0.260305 0.887403
O O18 0.566472 0.276815 0.016432
O O19 0.040959 0.000000 0.632710
O O20 0.464041 0.500000 0.868696
#
# Coordination Sequence:
#
# PCOD8079356 Si02
#       8
#     8   8   8   8   8   8   8   8
#     4  11  22  36  53  71  95 132 174 211 247 291
#     4  10  17  30  51  76 101 130 166 205 247 294
#     4  12  24  34  47  70 101 136 171 209 249 290
#     4  10  20  32  49  73 102 133 164 200 247 298
#     4  10  20  34  51  72  99 130 166 208 248 289
#     4   8  15  28  52  75  95 125 165 207 248 294
#     4  10  20  34  51  70  97 134 174 207 240 288
#     4   9  16  32  52  71  94 128 169 207 246 293
#
# _framework density 16.426871999999999
#
# number of rings (size 3 to 8) (size 9 to 14) (size 15 to 20)
#    0.000    2.000    2.500    3.375    0.000    4.000 
#    0.000    1.875    0.000    0.000    0.000    0.875 
#    0.000    0.000    0.000    0.000    0.000    0.000 
#
# Total GULP energy -396827.100967 kJ/mol
# GULP energy per Si atom -12400.846905 kJ/mol
# Density = 1.638948 g / cm^3
# Si number density = 16.426872 Si / 1000 Ang^3
#
#
#
# Elastic Constant Matrix: (Units=GPa)
#
#
# Indices 1 2 3 4 5 6 
#
# 1 37.8398 -10.5413 16.5099 0.0000 -34.9061 0.0000
# 2 -10.5413 -6.8278 -19.5576 0.0000 -35.8604 0.0000
# 3 16.5099 -19.5576 79.2374 0.0000 -37.1046 0.0000
# 4 0.0000 0.0000 0.0000 15.0106 0.0000 -4.5528
# 5 -34.9061 -35.8604 -37.1046 0.0000 7.5043 0.0000
# 6 0.0000 0.0000 0.0000 -4.5528 0.0000 28.1118
#
#
#
# Elastic Compliance Matrix: (Units=1/GPa)
#
#
# Indices 1 2 3 4 5 6 
#
# 1 0.026345 -0.015980 -0.009268 0.000000 0.000353 0.000000
# 2 -0.015980 0.014857 -0.004131 0.000000 -0.023764 0.000000
# 3 -0.009268 -0.004131 0.012089 0.000000 -0.003082 0.000000
# 4 0.000000 0.000000 0.000000 0.070061 0.000000 0.011347
# 5 0.000353 -0.023764 -0.003082 0.000000 0.006102 0.000000
# 6 0.000000 0.000000 0.000000 0.011347 0.000000 0.037410
#
#
# Mechanical properties :
#
#
# Convention : Reuss Voigt Hill
#
# Bulk Modulus (GPa) = -182.83871 9.23017 -86.80427
# Shear Modulus (GPa) = 22.34139 18.38122 20.36130
#
# Velocity S-wave (km/s) = 3.69189 3.34873 3.52449
# Velocity P-wave (km/s) = 9.66296 4.53687 6.03282
#
# Compressibility (1/GPa) = -0.00546930
#
# Stress axis : x y z
#
# Youngs Moduli (GPa) = 37.95778 67.30918 82.72274
#
# Poissons Ratio (x) = 1.07562 0.76669
# Poissons Ratio (y) = 0.60658 0.34176
# Poissons Ratio (z) = 0.35180 0.27808
#
# Static dielectric constant tensor:
#      x y z
#    x 3.068030 0.000000 -0.195960 
#    y 0.000000 2.976850 0.000000 
#    z -0.195960 0.000000 3.332300 
# 
# 
# High freq. dielectric constant tensor:
#      x y z
#    x 1.614780 0.000000 -0.011880 
#    y 0.000000 1.626100 0.000000 
#    z -0.011880 0.000000 1.625000 
# 
# From -- ./inp_files/248318.got.cif
#   From: 2010.06.25/outbox.cif.g09.slc.cpg/sg12_125_cif.got.tgz:248318.got - 2010.06.28 00:19:55.
