data_PCOD8079216
_publ_section_title
;
Structure prediction by ZEFSAII (Michael W. Deem and Ramdas Pophale) SiO2 
 PCOD8079216
Probable space group: C 2/M
;
_chemical_formula_sum "Si O2"
_cell_formula_units_Z 64
_cell_length_a 30.280190
_cell_length_b 13.426625
_cell_length_c 9.520159
_cell_angle_alpha 90.000000
_cell_angle_beta 87.582942
_cell_angle_gamma 90.000000
_cell_volume 3867.079509
_symmetry_space_group_name_H-M "C 2/M"
_symmetry_group_IT_number 12
_symmetry_cell_setting 'monoclinic'
loop_
_space_group_symop_operation_xyz
x,y,z
-x,y,-z
-x,-y,-z
x,-y,z
1/2+x,1/2+y,z
1/2-x,1/2+y,-z
1/2-x,1/2-y,-z
1/2+x,1/2-y,z
loop_
_atom_site_type_symbol
_atom_site_label
_atom_site_fract_x
_atom_site_fract_y
_atom_site_fract_z
Si Si1 0.802625 0.384358 0.622632
Si Si2 0.425788 0.387717 0.714912
Si Si3 0.645556 0.610324 0.050762
Si Si4 0.109621 0.116425 0.755089
Si Si5 0.642132 0.707097 0.474178
Si Si6 0.512442 0.381863 0.846713
Si Si7 0.222773 0.242603 0.145468
Si Si8 0.266374 0.613407 0.608515
O O1 0.815622 0.500000 0.625105
O O2 0.844203 0.321762 0.557079
O O3 0.788540 0.349339 0.781685
O O4 0.761329 0.360889 0.526630
O O5 0.425677 0.500000 0.653195
O O6 0.402087 0.385666 0.869488
O O7 0.401995 0.316279 0.607482
O O8 0.475772 0.350154 0.735822
O O9 0.666502 0.500000 0.066644
O O10 0.676513 0.690473 0.119293
O O11 0.639291 0.633313 0.888264
O O12 0.131752 0.187732 0.637625
O O13 0.059977 0.155754 0.787824
O O14 0.110151 0.000000 0.709353
O O15 0.681977 0.634947 0.422958
O O16 0.513410 0.500000 0.861852
O O17 0.500000 0.334862 0.000000
O O18 0.250204 0.178611 0.256659
O O19 0.250000 0.250000 0.000000
O O20 0.259792 0.500000 0.652056
#
# Coordination Sequence:
#
# PCOD8079216 Si02
#       8
#     8   8   8   8   8   8   8   8
#     4  10  23  39  53  69  98 138 174 213 258 297
#     4  10  17  29  50  72 101 136 165 196 243 302
#     4  10  19  31  49  74 102 136 166 194 242 300
#     4  10  20  30  48  77 107 136 165 198 242 303
#     4  11  20  33  51  73  98 128 173 211 240 288
#     4   9  16  28  44  70 108 140 160 189 243 305
#     4  11  22  33  52  77 104 127 167 216 252 296
#     4  10  20  36  53  70  98 135 168 203 254 302
#
# _framework density 16.549956999999999
#
# number of rings (size 3 to 8) (size 9 to 14) (size 15 to 20)
#    0.000    1.875    3.750    3.000    3.500    1.500 
#    0.000    1.875    0.000    0.000    0.000    1.750 
#    0.000    2.000    0.000    0.000    0.000    0.000 
#
# Total GULP energy -396731.052444 kJ/mol
# GULP energy per Si atom -12397.845389 kJ/mol
# Density = 1.651229 g / cm^3
# Si number density = 16.549957 Si / 1000 Ang^3
#
#
#
# Elastic Constant Matrix: (Units=GPa)
#
#
# Indices 1 2 3 4 5 6 
#
# 1 61.3679 32.0196 26.7366 0.0000 8.4407 0.0000
# 2 32.0196 89.2843 43.1284 0.0000 3.1403 0.0000
# 3 26.7366 43.1284 106.4738 0.0000 -3.8482 0.0000
# 4 0.0000 0.0000 0.0000 21.4924 0.0000 2.0450
# 5 8.4407 3.1403 -3.8482 0.0000 27.4808 0.0000
# 6 0.0000 0.0000 0.0000 2.0450 0.0000 15.9623
#
#
#
# Elastic Compliance Matrix: (Units=1/GPa)
#
#
# Indices 1 2 3 4 5 6 
#
# 1 0.021729 -0.005989 -0.003263 0.000000 -0.006446 0.000000
# 2 -0.005989 0.015734 -0.004893 0.000000 -0.000643 0.000000
# 3 -0.003263 -0.004893 0.012312 0.000000 0.003285 0.000000
# 4 0.000000 0.000000 0.000000 0.047102 0.000000 -0.006034
# 5 -0.006446 -0.000643 0.003285 0.000000 0.038903 0.000000
# 6 0.000000 0.000000 0.000000 -0.006034 0.000000 0.063421
#
#
# Mechanical properties :
#
#
# Convention : Reuss Voigt Hill
#
# Bulk Modulus (GPa) = 46.54551 51.21059 48.87805
# Shear Modulus (GPa) = 21.30818 23.33653 22.32235
#
# Velocity S-wave (km/s) = 3.59208 3.75916 3.67657
# Velocity P-wave (km/s) = 6.73716 7.06059 6.90077
#
# Compressibility (1/GPa) = 0.02148435
#
# Stress axis : x y z
#
# Youngs Moduli (GPa) = 46.02232 63.55633 81.22221
#
# Poissons Ratio (x) = 0.38067 0.26504
# Poissons Ratio (y) = 0.27565 0.39738
# Poissons Ratio (z) = 0.15018 0.31095
#
# Static dielectric constant tensor:
#      x y z
#    x 3.150620 0.000000 0.024850 
#    y 0.000000 2.895840 0.000000 
#    z 0.024850 0.000000 3.299640 
# 
# 
# High freq. dielectric constant tensor:
#      x y z
#    x 1.630490 0.000000 0.010730 
#    y 0.000000 1.595090 0.000000 
#    z 0.010730 0.000000 1.652090 
# 
# From -- ./inp_files/111202.got.cif
#   From: 2010.06.25/outbox.cif.g09.slc.cpg/sg12_56_cif.got.tgz:111202.got - 2010.06.28 00:19:55.
