data_PCOD8079739
_publ_section_title
;
Structure prediction by ZEFSAII (Michael W. Deem and Ramdas Pophale) SiO2 
 PCOD8079739
Probable space group: C 2/M
;
_chemical_formula_sum "Si O2"
_cell_formula_units_Z 48
_cell_length_a 24.663125
_cell_length_b 16.901816
_cell_length_c 18.008048
_cell_angle_alpha 90.000000
_cell_angle_beta 20.206397
_cell_angle_gamma 90.000000
_cell_volume 2592.830885
_symmetry_space_group_name_H-M "C 2/M"
_symmetry_group_IT_number 12
_symmetry_cell_setting 'monoclinic'
loop_
_space_group_symop_operation_xyz
x,y,z
-x,y,-z
-x,-y,-z
x,-y,z
1/2+x,1/2+y,z
1/2-x,1/2+y,-z
1/2-x,1/2-y,-z
1/2+x,1/2-y,z
loop_
_atom_site_type_symbol
_atom_site_label
_atom_site_fract_x
_atom_site_fract_y
_atom_site_fract_z
Si Si1 0.735876 0.909515 0.174870
Si Si2 0.934191 0.841669 0.262451
Si Si3 0.259820 0.243671 0.603613
Si Si4 0.000000 0.637158 0.000000
Si Si5 0.036705 0.500000 0.054418
Si Si6 0.448835 0.126958 0.449634
Si Si7 0.290447 0.500000 0.476911
Si Si8 0.539947 0.000000 0.686245
O O1 0.666602 0.919505 0.346572
O O2 0.615270 0.862539 0.276643
O O3 0.771444 0.000000 0.101465
O O4 0.881921 0.849479 0.990499
O O5 0.842220 0.826100 0.303637
O O6 0.888912 0.773271 0.378390
O O7 0.893532 0.923094 0.355139
O O8 0.363357 0.209342 0.538285
O O9 0.137560 0.310307 0.787185
O O10 0.911432 0.581595 0.052410
O O11 0.847335 0.500000 0.285354
O O12 0.077805 0.500000 0.089880
O O13 0.486911 0.078375 0.326514
O O14 0.218393 0.500000 0.486097
#
# Coordination Sequence:
#
# PCOD8079739 Si02
#       8
#     8   8   8   4   4   8   4   4
#     4  11  22  37  59  83 111 150 191 231 275 340
#     4  11  22  36  58  88 114 144 190 233 281 335
#     4  11  22  36  57  86 118 144 183 238 287 329
#     4  11  20  36  56  87 116 150 182 235 280 334
#     4   9  20  34  59  85 110 152 193 223 280 329
#     4  11  21  38  57  80 117 150 187 228 285 335
#     4  10  17  36  56  81 111 141 183 236 264 334
#     4  10  17  35  59  82 109 151 186 232 272 338
#
# _framework density 18.512584
#
# number of rings (size 3 to 8) (size 9 to 14) (size 15 to 20)
#    0.500    0.833    5.833    1.500    2.333    0.667 
#    0.000    1.667    0.000    0.000    0.000    1.167 
#    0.000    0.000    0.000    0.000    0.000    0.000 
#
# Total GULP energy -297367.184970 kJ/mol
# GULP energy per Si atom -12390.299374 kJ/mol
# Density = 1.847045 g / cm^3
# Si number density = 18.512584 Si / 1000 Ang^3
#
#
#
# Elastic Constant Matrix: (Units=GPa)
#
#
# Indices 1 2 3 4 5 6 
#
# 1 88.9319 28.8803 29.4572 0.0003 0.6421 -0.0004
# 2 28.8803 87.1293 25.6654 0.0008 -8.0331 0.0002
# 3 29.4572 25.6654 82.9083 0.0013 -7.1562 0.0004
# 4 0.0003 0.0008 0.0013 23.6926 0.0006 3.5671
# 5 0.6421 -8.0331 -7.1562 0.0006 29.4159 -0.0002
# 6 -0.0004 0.0002 0.0004 3.5671 -0.0002 24.9717
#
#
#
# Elastic Compliance Matrix: (Units=1/GPa)
#
#
# Indices 1 2 3 4 5 6 
#
# 1 0.013741 -0.003594 -0.003963 0.000000 -0.002246 0.000000
# 2 -0.003594 0.013759 -0.002708 0.000000 0.003177 0.000000
# 3 -0.003963 -0.002708 0.014557 -0.000001 0.002888 0.000000
# 4 0.000000 0.000000 -0.000001 0.043135 -0.000001 -0.006162
# 5 -0.002246 0.003177 0.002888 -0.000001 0.035615 0.000000
# 6 0.000000 0.000000 0.000000 -0.006162 0.000000 0.040925
#
#
# Mechanical properties :
#
#
# Convention : Reuss Voigt Hill
#
# Bulk Modulus (GPa) = 46.45518 47.44171 46.94844
# Shear Modulus (GPa) = 26.39376 27.28047 26.83712
#
# Velocity S-wave (km/s) = 3.77997 3.84294 3.81158
# Velocity P-wave (km/s) = 6.64825 6.73597 6.69225
#
# Compressibility (1/GPa) = 0.02152613
#
# Stress axis : x y z
#
# Youngs Moduli (GPa) = 72.77637 72.67873 68.69399
#
# Poissons Ratio (x) = 0.26122 0.27225
# Poissons Ratio (y) = 0.26157 0.18603
# Poissons Ratio (z) = 0.28843 0.19682
#
# Static dielectric constant tensor:
#      x y z
#    x 3.329280 0.000000 0.115870 
#    y 0.000000 3.321790 0.000000 
#    z 0.115870 0.000000 3.306130 
# 
# 
# High freq. dielectric constant tensor:
#      x y z
#    x 1.707350 0.000000 0.016810 
#    y 0.000000 1.717650 0.000000 
#    z 0.016810 0.000000 1.702990 
# 
# From -- ./inp_files/290557.got.cif
#   From: 2010.06.25/outbox.cif.g09.slc.cpg/sg12_146_cif.got.tgz:290557.got - 2010.06.28 00:19:55.
