data_PCOD8079390
_publ_section_title
;
Structure prediction by ZEFSAII (Michael W. Deem and Ramdas Pophale) SiO2 
 PCOD8079390
Probable space group: C 2/M
;
_chemical_formula_sum "Si O2"
_cell_formula_units_Z 36
_cell_length_a 22.069197
_cell_length_b 7.475776
_cell_length_c 22.536851
_cell_angle_alpha 90.000000
_cell_angle_beta 146.048854
_cell_angle_gamma 90.000000
_cell_volume 2076.577711
_symmetry_space_group_name_H-M "C 2/M"
_symmetry_group_IT_number 12
_symmetry_cell_setting 'monoclinic'
loop_
_space_group_symop_operation_xyz
x,y,z
-x,y,-z
-x,-y,-z
x,-y,z
1/2+x,1/2+y,z
1/2-x,1/2+y,-z
1/2-x,1/2-y,-z
1/2+x,1/2-y,z
loop_
_atom_site_type_symbol
_atom_site_label
_atom_site_fract_x
_atom_site_fract_y
_atom_site_fract_z
Si Si1 0.282837 0.000000 0.735028
Si Si2 0.386755 0.206234 0.380040
Si Si3 0.327936 0.204081 0.201434
Si Si4 0.124738 0.794812 0.885918
Si Si5 0.339801 0.000000 0.913541
Si Si6 0.997096 0.500000 0.141154
O O1 0.209072 0.176578 0.669498
O O2 0.348749 0.000000 0.850253
O O3 0.371813 0.000000 0.754868
O O4 0.500000 0.267650 0.500000
O O5 0.395611 0.240627 0.316524
O O6 0.360959 0.000000 0.373787
O O7 0.401683 0.254366 0.204732
O O8 0.220985 0.323723 0.112709
O O9 0.288629 0.000000 0.166076
O O10 0.043971 0.676612 0.859133
O O11 0.100766 0.000000 0.881843
O O12 0.250000 0.750000 0.000000
O O13 0.455959 0.000000 0.039575
#
# Coordination Sequence:
#
# PCOD8079390 Si02
#       6
#     4   8   8   8   4   4
#     4  10  22  36  52  80 112 139 172 210 268 326
#     4   9  19  36  60  84 100 131 173 227 271 308
#     4  10  17  30  53  81 104 128 177 224 257 299
#     4  12  20  32  51  76 106 141 182 217 248 299
#     4  10  19  33  51  74 109 143 173 213 253 307
#     4  12  23  33  51  76 114 149 172 210 260 310
#
# _framework density 17.336217000000001
#
# number of rings (size 3 to 8) (size 9 to 14) (size 15 to 20)
#    0.000    1.556    5.556    0.667    0.000    0.889 
#    0.000    0.000    0.000    8.000    0.000    0.000 
#    0.000    0.000    0.000    0.000    0.000    0.000 
#
# Total GULP energy -223193.028299 kJ/mol
# GULP energy per Si atom -12399.612683 kJ/mol
# Density = 1.729676 g / cm^3
# Si number density = 17.336217 Si / 1000 Ang^3
#
#
#
# Elastic Constant Matrix: (Units=GPa)
#
#
# Indices 1 2 3 4 5 6 
#
# 1 106.8234 54.5508 57.1581 -0.0001 17.8419 -0.0001
# 2 54.5508 143.0801 43.6412 -0.0003 12.5362 -0.0006
# 3 57.1581 43.6412 95.1693 0.0000 4.8006 -0.0001
# 4 -0.0001 -0.0003 0.0000 19.6038 0.0000 -2.8178
# 5 17.8419 12.5362 4.8006 0.0000 21.2331 0.0000
# 6 -0.0001 -0.0006 -0.0001 -2.8178 0.0000 23.5453
#
#
#
# Elastic Compliance Matrix: (Units=1/GPa)
#
#
# Indices 1 2 3 4 5 6 
#
# 1 0.017210 -0.003060 -0.008391 0.000000 -0.010758 0.000000
# 2 -0.003060 0.009020 -0.002185 0.000000 -0.002261 0.000000
# 3 -0.008391 -0.002185 0.016314 0.000000 0.004652 0.000000
# 4 0.000000 0.000000 0.000000 0.051903 0.000000 0.006211
# 5 -0.010758 -0.002261 0.004652 0.000000 0.056419 0.000000
# 6 0.000000 0.000000 0.000000 0.006211 0.000000 0.043215
#
#
# Mechanical properties :
#
#
# Convention : Reuss Voigt Hill
#
# Bulk Modulus (GPa) = 65.46887 72.86369 69.16628
# Shear Modulus (GPa) = 22.08067 25.52461 23.80264
#
# Velocity S-wave (km/s) = 3.57273 3.84126 3.70942
# Velocity P-wave (km/s) = 7.40712 7.86096 7.63741
#
# Compressibility (1/GPa) = 0.01527444
#
# Stress axis : x y z
#
# Youngs Moduli (GPa) = 58.10541 110.86433 61.29700
#
# Poissons Ratio (x) = 0.33922 0.51431
# Poissons Ratio (y) = 0.17779 0.13391
# Poissons Ratio (z) = 0.48754 0.24219
#
# Static dielectric constant tensor:
#      x y z
#    x 3.162340 0.000000 -0.322080 
#    y 0.000000 3.438500 0.000000 
#    z -0.322080 0.000000 3.127340 
# 
# 
# High freq. dielectric constant tensor:
#      x y z
#    x 1.652950 0.000000 -0.024790 
#    y 0.000000 1.690700 0.000000 
#    z -0.024790 0.000000 1.647210 
# 
# From -- ./inp_files/161976.got.cif
#   From: 2010.06.25/outbox.cif.g09.slc.cpg/sg12_81_cif.got.tgz:161976.got - 2010.06.28 00:19:55.
