data_PCOD8079666
_publ_section_title
;
Structure prediction by ZEFSAII (Michael W. Deem and Ramdas Pophale) SiO2 
 PCOD8079666
Probable space group: C 2/M
;
_chemical_formula_sum "Si O2"
_cell_formula_units_Z 52
_cell_length_a 15.429277
_cell_length_b 21.528512
_cell_length_c 11.074328
_cell_angle_alpha 90.000000
_cell_angle_beta 51.163783
_cell_angle_gamma 90.000000
_cell_volume 2865.378132
_symmetry_space_group_name_H-M "C 2/M"
_symmetry_group_IT_number 12
_symmetry_cell_setting 'monoclinic'
loop_
_space_group_symop_operation_xyz
x,y,z
-x,y,-z
-x,-y,-z
x,-y,z
1/2+x,1/2+y,z
1/2-x,1/2+y,-z
1/2-x,1/2-y,-z
1/2+x,1/2-y,z
loop_
_atom_site_type_symbol
_atom_site_label
_atom_site_fract_x
_atom_site_fract_y
_atom_site_fract_z
Si Si1 0.021877 0.780705 0.135803
Si Si2 0.157926 0.000000 0.292389
Si Si3 0.921274 0.000000 0.368745
Si Si4 0.256444 0.339448 0.131386
Si Si5 0.405680 0.596066 0.169969
Si Si6 0.500000 0.830410 0.000000
Si Si7 0.230308 0.626724 0.877410
Si Si8 0.101300 0.768120 0.322936
O O1 0.937398 0.833937 0.172578
O O2 0.030982 0.782108 0.267775
O O3 0.142813 0.790714 0.970183
O O4 0.975033 0.714314 0.135708
O O5 0.150962 0.000000 0.445350
O O6 0.222931 0.939864 0.195013
O O7 0.045352 0.000000 0.312108
O O8 0.893616 0.941377 0.305777
O O9 0.291097 0.396535 0.191589
O O10 0.154009 0.300903 0.277273
O O11 0.225990 0.365438 0.025955
O O12 0.500000 0.565368 0.000000
O O13 0.393839 0.873056 0.067115
O O14 0.304240 0.679186 0.745725
O O15 0.000000 0.774316 0.500000
#
# Coordination Sequence:
#
# PCOD8079666 Si02
#       8
#     8   4   4   8   8   4   8   8
#     4  10  17  33  57  87 113 153 191 239 285 350
#     4  11  26  41  56  87 118 154 198 236 296 345
#     4  11  23  40  58  83 128 157 181 244 300 347
#     4  10  18  37  59  86 118 147 200 237 288 347
#     4  10  19  33  60  85 115 152 202 238 283 347
#     4  12  18  39  66  81 114 154 208 244 284 336
#     4  11  23  39  62  85 114 164 199 242 284 346
#     4  11  21  34  58  92 126 151 186 236 311 353
#
# _framework density 18.147690999999998
#
# number of rings (size 3 to 8) (size 9 to 14) (size 15 to 20)
#    0.000    1.385    5.385    3.923    4.308    0.923 
#    2.769    1.538    0.000    0.000    0.000    2.154 
#    0.000    0.000    0.000    0.000    0.000    0.000 
#
# Total GULP energy -322117.673407 kJ/mol
# GULP energy per Si atom -12389.141285 kJ/mol
# Density = 1.810639 g / cm^3
# Si number density = 18.147691 Si / 1000 Ang^3
#
#
#
# Elastic Constant Matrix: (Units=GPa)
#
#
# Indices 1 2 3 4 5 6 
#
# 1 123.0093 38.5917 66.2555 0.0000 -1.5104 0.0000
# 2 38.5917 89.9024 47.7141 0.0000 -6.6876 0.0000
# 3 66.2555 47.7141 72.3830 0.0000 10.1239 0.0000
# 4 0.0000 0.0000 0.0000 22.6209 0.0000 5.2172
# 5 -1.5104 -6.6876 10.1239 0.0000 21.0871 0.0000
# 6 0.0000 0.0000 0.0000 5.2172 0.0000 31.0820
#
#
#
# Elastic Compliance Matrix: (Units=1/GPa)
#
#
# Indices 1 2 3 4 5 6 
#
# 1 0.018747 0.004709 -0.022148 0.000000 0.013470 0.000000
# 2 0.004709 0.021436 -0.020839 0.000000 0.017140 0.000000
# 3 -0.022148 -0.020839 0.052497 0.000000 -0.033399 0.000000
# 4 0.000000 0.000000 0.000000 0.045987 0.000000 -0.007719
# 5 0.013470 0.017140 -0.033399 0.000000 0.069858 0.000000
# 6 0.000000 0.000000 0.000000 -0.007719 0.000000 0.033469
#
#
# Mechanical properties :
#
#
# Convention : Reuss Voigt Hill
#
# Bulk Modulus (GPa) = 62.01588 65.60192 63.80890
# Shear Modulus (GPa) = 15.43576 23.80688 19.62132
#
# Velocity S-wave (km/s) = 2.91961 3.62586 3.29173
# Velocity P-wave (km/s) = 6.75370 7.33189 7.04873
#
# Compressibility (1/GPa) = 0.01612490
#
# Stress axis : x y z
#
# Youngs Moduli (GPa) = 53.34219 46.64972 19.04887
#
# Poissons Ratio (x) = -0.21969 0.42190
# Poissons Ratio (y) = -0.25121 0.39695
# Poissons Ratio (z) = 1.18143 0.97212
#
# Static dielectric constant tensor:
#      x y z
#    x 3.020870 0.000000 -0.813410 
#    y 0.000000 3.337040 0.000000 
#    z -0.813410 0.000000 2.174420 
# 
# 
# High freq. dielectric constant tensor:
#      x y z
#    x 1.721980 0.000000 0.018900 
#    y 0.000000 1.690430 0.000000 
#    z 0.018900 0.000000 1.674310 
# 
# From -- ./inp_files/147575.got.cif
#   From: 2010.06.25/outbox.cif.g09.slc.cpg/sg12_74_cif.got.tgz:147575.got - 2010.06.28 00:19:55.
