data_PCOD8079695
_publ_section_title
;
Structure prediction by ZEFSAII (Michael W. Deem and Ramdas Pophale) SiO2 
 PCOD8079695
Probable space group: C 2/M
;
_chemical_formula_sum "Si O2"
_cell_formula_units_Z 40
_cell_length_a 29.647902
_cell_length_b 18.024469
_cell_length_c 9.602346
_cell_angle_alpha 90.000000
_cell_angle_beta 25.751243
_cell_angle_gamma 90.000000
_cell_volume 2229.402018
_symmetry_space_group_name_H-M "C 2/M"
_symmetry_group_IT_number 12
_symmetry_cell_setting 'monoclinic'
loop_
_space_group_symop_operation_xyz
x,y,z
-x,y,-z
-x,-y,-z
x,-y,z
1/2+x,1/2+y,z
1/2-x,1/2+y,-z
1/2-x,1/2-y,-z
1/2+x,1/2-y,z
loop_
_atom_site_type_symbol
_atom_site_label
_atom_site_fract_x
_atom_site_fract_y
_atom_site_fract_z
Si Si1 0.229642 0.206600 0.199282
Si Si2 0.915819 0.761506 0.856973
Si Si3 0.452675 0.806691 0.275712
Si Si4 0.608291 0.579592 0.122708
Si Si5 0.715600 0.915380 0.138193
O O1 0.115617 0.232507 0.565400
O O2 0.250000 0.250000 0.000000
O O3 0.310441 0.224895 0.095824
O O4 0.238994 0.119851 0.132059
O O5 0.893658 0.846965 0.968631
O O6 0.000000 0.761625 0.500000
O O7 0.953811 0.713979 0.881259
O O8 0.387666 0.873220 0.524664
O O9 0.500000 0.836006 0.000000
O O10 0.500000 0.572195 0.500000
O O11 0.628582 0.500000 0.987294
O O12 0.697915 0.593057 0.985331
O O13 0.686239 0.000000 0.188216
#
# Coordination Sequence:
#
# PCOD8079695 Si02
#       5
#     8   8   8   8   8
#     4  10  17  34  54  81 106 140 191 225 266 325
#     4  11  17  32  59  78 105 146 186 235 266 318
#     4  11  23  36  53  84 117 148 182 225 280 333
#     4   9  16  27  50  82 105 131 179 233 273 306
#     4  10  19  35  58  82 111 143 185 233 272 323
#
# _framework density 17.942029999999999
#
# number of rings (size 3 to 8) (size 9 to 14) (size 15 to 20)
#    0.000    1.800    8.000    1.200    0.000    1.200 
#    0.000    2.000    0.000    2.400    0.000    0.000 
#    0.000    0.000    0.000    0.000    0.000    0.000 
#
# Total GULP energy -247818.423595 kJ/mol
# GULP energy per Si atom -12390.921180 kJ/mol
# Density = 1.790119 g / cm^3
# Si number density = 17.942030 Si / 1000 Ang^3
#
#
#
# Elastic Constant Matrix: (Units=GPa)
#
#
# Indices 1 2 3 4 5 6 
#
# 1 88.0912 33.4450 18.2724 0.0000 -27.9132 0.0000
# 2 33.4450 135.0567 19.5647 0.0000 -6.1593 0.0000
# 3 18.2724 19.5647 38.1494 0.0000 -11.1702 0.0000
# 4 0.0000 0.0000 0.0000 15.4006 0.0000 -8.4914
# 5 -27.9132 -6.1593 -11.1702 0.0000 27.7138 0.0000
# 6 0.0000 0.0000 0.0000 -8.4914 0.0000 23.1546
#
#
#
# Elastic Compliance Matrix: (Units=1/GPa)
#
#
# Indices 1 2 3 4 5 6 
#
# 1 0.018509 -0.003505 -0.002083 0.000000 0.017024 0.000000
# 2 -0.003505 0.008663 -0.003666 0.000000 -0.003083 0.000000
# 3 -0.002083 -0.003666 0.032016 0.000000 0.009991 0.000000
# 4 0.000000 0.000000 0.000000 0.081390 0.000000 0.029848
# 5 0.017024 -0.003083 0.009991 0.000000 0.056571 0.000000
# 6 0.000000 0.000000 0.000000 0.029848 0.000000 0.054134
#
#
# Mechanical properties :
#
#
# Convention : Reuss Voigt Hill
#
# Bulk Modulus (GPa) = 24.58306 44.87350 34.72828
# Shear Modulus (GPa) = 17.64588 25.92145 21.78367
#
# Velocity S-wave (km/s) = 3.13947 3.80509 3.48819
# Velocity P-wave (km/s) = 5.18390 6.66104 5.96835
#
# Compressibility (1/GPa) = 0.04067842
#
# Stress axis : x y z
#
# Youngs Moduli (GPa) = 54.02769 115.43483 31.23409
#
# Poissons Ratio (x) = 0.40465 0.06506
# Poissons Ratio (y) = 0.18939 0.11452
# Poissons Ratio (z) = 0.11254 0.42324
#
# Static dielectric constant tensor:
#      x y z
#    x 3.200410 0.000000 -0.233940 
#    y 0.000000 3.949500 0.000000 
#    z -0.233940 0.000000 3.177760 
# 
# 
# High freq. dielectric constant tensor:
#      x y z
#    x 1.674820 0.000000 -0.039350 
#    y 0.000000 1.698870 0.000000 
#    z -0.039350 0.000000 1.670790 
# 
# From -- ./inp_files/60843.got.cif
#   From: 2010.06.25/outbox.cif.g09.slc.cpg/sg12_31_cif.got.tgz:60843.got - 2010.06.28 00:19:55.
