data_PCOD8079693
_publ_section_title
;
Structure prediction by ZEFSAII (Michael W. Deem and Ramdas Pophale) SiO2 
 PCOD8079693
Probable space group: C 2/M
;
_chemical_formula_sum "Si O2"
_cell_formula_units_Z 56
_cell_length_a 19.659800
_cell_length_b 19.872283
_cell_length_c 10.434250
_cell_angle_alpha 90.000000
_cell_angle_beta 127.707474
_cell_angle_gamma 90.000000
_cell_volume 3225.102345
_symmetry_space_group_name_H-M "C 2/M"
_symmetry_group_IT_number 12
_symmetry_cell_setting 'monoclinic'
loop_
_space_group_symop_operation_xyz
x,y,z
-x,y,-z
-x,-y,-z
x,-y,z
1/2+x,1/2+y,z
1/2-x,1/2+y,-z
1/2-x,1/2-y,-z
1/2+x,1/2-y,z
loop_
_atom_site_type_symbol
_atom_site_label
_atom_site_fract_x
_atom_site_fract_y
_atom_site_fract_z
Si Si1 0.242147 0.621807 0.292948
Si Si2 0.807441 0.312184 0.529106
Si Si3 0.501400 0.205139 0.154359
Si Si4 0.771446 0.266710 0.221745
Si Si5 0.906416 0.077217 0.339093
Si Si6 0.624828 0.698942 0.866663
Si Si7 0.427349 0.072669 0.024104
O O1 0.229453 0.623418 0.433839
O O2 0.229738 0.698100 0.228134
O O3 0.335273 0.591761 0.366704
O O4 0.167705 0.576961 0.145142
O O5 0.750000 0.250000 0.500000
O O6 0.801779 0.318626 0.368142
O O7 0.904062 0.299176 0.682438
O O8 0.460297 0.271755 0.166999
O O9 0.447972 0.137673 0.136352
O O10 0.500000 0.212566 0.000000
O O11 0.852781 0.246663 0.228324
O O12 0.701741 0.305375 0.056749
O O13 0.890413 0.122670 0.196031
O O14 0.000000 0.095461 0.500000
O O15 0.901229 0.000000 0.289375
O O16 0.431869 0.000000 0.102198
O O17 0.500000 0.073611 0.000000
#
# Coordination Sequence:
#
# PCOD8079693 Si02
#       7
#     8   8   8   8   8   8   8
#     4  10  17  34  54  80 110 142 180 228 285 328
#     4  10  19  30  51  78 114 140 179 229 279 330
#     4  11  19  33  53  85 114 145 185 233 278 330
#     4   9  19  33  50  81 112 140 182 228 270 333
#     4  10  23  39  57  81 107 144 195 239 283 334
#     4  10  20  34  56  76 113 146 186 233 281 323
#     4  10  18  30  50  80 113 143 177 219 276 335
#
# _framework density 17.363789000000001
#
# number of rings (size 3 to 8) (size 9 to 14) (size 15 to 20)
#    0.000    2.000    4.286    1.286    6.000    0.000 
#    0.000    0.000    0.000    3.000    0.000    1.000 
#    0.000    0.000    0.000    0.000    0.000    0.000 
#
# Total GULP energy -346998.942640 kJ/mol
# GULP energy per Si atom -12392.819380 kJ/mol
# Density = 1.732427 g / cm^3
# Si number density = 17.363789 Si / 1000 Ang^3
#
#
#
# Elastic Constant Matrix: (Units=GPa)
#
#
# Indices 1 2 3 4 5 6 
#
# 1 94.2851 36.5465 55.6218 0.0000 10.2031 0.0000
# 2 36.5465 89.9357 49.8106 0.0000 -0.0055 0.0000
# 3 55.6218 49.8106 116.8838 0.0000 2.4541 0.0000
# 4 0.0000 0.0000 0.0000 23.8000 0.0000 2.2424
# 5 10.2031 -0.0055 2.4541 0.0000 34.6269 0.0000
# 6 0.0000 0.0000 0.0000 2.2424 0.0000 36.5087
#
#
#
# Elastic Compliance Matrix: (Units=1/GPa)
#
#
# Indices 1 2 3 4 5 6 
#
# 1 0.015886 -0.003034 -0.006177 0.000000 -0.004244 0.000000
# 2 -0.003034 0.015141 -0.005035 0.000000 0.001253 0.000000
# 3 -0.006177 -0.005035 0.013623 0.000000 0.000854 0.000000
# 4 0.000000 0.000000 0.000000 0.042261 0.000000 -0.002596
# 5 -0.004244 0.001253 0.000854 0.000000 0.030069 0.000000
# 6 0.000000 0.000000 0.000000 -0.002596 0.000000 0.027550
#
#
# Mechanical properties :
#
#
# Convention : Reuss Voigt Hill
#
# Bulk Modulus (GPa) = 61.89481 65.00693 63.45087
# Shear Modulus (GPa) = 28.02565 29.59550 28.81058
#
# Velocity S-wave (km/s) = 4.02186 4.13296 4.07779
# Velocity P-wave (km/s) = 7.56904 7.76496 7.66763
#
# Compressibility (1/GPa) = 0.01615644
#
# Stress axis : x y z
#
# Youngs Moduli (GPa) = 62.94955 66.04783 73.40668
#
# Poissons Ratio (x) = 0.20041 0.45346
# Poissons Ratio (y) = 0.19101 0.36957
# Poissons Ratio (z) = 0.38886 0.33252
#
# Static dielectric constant tensor:
#      x y z
#    x 3.450370 0.000000 -0.094970 
#    y 0.000000 3.366910 0.000000 
#    z -0.094970 0.000000 3.369740 
# 
# 
# High freq. dielectric constant tensor:
#      x y z
#    x 1.675450 0.000000 0.019830 
#    y 0.000000 1.651350 0.000000 
#    z 0.019830 0.000000 1.660080 
# 
# From -- ./inp_files/169272.got.cif
#   From: 2010.06.25/outbox.cif.g09.slc.cpg/sg12_85_cif.got.tgz:169272.got - 2010.06.28 00:19:55.
