data_PCOD8079219
_publ_section_title
;
Structure prediction by ZEFSAII (Michael W. Deem and Ramdas Pophale) SiO2 
 PCOD8079219
Probable space group: C 2/M
;
_chemical_formula_sum "Si O2"
_cell_formula_units_Z 64
_cell_length_a 30.090384
_cell_length_b 8.791356
_cell_length_c 15.153250
_cell_angle_alpha 90.000000
_cell_angle_beta 78.865857
_cell_angle_gamma 90.000000
_cell_volume 3933.118966
_symmetry_space_group_name_H-M "C 2/M"
_symmetry_group_IT_number 12
_symmetry_cell_setting 'monoclinic'
loop_
_space_group_symop_operation_xyz
x,y,z
-x,y,-z
-x,-y,-z
x,-y,z
1/2+x,1/2+y,z
1/2-x,1/2+y,-z
1/2-x,1/2-y,-z
1/2+x,1/2-y,z
loop_
_atom_site_type_symbol
_atom_site_label
_atom_site_fract_x
_atom_site_fract_y
_atom_site_fract_z
Si Si1 0.468309 0.319321 0.386283
Si Si2 0.038254 0.819502 0.807004
Si Si3 0.304084 0.323360 0.072366
Si Si4 0.395486 0.178696 0.082302
Si Si5 0.619452 0.321492 0.239431
Si Si6 0.787532 0.823702 0.877100
Si Si7 0.443034 0.820723 0.883436
Si Si8 0.063419 0.179502 0.420757
O O1 0.468471 0.500000 0.381988
O O2 0.454126 0.256719 0.295853
O O3 0.434424 0.261317 0.478124
O O4 0.518495 0.257367 0.389606
O O5 0.080519 0.762440 0.846454
O O6 0.991870 0.756407 0.864809
O O7 0.035846 0.000000 0.810616
O O8 0.312806 0.500000 0.086383
O O9 0.343150 0.227048 0.103905
O O10 0.255968 0.275483 0.132979
O O11 0.304117 0.282964 0.968889
O O12 0.399576 0.000000 0.094716
O O13 0.418182 0.231345 0.982239
O O14 0.611135 0.500000 0.224974
O O15 0.671880 0.279333 0.204633
O O16 0.587064 0.230397 0.186965
O O17 0.607004 0.274400 0.345157
O O18 0.774173 0.000000 0.875619
O O19 0.449791 0.000000 0.877567
O O20 0.058908 0.000000 0.426695
#
# Coordination Sequence:
#
# PCOD8079219 Si02
#       8
#     8   8   8   8   8   8   8   8
#     4   8  14  25  44  70  95 120 153 196 236 273
#     4  11  21  33  50  69  92 126 167 201 231 274
#     4  10  19  32  50  70  93 123 159 196 233 279
#     4  11  23  36  48  65  94 129 163 199 239 277
#     4  10  17  29  50  73  96 126 161 193 228 277
#     4   9  18  30  47  71  98 123 153 193 236 280
#     4  11  22  33  45  65  97 131 162 195 233 274
#     4   8  13  24  45  71  96 120 152 193 236 275
#
# _framework density 16.272074
#
# number of rings (size 3 to 8) (size 9 to 14) (size 15 to 20)
#    0.000    2.250    2.500    2.625    0.000    4.000 
#    0.000    0.000    0.000    2.250    0.000    0.875 
#    0.000    0.000    0.000    0.000    0.000    0.000 
#
# Total GULP energy -396693.075044 kJ/mol
# GULP energy per Si atom -12396.658595 kJ/mol
# Density = 1.623504 g / cm^3
# Si number density = 16.272074 Si / 1000 Ang^3
#
#
#
# Elastic Constant Matrix: (Units=GPa)
#
#
# Indices 1 2 3 4 5 6 
#
# 1 98.0893 24.4166 55.8329 0.0000 -9.8936 0.0000
# 2 24.4166 37.0140 20.6559 0.0000 -0.9388 0.0000
# 3 55.8329 20.6559 99.1316 0.0000 -13.4955 0.0000
# 4 0.0000 0.0000 0.0000 11.0394 0.0000 -0.4238
# 5 -9.8936 -0.9388 -13.4955 0.0000 23.1112 0.0000
# 6 0.0000 0.0000 0.0000 -0.4238 0.0000 27.2734
#
#
#
# Elastic Compliance Matrix: (Units=1/GPa)
#
#
# Indices 1 2 3 4 5 6 
#
# 1 0.016336 -0.006518 -0.007525 0.000000 0.002334 0.000000
# 2 -0.006518 0.033327 -0.003769 0.000000 -0.003637 0.000000
# 3 -0.007525 -0.003769 0.015917 0.000000 0.005920 0.000000
# 4 0.000000 0.000000 0.000000 0.090639 0.000000 0.001409
# 5 0.002334 -0.003637 0.005920 0.000000 0.047578 0.000000
# 6 0.000000 0.000000 0.000000 0.001409 0.000000 0.036688
#
#
# Mechanical properties :
#
#
# Convention : Reuss Voigt Hill
#
# Bulk Modulus (GPa) = 33.38025 48.44952 40.91489
# Shear Modulus (GPa) = 17.47692 21.17345 19.32518
#
# Velocity S-wave (km/s) = 3.28082 3.61115 3.44994
# Velocity P-wave (km/s) = 5.90847 6.87215 6.40845
#
# Compressibility (1/GPa) = 0.02995784
#
# Stress axis : x y z
#
# Youngs Moduli (GPa) = 61.21547 30.00565 62.82630
#
# Poissons Ratio (x) = 0.19556 0.47275
# Poissons Ratio (y) = 0.39898 0.23677
# Poissons Ratio (z) = 0.46063 0.11308
#
# Static dielectric constant tensor:
#      x y z
#    x 3.002480 0.000000 -0.168450 
#    y 0.000000 2.909140 0.000000 
#    z -0.168450 0.000000 3.391720 
# 
# 
# High freq. dielectric constant tensor:
#      x y z
#    x 1.608640 0.000000 -0.012930 
#    y 0.000000 1.612150 0.000000 
#    z -0.012930 0.000000 1.618110 
# 
# From -- ./inp_files/248295.got.cif
#   From: 2010.06.25/outbox.cif.g09.slc.cpg/sg12_125_cif.got.tgz:248295.got - 2010.06.28 00:19:55.
