data_PCOD8079540
_publ_section_title
;
Structure prediction by ZEFSAII (Michael W. Deem and Ramdas Pophale) SiO2 
 PCOD8079540
Probable space group: C 2/M
;
_chemical_formula_sum "Si O2"
_cell_formula_units_Z 52
_cell_length_a 12.870530
_cell_length_b 23.671941
_cell_length_c 11.778133
_cell_angle_alpha 90.000000
_cell_angle_beta 55.899275
_cell_angle_gamma 90.000000
_cell_volume 2971.426664
_symmetry_space_group_name_H-M "C 2/M"
_symmetry_group_IT_number 12
_symmetry_cell_setting 'monoclinic'
loop_
_space_group_symop_operation_xyz
x,y,z
-x,y,-z
-x,-y,-z
x,-y,z
1/2+x,1/2+y,z
1/2-x,1/2+y,-z
1/2-x,1/2-y,-z
1/2+x,1/2-y,z
loop_
_atom_site_type_symbol
_atom_site_label
_atom_site_fract_x
_atom_site_fract_y
_atom_site_fract_z
Si Si1 0.144936 0.000000 0.042824
Si Si2 0.000000 0.264542 0.500000
Si Si3 0.818723 0.691602 0.439101
Si Si4 0.152571 0.000000 0.784237
Si Si5 0.234412 0.799270 0.254090
Si Si6 0.852856 0.807451 0.088636
Si Si7 0.859239 0.879949 0.867581
Si Si8 0.655983 0.618866 0.690895
O O1 0.187054 0.944137 0.084931
O O2 0.996641 0.000000 0.117792
O O3 0.206207 0.000000 0.879769
O O4 0.949711 0.305040 0.428352
O O5 0.893306 0.223997 0.613827
O O6 0.750000 0.750000 0.500000
O O7 0.834932 0.685689 0.292605
O O8 0.732504 0.640043 0.535039
O O9 0.199986 0.055076 0.688682
O O10 0.288430 0.753684 0.132196
O O11 0.207503 0.857031 0.203988
O O12 0.805995 0.842177 0.226406
O O13 0.814564 0.841809 0.000457
O O14 0.000000 0.798446 0.000000
O O15 0.008283 0.877225 0.758642
#
# Coordination Sequence:
#
# PCOD8079540 Si02
#       8
#     4   4   8   4   8   8   8   8
#     4   9  16  28  47  75 101 137 168 196 259 304
#     4  10  20  32  54  70  98 138 174 208 240 300
#     4  10  19  33  50  71  99 134 169 208 245 297
#     4   9  16  28  51  72 100 135 168 212 246 297
#     4  11  21  33  49  77 106 137 166 202 261 302
#     4  10  19  30  50  75 109 131 162 209 248 303
#     4  10  19  30  49  76 109 135 162 209 255 307
#     4  10  17  32  50  77 103 130 173 209 251 294
#
# _framework density 17.500011000000001
#
# number of rings (size 3 to 8) (size 9 to 14) (size 15 to 20)
#    0.000    2.000    4.615    2.308    2.154    0.000 
#    0.000    0.769    0.000    3.692    0.000    0.538 
#    0.000    0.000    0.000    0.000    0.000    0.000 
#
# Total GULP energy -322323.975797 kJ/mol
# GULP energy per Si atom -12397.075992 kJ/mol
# Density = 1.746018 g / cm^3
# Si number density = 17.500011 Si / 1000 Ang^3
#
#
#
# Elastic Constant Matrix: (Units=GPa)
#
#
# Indices 1 2 3 4 5 6 
#
# 1 88.2081 41.8866 24.6878 0.0000 32.5186 0.0000
# 2 41.8866 135.1173 43.6834 0.0000 20.0329 0.0000
# 3 24.6878 43.6834 58.6887 0.0000 16.5366 0.0000
# 4 0.0000 0.0000 0.0000 28.1860 0.0000 2.2694
# 5 32.5186 20.0329 16.5366 0.0000 25.2879 0.0000
# 6 0.0000 0.0000 0.0000 2.2694 0.0000 21.9498
#
#
#
# Elastic Compliance Matrix: (Units=1/GPa)
#
#
# Indices 1 2 3 4 5 6 
#
# 1 0.022625 -0.003163 0.000403 0.000000 -0.026853 0.000000
# 2 -0.003163 0.010471 -0.006463 0.000000 -0.000001 0.000000
# 3 0.000403 -0.006463 0.024988 0.000000 -0.011739 0.000000
# 4 0.000000 0.000000 0.000000 0.035776 0.000000 -0.003699
# 5 -0.026853 -0.000001 -0.011739 0.000000 0.081753 0.000000
# 6 0.000000 0.000000 0.000000 -0.003699 0.000000 0.045941
#
#
# Mechanical properties :
#
#
# Convention : Reuss Voigt Hill
#
# Bulk Modulus (GPa) = 25.22809 55.83661 40.53235
# Shear Modulus (GPa) = 19.74617 26.53515 23.14066
#
# Velocity S-wave (km/s) = 3.36274 3.89819 3.64032
# Velocity P-wave (km/s) = 5.43366 7.22752 6.39381
#
# Compressibility (1/GPa) = 0.03963835
#
# Stress axis : x y z
#
# Youngs Moduli (GPa) = 44.19793 95.49989 40.01973
#
# Poissons Ratio (x) = 0.30206 -0.01613
# Poissons Ratio (y) = 0.13980 0.25865
# Poissons Ratio (z) = -0.01781 0.61722
#
# Static dielectric constant tensor:
#      x y z
#    x 3.382030 0.000000 0.360650 
#    y 0.000000 3.418390 0.000000 
#    z 0.360650 0.000000 3.265830 
# 
# 
# High freq. dielectric constant tensor:
#      x y z
#    x 1.652750 0.000000 0.022150 
#    y 0.000000 1.667530 0.000000 
#    z 0.022150 0.000000 1.662970 
# 
# From -- ./inp_files/133831.got.cif
#   From: 2010.06.25/outbox.cif.g09.slc.cpg/sg12_67_cif.got.tgz:133831.got - 2010.06.28 00:19:55.
