data_PCOD8079419
_publ_section_title
;
Structure prediction by ZEFSAII (Michael W. Deem and Ramdas Pophale) SiO2 
 PCOD8079419
Probable space group: C 2/M
;
_chemical_formula_sum "Si O2"
_cell_formula_units_Z 56
_cell_length_a 16.066663
_cell_length_b 18.062845
_cell_length_c 12.888508
_cell_angle_alpha 90.000000
_cell_angle_beta 52.825462
_cell_angle_gamma 90.000000
_cell_volume 2980.320734
_symmetry_space_group_name_H-M "C 2/M"
_symmetry_group_IT_number 12
_symmetry_cell_setting 'monoclinic'
loop_
_space_group_symop_operation_xyz
x,y,z
-x,y,-z
-x,-y,-z
x,-y,z
1/2+x,1/2+y,z
1/2-x,1/2+y,-z
1/2-x,1/2-y,-z
1/2+x,1/2-y,z
loop_
_atom_site_type_symbol
_atom_site_label
_atom_site_fract_x
_atom_site_fract_y
_atom_site_fract_z
Si Si1 0.091741 0.579843 0.206035
Si Si2 0.876768 0.582032 0.591174
Si Si3 0.228499 0.781380 0.199181
Si Si4 0.078882 0.188143 0.029961
Si Si5 0.708574 0.583965 0.073554
Si Si6 0.517506 0.229550 0.269912
Si Si7 0.178452 0.267660 0.457833
O O1 0.033891 0.500000 0.248697
O O2 0.158648 0.586991 0.262423
O O3 0.001133 0.641575 0.261472
O O4 0.172357 0.584462 0.051794
O O5 0.852620 0.500000 0.563249
O O6 0.816001 0.644741 0.572412
O O7 0.000000 0.599114 0.500000
O O8 0.337441 0.747768 0.076108
O O9 0.208532 0.865619 0.176904
O O10 0.136205 0.732372 0.220690
O O11 0.219207 0.780590 0.330581
O O12 0.134270 0.117394 0.039755
O O13 0.005029 0.226079 0.172551
O O14 0.000000 0.161041 0.000000
O O15 0.671342 0.500000 0.127034
O O16 0.438115 0.256807 0.418846
O O17 0.250000 0.250000 0.500000
#
# Coordination Sequence:
#
# PCOD8079419 Si02
#       7
#     8   8   8   8   8   8   8
#     4  10  17  30  57  87 109 136 186 239 279 327
#     4  10  18  31  54  81 109 142 183 232 284 336
#     4  11  20  38  57  82 110 151 200 234 276 333
#     4  11  21  35  57  86 119 148 184 238 295 335
#     4  10  20  36  60  84 111 151 195 234 276 338
#     4  11  19  35  57  81 110 151 195 236 273 338
#     4  12  23  34  53  85 119 150 188 237 295 343
#
# _framework density 18.789923999999999
#
# number of rings (size 3 to 8) (size 9 to 14) (size 15 to 20)
#    0.000    1.286    5.714    2.143    0.000    0.286 
#    0.000    0.714    0.000   17.143    0.000    0.000 
#    0.000    0.000    0.000    0.000    0.000    0.000 
#
# Total GULP energy -347042.149239 kJ/mol
# GULP energy per Si atom -12394.362473 kJ/mol
# Density = 1.874716 g / cm^3
# Si number density = 18.789924 Si / 1000 Ang^3
#
#
#
# Elastic Constant Matrix: (Units=GPa)
#
#
# Indices 1 2 3 4 5 6 
#
# 1 63.1163 37.2743 19.7073 0.0000 16.6782 0.0000
# 2 37.2743 139.5632 44.8274 0.0000 13.4105 0.0000
# 3 19.7073 44.8274 116.2953 0.0000 12.2483 0.0000
# 4 0.0000 0.0000 0.0000 24.5494 0.0000 1.9511
# 5 16.6782 13.4105 12.2483 0.0000 29.2017 0.0000
# 6 0.0000 0.0000 0.0000 1.9511 0.0000 20.4166
#
#
#
# Elastic Compliance Matrix: (Units=1/GPa)
#
#
# Indices 1 2 3 4 5 6 
#
# 1 0.021342 -0.004486 -0.000859 0.000000 -0.009769 0.000000
# 2 -0.004486 0.009305 -0.002769 0.000000 -0.000550 0.000000
# 3 -0.000859 -0.002769 0.010071 0.000000 -0.002462 0.000000
# 4 0.000000 0.000000 0.000000 0.041046 0.000000 -0.003923
# 5 -0.009769 -0.000550 -0.002462 0.000000 0.041110 0.000000
# 6 0.000000 0.000000 0.000000 -0.003923 0.000000 0.049355
#
#
# Mechanical properties :
#
#
# Convention : Reuss Voigt Hill
#
# Bulk Modulus (GPa) = 40.82876 58.06587 49.44731
# Shear Modulus (GPa) = 25.42982 29.31124 27.37053
#
# Velocity S-wave (km/s) = 3.68282 3.95390 3.82076
# Velocity P-wave (km/s) = 6.31351 7.19821 6.77032
#
# Compressibility (1/GPa) = 0.02449254
#
# Stress axis : x y z
#
# Youngs Moduli (GPa) = 46.85501 107.46437 99.29587
#
# Poissons Ratio (x) = 0.48204 0.08527
# Poissons Ratio (y) = 0.21017 0.27493
# Poissons Ratio (z) = 0.04024 0.29755
#
# Static dielectric constant tensor:
#      x y z
#    x 3.092320 0.000000 0.000680 
#    y 0.000000 3.641550 0.000000 
#    z 0.000680 0.000000 3.865890 
# 
# 
# High freq. dielectric constant tensor:
#      x y z
#    x 1.685420 0.000000 0.002390 
#    y 0.000000 1.728220 0.000000 
#    z 0.002390 0.000000 1.744280 
# 
# From -- ./inp_files/159174.got.cif
#   From: 2010.06.25/outbox.cif.g09.slc.cpg/sg12_80_cif.got.tgz:159174.got - 2010.06.28 00:19:55.
