data_PCOD8079299
_publ_section_title
;
Structure prediction by ZEFSAII (Michael W. Deem and Ramdas Pophale) SiO2 
 PCOD8079299
Probable space group: C 2/M
;
_chemical_formula_sum "Si O2"
_cell_formula_units_Z 44
_cell_length_a 5.302323
_cell_length_b 26.640585
_cell_length_c 18.440592
_cell_angle_alpha 90.000000
_cell_angle_beta 74.050606
_cell_angle_gamma 90.000000
_cell_volume 2504.587691
_symmetry_space_group_name_H-M "C 2/M"
_symmetry_group_IT_number 12
_symmetry_cell_setting 'monoclinic'
loop_
_space_group_symop_operation_xyz
x,y,z
-x,y,-z
-x,-y,-z
x,-y,z
1/2+x,1/2+y,z
1/2-x,1/2+y,-z
1/2-x,1/2-y,-z
1/2+x,1/2-y,z
loop_
_atom_site_type_symbol
_atom_site_label
_atom_site_fract_x
_atom_site_fract_y
_atom_site_fract_z
Si Si1 0.065191 0.134193 0.075614
Si Si2 0.209902 0.559881 0.541862
Si Si3 0.500000 0.790512 0.000000
Si Si4 0.044633 0.440556 0.711524
Si Si5 0.540715 0.440577 0.201558
Si Si6 0.419783 0.730643 0.142239
O O1 0.113239 0.084788 0.119414
O O2 0.852092 0.171741 0.131215
O O3 0.000000 0.115391 0.000000
O O4 0.309261 0.170835 0.054923
O O5 0.500000 0.580063 0.500000
O O6 0.208977 0.500000 0.542026
O O7 0.128864 0.581299 0.626888
O O8 0.000000 0.580187 0.500000
O O9 0.595598 0.754721 0.059621
O O10 0.057149 0.500000 0.707535
O O11 0.249928 0.421378 0.755665
O O12 0.749640 0.423099 0.752152
O O13 0.557198 0.500000 0.188837
O O14 0.647152 0.740806 0.185170
#
# Coordination Sequence:
#
# PCOD8079299 Si02
#       6
#     8   8   4   8   8   8
#     4  11  20  31  49  64  85 114 161 205 228 271
#     4   9  15  24  45  71  86 104 142 187 223 257
#     4  10  18  32  47  70  85 104 138 206 250 298
#     4   9  18  34  46  60  91 122 150 186 224 272
#     4  10  22  34  45  60  88 130 163 187 227 261
#     4  10  17  30  47  68  86 102 130 191 243 301
#
# _framework density 17.567761000000001
#
# number of rings (size 3 to 8) (size 9 to 14) (size 15 to 20)
#    0.000    2.182    2.727    2.182    2.545    4.727 
#    0.000    0.455    0.000    0.000    0.000    0.000 
#    0.000    0.000    0.000    0.000    0.000  254.545 
#
# Total GULP energy -272566.694810 kJ/mol
# GULP energy per Si atom -12389.395219 kJ/mol
# Density = 1.752778 g / cm^3
# Si number density = 17.567761 Si / 1000 Ang^3
#
#
#
# Elastic Constant Matrix: (Units=GPa)
#
#
# Indices 1 2 3 4 5 6 
#
# 1 139.7678 24.5391 45.3840 0.0000 9.9588 0.0000
# 2 24.5391 45.8086 35.7833 0.0000 5.0032 0.0000
# 3 45.3840 35.7833 82.9747 0.0000 15.0210 0.0000
# 4 0.0000 0.0000 0.0000 15.7957 0.0000 -102.4477
# 5 9.9588 5.0032 15.0210 0.0000 25.6063 0.0000
# 6 0.0000 0.0000 0.0000 -102.4477 0.0000 786.4061
#
#
#
# Elastic Compliance Matrix: (Units=1/GPa)
#
#
# Indices 1 2 3 4 5 6 
#
# 1 0.008775 -0.001472 -0.004027 0.000000 -0.000763 0.000000
# 2 -0.001472 0.033270 -0.013951 0.000000 0.002256 0.000000
# 3 -0.004027 -0.013951 0.021810 0.000000 -0.008502 0.000000
# 4 0.000000 0.000000 0.000000 0.408254 0.000000 0.053185
# 5 -0.000763 0.002256 -0.008502 0.000000 0.043896 0.000000
# 6 0.000000 0.000000 0.000000 0.053185 0.000000 0.008200
#
#
# Mechanical properties :
#
#
# Convention : Reuss Voigt Hill
#
# Bulk Modulus (GPa) = 40.07134 53.32931 46.70032
# Shear Modulus (GPa) = 8.75008 176.41792 92.58400
#
# Velocity S-wave (km/s) = 2.23418 10.03192 7.26743
# Velocity P-wave (km/s) = 5.43273 12.82997 9.85197
#
# Compressibility (1/GPa) = 0.02495549
#
# Stress axis : x y z
#
# Youngs Moduli (GPa) = 113.95976 30.05714 45.85064
#
# Poissons Ratio (x) = 0.04424 0.18463
# Poissons Ratio (y) = 0.16774 0.63967
# Poissons Ratio (z) = 0.45888 0.41933
#
# Static dielectric constant tensor:
#      x y z
#    x 3.583320 0.000000 -0.006030 
#    y 0.000000 2.846940 0.000000 
#    z -0.006030 0.000000 3.039290 
# 
# 
# High freq. dielectric constant tensor:
#      x y z
#    x 1.706570 0.000000 -0.001650 
#    y 0.000000 1.628990 0.000000 
#    z -0.001650 0.000000 1.639860 
# 
# From -- ./inp_files/192302.got.cif
#   From: 2010.06.25/outbox.cif.g09.slc.cpg/sg12_97_cif.got.tgz:192302.got - 2010.06.28 00:19:55.
