data_PCOD8079178
_publ_section_title
;
Structure prediction by ZEFSAII (Michael W. Deem and Ramdas Pophale) SiO2 
 PCOD8079178
Probable space group: C 2/M
;
_chemical_formula_sum "Si O2"
_cell_formula_units_Z 56
_cell_length_a 28.044959
_cell_length_b 12.944418
_cell_length_c 14.358687
_cell_angle_alpha 90.000000
_cell_angle_beta 39.289984
_cell_angle_gamma 90.000000
_cell_volume 3300.838211
_symmetry_space_group_name_H-M "C 2/M"
_symmetry_group_IT_number 12
_symmetry_cell_setting 'monoclinic'
loop_
_space_group_symop_operation_xyz
x,y,z
-x,y,-z
-x,-y,-z
x,-y,z
1/2+x,1/2+y,z
1/2-x,1/2+y,-z
1/2-x,1/2-y,-z
1/2+x,1/2-y,z
loop_
_atom_site_type_symbol
_atom_site_label
_atom_site_fract_x
_atom_site_fract_y
_atom_site_fract_z
Si Si1 0.222739 0.385143 0.125858
Si Si2 0.612901 0.377679 0.601467
Si Si3 0.547254 0.379384 0.222923
Si Si4 0.833418 0.197573 0.097415
Si Si5 0.584004 0.377343 0.850818
Si Si6 0.270417 0.382485 0.721508
Si Si7 0.654426 0.674756 0.210036
O O1 0.187426 0.500000 0.174060
O O2 0.265570 0.372659 0.160086
O O3 0.157598 0.299597 0.213806
O O4 0.281860 0.369626 0.954053
O O5 0.614793 0.500000 0.601524
O O6 0.538553 0.342874 0.657325
O O7 0.609908 0.333980 0.711080
O O8 0.687316 0.338752 0.434861
O O9 0.557802 0.500000 0.180236
O O10 0.573747 0.357403 0.288996
O O11 0.595373 0.310127 0.078565
O O12 0.855544 0.163284 0.166994
O O13 0.803735 0.315618 0.144678
O O14 0.583505 0.500000 0.853723
O O15 0.500000 0.335896 0.000000
O O16 0.243496 0.500000 0.748624
O O17 0.332330 0.377437 0.710343
#
# Coordination Sequence:
#
# PCOD8079178 Si02
#       7
#     8   8   8   8   8   8   8
#     4   9  16  27  42  67  96 119 153 196 226 266
#     4   9  19  31  46  69  99 123 146 190 240 279
#     4  10  17  29  48  74  97 118 155 198 231 270
#     4  10  18  28  49  72  90 120 156 191 235 269
#     4  10  17  29  50  75  95 114 147 194 241 278
#     4  10  20  33  44  66 100 129 154 183 226 281
#     4   9  17  26  43  67  92 126 156 182 231 274
#
# _framework density 16.965388000000001
#
# number of rings (size 3 to 8) (size 9 to 14) (size 15 to 20)
#    0.000    2.429    1.429    4.286    0.000    1.143 
#    0.000    2.143    0.000    0.429    0.000   16.000 
#    0.000    0.000    0.000    0.000    0.000    0.000 
#
# Total GULP energy -347075.251632 kJ/mol
# GULP energy per Si atom -12395.544701 kJ/mol
# Density = 1.692677 g / cm^3
# Si number density = 16.965388 Si / 1000 Ang^3
#
#
#
# Elastic Constant Matrix: (Units=GPa)
#
#
# Indices 1 2 3 4 5 6 
#
# 1 88.7716 12.1570 22.5023 0.0000 16.0734 0.0000
# 2 12.1570 80.9021 33.1871 0.0000 -2.5771 0.0000
# 3 22.5023 33.1871 56.9262 0.0000 7.3519 0.0000
# 4 0.0000 0.0000 0.0000 15.9970 0.0000 0.2348
# 5 16.0734 -2.5771 7.3519 0.0000 22.4597 0.0000
# 6 0.0000 0.0000 0.0000 0.2348 0.0000 20.6335
#
#
#
# Elastic Compliance Matrix: (Units=1/GPa)
#
#
# Indices 1 2 3 4 5 6 
#
# 1 0.013959 -0.000762 -0.003939 0.000000 -0.008788 0.000000
# 2 -0.000762 0.016887 -0.010300 0.000000 0.005854 0.000000
# 3 -0.003939 -0.010300 0.026016 0.000000 -0.006879 0.000000
# 4 0.000000 0.000000 0.000000 0.062522 0.000000 -0.000712
# 5 -0.008788 0.005854 -0.006879 0.000000 0.053737 0.000000
# 6 0.000000 0.000000 0.000000 -0.000712 0.000000 0.048473
#
#
# Mechanical properties :
#
#
# Convention : Reuss Voigt Hill
#
# Bulk Modulus (GPa) = 37.22775 40.25475 38.74125
# Shear Modulus (GPa) = 19.19038 22.40163 20.79600
#
# Velocity S-wave (km/s) = 3.36690 3.63772 3.50493
# Velocity P-wave (km/s) = 6.09145 6.43607 6.26613
#
# Compressibility (1/GPa) = 0.02686168
#
# Stress axis : x y z
#
# Youngs Moduli (GPa) = 71.63966 59.21868 38.43721
#
# Poissons Ratio (x) = 0.04511 0.15139
# Poissons Ratio (y) = 0.05457 0.39589
# Poissons Ratio (z) = 0.28217 0.60993
#
# Static dielectric constant tensor:
#      x y z
#    x 3.427340 0.000000 0.240900 
#    y 0.000000 2.982200 0.000000 
#    z 0.240900 0.000000 3.112820 
# 
# 
# High freq. dielectric constant tensor:
#      x y z
#    x 1.660560 0.000000 0.017280 
#    y 0.000000 1.625090 0.000000 
#    z 0.017280 0.000000 1.629980 
# 
# From -- ./inp_files/245603.got.cif
#   From: 2010.06.25/outbox.cif.g09.slc.cpg/sg12_123_cif.got.tgz:245603.got - 2010.06.28 00:19:55.
