data_PCOD8079163
_publ_section_title
;
Structure prediction by ZEFSAII (Michael W. Deem and Ramdas Pophale) SiO2 
 PCOD8079163
Probable space group: C 2/M
;
_chemical_formula_sum "Si O2"
_cell_formula_units_Z 64
_cell_length_a 25.305913
_cell_length_b 9.204026
_cell_length_c 24.218282
_cell_angle_alpha 90.000000
_cell_angle_beta 135.091026
_cell_angle_gamma 90.000000
_cell_volume 3982.328841
_symmetry_space_group_name_H-M "C 2/M"
_symmetry_group_IT_number 12
_symmetry_cell_setting 'monoclinic'
loop_
_space_group_symop_operation_xyz
x,y,z
-x,y,-z
-x,-y,-z
x,-y,z
1/2+x,1/2+y,z
1/2-x,1/2+y,-z
1/2-x,1/2-y,-z
1/2+x,1/2-y,z
loop_
_atom_site_type_symbol
_atom_site_label
_atom_site_fract_x
_atom_site_fract_y
_atom_site_fract_z
Si Si1 0.779027 0.168939 0.575120
Si Si2 0.975784 0.327745 0.594074
Si Si3 0.289249 0.830589 0.153313
Si Si4 0.921658 0.665179 0.166024
Si Si5 0.861007 0.327347 0.318033
Si Si6 0.199661 0.668073 0.006425
Si Si7 0.664822 0.827947 0.580598
Si Si8 0.550679 0.668900 0.311384
O O1 0.750000 0.250000 0.500000
O O2 0.734499 0.228984 0.595743
O O3 0.866342 0.196672 0.650587
O O4 0.761230 0.000000 0.552582
O O5 0.975501 0.500000 0.603103
O O6 0.912863 0.277459 0.504289
O O7 0.959069 0.254813 0.639624
O O8 0.054831 0.270812 0.629601
O O9 0.361275 0.796566 0.168731
O O10 0.306951 0.776152 0.228396
O O11 0.216162 0.741632 0.078050
O O12 0.269203 0.000000 0.136248
O O13 0.948940 0.500000 0.194538
O O14 0.992256 0.771733 0.222872
O O15 0.885866 0.685053 0.078189
O O16 0.863395 0.500000 0.320950
O O17 0.830644 0.263910 0.353771
O O18 0.222932 0.500000 0.025634
O O19 0.250000 0.750000 0.000000
O O20 0.666990 0.000000 0.585836
O O21 0.535569 0.500000 0.310733
#
# Coordination Sequence:
#
# PCOD8079163 Si02
#       8
#     8   8   8   8   8   8   8   8
#     4  10  20  33  48  67  89 118 156 194 233 271
#     4  10  17  29  48  67  89 120 156 189 224 269
#     4   9  16  27  44  67  94 119 145 182 226 273
#     4   9  17  30  45  64  90 120 153 185 219 267
#     4   9  16  27  45  71  94 115 154 195 222 265
#     4   9  17  28  43  64  91 121 151 182 218 269
#     4   9  17  29  48  68  87 118 158 197 229 260
#     4  11  21  29  43  68  95 121 151 189 231 271
#
# _framework density 16.070997999999999
#
# number of rings (size 3 to 8) (size 9 to 14) (size 15 to 20)
#    0.000    2.500    2.500    1.875    0.000    4.500 
#    0.000    0.000    0.000    3.750    0.000    0.875 
#    0.000    7.000    0.000    0.000    0.000    0.000 
#
# Total GULP energy -396652.757557 kJ/mol
# GULP energy per Si atom -12395.398674 kJ/mol
# Density = 1.603442 g / cm^3
# Si number density = 16.070998 Si / 1000 Ang^3
#
#
#
# Elastic Constant Matrix: (Units=GPa)
#
#
# Indices 1 2 3 4 5 6 
#
# 1 93.8316 26.5330 60.3110 0.0000 -14.9096 0.0000
# 2 26.5330 49.7523 45.9023 0.0000 4.1995 0.0000
# 3 60.3110 45.9023 143.9812 0.0000 -10.0803 0.0000
# 4 0.0000 0.0000 0.0000 26.7956 0.0000 1.2156
# 5 -14.9096 4.1995 -10.0803 0.0000 9.0123 0.0000
# 6 0.0000 0.0000 0.0000 1.2156 0.0000 13.9511
#
#
#
# Elastic Compliance Matrix: (Units=1/GPa)
#
#
# Indices 1 2 3 4 5 6 
#
# 1 0.022289 -0.013171 -0.002307 0.000000 0.040431 0.000000
# 2 -0.013171 0.042868 -0.012014 0.000000 -0.055203 0.000000
# 3 -0.002307 -0.012014 0.012875 0.000000 0.016183 0.000000
# 4 0.000000 0.000000 0.000000 0.037468 0.000000 -0.003265
# 5 0.040431 -0.055203 0.016183 0.000000 0.221671 0.000000
# 6 0.000000 0.000000 0.000000 -0.003265 0.000000 0.071963
#
#
# Mechanical properties :
#
#
# Convention : Reuss Voigt Hill
#
# Bulk Modulus (GPa) = 43.38911 61.45086 52.41998
# Shear Modulus (GPa) = 10.59769 20.27306 15.43537
#
# Velocity S-wave (km/s) = 2.57072 3.55557 3.10247
# Velocity P-wave (km/s) = 5.98903 7.42807 6.74703
#
# Compressibility (1/GPa) = 0.02304726
#
# Stress axis : x y z
#
# Youngs Moduli (GPa) = 44.86535 23.32744 77.67113
#
# Poissons Ratio (x) = 0.30725 0.17916
# Poissons Ratio (y) = 0.59093 0.93316
# Poissons Ratio (z) = 0.10349 0.28026
#
# Static dielectric constant tensor:
#      x y z
#    x 3.046410 0.000000 -0.015890 
#    y 0.000000 2.937270 0.000000 
#    z -0.015890 0.000000 3.690030 
# 
# 
# High freq. dielectric constant tensor:
#      x y z
#    x 1.581270 0.000000 -0.000720 
#    y 0.000000 1.597610 0.000000 
#    z -0.000720 0.000000 1.628870 
# 
# From -- ./inp_files/348589.got.cif
#   From: 2010.06.25/outbox.cif.g09.slc.cpg/sg12_175_cif.got.tgz:348589.got - 2010.06.28 00:19:55.
