data_PCOD8079371
_publ_section_title
;
Structure prediction by ZEFSAII (Michael W. Deem and Ramdas Pophale) SiO2 
 PCOD8079371
Probable space group: C 2/M
;
_chemical_formula_sum "Si O2"
_cell_formula_units_Z 64
_cell_length_a 25.270355
_cell_length_b 8.750801
_cell_length_c 15.168322
_cell_angle_alpha 90.000000
_cell_angle_beta 103.507171
_cell_angle_gamma 90.000000
_cell_volume 3261.483253
_symmetry_space_group_name_H-M "C 2/M"
_symmetry_group_IT_number 12
_symmetry_cell_setting 'monoclinic'
loop_
_space_group_symop_operation_xyz
x,y,z
-x,y,-z
-x,-y,-z
x,-y,z
1/2+x,1/2+y,z
1/2-x,1/2+y,-z
1/2-x,1/2-y,-z
1/2+x,1/2-y,z
loop_
_atom_site_type_symbol
_atom_site_label
_atom_site_fract_x
_atom_site_fract_y
_atom_site_fract_z
Si Si1 0.948349 0.665533 0.926299
Si Si2 0.381833 0.178316 0.668649
Si Si3 0.382449 0.818901 0.183695
Si Si4 0.192893 0.820245 0.504884
Si Si5 0.693629 0.819039 0.689310
Si Si6 0.813403 0.179613 0.792511
Si Si7 0.358657 0.675319 0.992264
Si Si8 0.995775 0.321301 0.769183
O O1 0.917593 0.500000 0.897073
O O2 0.968764 0.748898 0.845888
O O3 0.915572 0.789942 0.968416
O O4 0.000000 0.617348 0.000000
O O5 0.352451 0.277606 0.583674
O O6 0.360693 0.229661 0.758086
O O7 0.447279 0.206884 0.679089
O O8 0.368073 0.000000 0.651051
O O9 0.345327 0.757087 0.248531
O O10 0.354234 0.770975 0.080614
O O11 0.443910 0.750989 0.224328
O O12 0.383568 0.000000 0.185026
O O13 0.250000 0.750000 0.500000
O O14 0.173710 0.758408 0.591794
O O15 0.199723 0.000000 0.510679
O O16 0.755170 0.767667 0.733397
O O17 0.689347 0.000000 0.677508
O O18 0.822918 0.000000 0.781210
O O19 0.814568 0.217411 0.898445
O O20 0.354542 0.500000 0.018318
O O21 0.004981 0.500000 0.788113
#
# Coordination Sequence:
#
# PCOD8079371 Si02
#       8
#     8   8   8   8   8   8   8   8
#     4  10  17  30  52  76 107 145 193 243 283 331
#     4  11  21  35  60  92 118 147 188 240 298 348
#     4  10  21  40  61  81 112 160 206 244 282 335
#     4  12  24  40  64  92 121 148 184 236 293 351
#     4  10  22  41  64  85 111 152 201 244 290 344
#     4  10  21  36  54  83 121 153 188 242 295 344
#     4  11  22  33  50  82 122 157 194 240 294 347
#     4   9  18  33  56  85 115 148 196 245 286 337
#
# _framework density 19.622973999999999
#
# number of rings (size 3 to 8) (size 9 to 14) (size 15 to 20)
#    0.000    1.625    3.750    1.875    0.000    1.750 
#    0.000    1.875    0.000    3.750    0.000    0.000 
#    0.000    0.000    0.000    0.000    0.000    0.000 
#
# Total GULP energy -396512.432126 kJ/mol
# GULP energy per Si atom -12391.013504 kJ/mol
# Density = 1.957831 g / cm^3
# Si number density = 19.622974 Si / 1000 Ang^3
#
#
#
# Elastic Constant Matrix: (Units=GPa)
#
#
# Indices 1 2 3 4 5 6 
#
# 1 80.1562 23.7926 42.2876 0.0000 -2.9749 0.0000
# 2 23.7926 40.5143 20.9895 0.0000 -2.8050 0.0000
# 3 42.2876 20.9895 111.9540 0.0000 -5.0229 0.0000
# 4 0.0000 0.0000 0.0000 33.2378 0.0000 1.6008
# 5 -2.9749 -2.8050 -5.0229 0.0000 31.5793 0.0000
# 6 0.0000 0.0000 0.0000 1.6008 0.0000 19.4431
#
#
#
# Elastic Compliance Matrix: (Units=1/GPa)
#
#
# Indices 1 2 3 4 5 6 
#
# 1 0.017452 -0.007561 -0.005168 0.000000 0.000150 0.000000
# 2 -0.007561 0.030697 -0.002829 0.000000 0.001564 0.000000
# 3 -0.005168 -0.002829 0.011463 0.000000 0.001085 0.000000
# 4 0.000000 0.000000 0.000000 0.030206 0.000000 -0.002487
# 5 0.000150 0.001564 0.001085 0.000000 0.031992 0.000000
# 6 0.000000 0.000000 0.000000 -0.002487 0.000000 0.051637
#
#
# Mechanical properties :
#
#
# Convention : Reuss Voigt Hill
#
# Bulk Modulus (GPa) = 35.09198 45.19598 40.14398
# Shear Modulus (GPa) = 23.35779 26.55569 24.95674
#
# Velocity S-wave (km/s) = 3.45386 3.68271 3.57012
# Velocity P-wave (km/s) = 5.81614 6.41602 6.12343
#
# Compressibility (1/GPa) = 0.02849654
#
# Stress axis : x y z
#
# Youngs Moduli (GPa) = 57.30053 32.57654 87.23542
#
# Poissons Ratio (x) = 0.24632 0.45080
# Poissons Ratio (y) = 0.43326 0.24678
# Poissons Ratio (z) = 0.29611 0.09216
#
# Static dielectric constant tensor:
#      x y z
#    x 3.721410 0.000000 0.142860 
#    y 0.000000 3.385120 0.000000 
#    z 0.142860 0.000000 3.763770 
# 
# 
# High freq. dielectric constant tensor:
#      x y z
#    x 1.755710 0.000000 0.015860 
#    y 0.000000 1.746990 0.000000 
#    z 0.015860 0.000000 1.768140 
# 
# From -- ./inp_files/244076.got.cif
#   From: 2010.06.25/outbox.cif.g09.slc.cpg/sg12_123_cif.got.tgz:244076.got - 2010.06.28 00:19:55.
