data_PCOD8079130
_publ_section_title
;
Structure prediction by ZEFSAII (Michael W. Deem and Ramdas Pophale) SiO2 
 PCOD8079130
Probable space group: C 2/M
;
_chemical_formula_sum "Si O2"
_cell_formula_units_Z 56
_cell_length_a 16.082512
_cell_length_b 14.971185
_cell_length_c 10.039740
_cell_angle_alpha 90.000000
_cell_angle_beta 78.885453
_cell_angle_gamma 90.000000
_cell_volume 2371.971310
_symmetry_space_group_name_H-M "C 2/M"
_symmetry_group_IT_number 12
_symmetry_cell_setting 'monoclinic'
loop_
_space_group_symop_operation_xyz
x,y,z
-x,y,-z
-x,-y,-z
x,-y,z
1/2+x,1/2+y,z
1/2-x,1/2+y,-z
1/2-x,1/2-y,-z
1/2+x,1/2-y,z
loop_
_atom_site_type_symbol
_atom_site_label
_atom_site_fract_x
_atom_site_fract_y
_atom_site_fract_z
Si Si1 0.394828 0.130809 0.413801
Si Si2 0.236463 0.902939 0.309981
Si Si3 0.138126 0.898016 0.993646
Si Si4 0.988569 0.899981 0.210780
Si Si5 0.236702 0.711280 0.198794
Si Si6 0.920255 0.598032 0.698736
Si Si7 0.849601 0.175967 0.415014
O O1 0.332870 0.083881 0.328651
O O2 0.402465 0.078505 0.548771
O O3 0.485709 0.138997 0.312733
O O4 0.350773 0.223991 0.469138
O O5 0.231708 0.820087 0.206924
O O6 0.176752 0.888037 0.456652
O O7 0.211207 0.000000 0.252714
O O8 0.068848 0.891065 0.900868
O O9 0.210862 0.823135 0.947504
O O10 0.174669 0.000000 0.986222
O O11 0.086587 0.873694 0.146463
O O12 0.946752 0.842223 0.340981
O O13 0.987775 0.000000 0.264809
O O14 0.143768 0.668326 0.215271
O O15 0.283850 0.668466 0.312768
O O16 0.913587 0.500000 0.770018
#
# Coordination Sequence:
#
# PCOD8079130 Si02
#       7
#     8   8   8   8   8   8   8
#     4  10  19  30  42  66  96 122 156 187 227 279
#     4  11  19  30  45  67  98 128 155 185 222 275
#     4   8  14  25  42  68  96 115 144 194 237 272
#     4   8  14  24  42  67  91 119 151 185 234 275
#     4  10  18  29  45  70  93 118 155 191 232 275
#     4  11  19  29  46  67  94 126 151 191 235 272
#     4  10  17  29  44  66  96 124 151 189 225 276
#
# _framework density 23.609055000000001
#
# number of rings (size 3 to 8) (size 9 to 14) (size 15 to 20)
#    0.000    2.286    2.857    4.286    0.000    1.143 
#    0.000    0.000    0.000    3.429    0.000   20.000 
#    0.000    0.000    0.000    0.000    0.000    0.000 
#
# Total GULP energy -346954.303731 kJ/mol
# GULP energy per Si atom -12391.225133 kJ/mol
# Density = 2.355532 g / cm^3
# Si number density = 23.609055 Si / 1000 Ang^3
#
#
#
# Elastic Constant Matrix: (Units=GPa)
#
#
# Indices 1 2 3 4 5 6 
#
# 1 83.0508 39.8391 27.4866 0.0000 -38.0841 0.0000
# 2 39.8391 142.4545 25.7939 0.0000 -26.4557 0.0000
# 3 27.4866 25.7939 74.4323 0.0000 -33.2502 0.0000
# 4 0.0000 0.0000 0.0000 14.2357 0.0000 -19.3796
# 5 -38.0841 -26.4557 -33.2502 0.0000 41.0582 0.0000
# 6 0.0000 0.0000 0.0000 -19.3796 0.0000 21.6547
#
#
#
# Elastic Compliance Matrix: (Units=1/GPa)
#
#
# Indices 1 2 3 4 5 6 
#
# 1 0.021959 -0.002742 0.001803 0.000000 0.020062 0.000000
# 2 -0.002742 0.008342 -0.000961 0.000000 0.002054 0.000000
# 3 0.001803 -0.000961 0.021266 0.000000 0.018275 0.000000
# 4 0.000000 0.000000 0.000000 -0.321758 0.000000 -0.287954
# 5 0.020062 0.002054 0.018275 0.000000 0.059087 0.000000
# 6 0.000000 0.000000 0.000000 -0.287954 0.000000 -0.211522
#
#
# Mechanical properties :
#
#
# Convention : Reuss Voigt Hill
#
# Bulk Modulus (GPa) = 20.93474 54.01966 37.47720
# Shear Modulus (GPa) = -12.40991 29.17758 8.38384
#
# Velocity S-wave (km/s) = -2.29518 3.51930 1.88648
# Velocity P-wave (km/s) = 1.36482 6.28049 4.54463
#
# Compressibility (1/GPa) = 0.04776749
#
# Stress axis : x y z
#
# Youngs Moduli (GPa) = 45.53959 119.87590 47.02348
#
# Poissons Ratio (x) = 0.32868 -0.08478
# Poissons Ratio (y) = 0.12486 0.04518
# Poissons Ratio (z) = -0.08211 0.11519
#
# Static dielectric constant tensor:
#      x y z
#    x 4.351230 0.000000 -0.570140 
#    y 0.000000 4.169480 0.000000 
#    z -0.570140 0.000000 4.168310 
# 
# 
# High freq. dielectric constant tensor:
#      x y z
#    x 1.934720 0.000000 -0.025040 
#    y 0.000000 1.936660 0.000000 
#    z -0.025040 0.000000 1.902520 
# 
# From -- ./inp_files/155968.got.cif
#   From: 2010.06.25/outbox.cif.g09.slc.cpg/sg12_78_cif.got.tgz:155968.got - 2010.06.28 00:19:55.
