data_PCOD8079682
_publ_section_title
;
Structure prediction by ZEFSAII (Michael W. Deem and Ramdas Pophale) SiO2 
 PCOD8079682
Probable space group: C 2/M
;
_chemical_formula_sum "Si O2"
_cell_formula_units_Z 64
_cell_length_a 17.581962
_cell_length_b 30.398218
_cell_length_c 8.752160
_cell_angle_alpha 90.000000
_cell_angle_beta 137.667328
_cell_angle_gamma 90.000000
_cell_volume 3150.111001
_symmetry_space_group_name_H-M "C 2/M"
_symmetry_group_IT_number 12
_symmetry_cell_setting 'monoclinic'
loop_
_space_group_symop_operation_xyz
x,y,z
-x,y,-z
-x,-y,-z
x,-y,z
1/2+x,1/2+y,z
1/2-x,1/2+y,-z
1/2-x,1/2-y,-z
1/2+x,1/2-y,z
loop_
_atom_site_type_symbol
_atom_site_label
_atom_site_fract_x
_atom_site_fract_y
_atom_site_fract_z
Si Si1 0.704135 0.680679 0.589833
Si Si2 0.679828 0.333778 0.901482
Si Si3 0.075075 0.681419 0.243884
Si Si4 0.618771 0.869694 0.602261
Si Si5 0.507176 0.258918 0.684460
Si Si6 0.398726 0.602628 0.750118
Si Si7 0.445964 0.423689 0.265206
Si Si8 0.243805 0.049539 0.217239
O O1 0.814270 0.702118 0.674100
O O2 0.602230 0.714071 0.431442
O O3 0.675211 0.637649 0.449267
O O4 0.728959 0.668448 0.803209
O O5 0.782769 0.341869 0.169211
O O6 0.620066 0.288473 0.867435
O O7 0.585549 0.371938 0.767470
O O8 0.114764 0.644336 0.420417
O O9 0.994370 0.717706 0.204201
O O10 0.000000 0.658687 0.000000
O O11 0.500000 0.859018 0.500000
O O12 0.644722 0.921775 0.652765
O O13 0.500000 0.241505 0.500000
O O14 0.457202 0.569812 0.717021
O O15 0.319865 0.573011 0.738649
O O16 0.500000 0.625319 0.000000
O O17 0.500000 0.442407 0.500000
O O18 0.335567 0.451123 0.051687
O O19 0.279554 0.000000 0.312601
#
# Coordination Sequence:
#
# PCOD8079682 Si02
#       8
#     8   8   8   8   8   8   8   8
#     4  11  20  37  61  91 121 167 207 250 294 367
#     4  10  20  38  66  91 121 162 213 256 304 366
#     4  12  26  41  57  89 124 162 208 259 306 362
#     4  11  24  44  67  88 117 166 208 259 314 367
#     4  10  22  39  62  91 127 161 205 252 305 362
#     4  10  19  33  60  91 125 160 198 245 308 367
#     4  10  17  33  62  94 129 163 202 245 307 370
#     4  10  23  40  61  93 126 163 205 253 313 373
#
# _framework density 20.316745000000001
#
# number of rings (size 3 to 8) (size 9 to 14) (size 15 to 20)
#    0.000    1.500    3.750    1.875    0.000    5.250 
#    0.000    3.125    0.000    0.375    0.000    0.000 
#    0.000    0.000    0.000    0.000    0.000    0.000 
#
# Total GULP energy -396720.974891 kJ/mol
# GULP energy per Si atom -12397.530465 kJ/mol
# Density = 2.027050 g / cm^3
# Si number density = 20.316745 Si / 1000 Ang^3
#
#
#
# Elastic Constant Matrix: (Units=GPa)
#
#
# Indices 1 2 3 4 5 6 
#
# 1 109.2755 21.8940 47.8466 0.0000 -0.5629 0.0000
# 2 21.8940 83.2922 40.3876 0.0000 -4.8357 0.0000
# 3 47.8466 40.3876 138.3808 0.0000 -14.1764 0.0000
# 4 0.0000 0.0000 0.0000 11.9719 0.0000 -0.9525
# 5 -0.5629 -4.8357 -14.1764 0.0000 34.4172 0.0000
# 6 0.0000 0.0000 0.0000 -0.9525 0.0000 2.6949
#
#
#
# Elastic Compliance Matrix: (Units=1/GPa)
#
#
# Indices 1 2 3 4 5 6 
#
# 1 0.010958 -0.001229 -0.003580 0.000000 -0.001468 0.000000
# 2 -0.001229 0.014126 -0.003650 0.000000 0.000461 0.000000
# 3 -0.003580 -0.003650 0.009888 0.000000 0.003502 0.000000
# 4 0.000000 0.000000 0.000000 0.085946 0.000000 0.030376
# 5 -0.001468 0.000461 0.003502 0.000000 0.030538 0.000000
# 6 0.000000 0.000000 0.000000 0.030376 0.000000 0.381807
#
#
# Mechanical properties :
#
#
# Convention : Reuss Voigt Hill
#
# Bulk Modulus (GPa) = 55.39674 61.24499 58.32087
# Shear Modulus (GPa) = 8.98956 24.53816 16.76386
#
# Velocity S-wave (km/s) = 2.10578 3.47908 2.87562
# Velocity P-wave (km/s) = 5.76525 6.80803 6.30822
#
# Compressibility (1/GPa) = 0.01805160
#
# Stress axis : x y z
#
# Youngs Moduli (GPa) = 91.26101 70.79177 101.12779
#
# Poissons Ratio (x) = 0.08704 0.36206
# Poissons Ratio (y) = 0.11220 0.36916
# Poissons Ratio (z) = 0.32674 0.25842
#
# Static dielectric constant tensor:
#      x y z
#    x 3.977360 0.000000 -0.123260 
#    y 0.000000 3.377500 0.000000 
#    z -0.123260 0.000000 3.759400 
# 
# 
# High freq. dielectric constant tensor:
#      x y z
#    x 1.810360 0.000000 -0.006540 
#    y 0.000000 1.758430 0.000000 
#    z -0.006540 0.000000 1.795760 
# 
# From -- ./inp_files/80783.got.cif
#   From: 2010.06.25/outbox.cif.g09.slc.cpg/sg12_41_cif.got.tgz:80783.got - 2010.06.28 00:19:55.
