data_PCOD8079830
_publ_section_title
;
Structure prediction by ZEFSAII (Michael W. Deem and Ramdas Pophale) SiO2 
 PCOD8079830
Probable space group: C 2/M
;
_chemical_formula_sum "Si O2"
_cell_formula_units_Z 64
_cell_length_a 31.839085
_cell_length_b 9.301988
_cell_length_c 29.764028
_cell_angle_alpha 90.000000
_cell_angle_beta 150.133626
_cell_angle_gamma 90.000000
_cell_volume 4389.741907
_symmetry_space_group_name_H-M "C 2/M"
_symmetry_group_IT_number 12
_symmetry_cell_setting 'monoclinic'
loop_
_space_group_symop_operation_xyz
x,y,z
-x,y,-z
-x,-y,-z
x,-y,z
1/2+x,1/2+y,z
1/2-x,1/2+y,-z
1/2-x,1/2-y,-z
1/2+x,1/2-y,z
loop_
_atom_site_type_symbol
_atom_site_label
_atom_site_fract_x
_atom_site_fract_y
_atom_site_fract_z
Si Si1 0.578782 0.332446 0.666185
Si Si2 0.127944 0.332843 0.368446
Si Si3 0.942334 0.665991 0.175399
Si Si4 0.599459 0.837461 0.599121
Si Si5 0.199662 0.834726 0.990732
Si Si6 0.699310 0.332803 0.515030
Si Si7 0.384017 0.666130 0.471053
Si Si8 0.855853 0.337581 0.190007
O O1 0.599050 0.500000 0.679767
O O2 0.622766 0.249416 0.665676
O O3 0.479191 0.302529 0.574942
O O4 0.618516 0.276143 0.748920
O O5 0.128050 0.500000 0.380895
O O6 0.203283 0.292792 0.404123
O O7 0.137736 0.250101 0.424278
O O8 0.040307 0.289008 0.263790
O O9 0.928824 0.500000 0.150315
O O10 0.892699 0.761004 0.091994
O O11 0.907833 0.698102 0.193209
O O12 0.500000 0.834365 0.500000
O O13 0.642667 0.761006 0.596500
O O14 0.633547 0.000000 0.634767
O O15 0.189292 0.000000 0.966591
O O16 0.250000 0.750000 0.000000
O O17 0.254813 0.823233 0.087489
O O18 0.681281 0.500000 0.490691
O O19 0.678002 0.288435 0.546125
O O20 0.373350 0.500000 0.447698
O O21 0.877136 0.500000 0.225725
#
# Coordination Sequence:
#
# PCOD8079830 Si02
#       8
#     8   8   8   8   8   8   8   8
#     4  10  18  26  39  58  79 104 132 162 195 232
#     4   9  17  28  41  58  81 108 138 171 203 233
#     4   9  17  28  41  57  79 108 139 169 200 234
#     4   9  17  28  41  56  75 101 131 162 196 233
#     4   9  17  28  41  57  78 104 133 166 201 236
#     4   9  17  28  41  58  81 108 137 170 204 234
#     4   9  17  28  40  56  79 105 134 165 196 231
#     4   9  17  27  38  55  79 104 131 163 196 231
#
# _framework density 14.579445
#
# number of rings (size 3 to 8) (size 9 to 14) (size 15 to 20)
#    0.000    2.875    0.000    2.625    0.000    5.500 
#    0.000    0.000    0.000    0.000    0.000    0.000 
#    0.000    1.000    0.000   11.500    0.000    2.875 
#
# Total GULP energy -396712.454269 kJ/mol
# GULP energy per Si atom -12397.264196 kJ/mol
# Density = 1.454626 g / cm^3
# Si number density = 14.579445 Si / 1000 Ang^3
#
#
#
# Elastic Constant Matrix: (Units=GPa)
#
#
# Indices 1 2 3 4 5 6 
#
# 1 72.6670 37.8483 26.8167 0.0000 -1.3067 0.0000
# 2 37.8483 80.7516 40.3693 0.0000 -4.4502 0.0001
# 3 26.8167 40.3693 71.5135 0.0000 3.4065 0.0000
# 4 0.0000 0.0000 0.0000 25.7772 0.0000 -6.2962
# 5 -1.3067 -4.4502 3.4065 0.0000 14.9220 0.0000
# 6 0.0000 0.0001 0.0000 -6.2962 0.0000 22.0756
#
#
#
# Elastic Compliance Matrix: (Units=1/GPa)
#
#
# Indices 1 2 3 4 5 6 
#
# 1 0.018618 -0.007282 -0.002876 0.000000 0.000115 0.000000
# 2 -0.007282 0.020960 -0.009472 0.000000 0.007776 0.000000
# 3 -0.002876 -0.009472 0.020781 0.000000 -0.007821 0.000000
# 4 0.000000 0.000000 0.000000 0.041699 0.000000 0.011893
# 5 0.000115 0.007776 -0.007821 0.000000 0.071130 0.000000
# 6 0.000000 0.000000 0.000000 0.011893 0.000000 0.048691
#
#
# Mechanical properties :
#
#
# Convention : Reuss Voigt Hill
#
# Bulk Modulus (GPa) = 47.39488 48.33341 47.86415
# Shear Modulus (GPa) = 18.64476 20.54814 19.59645
#
# Velocity S-wave (km/s) = 3.57996 3.75826 3.67019
# Velocity P-wave (km/s) = 7.04747 7.21501 7.13173
#
# Compressibility (1/GPa) = 0.02109932
#
# Stress axis : x y z
#
# Youngs Moduli (GPa) = 53.71256 47.70926 48.12010
#
# Poissons Ratio (x) = 0.34741 0.13841
# Poissons Ratio (y) = 0.39112 0.45579
# Poissons Ratio (z) = 0.15449 0.45189
#
# Static dielectric constant tensor:
#      x y z
#    x 2.720100 0.000000 0.044640 
#    y 0.000000 2.984680 0.000000 
#    z 0.044640 0.000000 2.974920 
# 
# 
# High freq. dielectric constant tensor:
#      x y z
#    x 1.528420 0.000000 -0.004930 
#    y 0.000000 1.569180 0.000000 
#    z -0.004930 0.000000 1.537010 
# 
# From -- ./inp_files/384618.got.cif
#   From: 2010.06.25/outbox.cif.g09.slc.cpg/sg12_193_cif.got.tgz:384618.got - 2010.06.28 00:19:55.
