data_PCOD8079291
_publ_section_title
;
Structure prediction by ZEFSAII (Michael W. Deem and Ramdas Pophale) SiO2 
 PCOD8079291
Probable space group: C 2/M
;
_chemical_formula_sum "Si O2"
_cell_formula_units_Z 48
_cell_length_a 20.827399
_cell_length_b 24.792294
_cell_length_c 17.611160
_cell_angle_alpha 90.000000
_cell_angle_beta 160.410863
_cell_angle_gamma 90.000000
_cell_volume 3048.865278
_symmetry_space_group_name_H-M "C 2/M"
_symmetry_group_IT_number 12
_symmetry_cell_setting 'monoclinic'
loop_
_space_group_symop_operation_xyz
x,y,z
-x,y,-z
-x,-y,-z
x,-y,z
1/2+x,1/2+y,z
1/2-x,1/2+y,-z
1/2-x,1/2-y,-z
1/2+x,1/2-y,z
loop_
_atom_site_type_symbol
_atom_site_label
_atom_site_fract_x
_atom_site_fract_y
_atom_site_fract_z
Si Si1 0.631693 0.376780 0.719793
Si Si2 0.681708 0.639246 0.517018
Si Si3 0.693308 0.248969 0.615102
Si Si4 0.883118 0.791991 0.690636
Si Si5 0.239311 0.758638 0.838925
Si Si6 0.490171 0.938012 0.077530
O O1 0.500000 0.365965 0.500000
O O2 0.497813 0.390316 0.642648
O O3 0.753338 0.322530 0.869882
O O4 0.775745 0.426218 0.867989
O O5 0.736684 0.692474 0.626703
O O6 0.624538 0.652780 0.366101
O O7 0.858850 0.598636 0.709849
O O8 0.798815 0.202845 0.682303
O O9 0.779694 0.246896 0.795423
O O10 0.466953 0.236930 0.364327
O O11 0.750000 0.750000 0.500000
O O12 0.101673 0.771452 0.934304
O O13 0.538770 0.000000 0.147895
O O14 0.500000 0.924062 0.000000
#
# Coordination Sequence:
#
# PCOD8079291 Si02
#       6
#     8   8   8   8   8   8
#     4  11  18  31  49  64  89 123 157 192 227 261
#     4  10  20  33  44  67  92 123 152 191 236 266
#     4   9  17  30  47  67  90 129 153 185 218 265
#     4  10  20  27  43  67  93 124 155 186 222 271
#     4  10  17  30  46  67  94 124 160 181 219 270
#     4  11  22  33  49  66  84 116 161 206 234 264
#
# _framework density 15.743563
#
# number of rings (size 3 to 8) (size 9 to 14) (size 15 to 20)
#    0.000    1.833    5.000    2.500    0.000    8.333 
#    0.000    0.000    0.000    0.000    0.000    0.000 
#    0.000    2.667    0.000   10.000    0.000    0.000 
#
# Total GULP energy -297574.408678 kJ/mol
# GULP energy per Si atom -12398.933695 kJ/mol
# Density = 1.570773 g / cm^3
# Si number density = 15.743563 Si / 1000 Ang^3
#
#
#
# Elastic Constant Matrix: (Units=GPa)
#
#
# Indices 1 2 3 4 5 6 
#
# 1 62.4319 25.2980 14.4662 -0.0003 12.9110 -0.0010
# 2 25.2980 51.6390 38.8477 0.0001 -0.4622 0.0001
# 3 14.4662 38.8477 82.9368 0.0005 -0.5779 0.0000
# 4 -0.0003 0.0001 0.0005 20.7710 -0.0001 2.8430
# 5 12.9110 -0.4622 -0.5779 -0.0001 22.7093 -0.0003
# 6 -0.0010 0.0001 0.0000 2.8430 -0.0003 11.0834
#
#
#
# Elastic Compliance Matrix: (Units=1/GPa)
#
#
# Indices 1 2 3 4 5 6 
#
# 1 0.023769 -0.013243 0.001961 0.000000 -0.013733 0.000002
# 2 -0.013243 0.037282 -0.015098 0.000000 0.007904 -0.000001
# 3 0.001961 -0.015098 0.018781 0.000000 -0.000944 0.000000
# 4 0.000000 0.000000 0.000000 0.049896 0.000000 -0.012799
# 5 -0.013733 0.007904 -0.000944 0.000000 0.051979 0.000000
# 6 0.000002 -0.000001 0.000000 -0.012799 0.000000 0.093508
#
#
# Mechanical properties :
#
#
# Convention : Reuss Voigt Hill
#
# Bulk Modulus (GPa) = 36.93778 39.35907 38.14843
# Shear Modulus (GPa) = 14.83690 18.80580 16.82135
#
# Velocity S-wave (km/s) = 3.07320 3.45991 3.27228
# Velocity P-wave (km/s) = 6.00881 6.40435 6.20973
#
# Compressibility (1/GPa) = 0.02707255
#
# Stress axis : x y z
#
# Youngs Moduli (GPa) = 42.07131 26.82275 53.24664
#
# Poissons Ratio (x) = 0.35521 -0.10444
# Poissons Ratio (y) = 0.55715 0.80391
# Poissons Ratio (z) = -0.08252 0.40497
#
# Static dielectric constant tensor:
#      x y z
#    x 3.533120 0.000000 0.101730 
#    y 0.000000 2.691790 0.000000 
#    z 0.101730 0.000000 2.990040 
# 
# 
# High freq. dielectric constant tensor:
#      x y z
#    x 1.607710 0.000000 0.020160 
#    y 0.000000 1.547240 0.000000 
#    z 0.020160 0.000000 1.611290 
# 
# From -- ./inp_files/285845.got.cif
#   From: 2010.06.25/outbox.cif.g09.slc.cpg/sg12_143_cif.got.tgz:285845.got - 2010.06.28 00:19:55.
