data_PCOD8079453
_publ_section_title
;
Structure prediction by ZEFSAII (Michael W. Deem and Ramdas Pophale) SiO2 
 PCOD8079453
Probable space group: C 2/M
;
_chemical_formula_sum "Si O2"
_cell_formula_units_Z 60
_cell_length_a 16.452956
_cell_length_b 25.567971
_cell_length_c 9.412985
_cell_angle_alpha 90.000000
_cell_angle_beta 113.812890
_cell_angle_gamma 90.000000
_cell_volume 3622.650296
_symmetry_space_group_name_H-M "C 2/M"
_symmetry_group_IT_number 12
_symmetry_cell_setting 'monoclinic'
loop_
_space_group_symop_operation_xyz
x,y,z
-x,y,-z
-x,-y,-z
x,-y,z
1/2+x,1/2+y,z
1/2-x,1/2+y,-z
1/2-x,1/2-y,-z
1/2+x,1/2-y,z
loop_
_atom_site_type_symbol
_atom_site_label
_atom_site_fract_x
_atom_site_fract_y
_atom_site_fract_z
Si Si1 0.887058 0.106554 0.018329
Si Si2 0.000000 0.211064 0.500000
Si Si3 0.325274 0.299298 0.796691
Si Si4 0.598894 0.803653 0.040175
Si Si5 0.774493 0.852567 0.176831
Si Si6 0.136254 0.144956 0.455333
Si Si7 0.350433 0.241924 0.214954
Si Si8 0.571830 0.440166 0.225744
O O1 0.884290 0.162364 0.936153
O O2 0.871912 0.063178 0.882830
O O3 0.814652 0.104213 0.095735
O O4 0.983560 0.095296 0.151474
O O5 0.959347 0.172435 0.589858
O O6 0.922993 0.248044 0.386877
O O7 0.372039 0.242399 0.830520
O O8 0.315010 0.319937 0.628538
O O9 0.224259 0.297502 0.781146
O O10 0.667017 0.852807 0.103522
O O11 0.500000 0.824334 0.000000
O O12 0.599019 0.782373 0.881176
O O13 0.809160 0.859395 0.360783
O O14 0.803597 0.796069 0.134939
O O15 0.126216 0.085335 0.393481
O O16 0.549477 0.500000 0.245671
#
# Coordination Sequence:
#
# PCOD8079453 Si02
#       8
#     8   4   8   8   8   8   8   8
#     4  10  17  31  52  66  96 133 157 201 239 296
#     4  10  20  30  45  70 102 134 177 196 244 278
#     4  10  19  30  47  66  92 139 178 197 245 274
#     4  11  20  28  48  70  99 132 178 216 231 269
#     4  10  19  34  45  68 100 133 174 200 245 284
#     4  10  21  32  49  67  99 140 161 201 249 305
#     4  10  18  31  44  67  99 131 176 221 219 282
#     4  10  21  34  51  79  99 119 161 210 245 304
#
# _framework density 16.562460999999999
#
# number of rings (size 3 to 8) (size 9 to 14) (size 15 to 20)
#    0.000    1.867    2.667    4.000    3.733    5.867 
#    0.000    3.667    0.000    0.000    0.000    0.000 
#    0.000    5.867    0.267    0.067    0.000    0.000 
#
# Total GULP energy -371823.560949 kJ/mol
# GULP energy per Si atom -12394.118698 kJ/mol
# Density = 1.652476 g / cm^3
# Si number density = 16.562461 Si / 1000 Ang^3
#
#
#
# Elastic Constant Matrix: (Units=GPa)
#
#
# Indices 1 2 3 4 5 6 
#
# 1 121.0682 38.0986 47.7856 0.0000 -2.5872 0.0000
# 2 38.0986 59.1756 33.2010 0.0000 0.6275 0.0000
# 3 47.7856 33.2010 91.5807 0.0000 -12.7461 0.0000
# 4 0.0000 0.0000 0.0000 11.9670 0.0000 -2.8886
# 5 -2.5872 0.6275 -12.7461 0.0000 24.7002 0.0000
# 6 0.0000 0.0000 0.0000 -2.8886 0.0000 13.7146
#
#
#
# Elastic Compliance Matrix: (Units=1/GPa)
#
#
# Indices 1 2 3 4 5 6 
#
# 1 0.011515 -0.004974 -0.004331 0.000000 -0.000902 0.000000
# 2 -0.004974 0.023918 -0.006715 0.000000 -0.004594 0.000000
# 3 -0.004331 -0.006715 0.016779 0.000000 0.008375 0.000000
# 4 0.000000 0.000000 0.000000 0.088039 0.000000 0.018543
# 5 -0.000902 -0.004594 0.008375 0.000000 0.044830 0.000000
# 6 0.000000 0.000000 0.000000 0.018543 0.000000 0.076821
#
#
# Mechanical properties :
#
#
# Convention : Reuss Voigt Hill
#
# Bulk Modulus (GPa) = 49.57303 56.66609 53.11956
# Shear Modulus (GPa) = 16.62982 20.25896 18.44439
#
# Velocity S-wave (km/s) = 3.17214 3.50120 3.34072
# Velocity P-wave (km/s) = 6.58882 7.11564 6.85729
#
# Compressibility (1/GPa) = 0.02017226
#
# Stress axis : x y z
#
# Youngs Moduli (GPa) = 86.84150 41.81033 59.59834
#
# Poissons Ratio (x) = 0.20798 0.25810
# Poissons Ratio (y) = 0.43199 0.40018
# Poissons Ratio (z) = 0.37608 0.28074
#
# Static dielectric constant tensor:
#      x y z
#    x 3.256370 0.000000 -0.164520 
#    y 0.000000 2.820270 0.000000 
#    z -0.164520 0.000000 3.173430 
# 
# 
# High freq. dielectric constant tensor:
#      x y z
#    x 1.629170 0.000000 -0.012750 
#    y 0.000000 1.585940 0.000000 
#    z -0.012750 0.000000 1.651560 
# 
# From -- ./inp_files/66549.got.cif
#   From: 2010.06.25/outbox.cif.g09.slc.cpg/sg12_34_cif.got.tgz:66549.got - 2010.06.28 00:19:55.
