data_PCOD8079901
_publ_section_title
;
Structure prediction by ZEFSAII (Michael W. Deem and Ramdas Pophale) SiO2 
 PCOD8079901
Probable space group: C 2/M
;
_chemical_formula_sum "Si O2"
_cell_formula_units_Z 64
_cell_length_a 31.774118
_cell_length_b 9.383993
_cell_length_c 16.261880
_cell_angle_alpha 90.000000
_cell_angle_beta 109.451435
_cell_angle_gamma 90.000000
_cell_volume 4572.025712
_symmetry_space_group_name_H-M "C 2/M"
_symmetry_group_IT_number 12
_symmetry_cell_setting 'monoclinic'
loop_
_space_group_symop_operation_xyz
x,y,z
-x,y,-z
-x,-y,-z
x,-y,z
1/2+x,1/2+y,z
1/2-x,1/2+y,-z
1/2-x,1/2-y,-z
1/2+x,1/2-y,z
loop_
_atom_site_type_symbol
_atom_site_label
_atom_site_fract_x
_atom_site_fract_y
_atom_site_fract_z
Si Si1 0.290117 0.337623 0.991726
Si Si2 0.831180 0.165448 0.179111
Si Si3 0.913461 0.832844 0.339696
Si Si4 0.010481 0.157300 0.410851
Si Si5 0.316027 0.164376 0.531435
Si Si6 0.231932 0.166302 0.368470
Si Si7 0.247748 0.166695 0.196504
Si Si8 0.592322 0.832349 0.496218
O O1 0.275897 0.500000 0.992679
O O2 0.332184 0.305626 0.079810
O O3 0.250000 0.250000 0.000000
O O4 0.293191 0.304237 0.895615
O O5 0.879191 0.210696 0.245567
O O6 0.792660 0.253867 0.198907
O O7 0.821729 0.000000 0.191507
O O8 0.901470 0.742282 0.412178
O O9 0.963377 0.797287 0.338158
O O10 0.910452 0.000000 0.361133
O O11 0.049539 0.270777 0.418700
O O12 0.000000 0.152532 0.500000
O O13 0.025661 0.000000 0.390325
O O14 0.280110 0.204026 0.438026
O O15 0.307156 0.253748 0.608043
O O16 0.364668 0.203331 0.530025
O O17 0.312317 0.000000 0.553103
O O18 0.231537 0.222239 0.274437
O O19 0.221371 0.000000 0.366703
O O20 0.259770 0.000000 0.210328
O O21 0.585858 0.000000 0.505845
#
# Coordination Sequence:
#
# PCOD8079901 Si02
#       8
#     8   8   8   8   8   8   8   8
#     4   8  14  24  37  53  74  98 123 151 181 214
#     4   9  16  25  38  56  76 101 130 152 176 216
#     4   9  17  27  38  54  77 102 127 153 179 213
#     4   8  15  27  39  52  73  99 124 151 182 216
#     4   9  18  29  38  52  74  96 121 155 187 213
#     4   9  17  28  40  53  71  97 126 152 181 217
#     4   9  16  26  39  55  76 100 125 155 188 216
#     4  10  18  27  40  56  74  97 125 155 187 220
#
# _framework density 13.998170999999999
#
# number of rings (size 3 to 8) (size 9 to 14) (size 15 to 20)
#    0.000    3.125    0.000    1.875    0.000    5.250 
#    0.000    2.500    0.000    0.000    0.000    0.000 
#    0.000    1.000    0.000   12.500    0.000    2.000 
#
# Total GULP energy -396443.221165 kJ/mol
# GULP energy per Si atom -12388.850661 kJ/mol
# Density = 1.396631 g / cm^3
# Si number density = 13.998171 Si / 1000 Ang^3
#
#
#
# Elastic Constant Matrix: (Units=GPa)
#
#
# Indices 1 2 3 4 5 6 
#
# 1 85.7442 40.1852 57.9136 0.0000 8.2171 0.0000
# 2 40.1852 46.5354 37.2208 0.0000 1.5845 0.0000
# 3 57.9136 37.2208 120.2832 0.0000 5.1898 0.0000
# 4 0.0000 0.0000 0.0000 15.4057 0.0000 -0.3976
# 5 8.2171 1.5845 5.1898 0.0000 20.8365 0.0000
# 6 0.0000 0.0000 0.0000 -0.3976 0.0000 22.3634
#
#
#
# Elastic Compliance Matrix: (Units=1/GPa)
#
#
# Indices 1 2 3 4 5 6 
#
# 1 0.023747 -0.015102 -0.006475 0.000000 -0.006604 0.000000
# 2 -0.015102 0.038162 -0.004720 0.000000 0.004229 0.000000
# 3 -0.006475 -0.004720 0.012905 0.000000 -0.000302 0.000000
# 4 0.000000 0.000000 0.000000 0.064941 0.000000 0.001155
# 5 -0.006604 0.004229 -0.000302 0.000000 0.050351 0.000000
# 6 0.000000 0.000000 0.000000 0.001155 0.000000 0.044736
#
#
# Mechanical properties :
#
#
# Convention : Reuss Voigt Hill
#
# Bulk Modulus (GPa) = 45.00778 58.13355 51.57066
# Shear Modulus (GPa) = 16.95817 19.53732 18.24775
#
# Velocity S-wave (km/s) = 3.48437 3.73997 3.61443
# Velocity P-wave (km/s) = 6.95775 7.76333 7.37155
#
# Compressibility (1/GPa) = 0.02221838
#
# Stress axis : x y z
#
# Youngs Moduli (GPa) = 42.11052 26.20424 77.48920
#
# Poissons Ratio (x) = 0.39575 0.50177
# Poissons Ratio (y) = 0.63597 0.36574
# Poissons Ratio (z) = 0.27268 0.12368
#
# Static dielectric constant tensor:
#      x y z
#    x 2.618600 0.000000 0.241870 
#    y 0.000000 2.777280 0.000000 
#    z 0.241870 0.000000 3.194340 
# 
# 
# High freq. dielectric constant tensor:
#      x y z
#    x 1.501480 0.000000 0.013980 
#    y 0.000000 1.540140 0.000000 
#    z 0.013980 0.000000 1.525950 
# 
# From -- ./inp_files/294590.got.cif
#   From: 2010.06.25/outbox.cif.g09.slc.cpg/sg12_148_cif.got.tgz:294590.got - 2010.06.28 00:19:55.
