data_PCOD8079933
_publ_section_title
;
Structure prediction by ZEFSAII (Michael W. Deem and Ramdas Pophale) SiO2 
 PCOD8079933
Probable space group: C 2/M
;
_chemical_formula_sum "Si O2"
_cell_formula_units_Z 56
_cell_length_a 26.842699
_cell_length_b 9.465795
_cell_length_c 14.539997
_cell_angle_alpha 90.000000
_cell_angle_beta 75.308773
_cell_angle_gamma 90.000000
_cell_volume 3573.647750
_symmetry_space_group_name_H-M "C 2/M"
_symmetry_group_IT_number 12
_symmetry_cell_setting 'monoclinic'
loop_
_space_group_symop_operation_xyz
x,y,z
-x,y,-z
-x,-y,-z
x,-y,z
1/2+x,1/2+y,z
1/2-x,1/2+y,-z
1/2-x,1/2-y,-z
1/2+x,1/2-y,z
loop_
_atom_site_type_symbol
_atom_site_label
_atom_site_fract_x
_atom_site_fract_y
_atom_site_fract_z
Si Si1 0.189749 0.335567 0.707968
Si Si2 0.214100 0.342927 0.388718
Si Si3 0.286355 0.835828 0.103925
Si Si4 0.813521 0.336046 0.892813
Si Si5 0.120671 0.659611 0.299258
Si Si6 0.627505 0.836959 0.570562
Si Si7 0.060676 0.162968 0.468079
O O1 0.200868 0.500000 0.692484
O O2 0.239423 0.263765 0.641301
O O3 0.181857 0.293011 0.818892
O O4 0.138182 0.298195 0.672980
O O5 0.237418 0.500000 0.381746
O O6 0.176000 0.327475 0.320773
O O7 0.181830 0.308846 0.495332
O O8 0.233234 0.752067 0.127195
O O9 0.271635 0.000000 0.112898
O O10 0.320878 0.800093 0.997742
O O11 0.799468 0.500000 0.885329
O O12 0.866960 0.301310 0.813477
O O13 0.098732 0.500000 0.319145
O O14 0.080220 0.766042 0.364174
O O15 0.583576 0.738396 0.547911
O O16 0.610163 0.000000 0.565395
O O17 0.000000 0.179565 0.500000
O O18 0.077835 0.000000 0.460279
#
# Coordination Sequence:
#
# PCOD8079933 Si02
#       7
#     8   8   8   8   8   8   8
#     4  10  18  27  40  62  90 120 153 181 209 247
#     4   9  16  26  39  58  86 120 153 180 208 246
#     4   9  17  26  40  62  90 123 154 185 215 241
#     4   9  16  28  42  60  89 122 154 184 213 249
#     4   9  17  29  46  66  89 119 151 180 215 262
#     4   9  19  32  44  61  87 118 148 177 213 263
#     4  10  21  35  50  69  88 105 135 184 233 272
#
# _framework density 15.670264
#
# number of rings (size 3 to 8) (size 9 to 14) (size 15 to 20)
#    0.000    2.714    1.429    1.714    0.000    4.571 
#    0.000    0.000    0.000    0.000    0.000    1.000 
#    0.000    8.000    0.000    0.000    0.000    0.000 
#
# Total GULP energy -346997.408281 kJ/mol
# GULP energy per Si atom -12392.764581 kJ/mol
# Density = 1.563460 g / cm^3
# Si number density = 15.670264 Si / 1000 Ang^3
#
#
#
# Elastic Constant Matrix: (Units=GPa)
#
#
# Indices 1 2 3 4 5 6 
#
# 1 57.3191 42.0431 47.6897 0.0000 4.4433 0.0000
# 2 42.0431 71.4033 48.3966 0.0000 2.0403 0.0000
# 3 47.6897 48.3966 113.0137 0.0000 13.5743 0.0000
# 4 0.0000 0.0000 0.0000 17.9362 0.0000 -2.3857
# 5 4.4433 2.0403 13.5743 0.0000 16.9688 0.0000
# 6 0.0000 0.0000 0.0000 -2.3857 0.0000 21.3040
#
#
#
# Elastic Compliance Matrix: (Units=1/GPa)
#
#
# Indices 1 2 3 4 5 6 
#
# 1 0.035760 -0.015314 -0.008440 0.000000 -0.000771 0.000000
# 2 -0.015314 0.026658 -0.005587 0.000000 0.005274 0.000000
# 3 -0.008440 -0.005587 0.015993 0.000000 -0.009912 0.000000
# 4 0.000000 0.000000 0.000000 0.056596 0.000000 0.006338
# 5 -0.000771 0.005274 -0.009912 0.000000 0.066429 0.000000
# 6 0.000000 0.000000 0.000000 0.006338 0.000000 0.047649
#
#
# Mechanical properties :
#
#
# Convention : Reuss Voigt Hill
#
# Bulk Modulus (GPa) = 50.68400 57.55501 54.11950
# Shear Modulus (GPa) = 15.90615 18.14893 17.02754
#
# Velocity S-wave (km/s) = 3.18945 3.40689 3.29996
# Velocity P-wave (km/s) = 6.78069 7.23080 7.00936
#
# Compressibility (1/GPa) = 0.01973009
#
# Stress axis : x y z
#
# Youngs Moduli (GPa) = 27.96402 37.51182 62.52677
#
# Poissons Ratio (x) = 0.57444 0.52770
# Poissons Ratio (y) = 0.42823 0.34937
# Poissons Ratio (z) = 0.23601 0.20960
#
# Static dielectric constant tensor:
#      x y z
#    x 2.631830 0.000000 0.288380 
#    y 0.000000 3.050120 0.000000 
#    z 0.288380 0.000000 3.539990 
# 
# 
# High freq. dielectric constant tensor:
#      x y z
#    x 1.551120 0.000000 0.015890 
#    y 0.000000 1.605900 0.000000 
#    z 0.015890 0.000000 1.609160 
# 
# From -- ./inp_files/247732.got.cif
#   From: 2010.06.25/outbox.cif.g09.slc.cpg/sg12_124_cif.got.tgz:247732.got - 2010.06.28 00:19:55.
