data_PCOD8079560
_publ_section_title
;
Structure prediction by ZEFSAII (Michael W. Deem and Ramdas Pophale) SiO2 
 PCOD8079560
Probable space group: C 2/M
;
_chemical_formula_sum "Si O2"
_cell_formula_units_Z 60
_cell_length_a 27.090454
_cell_length_b 13.859242
_cell_length_c 12.725717
_cell_angle_alpha 90.000000
_cell_angle_beta 137.308240
_cell_angle_gamma 90.000000
_cell_volume 3239.681278
_symmetry_space_group_name_H-M "C 2/M"
_symmetry_group_IT_number 12
_symmetry_cell_setting 'monoclinic'
loop_
_space_group_symop_operation_xyz
x,y,z
-x,y,-z
-x,-y,-z
x,-y,z
1/2+x,1/2+y,z
1/2-x,1/2+y,-z
1/2-x,1/2-y,-z
1/2+x,1/2-y,z
loop_
_atom_site_type_symbol
_atom_site_label
_atom_site_fract_x
_atom_site_fract_y
_atom_site_fract_z
Si Si1 0.348883 0.892640 0.690530
Si Si2 0.479728 0.887462 0.583347
Si Si3 0.060773 0.892113 0.350859
Si Si4 0.500000 0.844070 0.000000
Si Si5 0.151873 0.711207 0.532595
Si Si6 0.053076 0.259047 0.867393
Si Si7 0.919488 0.105099 0.854513
Si Si8 0.812858 0.752467 0.801779
O O1 0.431828 0.908113 0.858288
O O2 0.345157 0.822553 0.584073
O O3 0.304667 0.844302 0.717968
O O4 0.317212 0.000000 0.616907
O O5 0.500000 0.847608 0.500000
O O6 0.395278 0.865537 0.475464
O O7 0.532251 0.839772 0.751208
O O8 0.494200 0.000000 0.613691
O O9 0.114414 0.816111 0.492136
O O10 0.095334 0.904706 0.291130
O O11 0.979382 0.845071 0.219526
O O12 0.057326 0.000000 0.398593
O O13 0.520424 0.779592 0.931194
O O14 0.232688 0.711851 0.706976
O O15 0.141116 0.259791 0.017896
O O16 0.855838 0.170515 0.799243
O O17 0.914970 0.000000 0.902459
O O18 0.000000 0.148619 0.000000
#
# Coordination Sequence:
#
# PCOD8079560 Si02
#       8
#     8   8   8   4   8   8   8   8
#     4  11  21  31  48  76 116 157 189 221 273 339
#     4  10  22  42  66  86 106 143 194 240 281 330
#     4  10  18  31  51  72 104 150 192 224 260 319
#     4  10  17  32  53  82 116 146 187 234 279 330
#     4  11  22  37  52  79 116 149 186 233 283 334
#     4  10  19  34  57  83 113 145 187 232 277 334
#     4  10  18  29  47  72 107 151 187 217 257 320
#     4  11  22  34  49  81 118 150 181 228 280 342
#
# _framework density 18.520340999999998
#
# number of rings (size 3 to 8) (size 9 to 14) (size 15 to 20)
#    0.000    1.600    5.333    1.800    0.933    3.733 
#    0.000    0.667    0.000    6.400    0.000    0.000 
#    0.000    0.000    0.000    0.000    0.000    0.000 
#
# Total GULP energy -371717.276568 kJ/mol
# GULP energy per Si atom -12390.575886 kJ/mol
# Density = 1.847819 g / cm^3
# Si number density = 18.520341 Si / 1000 Ang^3
#
#
#
# Elastic Constant Matrix: (Units=GPa)
#
#
# Indices 1 2 3 4 5 6 
#
# 1 51.9907 13.9733 50.0373 0.0000 5.8876 0.0000
# 2 13.9733 109.3562 30.6262 0.0000 -1.8569 0.0000
# 3 50.0373 30.6262 105.4255 0.0000 17.8376 0.0000
# 4 0.0000 0.0000 0.0000 14.6400 0.0000 0.2852
# 5 5.8876 -1.8569 17.8376 0.0000 24.4529 0.0000
# 6 0.0000 0.0000 0.0000 0.2852 0.0000 13.5032
#
#
#
# Elastic Compliance Matrix: (Units=1/GPa)
#
#
# Indices 1 2 3 4 5 6 
#
# 1 0.035828 0.000514 -0.017912 0.000000 0.004479 0.000000
# 2 0.000514 0.010196 -0.003783 0.000000 0.003410 0.000000
# 3 -0.017912 -0.003783 0.020996 0.000000 -0.011291 0.000000
# 4 0.000000 0.000000 0.000000 0.068334 0.000000 -0.001443
# 5 0.004479 0.003410 -0.011291 0.000000 0.048312 0.000000
# 6 0.000000 0.000000 0.000000 -0.001443 0.000000 0.074087
#
#
# Mechanical properties :
#
#
# Convention : Reuss Voigt Hill
#
# Bulk Modulus (GPa) = 40.55355 50.67176 45.61265
# Shear Modulus (GPa) = 16.21621 21.99492 19.10557
#
# Velocity S-wave (km/s) = 2.96225 3.44991 3.21534
# Velocity P-wave (km/s) = 5.80036 6.57941 6.20213
#
# Compressibility (1/GPa) = 0.02465876
#
# Stress axis : x y z
#
# Youngs Moduli (GPa) = 27.91143 98.07680 47.62796
#
# Poissons Ratio (x) = -0.05046 0.85311
# Poissons Ratio (y) = -0.01436 0.18018
# Poissons Ratio (z) = 0.49995 0.37104
#
# Static dielectric constant tensor:
#      x y z
#    x 3.074820 0.000000 0.189690 
#    y 0.000000 3.611760 0.000000 
#    z 0.189690 0.000000 3.735050 
# 
# 
# High freq. dielectric constant tensor:
#      x y z
#    x 1.663830 0.000000 0.018460 
#    y 0.000000 1.733380 0.000000 
#    z 0.018460 0.000000 1.706380 
# 
# From -- ./inp_files/176469.got.cif
#   From: 2010.06.25/outbox.cif.g09.slc.cpg/sg12_89_cif.got.tgz:176469.got - 2010.06.28 00:19:55.
