data_PCOD8079943
_publ_section_title
;
Structure prediction by ZEFSAII (Michael W. Deem and Ramdas Pophale) SiO2 
 PCOD8079943
Probable space group: C 2/M
;
_chemical_formula_sum "Si O2"
_cell_formula_units_Z 64
_cell_length_a 27.680074
_cell_length_b 8.948847
_cell_length_c 22.430260
_cell_angle_alpha 90.000000
_cell_angle_beta 133.878440
_cell_angle_gamma 90.000000
_cell_volume 4004.890399
_symmetry_space_group_name_H-M "C 2/M"
_symmetry_group_IT_number 12
_symmetry_cell_setting 'monoclinic'
loop_
_space_group_symop_operation_xyz
x,y,z
-x,y,-z
-x,-y,-z
x,-y,z
1/2+x,1/2+y,z
1/2-x,1/2+y,-z
1/2-x,1/2-y,-z
1/2+x,1/2-y,z
loop_
_atom_site_type_symbol
_atom_site_label
_atom_site_fract_x
_atom_site_fract_y
_atom_site_fract_z
Si Si1 0.764193 0.326845 0.574191
Si Si2 0.605604 0.326628 0.317312
Si Si3 0.529556 0.177493 0.801208
Si Si4 0.837240 0.665408 0.028490
Si Si5 0.282204 0.833942 0.114652
Si Si6 0.498932 0.826742 0.568564
Si Si7 0.381960 0.330749 0.531457
Si Si8 0.409118 0.676857 0.262012
O O1 0.781217 0.500000 0.578281
O O2 0.750000 0.250000 0.500000
O O3 0.828697 0.245083 0.658483
O O4 0.696080 0.309264 0.554768
O O5 0.601985 0.500000 0.297656
O O6 0.540546 0.242872 0.235518
O O7 0.609332 0.298432 0.391079
O O8 0.585710 0.219572 0.898987
O O9 0.547517 0.251467 0.753626
O O10 0.526198 0.000000 0.788897
O O11 0.834354 0.500000 0.998218
O O12 0.806482 0.663229 0.067885
O O13 0.793969 0.771839 0.948344
O O14 0.331971 0.730561 0.195538
O O15 0.282275 0.000000 0.142131
O O16 0.500000 0.791509 0.500000
O O17 0.426192 0.783693 0.531845
O O18 0.557472 0.727770 0.647785
O O19 0.512456 0.000000 0.593816
O O20 0.405434 0.500000 0.537952
O O21 0.411371 0.500000 0.257236
#
# Coordination Sequence:
#
# PCOD8079943 Si02
#       8
#     8   8   8   8   8   8   8   8
#     4   9  17  28  42  60  82 106 137 172 208 251
#     4  10  18  27  41  63  86 110 142 173 208 252
#     4  10  18  27  41  59  83 113 142 174 209 245
#     4   8  15  25  36  55  79 105 137 169 203 242
#     4   9  16  26  40  56  76 103 136 171 206 245
#     4  11  23  35  47  63  82 107 142 182 222 260
#     4   9  18  31  45  61  80 106 139 175 214 255
#     4  11  20  30  44  59  78 106 139 176 215 255
#
# _framework density 15.980463
#
# number of rings (size 3 to 8) (size 9 to 14) (size 15 to 20)
#    0.000    2.375    1.250    4.500    0.000    7.000 
#    0.000    0.000    0.000    0.000    0.000    0.000 
#    0.000    0.000    0.000    1.125    0.000   21.000 
#
# Total GULP energy -396665.693605 kJ/mol
# GULP energy per Si atom -12395.802925 kJ/mol
# Density = 1.594409 g / cm^3
# Si number density = 15.980463 Si / 1000 Ang^3
#
#
#
# Elastic Constant Matrix: (Units=GPa)
#
#
# Indices 1 2 3 4 5 6 
#
# 1 43.1472 32.1644 41.4283 0.0000 23.2836 0.0000
# 2 32.1644 114.1958 52.7282 0.0000 21.5350 0.0000
# 3 41.4283 52.7282 85.5565 0.0000 37.5480 0.0000
# 4 0.0000 0.0000 0.0000 25.9888 0.0000 10.3179
# 5 23.2836 21.5350 37.5480 0.0000 31.7969 0.0000
# 6 0.0000 0.0000 0.0000 10.3179 0.0000 21.0621
#
#
#
# Elastic Compliance Matrix: (Units=1/GPa)
#
#
# Indices 1 2 3 4 5 6 
#
# 1 0.048176 -0.004235 -0.013481 0.000000 -0.016490 0.000000
# 2 -0.004235 0.012637 -0.006938 0.000000 0.002735 0.000000
# 3 -0.013481 -0.006938 0.033414 0.000000 -0.024887 0.000000
# 4 0.000000 0.000000 0.000000 0.047769 0.000000 -0.023401
# 5 -0.016490 0.002735 -0.024887 0.000000 0.071061 0.000000
# 6 0.000000 0.000000 0.000000 -0.023401 0.000000 0.058942
#
#
# Mechanical properties :
#
#
# Convention : Reuss Voigt Hill
#
# Bulk Modulus (GPa) = 22.26213 55.06014 38.66113
# Shear Modulus (GPa) = 14.86856 23.54146 19.20501
#
# Velocity S-wave (km/s) = 3.05359 3.84231 3.47043
# Velocity P-wave (km/s) = 5.13747 7.36301 6.34853
#
# Compressibility (1/GPa) = 0.04491934
#
# Stress axis : x y z
#
# Youngs Moduli (GPa) = 20.75731 79.12959 29.92751
#
# Poissons Ratio (x) = 0.33511 0.40345
# Poissons Ratio (y) = 0.08791 0.20764
# Poissons Ratio (z) = 0.27983 0.54902
#
# Static dielectric constant tensor:
#      x y z
#    x 2.875630 0.000000 0.582640 
#    y 0.000000 3.216320 0.000000 
#    z 0.582640 0.000000 3.068560 
# 
# 
# High freq. dielectric constant tensor:
#      x y z
#    x 1.564500 0.000000 0.055700 
#    y 0.000000 1.632230 0.000000 
#    z 0.055700 0.000000 1.592580 
# 
# From -- ./inp_files/326876.got.cif
#   From: 2010.06.25/outbox.cif.g09.slc.cpg/sg12_164_cif.got.tgz:326876.got - 2010.06.28 00:19:55.
