data_PCOD8079073
_publ_section_title
;
Structure prediction by ZEFSAII (Michael W. Deem and Ramdas Pophale) SiO2 
 PCOD8079073
Probable space group: C 2/M
;
_chemical_formula_sum "Si O2"
_cell_formula_units_Z 64
_cell_length_a 31.901429
_cell_length_b 8.543689
_cell_length_c 15.805314
_cell_angle_alpha 90.000000
_cell_angle_beta 55.272140
_cell_angle_gamma 90.000000
_cell_volume 3540.465034
_symmetry_space_group_name_H-M "C 2/M"
_symmetry_group_IT_number 12
_symmetry_cell_setting 'monoclinic'
loop_
_space_group_symop_operation_xyz
x,y,z
-x,y,-z
-x,-y,-z
x,-y,z
1/2+x,1/2+y,z
1/2-x,1/2+y,-z
1/2-x,1/2-y,-z
1/2+x,1/2-y,z
loop_
_atom_site_type_symbol
_atom_site_label
_atom_site_fract_x
_atom_site_fract_y
_atom_site_fract_z
Si Si1 0.892019 0.182072 0.079849
Si Si2 0.935102 0.681218 0.193977
Si Si3 0.535255 0.680547 0.149672
Si Si4 0.025685 0.685277 0.340627
Si Si5 0.840302 0.817729 0.386010
Si Si6 0.321119 0.183954 0.586970
Si Si7 0.710617 0.314981 0.727553
Si Si8 0.423870 0.814316 0.546408
O O1 0.927894 0.274191 0.104163
O O2 0.832943 0.240752 0.155705
O O3 0.894845 0.000000 0.102475
O O4 0.912001 0.211066 0.961996
O O5 0.922483 0.500000 0.222057
O O6 0.898944 0.783186 0.296057
O O7 0.992645 0.713121 0.155554
O O8 0.519049 0.500000 0.161713
O O9 0.544763 0.727167 0.235381
O O10 0.028001 0.500000 0.323348
O O11 0.063246 0.739155 0.373112
O O12 0.968206 0.739637 0.430474
O O13 0.823549 0.717434 0.485133
O O14 0.805567 0.760308 0.347706
O O15 0.833749 0.000000 0.413909
O O16 0.267053 0.252791 0.684691
O O17 0.369577 0.259917 0.580269
O O18 0.323172 0.000000 0.598972
O O19 0.714465 0.500000 0.723702
O O20 0.422330 0.000000 0.545527
#
# Coordination Sequence:
#
# PCOD8079073 Si02
#       8
#     8   8   8   8   8   8   8   8
#     4   9  19  35  49  65  95 130 160 194 236 279
#     4  11  21  32  48  71  97 125 160 197 231 274
#     4  11  21  32  49  71  95 125 158 192 237 288
#     4   9  17  32  50  69  96 124 152 189 236 288
#     4  10  19  31  45  67 101 133 158 189 236 285
#     4  10  17  28  49  73  93 121 165 204 236 277
#     4   8  16  30  47  66  92 127 164 199 232 273
#     4   8  16  30  49  71  94 121 151 191 240 284
#
# _framework density 18.076720999999999
#
# number of rings (size 3 to 8) (size 9 to 14) (size 15 to 20)
#    0.000    2.500    0.000    4.875    0.000    3.500 
#    0.000    4.375    0.000    0.750    0.000    0.000 
#    0.000    0.000    0.000    0.000    0.000    0.125 
#
# Total GULP energy -396665.512549 kJ/mol
# GULP energy per Si atom -12395.797267 kJ/mol
# Density = 1.803558 g / cm^3
# Si number density = 18.076721 Si / 1000 Ang^3
#
#
#
# Elastic Constant Matrix: (Units=GPa)
#
#
# Indices 1 2 3 4 5 6 
#
# 1 130.9928 16.2774 74.7864 0.0000 -18.2085 0.0000
# 2 16.2774 24.4849 10.0527 -0.0001 2.6726 -0.0002
# 3 74.7864 10.0527 127.6043 0.0000 -2.0603 0.0000
# 4 0.0000 -0.0001 0.0000 22.2871 0.0000 5.1968
# 5 -18.2085 2.6726 -2.0603 0.0000 22.2720 0.0000
# 6 0.0000 -0.0002 0.0000 5.1968 0.0000 15.5140
#
#
#
# Elastic Compliance Matrix: (Units=1/GPa)
#
#
# Indices 1 2 3 4 5 6 
#
# 1 0.014834 -0.007981 -0.007866 0.000000 0.012358 0.000000
# 2 -0.007981 0.047154 0.000767 0.000000 -0.012112 0.000001
# 3 -0.007866 0.000767 0.012299 0.000000 -0.005385 0.000000
# 4 0.000000 0.000000 0.000000 0.048671 0.000000 -0.016303
# 5 0.012358 -0.012112 -0.005385 0.000000 0.055958 0.000000
# 6 0.000000 0.000001 0.000000 -0.016303 0.000000 0.069919
#
#
# Mechanical properties :
#
#
# Convention : Reuss Voigt Hill
#
# Bulk Modulus (GPa) = 22.66111 53.92388 38.29250
# Shear Modulus (GPa) = 17.02391 24.14567 20.58479
#
# Velocity S-wave (km/s) = 3.07214 3.65873 3.37819
# Velocity P-wave (km/s) = 5.01471 6.90969 6.03701
#
# Compressibility (1/GPa) = 0.04412847
#
# Stress axis : x y z
#
# Youngs Moduli (GPa) = 67.41140 21.20694 81.30524
#
# Poissons Ratio (x) = 0.16926 0.63953
# Poissons Ratio (y) = 0.53802 -0.06238
# Poissons Ratio (z) = 0.53024 -0.01627
#
# Static dielectric constant tensor:
#      x y z
#    x 3.649680 0.000000 -0.258760 
#    y 0.000000 3.073460 0.000000 
#    z -0.258760 0.000000 3.431150 
# 
# 
# High freq. dielectric constant tensor:
#      x y z
#    x 1.686810 0.000000 -0.013410 
#    y 0.000000 1.676440 0.000000 
#    z -0.013410 0.000000 1.694810 
# 
# From -- ./inp_files/249089.got.cif
#   From: 2010.06.25/outbox.cif.g09.slc.cpg/sg12_125_cif.got.tgz:249089.got - 2010.06.28 00:19:55.
