data_PCOD8079652
_publ_section_title
;
Structure prediction by ZEFSAII (Michael W. Deem and Ramdas Pophale) SiO2 
 PCOD8079652
Probable space group: C 2/M
;
_chemical_formula_sum "Si O2"
_cell_formula_units_Z 48
_cell_length_a 10.453842
_cell_length_b 27.840342
_cell_length_c 8.822050
_cell_angle_alpha 90.000000
_cell_angle_beta 91.629133
_cell_angle_gamma 90.000000
_cell_volume 2566.518685
_symmetry_space_group_name_H-M "C 2/M"
_symmetry_group_IT_number 12
_symmetry_cell_setting 'monoclinic'
loop_
_space_group_symop_operation_xyz
x,y,z
-x,y,-z
-x,-y,-z
x,-y,z
1/2+x,1/2+y,z
1/2-x,1/2+y,-z
1/2-x,1/2-y,-z
1/2+x,1/2-y,z
loop_
_atom_site_type_symbol
_atom_site_label
_atom_site_fract_x
_atom_site_fract_y
_atom_site_fract_z
Si Si1 0.743102 0.300356 0.349187
Si Si2 0.759315 0.306015 0.693681
Si Si3 0.976875 0.055728 0.672703
Si Si4 0.482102 0.855499 0.335242
Si Si5 0.115134 0.126347 0.894837
Si Si6 0.245841 0.893027 0.188271
O O1 0.699370 0.306820 0.522553
O O2 0.704808 0.249545 0.273130
O O3 0.898309 0.306638 0.353833
O O4 0.681327 0.342895 0.247050
O O5 0.655077 0.325442 0.807772
O O6 0.881460 0.340592 0.727735
O O7 0.078231 0.084601 0.777078
O O8 0.000000 0.071125 0.500000
O O9 0.830925 0.065483 0.724072
O O10 0.006668 0.000000 0.696590
O O11 0.500000 0.880317 0.500000
O O12 0.399121 0.893173 0.229822
O O13 0.227727 0.104762 0.006357
O O14 0.000000 0.140959 0.000000
#
# Coordination Sequence:
#
# PCOD8079652 Si02
#       6
#     8   8   8   8   8   8
#     4   8  18  32  52  81 104 150 201 229 275 320
#     4  10  17  33  56  77 113 156 192 241 268 328
#     4  10  21  38  63  87 107 144 192 237 287 345
#     4   8  17  32  52  76 106 148 192 227 273 327
#     4  10  22  34  53  86 117 150 181 228 295 340
#     4   9  19  36  50  82 116 141 183 231 283 341
#
# _framework density 18.702379000000001
#
# number of rings (size 3 to 8) (size 9 to 14) (size 15 to 20)
#    1.000    1.833    0.000    1.000    0.000    7.000 
#    0.000    5.000    0.000    1.500    0.000    5.833 
#    0.000    0.000    0.000    0.000    0.000    0.000 
#
# Total GULP energy -297313.599755 kJ/mol
# GULP energy per Si atom -12388.066656 kJ/mol
# Density = 1.865981 g / cm^3
# Si number density = 18.702379 Si / 1000 Ang^3
#
#
#
# Elastic Constant Matrix: (Units=GPa)
#
#
# Indices 1 2 3 4 5 6 
#
# 1 64.4765 19.6330 44.9353 0.0000 12.2310 0.0000
# 2 19.6330 62.0419 51.8112 0.0000 -1.5347 0.0000
# 3 44.9353 51.8112 121.6276 0.0000 4.8901 0.0000
# 4 0.0000 0.0000 0.0000 20.3570 0.0000 -2.7326
# 5 12.2310 -1.5347 4.8901 0.0000 33.4762 0.0000
# 6 0.0000 0.0000 0.0000 -2.7326 0.0000 23.3498
#
#
#
# Elastic Compliance Matrix: (Units=1/GPa)
#
#
# Indices 1 2 3 4 5 6 
#
# 1 0.022450 -0.000922 -0.007615 0.000000 -0.007132 0.000000
# 2 -0.000922 0.025304 -0.010561 0.000000 0.003039 0.000000
# 3 -0.007615 -0.010561 0.015533 0.000000 0.000029 0.000000
# 4 0.000000 0.000000 0.000000 0.049907 0.000000 0.005840
# 5 -0.007132 0.003039 0.000029 0.000000 0.032613 0.000000
# 6 0.000000 0.000000 0.000000 0.005840 0.000000 0.043510
#
#
# Mechanical properties :
#
#
# Convention : Reuss Voigt Hill
#
# Bulk Modulus (GPa) = 39.85252 53.43386 46.64319
# Shear Modulus (GPa) = 21.19752 24.22104 22.70928
#
# Velocity S-wave (km/s) = 3.37027 3.60262 3.48838
# Velocity P-wave (km/s) = 6.04153 6.77775 6.42020
#
# Compressibility (1/GPa) = 0.02509252
#
# Stress axis : x y z
#
# Youngs Moduli (GPa) = 44.54321 39.51882 64.38013
#
# Poissons Ratio (x) = 0.03642 0.49025
# Poissons Ratio (y) = 0.04105 0.67992
# Poissons Ratio (z) = 0.33919 0.41736
#
# Static dielectric constant tensor:
#      x y z
#    x 3.265290 0.000000 0.150020 
#    y 0.000000 3.059310 0.000000 
#    z 0.150020 0.000000 3.536210 
# 
# 
# High freq. dielectric constant tensor:
#      x y z
#    x 1.711100 0.000000 0.008160 
#    y 0.000000 1.690670 0.000000 
#    z 0.008160 0.000000 1.731020 
# 
# From -- ./inp_files/51998.got.cif
#   From: 2010.06.25/outbox.cif.g09.slc.cpg/sg12_26_cif.got.tgz:51998.got - 2010.06.28 00:19:55.
