data_PCOD8079766
_publ_section_title
;
Structure prediction by ZEFSAII (Michael W. Deem and Ramdas Pophale) SiO2 
 PCOD8079766
Probable space group: C 2/M
;
_chemical_formula_sum "Si O2"
_cell_formula_units_Z 48
_cell_length_a 18.676030
_cell_length_b 14.797277
_cell_length_c 19.122318
_cell_angle_alpha 90.000000
_cell_angle_beta 26.180149
_cell_angle_gamma 90.000000
_cell_volume 2331.510861
_symmetry_space_group_name_H-M "C 2/M"
_symmetry_group_IT_number 12
_symmetry_cell_setting 'monoclinic'
loop_
_space_group_symop_operation_xyz
x,y,z
-x,y,-z
-x,-y,-z
x,-y,z
1/2+x,1/2+y,z
1/2-x,1/2+y,-z
1/2-x,1/2-y,-z
1/2+x,1/2-y,z
loop_
_atom_site_type_symbol
_atom_site_label
_atom_site_fract_x
_atom_site_fract_y
_atom_site_fract_z
Si Si1 0.387173 0.771796 0.157211
Si Si2 0.399928 0.175838 0.652061
Si Si3 0.932360 0.268487 0.359336
Si Si4 0.893882 0.901085 0.005779
Si Si5 0.013926 0.398224 0.810441
Si Si6 0.816472 0.152588 0.922859
O O1 0.203987 0.758844 0.290159
O O2 0.380474 0.834855 0.231166
O O3 0.500000 0.820491 0.000000
O O4 0.469064 0.673584 0.099930
O O5 0.500000 0.128991 0.500000
O O6 0.536265 0.210330 0.586883
O O7 0.271554 0.112726 0.804858
O O8 0.750000 0.250000 0.500000
O O9 0.985753 0.356141 0.267624
O O10 0.024327 0.173700 0.262265
O O11 0.963356 0.000000 0.964678
O O12 0.855962 0.903681 0.957099
O O13 0.084063 0.500000 0.749641
O O14 0.822726 0.398612 0.000326
O O15 0.750000 0.250000 0.000000
#
# Coordination Sequence:
#
# PCOD8079766 Si02
#       6
#     8   8   8   8   8   8
#     4  10  21  39  61  89 125 162 203 255 319 377
#     4  11  23  37  60  90 125 169 207 253 317 377
#     4  11  22  40  67  89 124 167 212 258 317 370
#     4  11  21  38  62  90 124 161 209 261 309 370
#     4  11  21  39  67  94 121 162 211 263 312 370
#     4  10  17  36  64  90 114 158 207 266 307 356
#
# _framework density 20.587509000000001
#
# number of rings (size 3 to 8) (size 9 to 14) (size 15 to 20)
#    0.000    1.333    6.667    2.500    0.000    3.667 
#    0.000    1.667    0.000    4.500    0.000    0.000 
#    0.000    0.000    0.000    0.000    0.000    0.000 
#
# Total GULP energy -297361.096126 kJ/mol
# GULP energy per Si atom -12390.045672 kJ/mol
# Density = 2.054065 g / cm^3
# Si number density = 20.587509 Si / 1000 Ang^3
#
#
#
# Elastic Constant Matrix: (Units=GPa)
#
#
# Indices 1 2 3 4 5 6 
#
# 1 142.6758 45.6133 25.7114 -0.0002 -6.2779 0.0027
# 2 45.6133 108.4823 27.2595 -0.0148 2.4145 0.0104
# 3 25.7114 27.2595 71.0181 -0.0107 -1.7569 0.0116
# 4 -0.0002 -0.0148 -0.0107 10.9195 0.0093 2.5950
# 5 -6.2779 2.4145 -1.7569 0.0093 43.7904 -0.0050
# 6 0.0027 0.0104 0.0116 2.5950 -0.0050 -1.9675
#
#
#
# Elastic Compliance Matrix: (Units=1/GPa)
#
#
# Indices 1 2 3 4 5 6 
#
# 1 0.008383 -0.003098 -0.001814 -0.000002 0.001300 -0.000021
# 2 -0.003098 0.011370 -0.003272 0.000003 -0.001202 0.000043
# 3 -0.001814 -0.003272 0.016008 -0.000005 0.000563 0.000067
# 4 -0.000002 0.000003 -0.000005 0.069725 -0.000005 0.091961
# 5 0.001300 -0.001202 0.000563 -0.000005 0.023111 -0.000067
# 6 -0.000021 0.000043 0.000067 0.091961 -0.000067 -0.386961
#
#
# Mechanical properties :
#
#
# Convention : Reuss Voigt Hill
#
# Bulk Modulus (GPa) = 51.56675 57.70497 54.63586
# Shear Modulus (GPa) = -21.22856 25.45461 2.11302
#
# Velocity S-wave (km/s) = -3.21462 3.52008 1.01419
# Velocity P-wave (km/s) = 3.36506 6.67916 5.28842
#
# Compressibility (1/GPa) = 0.01939234
#
# Stress axis : x y z
#
# Youngs Moduli (GPa) = 119.28307 87.95257 62.47067
#
# Poissons Ratio (x) = 0.27249 0.11331
# Poissons Ratio (y) = 0.36955 0.20442
# Poissons Ratio (z) = 0.21636 0.28780
#
# Static dielectric constant tensor:
#      x y z
#    x 3.959960 -0.000020 -0.161080 
#    y -0.000020 3.533150 0.000010 
#    z -0.161080 0.000010 3.721240 
# 
# 
# High freq. dielectric constant tensor:
#      x y z
#    x 1.824780 0.000000 -0.004670 
#    y 0.000000 1.765240 0.000000 
#    z -0.004670 0.000000 1.792880 
# 
# From -- ./inp_files/278045.got.cif
#   From: 2010.06.25/outbox.cif.g09.slc.cpg/sg12_140_cif.got.tgz:278045.got - 2010.06.28 00:19:55.
