data_PCOD8079957
_publ_section_title
;
Structure prediction by ZEFSAII (Michael W. Deem and Ramdas Pophale) SiO2 
 PCOD8079957
Probable space group: C 2/M
;
_chemical_formula_sum "Si O2"
_cell_formula_units_Z 64
_cell_length_a 24.404133
_cell_length_b 9.455334
_cell_length_c 32.630941
_cell_angle_alpha 90.000000
_cell_angle_beta 27.759158
_cell_angle_gamma 90.000000
_cell_volume 3506.939587
_symmetry_space_group_name_H-M "C 2/M"
_symmetry_group_IT_number 12
_symmetry_cell_setting 'monoclinic'
loop_
_space_group_symop_operation_xyz
x,y,z
-x,y,-z
-x,-y,-z
x,-y,z
1/2+x,1/2+y,z
1/2-x,1/2+y,-z
1/2-x,1/2-y,-z
1/2+x,1/2-y,z
loop_
_atom_site_type_symbol
_atom_site_label
_atom_site_fract_x
_atom_site_fract_y
_atom_site_fract_z
Si Si1 0.352681 0.157266 0.035201
Si Si2 0.761452 0.847216 0.030444
Si Si3 0.390682 0.841426 0.147567
Si Si4 0.847014 0.663695 0.268973
Si Si5 0.171359 0.664486 0.274107
Si Si6 0.887028 0.165099 0.762160
Si Si7 0.121210 0.336748 0.400035
Si Si8 0.009966 0.656382 0.235632
O O1 0.351382 0.275244 0.001543
O O2 0.252373 0.186939 0.135399
O O3 0.328682 0.000000 0.032804
O O4 0.488989 0.166388 0.959046
O O5 0.637148 0.865637 0.133339
O O6 0.812795 0.000000 0.983826
O O7 0.750000 0.750000 0.000000
O O8 0.412326 0.812187 0.181980
O O9 0.303193 0.726061 0.187106
O O10 0.336688 0.000000 0.178118
O O11 0.817371 0.500000 0.294749
O O12 0.725751 0.748572 0.350966
O O13 0.926803 0.716764 0.254345
O O14 0.177191 0.500000 0.257758
O O15 0.092455 0.750456 0.293655
O O16 0.111901 0.687432 0.357503
O O17 0.977388 0.230915 0.735741
O O18 0.918159 0.000000 0.736600
O O19 0.145214 0.500000 0.394455
O O20 0.000000 0.283580 0.500000
O O21 0.966446 0.500000 0.279740
#
# Coordination Sequence:
#
# PCOD8079957 Si02
#       8
#     8   8   8   8   8   8   8   8
#     4   9  18  31  45  63  91 129 171 210 246 283
#     4  10  18  27  41  61  89 126 167 210 251 288
#     4   9  17  31  49  69  97 131 167 207 249 290
#     4   9  17  30  51  77 102 128 159 199 246 292
#     4  10  20  34  52  73  98 128 161 199 245 295
#     4  10  20  33  49  70  97 133 175 210 241 281
#     4   9  19  36  57  80 103 125 151 189 241 298
#     4   9  18  32  48  68  97 132 167 203 244 288
#
# _framework density 18.249531000000001
#
# number of rings (size 3 to 8) (size 9 to 14) (size 15 to 20)
#    0.000    2.625    0.000    1.875    0.000    5.250 
#    0.000    5.000    0.000    0.750    0.000    0.000 
#    0.000    0.000    0.000    0.000    0.000    0.000 
#
# Total GULP energy -396547.839227 kJ/mol
# GULP energy per Si atom -12392.119976 kJ/mol
# Density = 1.820799 g / cm^3
# Si number density = 18.249531 Si / 1000 Ang^3
#
#
#
# Elastic Constant Matrix: (Units=GPa)
#
#
# Indices 1 2 3 4 5 6 
#
# 1 102.5928 52.0037 14.4325 0.0041 8.4565 0.0036
# 2 52.0037 108.5015 15.0361 -0.0138 10.0108 0.0222
# 3 14.4325 15.0361 43.8620 0.0170 -3.7264 -0.0387
# 4 0.0041 -0.0138 0.0170 14.8570 -0.0028 15.9660
# 5 8.4565 10.0108 -3.7264 -0.0028 16.3431 0.0012
# 6 0.0036 0.0222 -0.0387 15.9660 0.0012 -7.0049
#
#
#
# Elastic Compliance Matrix: (Units=1/GPa)
#
#
# Indices 1 2 3 4 5 6 
#
# 1 0.013329 -0.005622 -0.002806 -0.000003 -0.004093 -0.000003
# 2 -0.005622 0.012854 -0.003037 -0.000012 -0.005657 0.000026
# 3 -0.002806 -0.003037 0.025539 0.000038 0.009136 -0.000063
# 4 -0.000003 -0.000012 0.000038 0.019513 0.000018 0.044475
# 5 -0.004093 -0.005657 0.009136 0.000018 0.068854 -0.000018
# 6 -0.000003 0.000026 -0.000063 0.044475 -0.000018 -0.041386
#
#
# Mechanical properties :
#
#
# Convention : Reuss Voigt Hill
#
# Bulk Modulus (GPa) = 34.73238 46.43345 40.58291
# Shear Modulus (GPa) = 38.10046 16.40461 27.25254
#
# Velocity S-wave (km/s) = 4.57415 3.00143 3.86855
# Velocity P-wave (km/s) = 6.85349 6.12457 6.49926
#
# Compressibility (1/GPa) = 0.02879158
#
# Stress axis : x y z
#
# Youngs Moduli (GPa) = 75.02305 77.79779 39.15515
#
# Poissons Ratio (x) = 0.43738 0.10989
# Poissons Ratio (y) = 0.42178 0.11892
# Poissons Ratio (z) = 0.21054 0.23628
#
# Static dielectric constant tensor:
#      x y z
#    x 3.945820 0.000140 0.547740 
#    y 0.000140 3.741170 0.000080 
#    z 0.547740 0.000080 3.456540 
# 
# 
# High freq. dielectric constant tensor:
#      x y z
#    x 1.703200 0.000000 0.006150 
#    y 0.000000 1.718130 0.000000 
#    z 0.006150 0.000000 1.665630 
# 
# From -- ./inp_files/382321.got.cif
#   From: 2010.06.25/outbox.cif.g09.slc.cpg/sg12_192_cif.got.tgz:382321.got - 2010.06.28 00:19:55.
