data_PCOD8079037
_publ_section_title
;
Structure prediction by ZEFSAII (Michael W. Deem and Ramdas Pophale) SiO2 
 PCOD8079037
Probable space group: C 2/M
;
_chemical_formula_sum "Si O2"
_cell_formula_units_Z 64
_cell_length_a 25.405919
_cell_length_b 9.028873
_cell_length_c 22.493614
_cell_angle_alpha 90.000000
_cell_angle_beta 41.426786
_cell_angle_gamma 90.000000
_cell_volume 3414.005334
_symmetry_space_group_name_H-M "C 2/M"
_symmetry_group_IT_number 12
_symmetry_cell_setting 'monoclinic'
loop_
_space_group_symop_operation_xyz
x,y,z
-x,y,-z
-x,-y,-z
x,-y,z
1/2+x,1/2+y,z
1/2-x,1/2+y,-z
1/2-x,1/2-y,-z
1/2+x,1/2-y,z
loop_
_atom_site_type_symbol
_atom_site_label
_atom_site_fract_x
_atom_site_fract_y
_atom_site_fract_z
Si Si1 0.653324 0.667342 0.639198
Si Si2 0.760501 0.823341 0.116416
Si Si3 0.907669 0.324459 0.788961
Si Si4 0.299411 0.175781 0.591186
Si Si5 0.294913 0.676366 0.219241
Si Si6 0.447892 0.332446 0.158782
Si Si7 0.928273 0.675210 0.396791
Si Si8 0.401544 0.824795 0.930099
O O1 0.662132 0.500000 0.607644
O O2 0.735690 0.729667 0.596161
O O3 0.586411 0.672716 0.746241
O O4 0.629362 0.774867 0.606817
O O5 0.672869 0.766161 0.172992
O O6 0.778419 0.763346 0.167475
O O7 0.768031 0.000000 0.105836
O O8 0.820544 0.749706 0.019853
O O9 0.908733 0.500000 0.785786
O O10 0.914501 0.271866 0.851302
O O11 0.982763 0.259549 0.687615
O O12 0.274518 0.238114 0.677361
O O13 0.387789 0.225690 0.494121
O O14 0.293334 0.000000 0.599529
O O15 0.292985 0.500000 0.221998
O O16 0.381994 0.728788 0.167968
O O17 0.472766 0.500000 0.120652
O O18 0.525909 0.230075 0.089979
O O19 0.932439 0.500000 0.390566
O O20 0.393962 0.000000 0.941884
#
# Coordination Sequence:
#
# PCOD8079037 Si02
#       8
#     8   8   8   8   8   8   8   8
#     4   9  16  27  44  70 101 128 159 195 231 282
#     4  10  20  36  55  70  91 130 173 206 239 284
#     4   9  19  33  49  73 102 128 159 202 245 288
#     4   8  15  27  46  72 100 128 157 195 239 282
#     4   8  16  32  52  73  98 128 166 205 236 277
#     4   9  17  31  51  74  99 128 161 199 242 289
#     4  10  17  28  47  71 101 131 157 190 241 292
#     4  11  21  34  51  74 103 126 156 202 253 299
#
# _framework density 18.746309
#
# number of rings (size 3 to 8) (size 9 to 14) (size 15 to 20)
#    0.000    2.750    1.250    2.625    0.000    0.500 
#    0.000    5.000    0.000    5.250    0.000    0.000 
#    0.000    2.000    0.000    0.000    0.000    0.000 
#
# Total GULP energy -396584.841076 kJ/mol
# GULP energy per Si atom -12393.276284 kJ/mol
# Density = 1.870364 g / cm^3
# Si number density = 18.746309 Si / 1000 Ang^3
#
#
#
# Elastic Constant Matrix: (Units=GPa)
#
#
# Indices 1 2 3 4 5 6 
#
# 1 99.2417 17.8042 54.7669 0.0033 -7.8558 -0.0003
# 2 17.8042 23.5617 23.3491 0.0091 -5.2844 -0.0177
# 3 54.7669 23.3491 120.7895 0.0088 -26.3890 -0.0101
# 4 0.0033 0.0091 0.0088 18.4957 -0.0001 -0.2945
# 5 -7.8558 -5.2844 -26.3890 -0.0001 21.1490 0.0030
# 6 -0.0003 -0.0177 -0.0101 -0.2945 0.0030 16.1128
#
#
#
# Elastic Compliance Matrix: (Units=1/GPa)
#
#
# Indices 1 2 3 4 5 6 
#
# 1 0.014176 -0.005409 -0.006224 0.000003 -0.003851 -0.000009
# 2 -0.005409 0.054568 -0.007638 -0.000021 0.002095 0.000054
# 3 -0.006224 -0.007638 0.016023 -0.000003 0.015773 -0.000001
# 4 0.000003 -0.000021 -0.000003 0.054082 -0.000007 0.000989
# 5 -0.003851 0.002095 0.015773 -0.000007 0.066057 0.000000
# 6 -0.000009 0.000054 -0.000001 0.000989 0.000000 0.062081
#
#
# Mechanical properties :
#
#
# Convention : Reuss Voigt Hill
#
# Bulk Modulus (GPa) = 21.63254 48.38149 35.00702
# Shear Modulus (GPa) = 15.57936 20.99634 18.28785
#
# Velocity S-wave (km/s) = 2.88594 3.35031 3.12676
# Velocity P-wave (km/s) = 4.76126 6.38989 5.63472
#
# Compressibility (1/GPa) = 0.04622666
#
# Stress axis : x y z
#
# Youngs Moduli (GPa) = 70.54003 18.32573 62.40998
#
# Poissons Ratio (x) = 0.09912 0.38841
# Poissons Ratio (y) = 0.38152 0.47670
# Poissons Ratio (z) = 0.43901 0.13998
#
# Static dielectric constant tensor:
#      x y z
#    x 3.504400 -0.000010 -0.050970 
#    y -0.000010 2.993330 0.000010 
#    z -0.050970 0.000010 3.835710 
# 
# 
# High freq. dielectric constant tensor:
#      x y z
#    x 1.712430 0.000000 -0.006870 
#    y 0.000000 1.679500 0.000000 
#    z -0.006870 0.000000 1.743020 
# 
# From -- ./inp_files/324941.got.cif
#   From: 2010.06.25/outbox.cif.g09.slc.cpg/sg12_163_cif.got.tgz:324941.got - 2010.06.28 00:19:55.
