data_PCOD8079486
_publ_section_title
;
Structure prediction by ZEFSAII (Michael W. Deem and Ramdas Pophale) SiO2 
 PCOD8079486
Probable space group: C 2/M
;
_chemical_formula_sum "Si O2"
_cell_formula_units_Z 64
_cell_length_a 28.154442
_cell_length_b 18.690242
_cell_length_c 20.234767
_cell_angle_alpha 90.000000
_cell_angle_beta 160.819331
_cell_angle_gamma 90.000000
_cell_volume 3498.314835
_symmetry_space_group_name_H-M "C 2/M"
_symmetry_group_IT_number 12
_symmetry_cell_setting 'monoclinic'
loop_
_space_group_symop_operation_xyz
x,y,z
-x,y,-z
-x,-y,-z
x,-y,z
1/2+x,1/2+y,z
1/2-x,1/2+y,-z
1/2-x,1/2-y,-z
1/2+x,1/2-y,z
loop_
_atom_site_type_symbol
_atom_site_label
_atom_site_fract_x
_atom_site_fract_y
_atom_site_fract_z
Si Si1 0.670608 0.698864 0.598465
Si Si2 0.287049 0.204296 0.455828
Si Si3 0.078309 0.078186 0.852204
Si Si4 0.315212 0.171889 0.922440
Si Si5 0.256207 0.577300 0.393074
Si Si6 0.033767 0.200566 0.215389
Si Si7 0.078425 0.417420 0.287881
Si Si8 0.332247 0.680833 0.134371
O O1 0.716874 0.776430 0.627769
O O2 0.698545 0.686496 0.712173
O O3 0.774336 0.639255 0.699907
O O4 0.501116 0.695182 0.363017
O O5 0.122895 0.193637 0.264668
O O6 0.357860 0.275320 0.583011
O O7 0.381555 0.133301 0.596738
O O8 0.189331 0.117594 0.947949
O O9 0.927216 0.066892 0.617283
O O10 0.046685 0.125902 0.875440
O O11 0.142146 0.000000 0.956025
O O12 0.230659 0.156627 0.878619
O O13 0.409091 0.242423 0.046264
O O14 0.421252 0.103722 0.051866
O O15 0.186329 0.500000 0.280819
O O16 0.198196 0.598670 0.389473
O O17 0.078792 0.500000 0.310942
O O18 0.250000 0.750000 0.000000
#
# Coordination Sequence:
#
# PCOD8079486 Si02
#       8
#     8   8   8   8   8   8   8   8
#     4  11  21  35  51  81 111 146 179 224 280 337
#     4  10  17  31  55  80 107 139 188 231 266 317
#     4  10  18  32  56  82 105 135 180 232 275 315
#     4  11  23  33  52  78 114 147 178 223 282 341
#     4   9  17  31  52  77 107 142 180 217 267 325
#     4  10  17  32  53  81 105 136 183 231 269 319
#     4  10  20  34  54  80 110 147 188 230 270 320
#     4  11  20  38  57  75 102 140 192 236 266 315
#
# _framework density 18.294523000000002
#
# number of rings (size 3 to 8) (size 9 to 14) (size 15 to 20)
#    0.000    1.750    5.000    2.625    0.000    3.000 
#    0.000    1.250    0.000    4.500    0.000    2.625 
#    0.000    0.000    0.000    0.000    0.000    0.000 
#
# Total GULP energy -396534.039800 kJ/mol
# GULP energy per Si atom -12391.688744 kJ/mol
# Density = 1.825288 g / cm^3
# Si number density = 18.294523 Si / 1000 Ang^3
#
#
#
# Elastic Constant Matrix: (Units=GPa)
#
#
# Indices 1 2 3 4 5 6 
#
# 1 68.4049 39.7140 33.2168 0.0001 11.8073 0.0002
# 2 39.7140 131.2670 33.0469 -0.0015 8.3559 -0.0006
# 3 33.2168 33.0469 43.7102 -0.0073 12.2679 -0.0032
# 4 0.0001 -0.0015 -0.0073 11.2870 -0.0020 0.7104
# 5 11.8073 8.3559 12.2679 -0.0020 16.6155 -0.0006
# 6 0.0002 -0.0006 -0.0032 0.7104 -0.0006 18.8937
#
#
#
# Elastic Compliance Matrix: (Units=1/GPa)
#
#
# Indices 1 2 3 4 5 6 
#
# 1 0.024607 -0.003423 -0.014742 -0.000011 -0.004880 -0.000003
# 2 -0.003423 0.009891 -0.005252 -0.000002 0.001336 0.000000
# 3 -0.014742 -0.005252 0.043354 0.000024 -0.018893 0.000006
# 4 -0.000011 -0.000002 0.000024 0.088808 0.000001 -0.003339
# 5 -0.004880 0.001336 -0.018893 0.000001 0.076930 -0.000001
# 6 -0.000003 0.000000 0.000006 -0.003339 -0.000001 0.053053
#
#
# Mechanical properties :
#
#
# Convention : Reuss Voigt Hill
#
# Bulk Modulus (GPa) = 32.23872 50.59306 41.41589
# Shear Modulus (GPa) = 14.13163 18.51953 16.32558
#
# Velocity S-wave (km/s) = 2.78232 3.18512 2.99051
# Velocity P-wave (km/s) = 5.28980 6.42195 5.88317
#
# Compressibility (1/GPa) = 0.03101860
#
# Stress axis : x y z
#
# Youngs Moduli (GPa) = 40.63881 101.10545 23.06575
#
# Poissons Ratio (x) = 0.34605 0.34004
# Poissons Ratio (y) = 0.13909 0.12114
# Poissons Ratio (z) = 0.59911 0.53098
#
# Static dielectric constant tensor:
#      x y z
#    x 3.445610 0.000000 0.243710 
#    y 0.000000 3.681400 0.000000 
#    z 0.243710 0.000000 3.176020 
# 
# 
# High freq. dielectric constant tensor:
#      x y z
#    x 1.693610 0.000000 0.030640 
#    y 0.000000 1.711800 0.000000 
#    z 0.030640 0.000000 1.680760 
# 
# From -- ./inp_files/317381.got.cif
#   From: 2010.06.25/outbox.cif.g09.slc.cpg/sg12_159_cif.got.tgz:317381.got - 2010.06.28 00:19:55.
