data_PCOD8079513
_publ_section_title
;
Structure prediction by ZEFSAII (Michael W. Deem and Ramdas Pophale) SiO2 
 PCOD8079513
Probable space group: C 2/M
;
_chemical_formula_sum "Si O2"
_cell_formula_units_Z 44
_cell_length_a 8.668678
_cell_length_b 21.529092
_cell_length_c 12.144980
_cell_angle_alpha 90.000000
_cell_angle_beta 67.126054
_cell_angle_gamma 90.000000
_cell_volume 2088.362115
_symmetry_space_group_name_H-M "C 2/M"
_symmetry_group_IT_number 12
_symmetry_cell_setting 'monoclinic'
loop_
_space_group_symop_operation_xyz
x,y,z
-x,y,-z
-x,-y,-z
x,-y,z
1/2+x,1/2+y,z
1/2-x,1/2+y,-z
1/2-x,1/2-y,-z
1/2+x,1/2-y,z
loop_
_atom_site_type_symbol
_atom_site_label
_atom_site_fract_x
_atom_site_fract_y
_atom_site_fract_z
Si Si1 0.920844 0.000000 0.686037
Si Si2 0.000000 0.609267 0.500000
Si Si3 0.783341 0.397303 0.153550
Si Si4 0.150681 0.430992 0.100804
Si Si5 0.734880 0.000000 0.507629
Si Si6 0.822907 0.670663 0.749295
Si Si7 0.928793 0.271531 0.144366
O O1 0.874994 0.935975 0.760419
O O2 0.824714 0.000000 0.598436
O O3 0.121154 0.000000 0.624375
O O4 0.871425 0.563507 0.473019
O O5 0.913707 0.657648 0.608312
O O6 0.786050 0.325368 0.189197
O O7 0.949077 0.432252 0.151376
O O8 0.776426 0.395293 0.023902
O O9 0.221842 0.500000 0.085241
O O10 0.217619 0.397192 0.190959
O O11 0.650552 0.708630 0.784125
O O12 0.927636 0.709103 0.810684
O O13 0.000000 0.263560 0.000000
#
# Coordination Sequence:
#
# PCOD8079513 Si02
#       7
#     4   4   8   8   4   8   8
#     4  11  20  37  67 105 126 165 215 285 316 368
#     4  11  26  48  62  88 126 187 222 256 326 397
#     4  10  17  31  62  97 132 157 205 258 324 384
#     4  10  17  32  59  97 126 168 202 252 319 393
#     4  10  24  42  65  89 134 170 222 266 325 389
#     4  11  25  41  67  92 128 178 218 268 317 387
#     4  11  22  41  65  98 130 170 214 265 333 386
#
# _framework density 21.069143
#
# number of rings (size 3 to 8) (size 9 to 14) (size 15 to 20)
#    0.000    1.455    5.455    3.273    2.545    2.182 
#    0.000    1.818    0.000    1.636    0.000    0.000 
#    0.000    0.000    0.000    0.000    0.000    0.000 
#
# Total GULP energy -272713.049133 kJ/mol
# GULP energy per Si atom -12396.047688 kJ/mol
# Density = 2.102119 g / cm^3
# Si number density = 21.069143 Si / 1000 Ang^3
#
#
#
# Elastic Constant Matrix: (Units=GPa)
#
#
# Indices 1 2 3 4 5 6 
#
# 1 34.4589 11.1235 7.3073 0.0000 -6.3181 0.0000
# 2 11.1235 82.0909 21.0303 0.0000 -6.3173 0.0000
# 3 7.3073 21.0303 74.1065 0.0000 -6.9063 0.0000
# 4 0.0000 0.0000 0.0000 34.3801 0.0000 -7.7171
# 5 -6.3181 -6.3173 -6.9063 0.0000 30.8177 0.0000
# 6 0.0000 0.0000 0.0000 -7.7171 0.0000 18.2757
#
#
#
# Elastic Compliance Matrix: (Units=1/GPa)
#
#
# Indices 1 2 3 4 5 6 
#
# 1 0.031460 -0.003432 -0.001627 0.000000 0.005382 0.000000
# 2 -0.003432 0.013621 -0.003403 0.000000 0.001326 0.000000
# 3 -0.001627 -0.003403 0.014834 0.000000 0.002293 0.000000
# 4 0.000000 0.000000 0.000000 0.032132 0.000000 0.013568
# 5 0.005382 0.001326 0.002293 0.000000 0.034338 0.000000
# 6 0.000000 0.000000 0.000000 0.013568 0.000000 0.060447
#
#
# Mechanical properties :
#
#
# Convention : Reuss Voigt Hill
#
# Bulk Modulus (GPa) = 23.26104 29.95316 26.60710
# Shear Modulus (GPa) = 22.92685 26.77437 24.85061
#
# Velocity S-wave (km/s) = 3.30232 3.56868 3.43808
# Velocity P-wave (km/s) = 5.06011 5.58821 5.33070
#
# Compressibility (1/GPa) = 0.04299034
#
# Stress axis : x y z
#
# Youngs Moduli (GPa) = 31.78677 73.41842 67.41265
#
# Poissons Ratio (x) = 0.25197 0.10965
# Poissons Ratio (y) = 0.10909 0.22943
# Poissons Ratio (z) = 0.05170 0.24987
#
# Static dielectric constant tensor:
#      x y z
#    x 3.642820 0.000000 -0.088170 
#    y 0.000000 3.962380 0.000000 
#    z -0.088170 0.000000 3.878280 
# 
# 
# High freq. dielectric constant tensor:
#      x y z
#    x 1.797150 0.000000 0.004140 
#    y 0.000000 1.834690 0.000000 
#    z 0.004140 0.000000 1.823050 
# 
# From -- ./inp_files/121794.got.cif
#   From: 2010.06.25/outbox.cif.g09.slc.cpg/sg12_61_cif.got.tgz:121794.got - 2010.06.28 00:19:55.
