data_PCOD8079763
_publ_section_title
;
Structure prediction by ZEFSAII (Michael W. Deem and Ramdas Pophale) SiO2 
 PCOD8079763
Probable space group: C 2/M
;
_chemical_formula_sum "Si O2"
_cell_formula_units_Z 64
_cell_length_a 18.426282
_cell_length_b 18.760646
_cell_length_c 10.555625
_cell_angle_alpha 90.000000
_cell_angle_beta 64.923679
_cell_angle_gamma 90.000000
_cell_volume 3305.026431
_symmetry_space_group_name_H-M "C 2/M"
_symmetry_group_IT_number 12
_symmetry_cell_setting 'monoclinic'
loop_
_space_group_symop_operation_xyz
x,y,z
-x,y,-z
-x,-y,-z
x,-y,z
1/2+x,1/2+y,z
1/2-x,1/2+y,-z
1/2-x,1/2-y,-z
1/2+x,1/2-y,z
loop_
_atom_site_type_symbol
_atom_site_label
_atom_site_fract_x
_atom_site_fract_y
_atom_site_fract_z
Si Si1 0.455653 0.811522 0.242503
Si Si2 0.095613 0.852733 0.940674
Si Si3 0.163587 0.915155 0.633001
Si Si4 0.273210 0.080065 0.153884
Si Si5 0.035214 0.828997 0.611701
Si Si6 0.829488 0.420127 0.397489
Si Si7 0.110685 0.698061 0.990330
Si Si8 0.601770 0.421420 0.182031
O O1 0.436250 0.741557 0.337322
O O2 0.410216 0.873840 0.353514
O O3 0.423696 0.811194 0.124329
O O4 0.550901 0.821204 0.151610
O O5 0.133357 0.873819 0.779179
O O6 0.136019 0.781300 0.972016
O O7 0.118623 0.916509 0.018982
O O8 0.000000 0.839814 0.000000
O O9 0.110707 0.883707 0.554729
O O10 0.257532 0.896717 0.544814
O O11 0.149838 0.000000 0.651275
O O12 0.292677 0.086450 0.286053
O O13 0.318059 0.141567 0.041362
O O14 0.179566 0.094142 0.207322
O O15 0.295830 0.000000 0.087684
O O16 0.000000 0.811698 0.500000
O O17 0.964377 0.862923 0.744070
O O18 0.856656 0.500000 0.408236
O O19 0.568439 0.500000 0.237868
#
# Coordination Sequence:
#
# PCOD8079763 Si02
#       8
#     8   8   8   8   8   8   8   8
#     4  10  19  38  58  83 114 142 188 236 278 332
#     4  12  20  37  58  85 112 149 191 232 270 330
#     4  11  22  37  57  84 112 148 192 228 271 335
#     4   9  20  36  55  86 117 145 184 230 280 336
#     4  12  23  36  53  81 112 149 185 223 282 340
#     4   9  20  38  60  84 113 146 186 234 282 331
#     4  10  17  36  63  79 111 147 185 235 280 326
#     4  11  22  37  55  79 116 151 182 229 278 327
#
# _framework density 19.364443999999999
#
# number of rings (size 3 to 8) (size 9 to 14) (size 15 to 20)
#    0.000    1.500    5.000    1.500    0.000    4.000 
#    2.250    2.500    0.000    0.375    0.000    0.000 
#    0.000    0.000    0.000    0.000    0.000    0.000 
#
# Total GULP energy -396553.263710 kJ/mol
# GULP energy per Si atom -12392.289491 kJ/mol
# Density = 1.932037 g / cm^3
# Si number density = 19.364444 Si / 1000 Ang^3
#
#
#
# Elastic Constant Matrix: (Units=GPa)
#
#
# Indices 1 2 3 4 5 6 
#
# 1 39.7361 53.9086 23.5299 0.0000 -11.4404 0.0000
# 2 53.9086 134.0121 52.5298 0.0000 -25.6138 0.0000
# 3 23.5299 52.5298 89.1866 0.0000 -21.9349 0.0000
# 4 0.0000 0.0000 0.0000 25.9998 0.0000 -5.6403
# 5 -11.4404 -25.6138 -21.9349 0.0000 24.7108 0.0000
# 6 0.0000 0.0000 0.0000 -5.6403 0.0000 24.3676
#
#
#
# Elastic Compliance Matrix: (Units=1/GPa)
#
#
# Indices 1 2 3 4 5 6 
#
# 1 0.055750 -0.021383 -0.001557 0.000000 0.002264 0.000000
# 2 -0.021383 0.018758 -0.003914 0.000000 0.006069 0.000000
# 3 -0.001557 -0.003914 0.016315 0.000000 0.009705 0.000000
# 4 0.000000 0.000000 0.000000 0.040495 0.000000 0.009373
# 5 0.002264 0.006069 0.009705 0.000000 0.056422 0.000000
# 6 0.000000 0.000000 0.000000 0.009373 0.000000 0.043208
#
#
# Mechanical properties :
#
#
# Convention : Reuss Voigt Hill
#
# Bulk Modulus (GPa) = 26.94373 58.09681 42.52027
# Shear Modulus (GPa) = 16.83344 23.88008 20.35676
#
# Velocity S-wave (km/s) = 2.95158 3.51549 3.24581
# Velocity P-wave (km/s) = 5.05569 6.82240 6.00438
#
# Compressibility (1/GPa) = 0.03711438
#
# Stress axis : x y z
#
# Youngs Moduli (GPa) = 17.93733 53.31060 61.29191
#
# Poissons Ratio (x) = 1.13995 0.09544
# Poissons Ratio (y) = 0.38356 0.23990
# Poissons Ratio (z) = 0.02793 0.20866
#
# Static dielectric constant tensor:
#      x y z
#    x 3.498170 0.000000 -0.165940 
#    y 0.000000 3.781900 0.000000 
#    z -0.165940 0.000000 3.648270 
# 
# 
# High freq. dielectric constant tensor:
#      x y z
#    x 1.729750 0.000000 -0.008940 
#    y 0.000000 1.761860 0.000000 
#    z -0.008940 0.000000 1.747630 
# 
# From -- ./inp_files/168449.got.cif
#   From: 2010.06.25/outbox.cif.g09.slc.cpg/sg12_85_cif.got.tgz:168449.got - 2010.06.28 00:19:55.
