data_PCOD8079482
_publ_section_title
;
Structure prediction by ZEFSAII (Michael W. Deem and Ramdas Pophale) SiO2 
 PCOD8079482
Probable space group: C 2/M
;
_chemical_formula_sum "Si O2"
_cell_formula_units_Z 56
_cell_length_a 25.090107
_cell_length_b 8.308307
_cell_length_c 16.982931
_cell_angle_alpha 90.000000
_cell_angle_beta 120.157196
_cell_angle_gamma 90.000000
_cell_volume 3061.034448
_symmetry_space_group_name_H-M "C 2/M"
_symmetry_group_IT_number 12
_symmetry_cell_setting 'monoclinic'
loop_
_space_group_symop_operation_xyz
x,y,z
-x,y,-z
-x,-y,-z
x,-y,z
1/2+x,1/2+y,z
1/2-x,1/2+y,-z
1/2-x,1/2-y,-z
1/2+x,1/2-y,z
loop_
_atom_site_type_symbol
_atom_site_label
_atom_site_fract_x
_atom_site_fract_y
_atom_site_fract_z
Si Si1 0.171677 0.313181 0.078118
Si Si2 0.994066 0.690834 0.784264
Si Si3 0.557321 0.809339 0.091876
Si Si4 0.199164 0.313456 0.789485
Si Si5 0.593652 0.808771 0.601676
Si Si6 0.869262 0.814912 0.113874
Si Si7 0.472225 0.809075 0.596592
O O1 0.159758 0.500000 0.051250
O O2 0.121247 0.245309 0.102764
O O3 0.238837 0.289932 0.165103
O O4 0.167482 0.215750 0.994021
O O5 0.004821 0.500000 0.792122
O O6 0.949086 0.745293 0.821779
O O7 0.962726 0.750751 0.679235
O O8 0.059700 0.772606 0.845970
O O9 0.555866 0.000000 0.085715
O O10 0.500000 0.737507 0.000000
O O11 0.216119 0.500000 0.792012
O O12 0.158298 0.247607 0.685410
O O13 0.160155 0.293964 0.840163
O O14 0.537569 0.741787 0.613585
O O15 0.582765 0.749944 0.502946
O O16 0.592819 0.000000 0.605809
O O17 0.861281 0.000000 0.131892
O O18 0.473852 0.000000 0.595659
#
# Coordination Sequence:
#
# PCOD8079482 Si02
#       7
#     8   8   8   8   8   8   8
#     4  11  22  37  53  71 100 135 172 210 246 295
#     4  10  17  31  55  78 101 133 168 209 249 291
#     4   9  17  31  53  76  97 127 170 211 250 289
#     4  11  21  35  53  74 102 136 169 204 249 299
#     4   8  14  25  46  76 103 126 158 205 248 291
#     4  12  23  34  49  75 106 135 166 202 251 305
#     4   8  13  24  47  78 102 123 161 206 248 288
#
# _framework density 18.294468999999999
#
# number of rings (size 3 to 8) (size 9 to 14) (size 15 to 20)
#    0.000    2.143    2.857    3.429    0.000    0.000 
#    0.000    2.143    0.000    3.429    0.000    0.000 
#    0.000    0.000    0.000    0.000    0.000    0.286 
#
# Total GULP energy -347079.869278 kJ/mol
# GULP energy per Si atom -12395.709617 kJ/mol
# Density = 1.825283 g / cm^3
# Si number density = 18.294469 Si / 1000 Ang^3
#
#
#
# Elastic Constant Matrix: (Units=GPa)
#
#
# Indices 1 2 3 4 5 6 
#
# 1 83.0844 4.2125 56.2500 0.0000 2.1471 0.0000
# 2 4.2125 28.4034 6.3008 0.0000 -0.9471 0.0000
# 3 56.2500 6.3008 166.0920 0.0000 -4.1417 0.0000
# 4 0.0000 0.0000 0.0000 14.7741 0.0000 6.5737
# 5 2.1471 -0.9471 -4.1417 0.0000 28.9357 0.0000
# 6 0.0000 0.0000 0.0000 6.5737 0.0000 13.8538
#
#
#
# Elastic Compliance Matrix: (Units=1/GPa)
#
#
# Indices 1 2 3 4 5 6 
#
# 1 0.015766 -0.001219 -0.005342 0.000000 -0.001974 0.000000
# 2 -0.001219 0.035627 -0.000911 0.000000 0.001126 0.000000
# 3 -0.005342 -0.000911 0.007902 0.000000 0.001498 0.000000
# 4 0.000000 0.000000 0.000000 0.085801 0.000000 -0.040713
# 5 -0.001974 0.001126 0.001498 0.000000 0.034957 0.000000
# 6 0.000000 0.000000 0.000000 -0.040713 0.000000 0.091501
#
#
# Mechanical properties :
#
#
# Convention : Reuss Voigt Hill
#
# Bulk Modulus (GPa) = 22.54733 45.67849 34.11291
# Shear Modulus (GPa) = 16.59577 25.56716 21.08147
#
# Velocity S-wave (km/s) = 3.01516 3.74242 3.39830
# Velocity P-wave (km/s) = 4.94702 6.61037 5.83823
#
# Compressibility (1/GPa) = 0.04435115
#
# Stress axis : x y z
#
# Youngs Moduli (GPa) = 63.42912 28.06833 126.55160
#
# Poissons Ratio (x) = 0.03421 0.67608
# Poissons Ratio (y) = 0.07731 0.11525
# Poissons Ratio (z) = 0.33886 0.02556
#
# Static dielectric constant tensor:
#      x y z
#    x 3.330960 0.000000 -0.116850 
#    y 0.000000 2.958310 0.000000 
#    z -0.116850 0.000000 3.846440 
# 
# 
# High freq. dielectric constant tensor:
#      x y z
#    x 1.684300 0.000000 -0.004260 
#    y 0.000000 1.674720 0.000000 
#    z -0.004260 0.000000 1.718600 
# 
# From -- ./inp_files/287898.got.cif
#   From: 2010.06.25/outbox.cif.g09.slc.cpg/sg12_144_cif.got.tgz:287898.got - 2010.06.28 00:19:55.
