data_PCOD8079995
_publ_section_title
;
Structure prediction by ZEFSAII (Michael W. Deem and Ramdas Pophale) SiO2 
 PCOD8079995
Probable space group: C 2/M
;
_chemical_formula_sum "Si O2"
_cell_formula_units_Z 56
_cell_length_a 27.186455
_cell_length_b 8.944815
_cell_length_c 16.196889
_cell_angle_alpha 90.000000
_cell_angle_beta 65.657913
_cell_angle_gamma 90.000000
_cell_volume 3588.574394
_symmetry_space_group_name_H-M "C 2/M"
_symmetry_group_IT_number 12
_symmetry_cell_setting 'monoclinic'
loop_
_space_group_symop_operation_xyz
x,y,z
-x,y,-z
-x,-y,-z
x,-y,z
1/2+x,1/2+y,z
1/2-x,1/2+y,-z
1/2-x,1/2-y,-z
1/2+x,1/2-y,z
loop_
_atom_site_type_symbol
_atom_site_label
_atom_site_fract_x
_atom_site_fract_y
_atom_site_fract_z
Si Si1 0.241016 0.675781 0.304609
Si Si2 0.346977 0.825491 0.303909
Si Si3 0.672787 0.672621 0.023833
Si Si4 0.550791 0.177295 0.870689
Si Si5 0.942415 0.175456 0.959233
Si Si6 0.801336 0.327715 0.499922
Si Si7 0.238283 0.825202 0.137006
O O1 0.246171 0.500000 0.286908
O O2 0.299614 0.735163 0.291589
O O3 0.194468 0.717067 0.405883
O O4 0.221015 0.749727 0.234247
O O5 0.404533 0.777811 0.227587
O O6 0.349895 0.791083 0.401739
O O7 0.335704 0.000000 0.295124
O O8 0.685955 0.500000 0.996541
O O9 0.609157 0.705491 0.062976
O O10 0.692890 0.718150 0.101048
O O11 0.703384 0.767970 0.933195
O O12 0.494095 0.248193 0.880042
O O13 0.544573 0.000000 0.885036
O O14 0.568144 0.248647 0.945338
O O15 0.952985 0.000000 0.964623
O O16 0.787659 0.500000 0.506478
O O17 0.750000 0.250000 0.500000
O O18 0.242503 0.000000 0.148756
#
# Coordination Sequence:
#
# PCOD8079995 Si02
#       7
#     8   8   8   8   8   8   8
#     4  10  18  27  42  64  89 115 142 172 205 248
#     4   9  17  29  44  62  86 115 143 173 209 247
#     4   9  19  33  46  62  84 111 143 176 209 246
#     4  10  19  29  43  64  86 109 140 172 205 247
#     4  10  19  31  45  60  83 112 140 172 207 244
#     4   8  15  27  41  59  84 112 140 170 206 246
#     4  10  19  30  45  64  86 112 141 173 209 249
#
# _framework density 15.605083
#
# number of rings (size 3 to 8) (size 9 to 14) (size 15 to 20)
#    0.000    2.571    0.000    3.429    0.000    5.714 
#    0.000    0.000    0.000    0.000    0.000    1.000 
#    0.000    8.000    0.000    0.000    0.000    0.000 
#
# Total GULP energy -346959.035188 kJ/mol
# GULP energy per Si atom -12391.394114 kJ/mol
# Density = 1.556956 g / cm^3
# Si number density = 15.605083 Si / 1000 Ang^3
#
#
#
# Elastic Constant Matrix: (Units=GPa)
#
#
# Indices 1 2 3 4 5 6 
#
# 1 82.7451 31.5177 51.3018 0.0000 -4.2681 0.0000
# 2 31.5177 65.1345 47.1124 0.0000 -1.5078 0.0001
# 3 51.3018 47.1124 144.2526 0.0000 -6.8319 0.0000
# 4 0.0000 0.0000 0.0000 21.5373 0.0000 1.7793
# 5 -4.2681 -1.5078 -6.8319 0.0000 21.7858 0.0000
# 6 0.0000 0.0001 0.0000 1.7793 0.0000 20.5398
#
#
#
# Elastic Compliance Matrix: (Units=1/GPa)
#
#
# Indices 1 2 3 4 5 6 
#
# 1 0.016688 -0.004975 -0.004234 0.000000 0.001597 0.000000
# 2 -0.004975 0.021595 -0.005338 0.000000 -0.001154 0.000000
# 3 -0.004234 -0.005338 0.010277 0.000000 0.002024 0.000000
# 4 0.000000 0.000000 0.000000 0.046766 0.000000 -0.004051
# 5 0.001597 -0.001154 0.002024 0.000000 0.046769 0.000000
# 6 0.000000 0.000000 0.000000 -0.004051 0.000000 0.049037
#
#
# Mechanical properties :
#
#
# Convention : Reuss Voigt Hill
#
# Bulk Modulus (GPa) = 51.37498 61.33289 56.35393
# Shear Modulus (GPa) = 22.05405 23.58594 22.81999
#
# Velocity S-wave (km/s) = 3.76341 3.89192 3.82821
# Velocity P-wave (km/s) = 7.20263 7.71910 7.46533
#
# Compressibility (1/GPa) = 0.01946473
#
# Stress axis : x y z
#
# Youngs Moduli (GPa) = 59.92291 46.30767 97.30101
#
# Poissons Ratio (x) = 0.23040 0.41200
# Poissons Ratio (y) = 0.29814 0.51939
# Poissons Ratio (z) = 0.25373 0.24719
#
# Static dielectric constant tensor:
#      x y z
#    x 2.799410 0.000000 -0.066210 
#    y 0.000000 3.084190 0.000000 
#    z -0.066210 0.000000 3.512320 
# 
# 
# High freq. dielectric constant tensor:
#      x y z
#    x 1.563030 0.000000 -0.002060 
#    y 0.000000 1.613410 0.000000 
#    z -0.002060 0.000000 1.602670 
# 
# From -- ./inp_files/243024.got.cif
#   From: 2010.06.25/outbox.cif.g09.slc.cpg/sg12_122_cif.got.tgz:243024.got - 2010.06.28 00:19:55.
