data_PCOD8079237
_publ_section_title
;
Structure prediction by ZEFSAII (Michael W. Deem and Ramdas Pophale) SiO2 
 PCOD8079237
Probable space group: C 2/M
;
_chemical_formula_sum "Si O2"
_cell_formula_units_Z 64
_cell_length_a 35.050288
_cell_length_b 13.432322
_cell_length_c 9.722304
_cell_angle_alpha 90.000000
_cell_angle_beta 51.672824
_cell_angle_gamma 90.000000
_cell_volume 3590.831603
_symmetry_space_group_name_H-M "C 2/M"
_symmetry_group_IT_number 12
_symmetry_cell_setting 'monoclinic'
loop_
_space_group_symop_operation_xyz
x,y,z
-x,y,-z
-x,-y,-z
x,-y,z
1/2+x,1/2+y,z
1/2-x,1/2+y,-z
1/2-x,1/2-y,-z
1/2+x,1/2-y,z
loop_
_atom_site_type_symbol
_atom_site_label
_atom_site_fract_x
_atom_site_fract_y
_atom_site_fract_z
Si Si1 0.549875 0.883846 0.076387
Si Si2 0.057862 0.614143 0.649425
Si Si3 0.293390 0.114731 0.307474
Si Si4 0.783334 0.113670 0.885205
Si Si5 0.587128 0.886649 0.288054
Si Si6 0.185086 0.886169 0.492957
Si Si7 0.126560 0.295785 0.703861
Si Si8 0.186222 0.704548 0.020567
O O1 0.493896 0.857398 0.165963
O O2 0.556324 0.860221 0.222525
O O3 0.561209 0.000000 0.017516
O O4 0.585901 0.812745 0.911536
O O5 0.069066 0.500000 0.657335
O O6 0.053790 0.633120 0.495575
O O7 0.102631 0.675247 0.612460
O O8 0.236056 0.133482 0.459448
O O9 0.324824 0.139064 0.373508
O O10 0.301622 0.000000 0.244216
O O11 0.313997 0.187537 0.142916
O O12 0.807918 0.140392 0.683632
O O13 0.803968 0.180520 0.962848
O O14 0.793042 0.000000 0.904239
O O15 0.725808 0.132436 0.001721
O O16 0.634092 0.818724 0.199019
O O17 0.605054 0.000000 0.241009
O O18 0.143110 0.819050 0.654895
O O19 0.168559 0.000000 0.547733
#
# Coordination Sequence:
#
# PCOD8079237 Si02
#       8
#     8   8   8   8   8   8   8   8
#     4  10  20  34  52  75 106 140 171 211 269 321
#     4  10  21  33  49  78 110 135 169 218 262 313
#     4  10  19  33  52  76 109 143 173 208 258 314
#     4   9  18  32  50  73 105 138 173 217 263 304
#     4  10  18  31  51  74 103 139 175 207 253 316
#     4   9  20  36  52  73 103 139 178 221 263 303
#     4  12  20  32  54  78 102 139 181 213 253 311
#     4  10  17  29  51  76 100 138 179 209 248 315
#
# _framework density 17.823170000000001
#
# number of rings (size 3 to 8) (size 9 to 14) (size 15 to 20)
#    0.000    2.000    1.250    4.875    0.000    2.500 
#    0.000    0.625    0.000    9.000    0.000    0.000 
#    0.000    5.000    0.000    0.000    0.000    0.000 
#
# Total GULP energy -396735.361671 kJ/mol
# GULP energy per Si atom -12397.980052 kJ/mol
# Density = 1.778260 g / cm^3
# Si number density = 17.823170 Si / 1000 Ang^3
#
#
#
# Elastic Constant Matrix: (Units=GPa)
#
#
# Indices 1 2 3 4 5 6 
#
# 1 83.8066 46.7039 32.5276 0.0000 -3.4750 0.0000
# 2 46.7039 95.6198 45.2602 0.0000 -8.2837 0.0000
# 3 32.5276 45.2602 75.1966 0.0000 -7.0633 0.0000
# 4 0.0000 0.0000 0.0000 29.8706 0.0000 -3.2271
# 5 -3.4750 -8.2837 -7.0633 0.0000 29.2887 0.0000
# 6 0.0000 0.0000 0.0000 -3.2271 0.0000 21.8257
#
#
#
# Elastic Compliance Matrix: (Units=1/GPa)
#
#
# Indices 1 2 3 4 5 6 
#
# 1 0.016970 -0.006774 -0.003330 0.000000 -0.000705 0.000000
# 2 -0.006774 0.017451 -0.007352 0.000000 0.002359 0.000000
# 3 -0.003330 -0.007352 0.019370 0.000000 0.002197 0.000000
# 4 0.000000 0.000000 0.000000 0.034021 0.000000 0.005030
# 5 -0.000705 0.002359 0.002197 0.000000 0.035256 0.000000
# 6 0.000000 0.000000 0.000000 0.005030 0.000000 0.046561
#
#
# Mechanical properties :
#
#
# Convention : Reuss Voigt Hill
#
# Bulk Modulus (GPa) = 52.96531 55.95626 54.46079
# Shear Modulus (GPa) = 23.71525 24.87242 24.29383
#
# Velocity S-wave (km/s) = 3.65168 3.73971 3.69595
# Velocity P-wave (km/s) = 6.89647 7.07888 6.98827
#
# Compressibility (1/GPa) = 0.01888028
#
# Stress axis : x y z
#
# Youngs Moduli (GPa) = 58.92625 57.30372 51.62544
#
# Poissons Ratio (x) = 0.38816 0.17191
# Poissons Ratio (y) = 0.39915 0.37954
# Poissons Ratio (z) = 0.19622 0.42129
#
# Static dielectric constant tensor:
#      x y z
#    x 3.390860 0.000000 0.037310 
#    y 0.000000 3.069200 0.000000 
#    z 0.037310 0.000000 3.184710 
# 
# 
# High freq. dielectric constant tensor:
#      x y z
#    x 1.696440 0.000000 0.002540 
#    y 0.000000 1.656500 0.000000 
#    z 0.002540 0.000000 1.682180 
# 
# From -- ./inp_files/111610.got.cif
#   From: 2010.06.25/outbox.cif.g09.slc.cpg/sg12_56_cif.got.tgz:111610.got - 2010.06.28 00:19:55.
