data_PCOD8079491
_publ_section_title
;
Structure prediction by ZEFSAII (Michael W. Deem and Ramdas Pophale) SiO2 
 PCOD8079491
Probable space group: C 2/M
;
_chemical_formula_sum "Si O2"
_cell_formula_units_Z 56
_cell_length_a 10.937294
_cell_length_b 18.857999
_cell_length_c 15.098240
_cell_angle_alpha 90.000000
_cell_angle_beta 64.141398
_cell_angle_gamma 90.000000
_cell_volume 2802.290223
_symmetry_space_group_name_H-M "C 2/M"
_symmetry_group_IT_number 12
_symmetry_cell_setting 'monoclinic'
loop_
_space_group_symop_operation_xyz
x,y,z
-x,y,-z
-x,-y,-z
x,-y,z
1/2+x,1/2+y,z
1/2-x,1/2+y,-z
1/2-x,1/2-y,-z
1/2+x,1/2-y,z
loop_
_atom_site_type_symbol
_atom_site_label
_atom_site_fract_x
_atom_site_fract_y
_atom_site_fract_z
Si Si1 0.359238 0.169387 0.901244
Si Si2 0.405846 0.670709 0.447658
Si Si3 0.314125 0.671585 0.883817
Si Si4 0.849765 0.301628 0.221431
Si Si5 0.103806 0.853782 0.744901
Si Si6 0.365054 0.081215 0.722152
Si Si7 0.110158 0.332507 0.593781
O O1 0.291344 0.243491 0.894692
O O2 0.513059 0.188712 0.879215
O O3 0.355494 0.114182 0.822628
O O4 0.278287 0.136051 0.010564
O O5 0.500000 0.644563 0.500000
O O6 0.451398 0.640644 0.338404
O O7 0.251553 0.641869 0.506480
O O8 0.420242 0.755492 0.436580
O O9 0.264957 0.657416 0.798627
O O10 0.467022 0.642013 0.847751
O O11 0.818646 0.219509 0.255241
O O12 0.865170 0.339648 0.309726
O O13 0.213390 0.914830 0.728498
O O14 0.475749 0.118994 0.621340
O O15 0.408481 0.000000 0.716770
#
# Coordination Sequence:
#
# PCOD8079491 Si02
#       7
#     8   8   8   8   8   8   8
#     4   9  19  31  53  84 109 147 190 228 293 332
#     4  10  20  34  60  89 118 136 176 254 296 336
#     4  10  17  31  55  83 116 139 178 250 291 333
#     4   9  16  31  53  81 115 138 179 246 295 340
#     4  10  21  32  52  83 114 151 190 228 294 338
#     4  11  23  41  56  76 120 159 195 224 264 356
#     4   9  21  33  56  86 112 150 184 224 297 335
#
# _framework density 19.983654000000001
#
# number of rings (size 3 to 8) (size 9 to 14) (size 15 to 20)
#    0.000    2.286    1.429    2.143    6.000    0.571 
#    0.000    2.857    0.000   15.429    0.000    0.000 
#    0.000    0.000    0.000    0.000    0.000    0.000 
#
# Total GULP energy -346902.162222 kJ/mol
# GULP energy per Si atom -12389.362937 kJ/mol
# Density = 1.993817 g / cm^3
# Si number density = 19.983654 Si / 1000 Ang^3
#
#
#
# Elastic Constant Matrix: (Units=GPa)
#
#
# Indices 1 2 3 4 5 6 
#
# 1 91.7251 19.1206 33.6013 0.0000 -3.2365 0.0000
# 2 19.1206 53.1116 19.4795 0.0000 -11.1837 0.0000
# 3 33.6013 19.4795 101.3161 0.0000 -18.2831 0.0000
# 4 0.0000 0.0000 0.0000 14.0604 0.0000 -0.3136
# 5 -3.2365 -11.1837 -18.2831 0.0000 34.0840 0.0000
# 6 0.0000 0.0000 0.0000 -0.3136 0.0000 15.7044
#
#
#
# Elastic Compliance Matrix: (Units=1/GPa)
#
#
# Indices 1 2 3 4 5 6 
#
# 1 0.013062 -0.003678 -0.004007 0.000000 -0.002116 0.000000
# 2 -0.003678 0.022108 -0.001976 0.000000 0.005845 0.000000
# 3 -0.004007 -0.001976 0.012614 0.000000 0.005738 0.000000
# 4 0.000000 0.000000 0.000000 0.071154 0.000000 0.001421
# 5 -0.002116 0.005845 0.005738 0.000000 0.034134 0.000000
# 6 0.000000 0.000000 0.000000 0.001421 0.000000 0.063705
#
#
# Mechanical properties :
#
#
# Convention : Reuss Voigt Hill
#
# Bulk Modulus (GPa) = 35.13418 43.39506 39.26462
# Shear Modulus (GPa) = 20.35951 24.36653 22.36302
#
# Velocity S-wave (km/s) = 3.19534 3.49567 3.34887
# Velocity P-wave (km/s) = 5.58867 6.16890 5.88594
#
# Compressibility (1/GPa) = 0.02846231
#
# Stress axis : x y z
#
# Youngs Moduli (GPa) = 76.55802 45.23248 79.27609
#
# Poissons Ratio (x) = 0.16639 0.31762
# Poissons Ratio (y) = 0.28162 0.15664
# Poissons Ratio (z) = 0.30673 0.08937
#
# Static dielectric constant tensor:
#      x y z
#    x 3.716750 0.000000 -0.199590 
#    y 0.000000 2.971640 0.000000 
#    z -0.199590 0.000000 3.863590 
# 
# 
# High freq. dielectric constant tensor:
#      x y z
#    x 1.789820 0.000000 -0.007740 
#    y 0.000000 1.696630 0.000000 
#    z -0.007740 0.000000 1.795010 
# 
# From -- ./inp_files/206559.got.cif
#   From: 2010.06.25/outbox.cif.g09.slc.cpg/sg12_104_cif.got.tgz:206559.got - 2010.06.28 00:19:55.
