data_PCOD8079096
_publ_section_title
;
Structure prediction by ZEFSAII (Michael W. Deem and Ramdas Pophale) SiO2 
 PCOD8079096
Probable space group: C 2/M
;
_chemical_formula_sum "Si O2"
_cell_formula_units_Z 56
_cell_length_a 16.622682
_cell_length_b 17.788729
_cell_length_c 15.521516
_cell_angle_alpha 90.000000
_cell_angle_beta 137.417637
_cell_angle_gamma 90.000000
_cell_volume 3105.587866
_symmetry_space_group_name_H-M "C 2/M"
_symmetry_group_IT_number 12
_symmetry_cell_setting 'monoclinic'
loop_
_space_group_symop_operation_xyz
x,y,z
-x,y,-z
-x,-y,-z
x,-y,z
1/2+x,1/2+y,z
1/2-x,1/2+y,-z
1/2-x,1/2-y,-z
1/2+x,1/2-y,z
loop_
_atom_site_type_symbol
_atom_site_label
_atom_site_fract_x
_atom_site_fract_y
_atom_site_fract_z
Si Si1 0.982672 0.691961 0.829061
Si Si2 0.774895 0.228151 0.752413
Si Si3 0.187493 0.586014 0.396476
Si Si4 0.605088 0.666162 0.525106
Si Si5 0.020562 0.835423 0.746757
Si Si6 0.268187 0.206417 0.926948
Si Si7 0.180553 0.085939 0.325316
O O1 0.884073 0.715465 0.820484
O O2 0.931204 0.631478 0.721323
O O3 0.020775 0.766176 0.810390
O O4 0.104198 0.662961 0.971597
O O5 0.658066 0.259927 0.612744
O O6 0.759240 0.231613 0.842959
O O7 0.797349 0.142884 0.736897
O O8 0.154366 0.500000 0.359537
O O9 0.293301 0.604546 0.412762
O O10 0.225230 0.604378 0.524507
O O11 0.500000 0.629769 0.500000
O O12 0.550844 0.692595 0.392461
O O13 0.158790 0.853901 0.831625
O O14 0.952485 0.904524 0.739682
O O15 0.250000 0.250000 0.000000
O O16 0.193419 0.000000 0.302729
#
# Coordination Sequence:
#
# PCOD8079096 Si02
#       7
#     8   8   8   8   8   8   8
#     4   9  18  31  51  72 100 134 176 214 251 303
#     4  10  18  31  53  78 101 131 177 220 258 308
#     4   9  18  32  50  75 106 138 169 205 259 319
#     4  10  17  28  50  78 101 128 167 219 266 303
#     4   9  17  31  50  77 102 130 171 213 262 304
#     4  10  19  31  50  74  99 131 170 218 260 296
#     4   9  18  33  55  80 109 137 167 212 265 317
#
# _framework density 18.032012000000002
#
# number of rings (size 3 to 8) (size 9 to 14) (size 15 to 20)
#    0.000    2.571    1.429    1.286    0.000    3.714 
#    0.000    0.714    0.000   26.143    0.000    0.000 
#    0.000    0.000    0.000    0.000    0.000    0.000 
#
# Total GULP energy -346909.308610 kJ/mol
# GULP energy per Si atom -12389.618165 kJ/mol
# Density = 1.799097 g / cm^3
# Si number density = 18.032012 Si / 1000 Ang^3
#
#
#
# Elastic Constant Matrix: (Units=GPa)
#
#
# Indices 1 2 3 4 5 6 
#
# 1 67.4745 16.1593 38.7984 0.0000 -5.1618 0.0000
# 2 16.1593 62.1682 30.5569 0.0000 -0.6170 0.0000
# 3 38.7984 30.5569 107.2427 0.0000 11.6115 0.0000
# 4 0.0000 0.0000 0.0000 18.1162 0.0000 -1.8462
# 5 -5.1618 -0.6170 11.6115 0.0000 36.9656 0.0000
# 6 0.0000 0.0000 0.0000 -1.8462 0.0000 16.1471
#
#
#
# Elastic Compliance Matrix: (Units=1/GPa)
#
#
# Indices 1 2 3 4 5 6 
#
# 1 0.019736 -0.001517 -0.007250 0.000000 0.005008 0.000000
# 2 -0.001517 0.018974 -0.005040 0.000000 0.001688 0.000000
# 3 -0.007250 -0.005040 0.013978 0.000000 -0.005487 0.000000
# 4 0.000000 0.000000 0.000000 0.055850 0.000000 0.006386
# 5 0.005008 0.001688 -0.005487 0.000000 0.029503 0.000000
# 6 0.000000 0.000000 0.000000 0.006386 0.000000 0.062661
#
#
# Mechanical properties :
#
#
# Convention : Reuss Voigt Hill
#
# Bulk Modulus (GPa) = 39.88321 45.32384 42.60353
# Shear Modulus (GPa) = 21.12621 24.33717 22.73169
#
# Velocity S-wave (km/s) = 3.42657 3.67776 3.55439
# Velocity P-wave (km/s) = 6.14989 6.57452 6.36575
#
# Compressibility (1/GPa) = 0.02507321
#
# Stress axis : x y z
#
# Youngs Moduli (GPa) = 50.66994 52.70428 71.54180
#
# Poissons Ratio (x) = 0.07993 0.51868
# Poissons Ratio (y) = 0.07685 0.36060
# Poissons Ratio (z) = 0.36736 0.26565
#
# Static dielectric constant tensor:
#      x y z
#    x 3.763410 0.000000 0.535590 
#    y 0.000000 2.933680 0.000000 
#    z 0.535590 0.000000 3.950520 
# 
# 
# High freq. dielectric constant tensor:
#      x y z
#    x 1.700250 0.000000 0.007250 
#    y 0.000000 1.648630 0.000000 
#    z 0.007250 0.000000 1.712070 
# 
# From -- ./inp_files/168394.got.cif
#   From: 2010.06.25/outbox.cif.g09.slc.cpg/sg12_85_cif.got.tgz:168394.got - 2010.06.28 00:19:55.
