data_PCOD8079468
_publ_section_title
;
Structure prediction by ZEFSAII (Michael W. Deem and Ramdas Pophale) SiO2 
 PCOD8079468
Probable space group: C 2/M
;
_chemical_formula_sum "Si O2"
_cell_formula_units_Z 48
_cell_length_a 19.992340
_cell_length_b 17.575655
_cell_length_c 13.124451
_cell_angle_alpha 90.000000
_cell_angle_beta 144.680895
_cell_angle_gamma 90.000000
_cell_volume 2666.131688
_symmetry_space_group_name_H-M "C 2/M"
_symmetry_group_IT_number 12
_symmetry_cell_setting 'monoclinic'
loop_
_space_group_symop_operation_xyz
x,y,z
-x,y,-z
-x,-y,-z
x,-y,z
1/2+x,1/2+y,z
1/2-x,1/2+y,-z
1/2-x,1/2-y,-z
1/2+x,1/2-y,z
loop_
_atom_site_type_symbol
_atom_site_label
_atom_site_fract_x
_atom_site_fract_y
_atom_site_fract_z
Si Si1 0.196097 0.084406 0.697872
Si Si2 0.490164 0.190710 0.740475
Si Si3 0.609890 0.257574 0.575829
Si Si4 0.304720 0.913060 0.054285
Si Si5 0.100094 0.585228 0.203319
Si Si6 0.301985 0.710151 0.965501
O O1 0.101396 0.150222 0.567248
O O2 0.279772 0.093380 0.705574
O O3 0.138634 0.000000 0.625820
O O4 0.264637 0.096901 0.888071
O O5 0.398160 0.226776 0.548411
O O6 0.573192 0.130702 0.785779
O O7 0.409708 0.148308 0.721749
O O8 0.566727 0.259710 0.885520
O O9 0.500000 0.225342 0.500000
O O10 0.729895 0.229296 0.774306
O O11 0.211077 0.879049 0.019676
O O12 0.323448 0.000000 0.107825
O O13 0.086819 0.500000 0.233151
O O14 0.000000 0.601704 0.000000
O O15 0.250000 0.750000 0.000000
#
# Coordination Sequence:
#
# PCOD8079468 Si02
#       6
#     8   8   8   8   8   8
#     4  10  20  33  52  78 105 131 173 220 259 306
#     4  11  20  32  53  76 107 139 171 213 261 311
#     4  12  20  33  53  76 109 142 169 211 266 311
#     4  10  17  31  53  76 102 133 168 213 262 301
#     4  10  18  32  54  78 103 135 173 221 267 301
#     4  10  18  34  49  75 106 140 170 212 255 315
#
# _framework density 18.003612
#
# number of rings (size 3 to 8) (size 9 to 14) (size 15 to 20)
#    0.000    1.500    8.333    0.500    0.000    1.000 
#    0.000    3.333    0.000    0.000    0.000    0.000 
#    0.000    5.333    0.000    0.000    0.000    0.000 
#
# Total GULP energy -297456.807053 kJ/mol
# GULP energy per Si atom -12394.033627 kJ/mol
# Density = 1.796263 g / cm^3
# Si number density = 18.003612 Si / 1000 Ang^3
#
#
#
# Elastic Constant Matrix: (Units=GPa)
#
#
# Indices 1 2 3 4 5 6 
#
# 1 47.4533 28.2078 28.3012 0.0000 -14.3219 0.0000
# 2 28.2078 119.4942 47.6987 0.0000 -16.9386 0.0000
# 3 28.3012 47.6987 109.5752 0.0000 -16.1182 0.0000
# 4 0.0000 0.0000 0.0000 27.7311 0.0000 -5.5172
# 5 -14.3219 -16.9386 -16.1182 0.0000 12.2465 0.0000
# 6 0.0000 0.0000 0.0000 -5.5172 0.0000 32.3938
#
#
#
# Elastic Compliance Matrix: (Units=1/GPa)
#
#
# Indices 1 2 3 4 5 6 
#
# 1 0.034095 -0.002182 -0.003020 0.000000 0.032880 0.000000
# 2 -0.002182 0.011406 -0.003046 0.000000 0.009215 0.000000
# 3 -0.003020 -0.003046 0.012516 0.000000 0.008729 0.000000
# 4 0.000000 0.000000 0.000000 0.037325 0.000000 0.006357
# 5 0.032880 0.009215 0.008729 0.000000 0.144341 0.000000
# 6 0.000000 0.000000 0.000000 0.006357 0.000000 0.031953
#
#
# Mechanical properties :
#
#
# Convention : Reuss Voigt Hill
#
# Bulk Modulus (GPa) = 24.08401 53.88201 38.98301
# Shear Modulus (GPa) = 16.55780 25.96194 21.25987
#
# Velocity S-wave (km/s) = 3.03593 3.80154 3.44010
# Velocity P-wave (km/s) = 5.06908 7.01872 6.12201
#
# Compressibility (1/GPa) = 0.04152133
#
# Stress axis : x y z
#
# Youngs Moduli (GPa) = 29.32975 87.67442 79.89841
#
# Poissons Ratio (x) = 0.19133 0.24126
# Poissons Ratio (y) = 0.06401 0.24336
# Poissons Ratio (z) = 0.08856 0.26705
#
# Static dielectric constant tensor:
#      x y z
#    x 5.724090 0.000000 -1.031730 
#    y 0.000000 3.875150 0.000000 
#    z -1.031730 0.000000 3.517660 
# 
# 
# High freq. dielectric constant tensor:
#      x y z
#    x 1.668200 0.000000 -0.003340 
#    y 0.000000 1.703170 0.000000 
#    z -0.003340 0.000000 1.676000 
# 
# From -- ./inp_files/144966.got.cif
#   From: 2010.06.25/outbox.cif.g09.slc.cpg/sg12_73_cif.got.tgz:144966.got - 2010.06.28 00:19:55.
