data_PCOD8079341
_publ_section_title
;
Structure prediction by ZEFSAII (Michael W. Deem and Ramdas Pophale) SiO2 
 PCOD8079341
Probable space group: C 2/M
;
_chemical_formula_sum "Si O2"
_cell_formula_units_Z 28
_cell_length_a 5.472137
_cell_length_b 27.297098
_cell_length_c 8.310618
_cell_angle_alpha 90.000000
_cell_angle_beta 93.399525
_cell_angle_gamma 90.000000
_cell_volume 1239.201323
_symmetry_space_group_name_H-M "C 2/M"
_symmetry_group_IT_number 12
_symmetry_cell_setting 'monoclinic'
loop_
_space_group_symop_operation_xyz
x,y,z
-x,y,-z
-x,-y,-z
x,-y,z
1/2+x,1/2+y,z
1/2-x,1/2+y,-z
1/2-x,1/2-y,-z
1/2+x,1/2-y,z
loop_
_atom_site_type_symbol
_atom_site_label
_atom_site_fract_x
_atom_site_fract_y
_atom_site_fract_z
Si Si1 0.603094 0.232833 0.307535
Si Si2 0.656424 0.861023 0.161147
Si Si3 0.242183 0.443534 0.404984
Si Si4 0.500000 0.289456 0.000000
O O1 0.373171 0.256768 0.397129
O O2 0.527956 0.175060 0.288542
O O3 0.661982 0.254815 0.126769
O O4 0.737461 0.911783 0.243138
O O5 0.500000 0.875194 0.000000
O O6 0.879757 0.827080 0.119510
O O7 0.500000 0.431097 0.500000
O O8 0.237116 0.500000 0.352207
O O9 0.000000 0.431236 0.500000
#
# Coordination Sequence:
#
# PCOD8079341 Si02
#       4
#     8   8   8   4
#     4  10  17  30  50  87 121 157 182 231 291 359
#     4  11  20  34  65  94 116 154 209 251 288 348
#     4  10  25  47  64  82 120 166 199 243 314 369
#     4  10  18  32  53  96 127 156 182 248 300 356
#
# _framework density 22.595199999999998
#
# number of rings (size 3 to 8) (size 9 to 14) (size 15 to 20)
#    0.000    1.714    4.286    1.714    4.000    0.571 
#    0.000    0.714    0.000   20.571    0.000    0.000 
#    0.000    0.000    0.000    0.000    0.000    0.000 
#
# Total GULP energy -173451.500515 kJ/mol
# GULP energy per Si atom -12389.392894 kJ/mol
# Density = 2.254377 g / cm^3
# Si number density = 22.595200 Si / 1000 Ang^3
#
#
#
# Elastic Constant Matrix: (Units=GPa)
#
#
# Indices 1 2 3 4 5 6 
#
# 1 141.7283 48.7541 63.9019 0.0000 14.7810 0.0000
# 2 48.7541 150.4637 72.9141 0.0000 18.8651 0.0000
# 3 63.9019 72.9141 89.4613 0.0000 20.1006 0.0000
# 4 0.0000 0.0000 0.0000 87.8199 0.0000 15.4926
# 5 14.7810 18.8651 20.1006 0.0000 44.2203 0.0000
# 6 0.0000 0.0000 0.0000 15.4926 0.0000 50.8344
#
#
#
# Elastic Compliance Matrix: (Units=1/GPa)
#
#
# Indices 1 2 3 4 5 6 
#
# 1 0.010422 0.000385 -0.007727 0.000000 -0.000135 0.000000
# 2 0.000385 0.011018 -0.009099 0.000000 -0.000693 0.000000
# 3 -0.007727 -0.009099 0.025239 0.000000 -0.005008 0.000000
# 4 0.000000 0.000000 0.000000 0.012034 0.000000 -0.003668
# 5 -0.000135 -0.000693 -0.005008 0.000000 0.025231 0.000000
# 6 0.000000 0.000000 0.000000 -0.003668 0.000000 0.020789
#
#
# Mechanical properties :
#
#
# Convention : Reuss Voigt Hill
#
# Bulk Modulus (GPa) = 72.49014 83.64372 78.06693
# Shear Modulus (GPa) = 35.15843 49.64713 42.40278
#
# Velocity S-wave (km/s) = 3.94891 4.69256 4.33671
# Velocity P-wave (km/s) = 7.27624 8.15223 7.72666
#
# Compressibility (1/GPa) = 0.01379498
#
# Stress axis : x y z
#
# Youngs Moduli (GPa) = 95.95500 90.76384 39.62183
#
# Poissons Ratio (x) = -0.03492 0.30617
# Poissons Ratio (y) = -0.03691 0.36051
# Poissons Ratio (z) = 0.74147 0.82584
#
# Static dielectric constant tensor:
#      x y z
#    x 4.331650 0.000000 -0.037850 
#    y 0.000000 3.975530 0.000000 
#    z -0.037850 0.000000 4.046090 
# 
# 
# High freq. dielectric constant tensor:
#      x y z
#    x 1.915650 0.000000 0.001710 
#    y 0.000000 1.878940 0.000000 
#    z 0.001710 0.000000 1.903920 
# 
# From -- ./inp_files/33879.got.cif
#   From: 2010.06.25/outbox.cif.g09.slc.cpg/sg12_17_cif.got.tgz:33879.got - 2010.06.28 00:19:55.
