data_PCOD8079194
_publ_section_title
;
Structure prediction by ZEFSAII (Michael W. Deem and Ramdas Pophale) SiO2 
 PCOD8079194
Probable space group: C 2/M
;
_chemical_formula_sum "Si O2"
_cell_formula_units_Z 56
_cell_length_a 30.776933
_cell_length_b 13.374735
_cell_length_c 16.088928
_cell_angle_alpha 90.000000
_cell_angle_beta 150.718070
_cell_angle_gamma 90.000000
_cell_volume 3239.230558
_symmetry_space_group_name_H-M "C 2/M"
_symmetry_group_IT_number 12
_symmetry_cell_setting 'monoclinic'
loop_
_space_group_symop_operation_xyz
x,y,z
-x,y,-z
-x,-y,-z
x,-y,z
1/2+x,1/2+y,z
1/2-x,1/2+y,-z
1/2-x,1/2-y,-z
1/2+x,1/2-y,z
loop_
_atom_site_type_symbol
_atom_site_label
_atom_site_fract_x
_atom_site_fract_y
_atom_site_fract_z
Si Si1 0.466808 0.619756 0.168569
Si Si2 0.826535 0.612308 0.719238
Si Si3 0.375577 0.612913 0.361521
Si Si4 0.416972 0.611150 0.257312
Si Si5 0.340474 0.697627 0.472035
Si Si6 0.412050 0.308567 0.901690
Si Si7 0.224706 0.386897 0.553485
O O1 0.476434 0.500000 0.186973
O O2 0.407124 0.658582 0.148394
O O3 0.563908 0.668155 0.333136
O O4 0.415460 0.656261 0.002137
O O5 0.858493 0.500000 0.792571
O O6 0.730493 0.629544 0.599024
O O7 0.899318 0.688548 0.877728
O O8 0.819927 0.630326 0.609934
O O9 0.336127 0.500000 0.299151
O O10 0.366581 0.662083 0.252805
O O11 0.478620 0.606987 0.553484
O O12 0.328786 0.680894 0.353270
O O13 0.377639 0.500000 0.189860
O O14 0.322845 0.814635 0.459599
O O15 0.329041 0.361962 0.719180
O O16 0.500000 0.342199 0.000000
O O17 0.211819 0.500000 0.563208
#
# Coordination Sequence:
#
# PCOD8079194 Si02
#       7
#     8   8   8   8   8   8   8
#     4  10  18  28  46  72  99 121 145 185 233 271
#     4  10  20  34  49  64  89 123 155 187 220 262
#     4   8  12  21  41  68  94 116 143 181 221 261
#     4   7  12  22  37  64  97 120 140 175 224 269
#     4  10  17  29  49  72  91 115 153 190 225 266
#     4  11  21  32  47  70  93 117 150 187 228 274
#     4  10  21  35  48  63  89 123 155 188 225 268
#
# _framework density 17.288056999999998
#
# number of rings (size 3 to 8) (size 9 to 14) (size 15 to 20)
#    0.000    2.571    0.000    6.857    0.000    2.571 
#    0.000    0.714    0.000    3.429    0.000   11.000 
#    0.000    0.000    0.000    0.000    0.000    0.000 
#
# Total GULP energy -346906.652628 kJ/mol
# GULP energy per Si atom -12389.523308 kJ/mol
# Density = 1.724871 g / cm^3
# Si number density = 17.288057 Si / 1000 Ang^3
#
#
#
# Elastic Constant Matrix: (Units=GPa)
#
#
# Indices 1 2 3 4 5 6 
#
# 1 114.3278 54.1099 12.8482 0.0000 -22.0787 0.0000
# 2 54.1099 105.4398 23.8124 0.0000 -8.1408 0.0000
# 3 12.8482 23.8124 35.8679 0.0000 -6.1929 0.0000
# 4 0.0000 0.0000 0.0000 16.8853 0.0000 -4.5434
# 5 -22.0787 -8.1408 -6.1929 0.0000 21.8526 0.0000
# 6 0.0000 0.0000 0.0000 -4.5434 0.0000 23.1654
#
#
#
# Elastic Compliance Matrix: (Units=1/GPa)
#
#
# Indices 1 2 3 4 5 6 
#
# 1 0.014055 -0.006601 0.001446 0.000000 0.012151 0.000000
# 2 -0.006601 0.014355 -0.007774 0.000000 -0.003525 0.000000
# 3 0.001446 -0.007774 0.033936 0.000000 0.008182 0.000000
# 4 0.000000 0.000000 0.000000 0.062523 0.000000 0.012262
# 5 0.012151 -0.003525 0.008182 0.000000 0.059043 0.000000
# 6 0.000000 0.000000 0.000000 0.012262 0.000000 0.045573
#
#
# Mechanical properties :
#
#
# Convention : Reuss Voigt Hill
#
# Bulk Modulus (GPa) = 27.40695 48.57515 37.99105
# Shear Modulus (GPa) = 18.69107 23.37167 21.03137
#
# Velocity S-wave (km/s) = 3.29166 3.68080 3.49166
# Velocity P-wave (km/s) = 5.50765 6.79875 6.18697
#
# Compressibility (1/GPa) = 0.03648710
#
# Stress axis : x y z
#
# Youngs Moduli (GPa) = 71.14825 69.66065 29.46711
#
# Poissons Ratio (x) = 0.45985 -0.04260
# Poissons Ratio (y) = 0.46966 0.22909
# Poissons Ratio (z) = -0.10287 0.54157
#
# Static dielectric constant tensor:
#      x y z
#    x 3.701180 0.000000 -0.353980 
#    y 0.000000 3.140510 0.000000 
#    z -0.353980 0.000000 2.997050 
# 
# 
# High freq. dielectric constant tensor:
#      x y z
#    x 1.676950 0.000000 -0.019230 
#    y 0.000000 1.645810 0.000000 
#    z -0.019230 0.000000 1.637340 
# 
# From -- ./inp_files/251192.got.cif
#   From: 2010.06.25/outbox.cif.g09.slc.cpg/sg12_126_cif.got.tgz:251192.got - 2010.06.28 00:19:55.
