data_PCOD8079685
_publ_section_title
;
Structure prediction by ZEFSAII (Michael W. Deem and Ramdas Pophale) SiO2 
 PCOD8079685
Probable space group: C 2/M
;
_chemical_formula_sum "Si O2"
_cell_formula_units_Z 60
_cell_length_a 17.870440
_cell_length_b 17.099835
_cell_length_c 18.003827
_cell_angle_alpha 90.000000
_cell_angle_beta 140.095407
_cell_angle_gamma 90.000000
_cell_volume 3529.361881
_symmetry_space_group_name_H-M "C 2/M"
_symmetry_group_IT_number 12
_symmetry_cell_setting 'monoclinic'
loop_
_space_group_symop_operation_xyz
x,y,z
-x,y,-z
-x,-y,-z
x,-y,z
1/2+x,1/2+y,z
1/2-x,1/2+y,-z
1/2-x,1/2-y,-z
1/2+x,1/2-y,z
loop_
_atom_site_type_symbol
_atom_site_label
_atom_site_fract_x
_atom_site_fract_y
_atom_site_fract_z
Si Si1 0.711834 0.311330 0.745220
Si Si2 0.292215 0.590563 0.997409
Si Si3 0.070672 0.313415 0.877053
Si Si4 0.500000 0.342176 0.500000
Si Si5 0.382153 0.702428 0.949783
Si Si6 0.061839 0.164894 0.772348
Si Si7 0.336848 0.907833 0.719784
Si Si8 0.877073 0.088795 0.539959
O O1 0.604124 0.286341 0.609240
O O2 0.794125 0.236814 0.821069
O O3 0.658754 0.343329 0.781726
O O4 0.784620 0.378939 0.758667
O O5 0.266366 0.500000 0.966757
O O6 0.401825 0.604752 0.135308
O O7 0.180520 0.631868 0.947272
O O8 0.322057 0.626890 0.940041
O O9 0.059101 0.253254 0.800150
O O10 0.957853 0.366741 0.795141
O O11 0.090116 0.268985 0.968906
O O12 0.539109 0.402073 0.466570
O O13 0.500000 0.674790 0.000000
O O14 0.930259 0.143371 0.645645
O O15 0.252956 0.887359 0.585599
O O16 0.355822 0.000000 0.741464
O O17 0.879963 0.000000 0.570389
#
# Coordination Sequence:
#
# PCOD8079685 Si02
#       8
#     8   8   8   4   8   8   8   8
#     4  10  17  34  51  76 104 132 168 205 249 298
#     4  11  22  35  53  77 102 133 173 209 253 302
#     4  11  20  35  52  75 106 136 168 205 252 307
#     4   8  17  26  50  74 101 132 168 198 247 300
#     4  11  20  36  56  72 102 134 168 215 252 297
#     4  10  19  33  54  74 102 137 171 208 249 298
#     4  10  21  33  50  78 109 135 165 205 253 304
#     4   9  17  30  47  73 106 135 167 206 247 293
#
# _framework density 17.000240000000002
#
# number of rings (size 3 to 8) (size 9 to 14) (size 15 to 20)
#    0.000    1.867    4.000    1.800    0.000    4.533 
#    0.000    0.667    0.000    0.000    0.000    0.467 
#    0.000    0.000    0.000    0.000    0.000    0.000 
#
# Total GULP energy -371900.599214 kJ/mol
# GULP energy per Si atom -12396.686640 kJ/mol
# Density = 1.696155 g / cm^3
# Si number density = 17.000240 Si / 1000 Ang^3
#
#
#
# Elastic Constant Matrix: (Units=GPa)
#
#
# Indices 1 2 3 4 5 6 
#
# 1 81.5817 38.3548 33.1782 0.0001 11.2080 0.0001
# 2 38.3548 84.4869 35.9898 0.0000 -11.9626 0.0000
# 3 33.1782 35.9898 85.0253 0.0001 -5.7100 0.0001
# 4 0.0001 0.0000 0.0001 25.0230 0.0001 -0.5120
# 5 11.2080 -11.9626 -5.7100 0.0001 12.7199 0.0001
# 6 0.0001 0.0000 0.0001 -0.5120 0.0001 10.0892
#
#
#
# Elastic Compliance Matrix: (Units=1/GPa)
#
#
# Indices 1 2 3 4 5 6 
#
# 1 0.028960 -0.016247 -0.007386 0.000000 -0.044113 0.000000
# 2 -0.016247 0.025278 -0.001858 0.000000 0.037255 0.000000
# 3 -0.007386 -0.001858 0.016239 0.000000 0.012051 0.000000
# 4 0.000000 0.000000 0.000000 0.040005 -0.000001 0.002030
# 5 -0.044113 0.037255 0.012051 -0.000001 0.157933 -0.000001
# 6 0.000000 0.000000 0.000000 0.002030 -0.000001 0.099219
#
#
# Mechanical properties :
#
#
# Convention : Reuss Voigt Hill
#
# Bulk Modulus (GPa) = 51.29449 51.79327 51.54388
# Shear Modulus (GPa) = 11.76150 19.13783 15.44966
#
# Velocity S-wave (km/s) = 2.63314 3.35884 3.01789
# Velocity P-wave (km/s) = 6.28354 6.75091 6.52141
#
# Compressibility (1/GPa) = 0.01949527
#
# Stress axis : x y z
#
# Youngs Moduli (GPa) = 34.53007 39.55970 61.57917
#
# Poissons Ratio (x) = 0.64272 0.45484
# Poissons Ratio (y) = 0.56100 0.11443
# Poissons Ratio (z) = 0.25505 0.07351
#
# Static dielectric constant tensor:
#      x y z
#    x 3.127390 0.000000 0.037230 
#    y 0.000000 2.975430 0.000000 
#    z 0.037230 0.000000 3.553790 
# 
# 
# High freq. dielectric constant tensor:
#      x y z
#    x 1.647230 0.000000 0.006600 
#    y 0.000000 1.631880 0.000000 
#    z 0.006600 0.000000 1.669930 
# 
# From -- ./inp_files/278588.got.cif
#   From: 2010.06.25/outbox.cif.g09.slc.cpg/sg12_140_cif.got.tgz:278588.got - 2010.06.28 00:19:55.
