data_PCOD8079915
_publ_section_title
;
Structure prediction by ZEFSAII (Michael W. Deem and Ramdas Pophale) SiO2 
 PCOD8079915
Probable space group: C 2/M
;
_chemical_formula_sum "Si O2"
_cell_formula_units_Z 64
_cell_length_a 27.060719
_cell_length_b 9.139144
_cell_length_c 18.658612
_cell_angle_alpha 90.000000
_cell_angle_beta 68.178707
_cell_angle_gamma 90.000000
_cell_volume 4283.856110
_symmetry_space_group_name_H-M "C 2/M"
_symmetry_group_IT_number 12
_symmetry_cell_setting 'monoclinic'
loop_
_space_group_symop_operation_xyz
x,y,z
-x,y,-z
-x,-y,-z
x,-y,z
1/2+x,1/2+y,z
1/2-x,1/2+y,-z
1/2-x,1/2-y,-z
1/2+x,1/2-y,z
loop_
_atom_site_type_symbol
_atom_site_label
_atom_site_fract_x
_atom_site_fract_y
_atom_site_fract_z
Si Si1 0.761757 0.331512 0.755602
Si Si2 0.831950 0.670355 0.458453
Si Si3 0.225181 0.832332 0.922865
Si Si4 0.428912 0.668375 0.471678
Si Si5 0.172023 0.832284 0.087547
Si Si6 0.550111 0.668208 0.378248
Si Si7 0.628145 0.827079 0.235709
Si Si8 0.736207 0.328684 0.614860
O O1 0.771443 0.500000 0.732321
O O2 0.716495 0.309115 0.841825
O O3 0.818587 0.269201 0.752569
O O4 0.742643 0.259961 0.691336
O O5 0.836873 0.500000 0.440374
O O6 0.889263 0.730313 0.449141
O O7 0.790905 0.705292 0.544226
O O8 0.812897 0.746994 0.395768
O O9 0.268622 0.714006 0.922557
O O10 0.246613 0.000000 0.922627
O O11 0.171577 0.810563 0.000218
O O12 0.411417 0.500000 0.473655
O O13 0.487111 0.692364 0.407231
O O14 0.428650 0.715013 0.555074
O O15 0.128851 0.735273 0.153579
O O16 0.161736 0.000000 0.113870
O O17 0.564611 0.500000 0.355465
O O18 0.576557 0.769202 0.304157
O O19 0.625458 0.000000 0.232606
O O20 0.722698 0.500000 0.622217
#
# Coordination Sequence:
#
# PCOD8079915 Si02
#       8
#     8   8   8   8   8   8   8   8
#     4   8  14  25  40  57  78 106 139 171 202 237
#     4  10  19  29  42  61  83 107 138 171 201 238
#     4   8  14  24  37  54  77 105 137 171 204 239
#     4   9  18  32  47  61  81 108 134 165 206 246
#     4   9  15  23  36  54  78 108 138 166 200 242
#     4   9  18  31  45  62  82 105 136 169 201 241
#     4  10  18  27  40  59  84 111 139 171 203 236
#     4   9  17  29  43  58  79 108 139 170 205 240
#
# _framework density 14.939811000000001
#
# number of rings (size 3 to 8) (size 9 to 14) (size 15 to 20)
#    0.000    3.000    0.000    3.375    0.000    3.000 
#    0.000    4.375    0.000    0.000    0.000    0.000 
#    0.000    1.000    0.000   11.500    0.000    3.500 
#
# Total GULP energy -396530.515589 kJ/mol
# GULP energy per Si atom -12391.578612 kJ/mol
# Density = 1.490581 g / cm^3
# Si number density = 14.939811 Si / 1000 Ang^3
#
#
#
# Elastic Constant Matrix: (Units=GPa)
#
#
# Indices 1 2 3 4 5 6 
#
# 1 61.2557 27.4376 31.7037 0.0000 5.2805 0.0000
# 2 27.4376 59.3075 42.3083 -0.0001 -1.5056 -0.0001
# 3 31.7037 42.3083 121.2184 0.0000 4.5981 0.0000
# 4 0.0000 -0.0001 0.0000 21.6723 0.0000 -3.2529
# 5 5.2805 -1.5056 4.5981 0.0000 17.5382 0.0000
# 6 0.0000 -0.0001 0.0000 -3.2529 0.0000 18.6157
#
#
#
# Elastic Compliance Matrix: (Units=1/GPa)
#
#
# Indices 1 2 3 4 5 6 
#
# 1 0.022048 -0.008573 -0.002520 0.000000 -0.006714 0.000000
# 2 -0.008573 0.026069 -0.007110 0.000000 0.006683 0.000000
# 3 -0.002520 -0.007110 0.011499 0.000000 -0.002867 0.000000
# 4 0.000000 0.000000 0.000000 0.047385 0.000000 0.008280
# 5 -0.006714 0.006683 -0.002867 0.000000 0.060365 0.000000
# 6 0.000000 0.000000 0.000000 0.008280 0.000000 0.055165
#
#
# Mechanical properties :
#
#
# Convention : Reuss Voigt Hill
#
# Bulk Modulus (GPa) = 43.08401 49.40896 46.24649
# Shear Modulus (GPa) = 18.74956 20.92072 19.83514
#
# Velocity S-wave (km/s) = 3.54645 3.74616 3.64767
# Velocity P-wave (km/s) = 6.75801 7.20107 6.98306
#
# Compressibility (1/GPa) = 0.02321047
#
# Stress axis : x y z
#
# Youngs Moduli (GPa) = 45.35589 38.35933 86.96499
#
# Poissons Ratio (x) = 0.32886 0.21911
# Poissons Ratio (y) = 0.38884 0.61833
# Poissons Ratio (z) = 0.11428 0.27274
#
# Static dielectric constant tensor:
#      x y z
#    x 2.561030 0.000000 0.142730 
#    y 0.000000 2.829370 0.000000 
#    z 0.142730 0.000000 3.204840 
# 
# 
# High freq. dielectric constant tensor:
#      x y z
#    x 1.519090 0.000000 0.006670 
#    y 0.000000 1.571870 0.000000 
#    z 0.006670 0.000000 1.580610 
# 
# From -- ./inp_files/326566.got.cif
#   From: 2010.06.25/outbox.cif.g09.slc.cpg/sg12_164_cif.got.tgz:326566.got - 2010.06.28 00:19:55.
