data_PCOD8079634
_publ_section_title
;
Structure prediction by ZEFSAII (Michael W. Deem and Ramdas Pophale) SiO2 
 PCOD8079634
Probable space group: C 2/M
;
_chemical_formula_sum "Si O2"
_cell_formula_units_Z 48
_cell_length_a 19.179018
_cell_length_b 14.960933
_cell_length_c 13.375199
_cell_angle_alpha 90.000000
_cell_angle_beta 137.444839
_cell_angle_gamma 90.000000
_cell_volume 2595.520676
_symmetry_space_group_name_H-M "C 2/M"
_symmetry_group_IT_number 12
_symmetry_cell_setting 'monoclinic'
loop_
_space_group_symop_operation_xyz
x,y,z
-x,y,-z
-x,-y,-z
x,-y,z
1/2+x,1/2+y,z
1/2-x,1/2+y,-z
1/2-x,1/2-y,-z
1/2+x,1/2-y,z
loop_
_atom_site_type_symbol
_atom_site_label
_atom_site_fract_x
_atom_site_fract_y
_atom_site_fract_z
Si Si1 0.607865 0.272052 0.656059
Si Si2 0.504291 0.704526 0.272300
Si Si3 0.821697 0.334987 0.568367
Si Si4 0.319490 0.398139 0.423792
Si Si5 0.081841 0.901435 0.000162
Si Si6 0.796973 0.601555 0.323126
O O1 0.500000 0.306125 0.500000
O O2 0.596870 0.281590 0.763881
O O3 0.690339 0.337252 0.687651
O O4 0.621854 0.168895 0.640342
O O5 0.559630 0.800449 0.308594
O O6 0.587748 0.636150 0.406817
O O7 0.455807 0.669104 0.119967
O O8 0.750000 0.250000 0.500000
O O9 0.790023 0.393953 0.631811
O O10 0.795690 0.390270 0.441353
O O11 0.341168 0.500000 0.415212
O O12 0.187829 0.869625 0.161803
O O13 0.094381 0.000000 0.964373
O O14 0.000000 0.906511 0.000000
O O15 0.826389 0.500000 0.325859
#
# Coordination Sequence:
#
# PCOD8079634 Si02
#       6
#     8   8   8   8   8   8
#     4  10  20  36  52  81 112 144 189 225 276 331
#     4  10  20  34  54  77 115 144 181 228 276 332
#     4  10  17  33  54  77 110 142 184 229 268 328
#     4  10  19  31  54  82 109 141 182 234 280 320
#     4  10  21  34  54  84 111 141 182 229 284 331
#     4  11  21  35  55  80 114 147 183 230 276 328
#
# _framework density 18.493399
#
# number of rings (size 3 to 8) (size 9 to 14) (size 15 to 20)
#    0.000    1.833    5.000    3.000    0.000    6.000 
#    0.000    0.000    0.000    0.000    0.000    3.500 
#    0.000    0.000    0.000    0.000    0.000    0.000 
#
# Total GULP energy -297406.200062 kJ/mol
# GULP energy per Si atom -12391.925003 kJ/mol
# Density = 1.845131 g / cm^3
# Si number density = 18.493399 Si / 1000 Ang^3
#
#
#
# Elastic Constant Matrix: (Units=GPa)
#
#
# Indices 1 2 3 4 5 6 
#
# 1 112.8757 44.2488 39.0492 0.0000 -19.3859 0.0000
# 2 44.2488 108.5059 28.4402 0.0000 -10.1958 0.0000
# 3 39.0492 28.4402 70.6672 0.0000 -11.7086 0.0000
# 4 0.0000 0.0000 0.0000 21.3892 0.0000 -0.3795
# 5 -19.3859 -10.1958 -11.7086 0.0000 15.1986 0.0000
# 6 0.0000 0.0000 0.0000 -0.3795 0.0000 20.7705
#
#
#
# Elastic Compliance Matrix: (Units=1/GPa)
#
#
# Indices 1 2 3 4 5 6 
#
# 1 0.013691 -0.003350 -0.004237 0.000000 0.011952 0.000000
# 2 -0.003350 0.011369 -0.002486 0.000000 0.001439 0.000000
# 3 -0.004237 -0.002486 0.018709 0.000000 0.007341 0.000000
# 4 0.000000 0.000000 0.000000 0.046768 0.000000 0.000854
# 5 0.011952 0.001439 0.007341 0.000000 0.087661 0.000000
# 6 0.000000 0.000000 0.000000 0.000854 0.000000 0.048161
#
#
# Mechanical properties :
#
#
# Convention : Reuss Voigt Hill
#
# Bulk Modulus (GPa) = 42.33109 57.28058 49.80583
# Shear Modulus (GPa) = 19.65582 23.49234 21.57408
#
# Velocity S-wave (km/s) = 3.26368 3.56801 3.41923
# Velocity P-wave (km/s) = 6.09440 6.92929 6.52521
#
# Compressibility (1/GPa) = 0.02362330
#
# Stress axis : x y z
#
# Youngs Moduli (GPa) = 73.04180 87.95933 53.45044
#
# Poissons Ratio (x) = 0.29462 0.22647
# Poissons Ratio (y) = 0.24466 0.13288
# Poissons Ratio (z) = 0.30948 0.21868
#
# Static dielectric constant tensor:
#      x y z
#    x 4.340750 0.000000 -0.138900 
#    y 0.000000 3.524020 0.000000 
#    z -0.138900 0.000000 3.028030 
# 
# 
# High freq. dielectric constant tensor:
#      x y z
#    x 1.729340 0.000000 -0.013450 
#    y 0.000000 1.713520 0.000000 
#    z -0.013450 0.000000 1.673810 
# 
# From -- ./inp_files/167639.got.cif
#   From: 2010.06.25/outbox.cif.g09.slc.cpg/sg12_84_cif.got.tgz:167639.got - 2010.06.28 00:19:55.
