data_PCOD8079555
_publ_section_title
;
Structure prediction by ZEFSAII (Michael W. Deem and Ramdas Pophale) SiO2 
 PCOD8079555
Probable space group: C 2/M
;
_chemical_formula_sum "Si O2"
_cell_formula_units_Z 64
_cell_length_a 20.898554
_cell_length_b 20.980113
_cell_length_c 19.465223
_cell_angle_alpha 90.000000
_cell_angle_beta 153.395742
_cell_angle_gamma 90.000000
_cell_volume 3822.014226
_symmetry_space_group_name_H-M "C 2/M"
_symmetry_group_IT_number 12
_symmetry_cell_setting 'monoclinic'
loop_
_space_group_symop_operation_xyz
x,y,z
-x,y,-z
-x,-y,-z
x,-y,z
1/2+x,1/2+y,z
1/2-x,1/2+y,-z
1/2-x,1/2-y,-z
1/2+x,1/2-y,z
loop_
_atom_site_type_symbol
_atom_site_label
_atom_site_fract_x
_atom_site_fract_y
_atom_site_fract_z
Si Si1 0.902434 0.624170 0.204802
Si Si2 0.395207 0.926324 0.339062
Si Si3 0.430823 0.678582 0.656126
Si Si4 0.965822 0.735380 0.043679
Si Si5 0.406343 0.381667 0.970366
Si Si6 0.622378 0.191236 0.318072
Si Si7 0.105275 0.928540 0.894072
Si Si8 0.302636 0.256621 0.129702
O O1 0.960788 0.580551 0.323960
O O2 0.842905 0.685228 0.189580
O O3 0.025482 0.641828 0.268594
O O4 0.768418 0.593779 0.034368
O O5 0.500000 0.902556 0.500000
O O6 0.256147 0.881740 0.212594
O O7 0.355773 0.000000 0.313064
O O8 0.399191 0.736761 0.676840
O O9 0.284039 0.665139 0.475053
O O10 0.482256 0.615180 0.743660
O O11 0.559313 0.698521 0.728976
O O12 0.082795 0.697319 0.200415
O O13 0.968980 0.812054 0.050147
O O14 0.813691 0.714285 0.930050
O O15 0.000000 0.711214 0.000000
O O16 0.500000 0.412004 0.000000
O O17 0.416531 0.427858 0.045227
O O18 0.084436 0.000000 0.846078
O O19 0.250000 0.250000 0.000000
#
# Coordination Sequence:
#
# PCOD8079555 Si02
#       8
#     8   8   8   8   8   8   8   8
#     4  10  17  32  53  71  93 139 185 215 260 305
#     4  10  21  35  46  67 105 145 184 217 254 298
#     4  10  19  32  52  76 101 134 177 209 281 309
#     4  11  19  32  51  79 106 132 175 223 262 319
#     4  10  19  32  46  65  98 138 181 215 248 300
#     4  10  19  34  53  74 102 135 173 226 272 323
#     4  11  19  31  50  74 102 133 182 221 251 310
#     4  11  15  33  55  69 101 137 176 215 260 325
#
# _framework density 16.745097000000001
#
# number of rings (size 3 to 8) (size 9 to 14) (size 15 to 20)
#    0.000    1.625    7.500    1.500    0.000    2.000 
#    6.750    3.125    0.000    0.000    0.000    0.000 
#    0.000   22.000    0.000    0.000    0.000    0.000 
#
# Total GULP energy -396493.106519 kJ/mol
# GULP energy per Si atom -12390.409579 kJ/mol
# Density = 1.670698 g / cm^3
# Si number density = 16.745097 Si / 1000 Ang^3
#
#
#
# Elastic Constant Matrix: (Units=GPa)
#
#
# Indices 1 2 3 4 5 6 
#
# 1 111.1222 23.3653 58.2806 0.0036 7.8606 0.0023
# 2 23.3653 64.3940 42.5822 0.0021 7.2101 0.0015
# 3 58.2806 42.5822 125.1445 0.0155 9.7741 0.0135
# 4 0.0036 0.0021 0.0155 20.1088 0.0066 -5.4260
# 5 7.8606 7.2101 9.7741 0.0066 22.9475 0.0045
# 6 0.0023 0.0015 0.0135 -5.4260 0.0045 16.0462
#
#
#
# Elastic Compliance Matrix: (Units=1/GPa)
#
#
# Indices 1 2 3 4 5 6 
#
# 1 0.012003 -0.000721 -0.005215 0.000004 -0.001664 0.000004
# 2 -0.000721 0.020358 -0.006322 0.000006 -0.003457 0.000006
# 3 -0.005215 -0.006322 0.012698 -0.000011 -0.001636 -0.000013
# 4 0.000004 0.000006 -0.000011 0.054723 -0.000018 0.018504
# 5 -0.001664 -0.003457 -0.001636 -0.000018 0.045931 -0.000017
# 6 0.000004 0.000006 -0.000013 0.018504 -0.000017 0.068577
#
#
# Mechanical properties :
#
#
# Convention : Reuss Voigt Hill
#
# Bulk Modulus (GPa) = 48.67211 61.01298 54.84254
# Shear Modulus (GPa) = 20.35390 23.58269 21.96830
#
# Velocity S-wave (km/s) = 3.49020 3.75685 3.62598
# Velocity P-wave (km/s) = 6.73585 7.43868 7.09597
#
# Compressibility (1/GPa) = 0.02054565
#
# Stress axis : x y z
#
# Youngs Moduli (GPa) = 83.30968 49.12005 78.75160
#
# Poissons Ratio (x) = 0.03540 0.41068
# Poissons Ratio (y) = 0.06004 0.49783
# Poissons Ratio (z) = 0.43445 0.31052
#
# Static dielectric constant tensor:
#      x y z
#    x 3.171710 0.000000 0.109660 
#    y 0.000000 2.935310 0.000000 
#    z 0.109660 0.000000 3.340280 
# 
# 
# High freq. dielectric constant tensor:
#      x y z
#    x 1.630680 0.000000 0.013430 
#    y 0.000000 1.617990 0.000000 
#    z 0.013430 0.000000 1.639590 
# 
# From -- ./inp_files/285793.got.cif
#   From: 2010.06.25/outbox.cif.g09.slc.cpg/sg12_143_cif.got.tgz:285793.got - 2010.06.28 00:19:55.
