data_PCOD8079689
_publ_section_title
;
Structure prediction by ZEFSAII (Michael W. Deem and Ramdas Pophale) SiO2 
 PCOD8079689
Probable space group: C 2/M
;
_chemical_formula_sum "Si O2"
_cell_formula_units_Z 48
_cell_length_a 14.902533
_cell_length_b 17.971011
_cell_length_c 11.718402
_cell_angle_alpha 90.000000
_cell_angle_beta 62.460740
_cell_angle_gamma 90.000000
_cell_volume 2782.754384
_symmetry_space_group_name_H-M "C 2/M"
_symmetry_group_IT_number 12
_symmetry_cell_setting 'monoclinic'
loop_
_space_group_symop_operation_xyz
x,y,z
-x,y,-z
-x,-y,-z
x,-y,z
1/2+x,1/2+y,z
1/2-x,1/2+y,-z
1/2-x,1/2-y,-z
1/2+x,1/2-y,z
loop_
_atom_site_type_symbol
_atom_site_label
_atom_site_fract_x
_atom_site_fract_y
_atom_site_fract_z
Si Si1 0.669821 0.686073 0.903013
Si Si2 0.004358 0.818395 0.819452
Si Si3 0.940144 0.913666 0.651597
Si Si4 0.675364 0.916354 0.087275
Si Si5 0.975829 0.342463 0.146751
Si Si6 0.227735 0.644726 0.820033
O O1 0.598388 0.656940 0.843183
O O2 0.768822 0.634527 0.852275
O O3 0.711835 0.769091 0.862215
O O4 0.605915 0.677506 0.056941
O O5 0.004944 0.871915 0.710374
O O6 0.021761 0.731762 0.777222
O O7 0.833238 0.871862 0.696204
O O8 0.000000 0.905809 0.500000
O O9 0.924952 0.000000 0.694400
O O10 0.555532 0.900068 0.150994
O O11 0.690456 0.000000 0.119303
O O12 0.724412 0.905337 0.934672
O O13 0.863701 0.378697 0.212321
O O14 0.000000 0.318238 0.000000
#
# Coordination Sequence:
#
# PCOD8079689 Si02
#       6
#     8   8   8   8   8   8
#     4  10  18  31  54  79 100 130 166 211 266 302
#     4  10  17  34  54  72 101 133 167 212 255 297
#     4  11  24  37  50  72 104 143 177 204 241 296
#     4  11  19  26  44  78 110 130 155 196 259 323
#     4   9  17  31  50  76 101 127 160 206 259 306
#     4  10  18  33  52  72 100 137 169 210 249 297
#
# _framework density 17.249096000000002
#
# number of rings (size 3 to 8) (size 9 to 14) (size 15 to 20)
#    0.000    1.833    6.667    2.000    0.000    4.333 
#    0.000    5.000    0.000    0.000    0.000    0.000 
#    0.000    6.667    0.000    0.000    0.000    0.000 
#
# Total GULP energy -297513.748956 kJ/mol
# GULP energy per Si atom -12396.406206 kJ/mol
# Density = 1.720984 g / cm^3
# Si number density = 17.249096 Si / 1000 Ang^3
#
#
#
# Elastic Constant Matrix: (Units=GPa)
#
#
# Indices 1 2 3 4 5 6 
#
# 1 115.5310 45.2505 28.1515 0.0000 -9.1932 0.0000
# 2 45.2505 95.9023 31.1165 0.0000 0.1458 0.0000
# 3 28.1515 31.1165 51.9043 0.0000 -1.2693 0.0000
# 4 0.0000 0.0000 0.0000 20.0438 0.0000 1.3921
# 5 -9.1932 0.1458 -1.2693 0.0000 14.7217 0.0000
# 6 0.0000 0.0000 0.0000 1.3921 0.0000 17.1216
#
#
#
# Elastic Compliance Matrix: (Units=1/GPa)
#
#
# Indices 1 2 3 4 5 6 
#
# 1 0.011832 -0.004429 -0.003587 0.000000 0.007123 0.000000
# 2 -0.004429 0.014613 -0.006443 0.000000 -0.003466 0.000000
# 3 -0.003587 -0.006443 0.025074 0.000000 -0.000015 0.000000
# 4 0.000000 0.000000 0.000000 0.050174 0.000000 -0.004079
# 5 0.007123 -0.003466 -0.000015 0.000000 0.072408 0.000000
# 6 0.000000 0.000000 0.000000 -0.004079 0.000000 0.058738
#
#
# Mechanical properties :
#
#
# Convention : Reuss Voigt Hill
#
# Bulk Modulus (GPa) = 44.24947 52.48606 48.36776
# Shear Modulus (GPa) = 18.56727 20.96534 19.76631
#
# Velocity S-wave (km/s) = 3.28444 3.49011 3.38884
# Velocity P-wave (km/s) = 6.33185 6.83634 6.58892
#
# Compressibility (1/GPa) = 0.02259914
#
# Stress axis : x y z
#
# Youngs Moduli (GPa) = 84.51988 68.43243 39.88186
#
# Poissons Ratio (x) = 0.30312 0.14308
# Poissons Ratio (y) = 0.37437 0.25695
# Poissons Ratio (z) = 0.30321 0.44090
#
# Static dielectric constant tensor:
#      x y z
#    x 3.591960 0.000000 -0.076760 
#    y 0.000000 3.113320 0.000000 
#    z -0.076760 0.000000 2.677540 
# 
# 
# High freq. dielectric constant tensor:
#      x y z
#    x 1.694330 0.000000 -0.004570 
#    y 0.000000 1.664510 0.000000 
#    z -0.004570 0.000000 1.595370 
# 
# From -- ./inp_files/142708.got.cif
#   From: 2010.06.25/outbox.cif.g09.slc.cpg/sg12_72_cif.got.tgz:142708.got - 2010.06.28 00:19:55.
