data_PCOD8079525
_publ_section_title
;
Structure prediction by ZEFSAII (Michael W. Deem and Ramdas Pophale) SiO2 
 PCOD8079525
Probable space group: C 2/M
;
_chemical_formula_sum "Si O2"
_cell_formula_units_Z 64
_cell_length_a 24.478293
_cell_length_b 17.232520
_cell_length_c 18.003762
_cell_angle_alpha 90.000000
_cell_angle_beta 153.195820
_cell_angle_gamma 90.000000
_cell_volume 3424.636677
_symmetry_space_group_name_H-M "C 2/M"
_symmetry_group_IT_number 12
_symmetry_cell_setting 'monoclinic'
loop_
_space_group_symop_operation_xyz
x,y,z
-x,y,-z
-x,-y,-z
x,-y,z
1/2+x,1/2+y,z
1/2-x,1/2+y,-z
1/2-x,1/2-y,-z
1/2+x,1/2-y,z
loop_
_atom_site_type_symbol
_atom_site_label
_atom_site_fract_x
_atom_site_fract_y
_atom_site_fract_z
Si Si1 0.596402 0.849338 0.322978
Si Si2 0.332172 0.413439 0.678915
Si Si3 0.226420 0.089404 0.079880
Si Si4 0.367125 0.771508 0.873358
Si Si5 0.283038 0.873482 0.317665
Si Si6 0.522176 0.909997 0.679280
Si Si7 0.473498 0.299900 0.137477
Si Si8 0.619170 0.083258 0.189009
O O1 0.734665 0.865694 0.512287
O O2 0.506405 0.894804 0.269014
O O3 0.564631 0.757010 0.292610
O O4 0.579353 0.878996 0.218658
O O5 0.355684 0.500000 0.674025
O O6 0.283324 0.428238 0.702798
O O7 0.453733 0.361879 0.825070
O O8 0.252799 0.095879 0.199625
O O9 0.343098 0.119379 0.176007
O O10 0.194865 0.000000 0.022308
O O11 0.115633 0.146092 0.920759
O O12 0.268451 0.711081 0.725488
O O13 0.310030 0.854033 0.776725
O O14 0.500000 0.759797 0.000000
O O15 0.386544 0.758082 0.984687
O O16 0.426669 0.869171 0.507795
O O17 0.512971 0.000000 0.650175
O O18 0.689134 0.000000 0.284591
O O19 0.500000 0.063311 0.000000
#
# Coordination Sequence:
#
# PCOD8079525 Si02
#       8
#     8   8   8   8   8   8   8   8
#     4  11  20  34  51  72 102 133 165 208 250 296
#     4  11  21  32  49  77 106 133 165 198 249 306
#     4  10  21  35  53  73  99 136 173 207 243 288
#     4  10  17  32  47  76 106 134 161 200 243 296
#     4  10  18  31  54  75 105 136 163 200 248 295
#     4  10  21  36  51  74 102 131 172 212 244 287
#     4  11  21  34  51  72 106 135 166 204 250 299
#     4  10  18  31  52  74 100 131 163 203 251 298
#
# _framework density 18.688113999999999
#
# number of rings (size 3 to 8) (size 9 to 14) (size 15 to 20)
#    0.000    1.625    3.750    4.125    0.000    2.500 
#    0.000    1.875    0.000    0.000    0.000    0.000 
#    0.000   10.000    0.000    2.500    0.000    0.000 
#
# Total GULP energy -396418.426957 kJ/mol
# GULP energy per Si atom -12388.075842 kJ/mol
# Density = 1.864558 g / cm^3
# Si number density = 18.688114 Si / 1000 Ang^3
#
#
#
# Elastic Constant Matrix: (Units=GPa)
#
#
# Indices 1 2 3 4 5 6 
#
# 1 51.2135 17.9208 21.9923 0.0002 7.3868 0.0001
# 2 17.9208 135.8023 40.3590 0.0001 13.5681 0.0001
# 3 21.9923 40.3590 48.8792 0.0002 3.3597 0.0001
# 4 0.0002 0.0001 0.0002 23.4652 0.0001 3.6687
# 5 7.3868 13.5681 3.3597 0.0001 27.3267 0.0001
# 6 0.0001 0.0001 0.0001 3.6687 0.0001 28.9169
#
#
#
# Elastic Compliance Matrix: (Units=1/GPa)
#
#
# Indices 1 2 3 4 5 6 
#
# 1 0.025014 0.000657 -0.011406 0.000000 -0.005686 0.000000
# 2 0.000657 0.010203 -0.008431 0.000000 -0.004207 0.000000
# 3 -0.011406 -0.008431 0.032325 0.000000 0.003295 0.000000
# 4 0.000000 0.000000 0.000000 0.043479 0.000000 -0.005516
# 5 -0.005686 -0.004207 0.003295 0.000000 0.039815 0.000000
# 6 0.000000 0.000000 0.000000 -0.005516 0.000000 0.035282
#
#
# Mechanical properties :
#
#
# Convention : Reuss Voigt Hill
#
# Bulk Modulus (GPa) = 34.26744 44.04878 39.15811
# Shear Modulus (GPa) = 21.34874 26.31661 23.83268
#
# Velocity S-wave (km/s) = 3.38356 3.75667 3.57499
# Velocity P-wave (km/s) = 5.80008 6.51448 6.16763
#
# Compressibility (1/GPa) = 0.02918222
#
# Stress axis : x y z
#
# Youngs Moduli (GPa) = 39.97686 98.01239 30.93542
#
# Poissons Ratio (x) = -0.06439 0.35286
# Poissons Ratio (y) = -0.02626 0.26081
# Poissons Ratio (z) = 0.45599 0.82632
#
# Static dielectric constant tensor:
#      x y z
#    x 3.317500 0.000000 0.032370 
#    y 0.000000 3.873510 0.000000 
#    z 0.032370 0.000000 3.372910 
# 
# 
# High freq. dielectric constant tensor:
#      x y z
#    x 1.695730 0.000000 -0.004020 
#    y 0.000000 1.738390 0.000000 
#    z -0.004020 0.000000 1.707390 
# 
# From -- ./inp_files/290464.got.cif
#   From: 2010.06.25/outbox.cif.g09.slc.cpg/sg12_146_cif.got.tgz:290464.got - 2010.06.28 00:19:55.
