data_PCOD8079526
_publ_section_title
;
Structure prediction by ZEFSAII (Michael W. Deem and Ramdas Pophale) SiO2 
 PCOD8079526
Probable space group: C 2/M
;
_chemical_formula_sum "Si O2"
_cell_formula_units_Z 60
_cell_length_a 21.666543
_cell_length_b 22.043827
_cell_length_c 19.742031
_cell_angle_alpha 90.000000
_cell_angle_beta 21.471376
_cell_angle_gamma 90.000000
_cell_volume 3451.379178
_symmetry_space_group_name_H-M "C 2/M"
_symmetry_group_IT_number 12
_symmetry_cell_setting 'monoclinic'
loop_
_space_group_symop_operation_xyz
x,y,z
-x,y,-z
-x,-y,-z
x,-y,z
1/2+x,1/2+y,z
1/2-x,1/2+y,-z
1/2-x,1/2-y,-z
1/2+x,1/2-y,z
loop_
_atom_site_type_symbol
_atom_site_label
_atom_site_fract_x
_atom_site_fract_y
_atom_site_fract_z
Si Si1 0.953762 0.709716 0.242639
Si Si2 0.701165 0.725483 0.172678
Si Si3 0.500000 0.760013 0.500000
Si Si4 0.076779 0.930710 0.853353
Si Si5 0.942837 0.070510 0.843948
Si Si6 0.925906 0.376218 0.507643
Si Si7 0.411673 0.323535 0.374887
Si Si8 0.864962 0.352232 0.824905
O O1 0.769890 0.687998 0.402939
O O2 0.936470 0.779081 0.285297
O O3 0.994867 0.667161 0.264525
O O4 0.105428 0.701183 0.032576
O O5 0.640822 0.722413 0.313498
O O6 0.565445 0.685685 0.270152
O O7 0.716324 0.792647 0.125983
O O8 0.408847 0.803306 0.537331
O O9 0.248964 0.897925 0.662179
O O10 0.958599 0.922895 0.909080
O O11 0.118981 0.000000 0.825319
O O12 0.000000 0.900988 0.000000
O O13 0.086126 0.107289 0.656158
O O14 0.944985 0.000000 0.819490
O O15 0.770169 0.104553 0.000670
O O16 0.000000 0.408313 0.500000
O O17 0.052129 0.392307 0.318524
#
# Coordination Sequence:
#
# PCOD8079526 Si02
#       8
#     8   8   4   8   8   8   8   8
#     4  10  18  30  56  76  96 135 171 214 259 323
#     4  10  17  35  52  74 108 130 163 220 255 317
#     4   8  20  32  49  78 101 130 162 214 276 304
#     4  10  21  32  42  61  92 137 187 224 249 282
#     4  11  21  33  49  72 106 140 176 221 258 297
#     4   9  18  31  46  64  94 134 170 219 250 304
#     4  10  19  32  53  79  99 136 173 211 267 311
#     4  10  17  32  48  72  98 130 173 207 261 300
#
# _framework density 17.384354999999999
#
# number of rings (size 3 to 8) (size 9 to 14) (size 15 to 20)
#    0.400    1.733    2.667    2.400    0.000    1.867 
#    0.000    1.333    0.000    0.000    0.000    0.467 
#    0.000    1.067    0.000    0.000    0.000    0.000 
#
# Total GULP energy -371704.513023 kJ/mol
# GULP energy per Si atom -12390.150434 kJ/mol
# Density = 1.734479 g / cm^3
# Si number density = 17.384355 Si / 1000 Ang^3
#
#
#
# Elastic Constant Matrix: (Units=GPa)
#
#
# Indices 1 2 3 4 5 6 
#
# 1 26.1718 23.0169 29.5964 -0.0289 0.5561 -0.0131
# 2 23.0169 73.4709 33.2141 -0.1963 -2.1899 -0.0873
# 3 29.5964 33.2141 140.3930 -0.2827 0.6776 -0.1286
# 4 -0.0289 -0.1963 -0.2827 -44.7126 0.0207 -15.8240
# 5 0.5561 -2.1899 0.6776 0.0207 25.7957 0.0085
# 6 -0.0131 -0.0873 -0.1286 -15.8240 0.0085 12.3741
#
#
#
# Elastic Compliance Matrix: (Units=1/GPa)
#
#
# Indices 1 2 3 4 5 6 
#
# 1 0.062556 -0.015355 -0.009543 0.000093 -0.002401 -0.000020
# 2 -0.015355 0.019060 -0.001282 -0.000070 0.001983 0.000014
# 3 -0.009543 -0.001282 0.009439 -0.000052 -0.000151 0.000012
# 4 0.000093 -0.000070 -0.000052 -0.015396 0.000012 -0.019690
# 5 -0.002401 0.001983 -0.000151 0.000012 0.038990 -0.000001
# 6 -0.000020 0.000014 0.000012 -0.019690 -0.000001 0.055635
#
#
# Mechanical properties :
#
#
# Convention : Reuss Voigt Hill
#
# Bulk Modulus (GPa) = 25.84334 45.74337 35.79335
# Shear Modulus (GPa) = 21.22780 8.97199 15.09989
#
# Velocity S-wave (km/s) = 3.49820 2.27424 2.95038
# Velocity P-wave (km/s) = 5.58701 5.76769 5.67807
#
# Compressibility (1/GPa) = 0.03869469
#
# Stress axis : x y z
#
# Youngs Moduli (GPa) = 15.98575 52.46727 105.94846
#
# Poissons Ratio (x) = 0.80561 1.01108
# Poissons Ratio (y) = 0.24545 0.13581
# Poissons Ratio (z) = 0.15255 0.06726
#
# Static dielectric constant tensor:
#      x y z
#    x 2.989860 -0.000040 0.069810 
#    y -0.000040 3.003670 0.000070 
#    z 0.069810 0.000070 3.467230 
# 
# 
# High freq. dielectric constant tensor:
#      x y z
#    x 1.637870 -0.000010 -0.004820 
#    y -0.000010 1.631400 0.000010 
#    z -0.004820 0.000010 1.684080 
# 
# From -- ./inp_files/326270.got.cif
#   From: 2010.06.25/outbox.cif.g09.slc.cpg/sg12_164_cif.got.tgz:326270.got - 2010.06.28 00:19:55.
