data_PCOD8079622
_publ_section_title
;
Structure prediction by ZEFSAII (Michael W. Deem and Ramdas Pophale) SiO2 
 PCOD8079622
Probable space group: C 2/M
;
_chemical_formula_sum "Si O2"
_cell_formula_units_Z 48
_cell_length_a 19.525815
_cell_length_b 17.861398
_cell_length_c 13.065953
_cell_angle_alpha 90.000000
_cell_angle_beta 34.564381
_cell_angle_gamma 90.000000
_cell_volume 2585.252261
_symmetry_space_group_name_H-M "C 2/M"
_symmetry_group_IT_number 12
_symmetry_cell_setting 'monoclinic'
loop_
_space_group_symop_operation_xyz
x,y,z
-x,y,-z
-x,-y,-z
x,-y,z
1/2+x,1/2+y,z
1/2-x,1/2+y,-z
1/2-x,1/2-y,-z
1/2+x,1/2-y,z
loop_
_atom_site_type_symbol
_atom_site_label
_atom_site_fract_x
_atom_site_fract_y
_atom_site_fract_z
Si Si1 0.993253 0.313954 0.891925
Si Si2 0.186736 0.085372 0.996825
Si Si3 0.258677 0.310769 0.900476
Si Si4 0.636105 0.188556 0.353339
Si Si5 0.709115 0.174684 0.496504
Si Si6 0.966182 0.137015 0.154120
O O1 0.097868 0.357616 0.699846
O O2 0.008612 0.225005 0.866955
O O3 0.866893 0.334105 0.996328
O O4 0.000000 0.342477 0.000000
O O5 0.190374 0.114184 0.109733
O O6 0.047817 0.092010 0.133306
O O7 0.229886 0.000000 0.940745
O O8 0.272567 0.132495 0.815637
O O9 0.346077 0.274171 0.707724
O O10 0.250000 0.250000 0.000000
O O11 0.500000 0.161734 0.500000
O O12 0.662802 0.190344 0.439884
O O13 0.750000 0.250000 0.500000
O O14 0.824838 0.119317 0.350686
O O15 0.000000 0.108198 0.000000
#
# Coordination Sequence:
#
# PCOD8079622 Si02
#       6
#     8   8   8   8   8   8
#     4  10  18  33  57  88 111 138 188 251 297 333
#     4  11  23  37  55  81 122 164 190 231 293 358
#     4  10  18  35  55  80 115 148 192 238 283 339
#     4  11  21  35  57  88 115 151 195 248 293 337
#     4  10  19  29  54  86 113 144 185 243 292 338
#     4  10  17  33  51  79 117 146 187 231 287 352
#
# _framework density 18.566852999999998
#
# number of rings (size 3 to 8) (size 9 to 14) (size 15 to 20)
#    0.000    1.667    5.000    4.000    2.333    0.667 
#    0.000    0.000    0.000    2.000    0.000    0.000 
#    0.000    0.000    0.000    0.000    0.000    0.000 
#
# Total GULP energy -297487.478215 kJ/mol
# GULP energy per Si atom -12395.311592 kJ/mol
# Density = 1.852459 g / cm^3
# Si number density = 18.566853 Si / 1000 Ang^3
#
#
#
# Elastic Constant Matrix: (Units=GPa)
#
#
# Indices 1 2 3 4 5 6 
#
# 1 171.5931 35.3697 61.2532 0.0000 -0.6185 0.0000
# 2 35.3697 54.9314 30.5477 0.0000 6.7577 0.0000
# 3 61.2532 30.5477 117.8776 0.0000 2.5563 0.0000
# 4 0.0000 0.0000 0.0000 6.2062 0.0000 0.0675
# 5 -0.6185 6.7577 2.5563 0.0000 36.1677 0.0000
# 6 0.0000 0.0000 0.0000 0.0675 0.0000 12.1997
#
#
#
# Elastic Compliance Matrix: (Units=1/GPa)
#
#
# Indices 1 2 3 4 5 6 
#
# 1 0.007627 -0.003288 -0.003132 0.000000 0.000966 0.000000
# 2 -0.003288 0.023163 -0.004205 0.000000 -0.004087 0.000000
# 3 -0.003132 -0.004205 0.011202 0.000000 -0.000060 0.000000
# 4 0.000000 0.000000 0.000000 0.161140 0.000000 -0.000892
# 5 0.000966 -0.004087 -0.000060 0.000000 0.028433 0.000000
# 6 0.000000 0.000000 0.000000 -0.000892 0.000000 0.081974
#
#
# Mechanical properties :
#
#
# Convention : Reuss Voigt Hill
#
# Bulk Modulus (GPa) = 48.21379 66.52704 57.37042
# Shear Modulus (GPa) = 14.63252 25.39680 20.01466
#
# Velocity S-wave (km/s) = 2.81036 3.70247 3.28682
# Velocity P-wave (km/s) = 6.04606 7.36115 6.73578
#
# Compressibility (1/GPa) = 0.02074095
#
# Stress axis : x y z
#
# Youngs Moduli (GPa) = 131.11244 43.17210 89.26920
#
# Poissons Ratio (x) = 0.14195 0.27960
# Poissons Ratio (y) = 0.43110 0.37542
# Poissons Ratio (z) = 0.41066 0.18156
#
# Static dielectric constant tensor:
#      x y z
#    x 3.784410 0.000000 -0.063960 
#    y 0.000000 2.990290 0.000000 
#    z -0.063960 0.000000 3.918790 
# 
# 
# High freq. dielectric constant tensor:
#      x y z
#    x 1.747440 0.000000 -0.004790 
#    y 0.000000 1.654700 0.000000 
#    z -0.004790 0.000000 1.722940 
# 
# From -- ./inp_files/159128.got.cif
#   From: 2010.06.25/outbox.cif.g09.slc.cpg/sg12_80_cif.got.tgz:159128.got - 2010.06.28 00:19:55.
