data_PCOD8079347
_publ_section_title
;
Structure prediction by ZEFSAII (Michael W. Deem and Ramdas Pophale) SiO2 
 PCOD8079347
Probable space group: C 2/M
;
_chemical_formula_sum "Si O2"
_cell_formula_units_Z 64
_cell_length_a 20.907515
_cell_length_b 19.133200
_cell_length_c 8.795573
_cell_angle_alpha 90.000000
_cell_angle_beta 82.264882
_cell_angle_gamma 90.000000
_cell_volume 3486.457570
_symmetry_space_group_name_H-M "C 2/M"
_symmetry_group_IT_number 12
_symmetry_cell_setting 'monoclinic'
loop_
_space_group_symop_operation_xyz
x,y,z
-x,y,-z
-x,-y,-z
x,-y,z
1/2+x,1/2+y,z
1/2-x,1/2+y,-z
1/2-x,1/2-y,-z
1/2+x,1/2-y,z
loop_
_atom_site_type_symbol
_atom_site_label
_atom_site_fract_x
_atom_site_fract_y
_atom_site_fract_z
Si Si1 0.774711 0.232627 0.744419
Si Si2 0.291789 0.419368 0.289370
Si Si3 0.756853 0.357438 0.970729
Si Si4 0.840891 0.787624 0.418798
Si Si5 0.130231 0.577257 0.913503
Si Si6 0.641875 0.077531 0.394662
Si Si7 0.965746 0.577244 0.810566
Si Si8 0.083951 0.335632 0.673963
O O1 0.787202 0.295402 0.858487
O O2 0.832197 0.220779 0.604050
O O3 0.711765 0.245492 0.662602
O O4 0.770231 0.165325 0.856064
O O5 0.310812 0.500000 0.311115
O O6 0.298747 0.397842 0.108732
O O7 0.338726 0.370047 0.375750
O O8 0.217154 0.401989 0.353323
O O9 0.814275 0.411569 0.980809
O O10 0.908163 0.748950 0.346777
O O11 0.138287 0.500000 0.841404
O O12 0.134674 0.635364 0.781748
O O13 0.057396 0.584968 0.006529
O O14 0.603454 0.080143 0.249756
O O15 0.605553 0.132951 0.508455
O O16 0.638085 0.000000 0.467489
O O17 0.997763 0.500000 0.771892
O O18 0.011613 0.639924 0.738596
#
# Coordination Sequence:
#
# PCOD8079347 Si02
#       8
#     8   8   8   8   8   8   8   8
#     4   9  18  32  49  70  97 128 170 216 256 302
#     4  10  20  35  53  73 101 132 167 212 264 315
#     4  10  17  30  51  71  95 135 171 206 258 304
#     4  10  20  33  49  73  98 131 174 212 266 301
#     4  11  21  32  46  71 103 139 177 211 243 285
#     4  10  19  32  49  70  98 137 176 210 249 296
#     4  10  21  35  48  68 103 144 180 210 242 286
#     4  12  21  32  47  68  99 141 177 213 247 293
#
# _framework density 18.356742000000001
#
# number of rings (size 3 to 8) (size 9 to 14) (size 15 to 20)
#    0.000    1.750    2.500    4.500    0.000    2.000 
#    0.000    0.625    0.000    0.000    0.000    0.000 
#    0.000    4.000    0.000    1.000    0.000    0.500 
#
# Total GULP energy -396445.277093 kJ/mol
# GULP energy per Si atom -12388.914909 kJ/mol
# Density = 1.831496 g / cm^3
# Si number density = 18.356742 Si / 1000 Ang^3
#
#
#
# Elastic Constant Matrix: (Units=GPa)
#
#
# Indices 1 2 3 4 5 6 
#
# 1 33.3062 34.0703 3.5740 0.0000 -5.9562 0.0000
# 2 34.0703 116.5678 33.3127 0.0000 -13.7932 0.0000
# 3 3.5740 33.3127 80.0627 0.0000 -10.1230 0.0000
# 4 0.0000 0.0000 0.0000 23.5275 0.0000 1.6439
# 5 -5.9562 -13.7932 -10.1230 0.0000 15.0647 0.0000
# 6 0.0000 0.0000 0.0000 1.6439 0.0000 30.8108
#
#
#
# Elastic Compliance Matrix: (Units=1/GPa)
#
#
# Indices 1 2 3 4 5 6 
#
# 1 0.044766 -0.013403 0.004661 0.000000 0.008559 0.000000
# 2 -0.013403 0.014425 -0.004813 0.000000 0.004674 0.000000
# 3 0.004661 -0.004813 0.015257 0.000000 0.007688 0.000000
# 4 0.000000 0.000000 0.000000 0.042663 0.000000 -0.002276
# 5 0.008559 0.004674 0.007688 0.000000 0.079210 0.000000
# 6 0.000000 0.000000 0.000000 -0.002276 0.000000 0.032578
#
#
# Mechanical properties :
#
#
# Convention : Reuss Voigt Hill
#
# Bulk Modulus (GPa) = 21.12519 41.31672 31.22096
# Shear Modulus (GPa) = 18.39681 24.47924 21.43802
#
# Velocity S-wave (km/s) = 3.16916 3.65571 3.42110
# Velocity P-wave (km/s) = 4.99245 6.35417 5.71402
#
# Compressibility (1/GPa) = 0.04733684
#
# Stress axis : x y z
#
# Youngs Moduli (GPa) = 22.33856 69.32638 65.54509
#
# Poissons Ratio (x) = 0.92919 -0.30548
# Poissons Ratio (y) = 0.29941 0.31544
# Poissons Ratio (z) = -0.10411 0.33363
#
# Static dielectric constant tensor:
#      x y z
#    x 2.973340 0.000000 0.065030 
#    y 0.000000 3.447250 0.000000 
#    z 0.065030 0.000000 3.597960 
# 
# 
# High freq. dielectric constant tensor:
#      x y z
#    x 1.653910 0.000000 0.009910 
#    y 0.000000 1.699400 0.000000 
#    z 0.009910 0.000000 1.732010 
# 
# From -- ./inp_files/87961.got.cif
#   From: 2010.06.25/outbox.cif.g09.slc.cpg/sg12_44_cif.got.tgz:87961.got - 2010.06.28 00:19:55.
