data_PCOD8079119
_publ_section_title
;
Structure prediction by ZEFSAII (Michael W. Deem and Ramdas Pophale) SiO2 
 PCOD8079119
Probable space group: C 2/M
;
_chemical_formula_sum "Si O2"
_cell_formula_units_Z 48
_cell_length_a 20.462083
_cell_length_b 17.143152
_cell_length_c 14.500202
_cell_angle_alpha 90.000000
_cell_angle_beta 147.917700
_cell_angle_gamma 90.000000
_cell_volume 2701.599770
_symmetry_space_group_name_H-M "C 2/M"
_symmetry_group_IT_number 12
_symmetry_cell_setting 'monoclinic'
loop_
_space_group_symop_operation_xyz
x,y,z
-x,y,-z
-x,-y,-z
x,-y,z
1/2+x,1/2+y,z
1/2-x,1/2+y,-z
1/2-x,1/2-y,-z
1/2+x,1/2-y,z
loop_
_atom_site_type_symbol
_atom_site_label
_atom_site_fract_x
_atom_site_fract_y
_atom_site_fract_z
Si Si1 0.249129 0.089486 0.133077
Si Si2 0.734759 0.859565 0.644833
Si Si3 0.472148 0.798420 0.363693
Si Si4 0.275039 0.412161 0.492668
Si Si5 0.645175 0.770345 0.300246
Si Si6 0.979598 0.177704 0.221621
O O1 0.237461 0.092954 0.229713
O O2 0.364558 0.138048 0.234681
O O3 0.267248 0.000000 0.125220
O O4 0.126855 0.121999 0.940892
O O5 0.591526 0.838866 0.462971
O O6 0.771169 0.910994 0.599677
O O7 0.817906 0.779732 0.746413
O O8 0.500000 0.768572 0.500000
O O9 0.433582 0.723623 0.257245
O O10 0.263270 0.500000 0.442798
O O11 0.160899 0.363924 0.307944
O O12 0.404371 0.376283 0.613680
O O13 0.750000 0.750000 0.500000
O O14 0.513976 0.742060 0.183456
#
# Coordination Sequence:
#
# PCOD8079119 Si02
#       6
#     8   8   8   8   8   8
#     4  11  23  31  48  80 110 132 158 207 260 296
#     4   9  17  34  50  76 104 132 166 199 249 318
#     4  10  19  34  55  70  98 144 178 199 232 299
#     4  10  17  28  55  77 100 126 161 220 254 286
#     4   8  15  30  52  69  98 129 169 200 244 305
#     4  10  18  36  48  73 104 135 170 200 250 306
#
# _framework density 17.767251000000002
#
# number of rings (size 3 to 8) (size 9 to 14) (size 15 to 20)
#    0.000    2.667    5.000    1.500    0.000    6.333 
#    0.000    4.167    0.000    2.000    0.000    2.333 
#    0.000    0.000    0.000    0.000    0.000    0.000 
#
# Total GULP energy -297423.193274 kJ/mol
# GULP energy per Si atom -12392.633053 kJ/mol
# Density = 1.772681 g / cm^3
# Si number density = 17.767251 Si / 1000 Ang^3
#
#
#
# Elastic Constant Matrix: (Units=GPa)
#
#
# Indices 1 2 3 4 5 6 
#
# 1 77.1767 41.4779 19.7797 0.0000 16.2542 0.0000
# 2 41.4779 141.7074 23.0578 0.0000 9.4896 0.0000
# 3 19.7797 23.0578 25.8984 0.0000 3.8654 0.0000
# 4 0.0000 0.0000 0.0000 28.3745 0.0000 0.6155
# 5 16.2542 9.4896 3.8654 0.0000 10.6642 0.0000
# 6 0.0000 0.0000 0.0000 0.6155 0.0000 23.2695
#
#
#
# Elastic Compliance Matrix: (Units=1/GPa)
#
#
# Indices 1 2 3 4 5 6 
#
# 1 0.023596 -0.003190 -0.010822 0.000000 -0.029203 0.000000
# 2 -0.003190 0.008938 -0.005349 0.000000 -0.001153 0.000000
# 3 -0.010822 -0.005349 0.051240 0.000000 0.002682 0.000000
# 4 0.000000 0.000000 0.000000 0.035263 0.000000 -0.000933
# 5 -0.029203 -0.001153 0.002682 0.000000 0.138335 0.000000
# 6 0.000000 0.000000 0.000000 -0.000933 0.000000 0.042999
#
#
# Mechanical properties :
#
#
# Convention : Reuss Voigt Hill
#
# Bulk Modulus (GPa) = 22.19725 45.93478 34.06602
# Shear Modulus (GPa) = 14.11984 23.15948 18.63966
#
# Velocity S-wave (km/s) = 2.82212 3.61431 3.24250
# Velocity P-wave (km/s) = 4.81037 6.58235 5.76485
#
# Compressibility (1/GPa) = 0.04505062
#
# Stress axis : x y z
#
# Youngs Moduli (GPa) = 42.38045 111.88059 19.51597
#
# Poissons Ratio (x) = 0.35689 0.21121
# Poissons Ratio (y) = 0.13519 0.10440
# Poissons Ratio (z) = 0.45865 0.59850
#
# Static dielectric constant tensor:
#      x y z
#    x 3.426670 0.000000 0.156980 
#    y 0.000000 3.751620 0.000000 
#    z 0.156980 0.000000 3.073470 
# 
# 
# High freq. dielectric constant tensor:
#      x y z
#    x 1.683120 0.000000 0.019520 
#    y 0.000000 1.683200 0.000000 
#    z 0.019520 0.000000 1.656530 
# 
# From -- ./inp_files/234242.got.cif
#   From: 2010.06.25/outbox.cif.g09.slc.cpg/sg12_118_cif.got.tgz:234242.got - 2010.06.28 00:19:55.
