data_PCOD8079661
_publ_section_title
;
Structure prediction by ZEFSAII (Michael W. Deem and Ramdas Pophale) SiO2 
 PCOD8079661
Probable space group: C 2/M
;
_chemical_formula_sum "Si O2"
_cell_formula_units_Z 48
_cell_length_a 16.461057
_cell_length_b 19.618749
_cell_length_c 9.045013
_cell_angle_alpha 90.000000
_cell_angle_beta 57.181677
_cell_angle_gamma 90.000000
_cell_volume 2454.826590
_symmetry_space_group_name_H-M "C 2/M"
_symmetry_group_IT_number 12
_symmetry_cell_setting 'monoclinic'
loop_
_space_group_symop_operation_xyz
x,y,z
-x,y,-z
-x,-y,-z
x,-y,z
1/2+x,1/2+y,z
1/2-x,1/2+y,-z
1/2-x,1/2-y,-z
1/2+x,1/2-y,z
loop_
_atom_site_type_symbol
_atom_site_label
_atom_site_fract_x
_atom_site_fract_y
_atom_site_fract_z
Si Si1 0.945535 0.633675 0.403800
Si Si2 0.378635 0.923067 0.915979
Si Si3 0.653220 0.728368 0.513712
Si Si4 0.394484 0.325868 0.153722
Si Si5 0.228232 0.574128 0.285598
Si Si6 0.220894 0.289437 0.878577
O O1 0.929819 0.714284 0.405811
O O2 0.838495 0.600261 0.512856
O O3 0.000000 0.616056 0.500000
O O4 0.009690 0.603327 0.205706
O O5 0.336570 0.927429 0.794835
O O6 0.375520 0.000000 0.990263
O O7 0.316213 0.866976 0.066224
O O8 0.750000 0.750000 0.500000
O O9 0.607995 0.669993 0.663789
O O10 0.681942 0.706351 0.318874
O O11 0.318635 0.378579 0.161843
O O12 0.364836 0.251456 0.119898
O O13 0.500000 0.347674 0.000000
O O14 0.267945 0.500000 0.288326
O O15 0.250000 0.250000 0.000000
#
# Coordination Sequence:
#
# PCOD8079661 Si02
#       6
#     8   8   8   8   8   8
#     4  10  17  33  56  86 111 145 191 230 283 342
#     4  10  20  33  57  88 117 147 184 236 293 348
#     4  10  20  35  57  81 116 150 186 238 283 337
#     4  11  22  37  57  83 110 151 192 240 285 328
#     4  10  19  34  55  80 113 147 189 238 285 338
#     4  11  19  37  60  83 115 153 194 233 284 346
#
# _framework density 19.553315000000001
#
# number of rings (size 3 to 8) (size 9 to 14) (size 15 to 20)
#    0.000    1.667    5.000    2.500    0.000    2.333 
#    0.000    0.833    0.000    4.500    0.000    2.333 
#    0.000    0.000    0.000    0.000    0.000    0.000 
#
# Total GULP energy -297373.781468 kJ/mol
# GULP energy per Si atom -12390.574228 kJ/mol
# Density = 1.950881 g / cm^3
# Si number density = 19.553315 Si / 1000 Ang^3
#
#
#
# Elastic Constant Matrix: (Units=GPa)
#
#
# Indices 1 2 3 4 5 6 
#
# 1 45.8667 25.7110 38.3843 0.0000 -19.0094 0.0000
# 2 25.7110 120.7581 41.4611 0.0000 -20.6827 0.0000
# 3 38.3843 41.4611 124.3304 0.0000 -15.2463 0.0000
# 4 0.0000 0.0000 0.0000 31.0416 0.0000 -3.9621
# 5 -19.0094 -20.6827 -15.2463 0.0000 33.5983 0.0000
# 6 0.0000 0.0000 0.0000 -3.9621 0.0000 5.8027
#
#
#
# Elastic Compliance Matrix: (Units=1/GPa)
#
#
# Indices 1 2 3 4 5 6 
#
# 1 0.036736 -0.002176 -0.008716 0.000000 0.015490 0.000000
# 2 -0.002176 0.010203 -0.002236 0.000000 0.004035 0.000000
# 3 -0.008716 -0.002236 0.011337 0.000000 -0.001163 0.000000
# 4 0.000000 0.000000 0.000000 0.035291 0.000000 0.024097
# 5 0.015490 0.004035 -0.001163 0.000000 0.040483 0.000000
# 6 0.000000 0.000000 0.000000 0.024097 0.000000 0.188788
#
#
# Mechanical properties :
#
#
# Convention : Reuss Voigt Hill
#
# Bulk Modulus (GPa) = 31.23044 55.78533 43.50788
# Shear Modulus (GPa) = 13.89784 26.44843 20.17313
#
# Velocity S-wave (km/s) = 2.66891 3.68180 3.21549
# Velocity P-wave (km/s) = 5.05016 6.83125 6.00708
#
# Compressibility (1/GPa) = 0.03202004
#
# Stress axis : x y z
#
# Youngs Moduli (GPa) = 27.22093 98.00954 88.20647
#
# Poissons Ratio (x) = 0.21326 0.76885
# Poissons Ratio (y) = 0.05923 0.19722
# Poissons Ratio (z) = 0.23727 0.21914
#
# Static dielectric constant tensor:
#      x y z
#    x 3.412850 0.000000 0.021240 
#    y 0.000000 3.688920 0.000000 
#    z 0.021240 0.000000 4.231950 
# 
# 
# High freq. dielectric constant tensor:
#      x y z
#    x 1.739400 0.000000 -0.009460 
#    y 0.000000 1.745760 0.000000 
#    z -0.009460 0.000000 1.763380 
# 
# From -- ./inp_files/77016.got.cif
#   From: 2010.06.25/outbox.cif.g09.slc.cpg/sg12_39_cif.got.tgz:77016.got - 2010.06.28 00:19:55.
