data_PCOD8079854
_publ_section_title
;
Structure prediction by ZEFSAII (Michael W. Deem and Ramdas Pophale) SiO2 
 PCOD8079854
Probable space group: C 2/M
;
_chemical_formula_sum "Si O2"
_cell_formula_units_Z 56
_cell_length_a 28.074848
_cell_length_b 9.042884
_cell_length_c 14.280797
_cell_angle_alpha 90.000000
_cell_angle_beta 103.628711
_cell_angle_gamma 90.000000
_cell_volume 3523.489258
_symmetry_space_group_name_H-M "C 2/M"
_symmetry_group_IT_number 12
_symmetry_cell_setting 'monoclinic'
loop_
_space_group_symop_operation_xyz
x,y,z
-x,y,-z
-x,-y,-z
x,-y,z
1/2+x,1/2+y,z
1/2-x,1/2+y,-z
1/2-x,1/2-y,-z
1/2+x,1/2-y,z
loop_
_atom_site_type_symbol
_atom_site_label
_atom_site_fract_x
_atom_site_fract_y
_atom_site_fract_z
Si Si1 0.023281 0.166944 0.408791
Si Si2 0.258461 0.671673 0.218608
Si Si3 0.210188 0.170456 0.044083
Si Si4 0.066391 0.328506 0.703323
Si Si5 0.216353 0.174768 0.560842
Si Si6 0.354924 0.330264 0.150512
Si Si7 0.387116 0.827193 0.476029
O O1 0.072936 0.262464 0.433240
O O2 0.000000 0.167003 0.500000
O O3 0.985160 0.242432 0.319865
O O4 0.034585 0.000000 0.380678
O O5 0.249250 0.500000 0.197314
O O6 0.212596 0.757615 0.148894
O O7 0.259937 0.713166 0.327994
O O8 0.309433 0.720602 0.194188
O O9 0.224267 0.000000 0.058992
O O10 0.250000 0.250000 0.000000
O O11 0.158166 0.189612 0.966139
O O12 0.054812 0.500000 0.711032
O O13 0.098465 0.270853 0.805113
O O14 0.096236 0.297459 0.622267
O O15 0.250000 0.250000 0.500000
O O16 0.162576 0.241190 0.528065
O O17 0.213324 0.000000 0.543225
O O18 0.368082 0.500000 0.179615
O O19 0.380021 0.000000 0.493216
#
# Coordination Sequence:
#
# PCOD8079854 Si02
#       7
#     8   8   8   8   8   8   8
#     4   9  17  28  43  61  84 117 149 179 220 268
#     4   9  18  31  45  60  84 116 149 187 227 267
#     4   9  17  27  41  61  85 114 148 182 219 266
#     4  10  18  26  41  65  90 117 149 184 218 262
#     4  11  22  35  49  66  88 117 156 195 232 270
#     4   9  16  27  41  61  88 118 148 179 218 266
#     4  10  19  31  45  63  87 115 150 189 227 265
#
# _framework density 15.893336
#
# number of rings (size 3 to 8) (size 9 to 14) (size 15 to 20)
#    0.000    2.429    1.429    3.000    0.000    6.857 
#    0.000    0.000    0.000    0.000    0.000    0.000 
#    0.000    1.143    0.000   12.000    0.000    6.571 
#
# Total GULP energy -347127.327605 kJ/mol
# GULP energy per Si atom -12397.404557 kJ/mol
# Density = 1.585716 g / cm^3
# Si number density = 15.893336 Si / 1000 Ang^3
#
#
#
# Elastic Constant Matrix: (Units=GPa)
#
#
# Indices 1 2 3 4 5 6 
#
# 1 56.7832 48.5502 50.5776 0.0000 15.7622 0.0000
# 2 48.5502 100.5679 62.1941 0.0000 18.5429 0.0000
# 3 50.5776 62.1941 107.8511 0.0000 25.7009 0.0000
# 4 0.0000 0.0000 0.0000 29.1921 0.0000 8.4976
# 5 15.7622 18.5429 25.7009 0.0000 23.9957 0.0000
# 6 0.0000 0.0000 0.0000 8.4976 0.0000 25.5393
#
#
#
# Elastic Compliance Matrix: (Units=1/GPa)
#
#
# Indices 1 2 3 4 5 6 
#
# 1 0.037208 -0.010832 -0.009899 0.000000 -0.005467 0.000000
# 2 -0.010832 0.018796 -0.005362 0.000000 -0.001666 0.000000
# 3 -0.009899 -0.005362 0.019428 0.000000 -0.010163 0.000000
# 4 0.000000 0.000000 0.000000 0.037929 0.000000 -0.012620
# 5 -0.005467 -0.001666 -0.010163 0.000000 0.057438 0.000000
# 6 0.000000 0.000000 0.000000 -0.012620 0.000000 0.043354
#
#
# Mechanical properties :
#
#
# Convention : Reuss Voigt Hill
#
# Bulk Modulus (GPa) = 43.02078 65.31622 54.16850
# Shear Modulus (GPa) = 18.24219 22.67079 20.45649
#
# Velocity S-wave (km/s) = 3.39158 3.78091 3.59153
# Velocity P-wave (km/s) = 6.51646 7.76184 7.16626
#
# Compressibility (1/GPa) = 0.02324458
#
# Stress axis : x y z
#
# Youngs Moduli (GPa) = 26.87623 53.20183 51.47094
#
# Poissons Ratio (x) = 0.57630 0.50953
# Poissons Ratio (y) = 0.29113 0.27600
# Poissons Ratio (z) = 0.26606 0.28528
#
# Static dielectric constant tensor:
#      x y z
#    x 2.553540 0.000000 0.517970 
#    y 0.000000 3.232560 0.000000 
#    z 0.517970 0.000000 4.294070 
# 
# 
# High freq. dielectric constant tensor:
#      x y z
#    x 1.561110 0.000000 0.039750 
#    y 0.000000 1.627900 0.000000 
#    z 0.039750 0.000000 1.600370 
# 
# From -- ./inp_files/243232.got.cif
#   From: 2010.06.25/outbox.cif.g09.slc.cpg/sg12_122_cif.got.tgz:243232.got - 2010.06.28 00:19:55.
