data_PCOD8079881
_publ_section_title
;
Structure prediction by ZEFSAII (Michael W. Deem and Ramdas Pophale) SiO2 
 PCOD8079881
Probable space group: C 2/M
;
_chemical_formula_sum "Si O2"
_cell_formula_units_Z 64
_cell_length_a 26.955424
_cell_length_b 9.433196
_cell_length_c 23.848616
_cell_angle_alpha 90.000000
_cell_angle_beta 44.577169
_cell_angle_gamma 90.000000
_cell_volume 4256.223603
_symmetry_space_group_name_H-M "C 2/M"
_symmetry_group_IT_number 12
_symmetry_cell_setting 'monoclinic'
loop_
_space_group_symop_operation_xyz
x,y,z
-x,y,-z
-x,-y,-z
x,-y,z
1/2+x,1/2+y,z
1/2-x,1/2+y,-z
1/2-x,1/2-y,-z
1/2+x,1/2-y,z
loop_
_atom_site_type_symbol
_atom_site_label
_atom_site_fract_x
_atom_site_fract_y
_atom_site_fract_z
Si Si1 0.923661 0.666103 0.038926
Si Si2 0.556631 0.333009 0.495784
Si Si3 0.750774 0.840000 0.080927
Si Si4 0.707791 0.337625 0.824335
Si Si5 0.592377 0.836039 0.191196
Si Si6 0.958827 0.165018 0.667497
Si Si7 0.665178 0.334507 0.321466
Si Si8 0.380318 0.163000 0.951463
O O1 0.908132 0.500000 0.060382
O O2 0.866666 0.755483 0.120075
O O3 0.921618 0.708123 0.974552
O O4 0.000000 0.709664 0.000000
O O5 0.500000 0.260626 0.500000
O O6 0.546137 0.500000 0.500721
O O7 0.533536 0.287907 0.577502
O O8 0.634189 0.295581 0.408852
O O9 0.764353 0.828808 0.135576
O O10 0.672589 0.781997 0.133112
O O11 0.758596 0.000000 0.052701
O O12 0.807061 0.746033 0.002338
O O13 0.697844 0.500000 0.812481
O O14 0.765169 0.260349 0.739299
O O15 0.542852 0.748223 0.272616
O O16 0.571005 0.810257 0.142961
O O17 0.585721 0.000000 0.213516
O O18 0.892499 0.201575 0.680311
O O19 0.958625 0.000000 0.682361
O O20 0.685830 0.500000 0.301058
O O21 0.358005 0.000000 0.972744
#
# Coordination Sequence:
#
# PCOD8079881 Si02
#       8
#     8   8   8   8   8   8   8   8
#     4   9  18  33  49  62  78 101 134 174 210 245
#     4   7  12  23  37  54  76 104 140 176 200 221
#     4   9  17  27  37  52  79 109 133 163 196 227
#     4  10  18  27  41  62  86 108 134 166 202 245
#     4  10  18  27  37  54  83 110 134 165 198 236
#     4   9  16  25  39  57  78 110 146 172 196 228
#     4   9  15  25  41  58  79 108 142 174 199 228
#     4   9  18  29  42  58  75 101 135 168 203 239
#
# _framework density 15.036804
#
# number of rings (size 3 to 8) (size 9 to 14) (size 15 to 20)
#    0.000    3.000    1.250    2.250    0.000    1.750 
#    0.000    0.625    0.000    2.250    0.000    0.000 
#    0.000    1.000    0.000    2.000    0.000    2.750 
#
# Total GULP energy -396476.343677 kJ/mol
# GULP energy per Si atom -12389.885740 kJ/mol
# Density = 1.500258 g / cm^3
# Si number density = 15.036804 Si / 1000 Ang^3
#
#
#
# Elastic Constant Matrix: (Units=GPa)
#
#
# Indices 1 2 3 4 5 6 
#
# 1 41.3950 20.2673 33.8693 -0.0039 -4.0806 0.0045
# 2 20.2673 55.1564 54.0977 -0.0102 -3.7298 0.0158
# 3 33.8693 54.0977 134.8581 -0.0009 2.1011 0.0018
# 4 -0.0039 -0.0102 -0.0009 23.7044 -0.0001 0.9186
# 5 -4.0806 -3.7298 2.1011 -0.0001 14.3369 -0.0011
# 6 0.0045 0.0158 0.0018 0.9186 -0.0011 12.5897
#
#
#
# Elastic Compliance Matrix: (Units=1/GPa)
#
#
# Indices 1 2 3 4 5 6 
#
# 1 0.032726 -0.005327 -0.006220 0.000003 0.008840 -0.000004
# 2 -0.005327 0.032123 -0.011682 0.000014 0.008553 -0.000037
# 3 -0.006220 -0.011682 0.013770 -0.000006 -0.006827 0.000015
# 4 0.000003 0.000014 -0.000006 0.042306 0.000006 -0.003087
# 5 0.008840 0.008553 -0.006827 0.000006 0.075492 -0.000007
# 6 -0.000004 -0.000037 0.000015 -0.003087 -0.000007 0.079655
#
#
# Mechanical properties :
#
#
# Convention : Reuss Voigt Hill
#
# Bulk Modulus (GPa) = 31.09221 49.76423 40.42822
# Shear Modulus (GPa) = 15.00375 18.33788 16.67082
#
# Velocity S-wave (km/s) = 3.16223 3.49597 3.33328
# Velocity P-wave (km/s) = 5.83568 7.03296 6.46211
#
# Compressibility (1/GPa) = 0.03216239
#
# Stress axis : x y z
#
# Youngs Moduli (GPa) = 30.55655 31.13003 72.62330
#
# Poissons Ratio (x) = 0.16583 0.45171
# Poissons Ratio (y) = 0.16277 0.84835
# Poissons Ratio (z) = 0.19006 0.36365
#
# Static dielectric constant tensor:
#      x y z
#    x 2.554060 -0.000010 0.097580 
#    y -0.000010 2.834760 0.000000 
#    z 0.097580 0.000000 3.129790 
# 
# 
# High freq. dielectric constant tensor:
#      x y z
#    x 1.519620 0.000000 0.008130 
#    y 0.000000 1.567670 0.000000 
#    z 0.008130 0.000000 1.582130 
# 
# From -- ./inp_files/350916.got.cif
#   From: 2010.06.25/outbox.cif.g09.slc.cpg/sg12_176_cif.got.tgz:350916.got - 2010.06.28 00:19:55.
