data_PCOD8079063
_publ_section_title
;
Structure prediction by ZEFSAII (Michael W. Deem and Ramdas Pophale) SiO2 
 PCOD8079063
Probable space group: C 2/M
;
_chemical_formula_sum "Si O2"
_cell_formula_units_Z 64
_cell_length_a 18.220898
_cell_length_b 13.357982
_cell_length_c 30.006997
_cell_angle_alpha 90.000000
_cell_angle_beta 148.784234
_cell_angle_gamma 90.000000
_cell_volume 3785.147723
_symmetry_space_group_name_H-M "C 2/M"
_symmetry_group_IT_number 12
_symmetry_cell_setting 'monoclinic'
loop_
_space_group_symop_operation_xyz
x,y,z
-x,y,-z
-x,-y,-z
x,-y,z
1/2+x,1/2+y,z
1/2-x,1/2+y,-z
1/2-x,1/2-y,-z
1/2+x,1/2-y,z
loop_
_atom_site_type_symbol
_atom_site_label
_atom_site_fract_x
_atom_site_fract_y
_atom_site_fract_z
Si Si1 0.523561 0.198184 0.386650
Si Si2 0.229847 0.618688 0.800724
Si Si3 0.019012 0.882943 0.905655
Si Si4 0.855889 0.767739 0.948651
Si Si5 0.105306 0.388251 0.595548
Si Si6 0.635069 0.382263 0.870724
Si Si7 0.821978 0.884244 0.556380
Si Si8 0.362736 0.382570 0.676906
O O1 0.416668 0.166064 0.292202
O O2 0.453524 0.183605 0.397764
O O3 0.666089 0.132182 0.455143
O O4 0.560560 0.316206 0.406616
O O5 0.214415 0.500000 0.800083
O O6 0.353306 0.642371 0.828505
O O7 0.263050 0.670020 0.865232
O O8 0.073633 0.842023 0.886157
O O9 0.042518 0.000000 0.918824
O O10 0.113559 0.839706 0.994203
O O11 0.776917 0.672203 0.928472
O O12 0.000000 0.729515 0.000000
O O13 0.126272 0.500000 0.626995
O O14 0.252685 0.338967 0.655865
O O15 0.000000 0.394824 0.500000
O O16 0.667222 0.500000 0.889930
O O17 0.521070 0.356282 0.773404
O O18 0.826033 0.842463 0.609026
O O19 0.866527 0.000000 0.575138
O O20 0.334038 0.500000 0.661596
#
# Coordination Sequence:
#
# PCOD8079063 Si02
#       8
#     8   8   8   8   8   8   8   8
#     4  11  20  30  50  76  97 130 164 199 244 289
#     4  10  19  32  51  75  98 120 157 205 247 290
#     4   9  18  33  52  73  96 122 155 203 256 294
#     4  10  20  33  49  70  98 131 161 192 243 298
#     4  10  17  28  48  73  98 121 154 205 252 285
#     4  10  19  31  49  72  98 128 164 202 237 285
#     4  10  20  33  47  70 103 135 164 196 237 288
#     4   9  17  30  48  71  98 125 156 201 252 286
#
# _framework density 16.908190999999999
#
# number of rings (size 3 to 8) (size 9 to 14) (size 15 to 20)
#    0.000    2.125    1.250    3.375    0.000    3.750 
#    0.000    0.000    0.000    1.125    0.000    5.250 
#    0.000    0.000    0.000    0.000    0.000    0.000 
#
# Total GULP energy -396700.371359 kJ/mol
# GULP energy per Si atom -12396.886605 kJ/mol
# Density = 1.686971 g / cm^3
# Si number density = 16.908191 Si / 1000 Ang^3
#
#
#
# Elastic Constant Matrix: (Units=GPa)
#
#
# Indices 1 2 3 4 5 6 
#
# 1 95.2164 50.6412 45.7822 0.0000 2.6121 0.0000
# 2 50.6412 66.2813 31.7139 0.0001 -0.3111 0.0000
# 3 45.7822 31.7139 109.8292 0.0004 -5.7801 0.0000
# 4 0.0000 0.0001 0.0004 13.9386 0.0001 5.1039
# 5 2.6121 -0.3111 -5.7801 0.0001 21.9749 0.0000
# 6 0.0000 0.0000 0.0000 5.1039 0.0000 29.2177
#
#
#
# Elastic Compliance Matrix: (Units=1/GPa)
#
#
# Indices 1 2 3 4 5 6 
#
# 1 0.019674 -0.012799 -0.004703 0.000000 -0.003757 0.000000
# 2 -0.012799 0.025858 -0.002061 0.000000 0.001345 0.000000
# 3 -0.004703 -0.002061 0.011853 0.000000 0.003647 0.000000
# 4 0.000000 0.000000 0.000000 0.076646 -0.000001 -0.013389
# 5 -0.003757 0.001345 0.003647 -0.000001 0.046931 0.000000
# 6 0.000000 0.000000 0.000000 -0.013389 0.000000 0.036565
#
#
# Mechanical properties :
#
#
# Convention : Reuss Voigt Hill
#
# Bulk Modulus (GPa) = 54.76619 58.62240 56.69430
# Shear Modulus (GPa) = 19.03035 22.57222 20.80129
#
# Velocity S-wave (km/s) = 3.35850 3.65771 3.51130
# Velocity P-wave (km/s) = 6.89203 7.25153 7.07406
#
# Compressibility (1/GPa) = 0.01825944
#
# Stress axis : x y z
#
# Youngs Moduli (GPa) = 50.82880 38.67230 84.37036
#
# Poissons Ratio (x) = 0.49496 0.39679
# Poissons Ratio (y) = 0.65055 0.17387
# Poissons Ratio (z) = 0.23905 0.07969
#
# Static dielectric constant tensor:
#      x y z
#    x 3.334990 0.000000 -0.076270 
#    y 0.000000 2.948410 0.000000 
#    z -0.076270 0.000000 3.365070 
# 
# 
# High freq. dielectric constant tensor:
#      x y z
#    x 1.652800 0.000000 -0.005040 
#    y 0.000000 1.623160 0.000000 
#    z -0.005040 0.000000 1.665290 
# 
# From -- ./inp_files/296675.got.cif
#   From: 2010.06.25/outbox.cif.g09.slc.cpg/sg12_149_cif.got.tgz:296675.got - 2010.06.28 00:19:55.
