data_PCOD8079645
_publ_section_title
;
Structure prediction by ZEFSAII (Michael W. Deem and Ramdas Pophale) SiO2 
 PCOD8079645
Probable space group: C 2/M
;
_chemical_formula_sum "Si O2"
_cell_formula_units_Z 48
_cell_length_a 20.592039
_cell_length_b 16.707512
_cell_length_c 17.720618
_cell_angle_alpha 90.000000
_cell_angle_beta 26.164305
_cell_angle_gamma 90.000000
_cell_volume 2688.290346
_symmetry_space_group_name_H-M "C 2/M"
_symmetry_group_IT_number 12
_symmetry_cell_setting 'monoclinic'
loop_
_space_group_symop_operation_xyz
x,y,z
-x,y,-z
-x,-y,-z
x,-y,z
1/2+x,1/2+y,z
1/2-x,1/2+y,-z
1/2-x,1/2-y,-z
1/2+x,1/2-y,z
loop_
_atom_site_type_symbol
_atom_site_label
_atom_site_fract_x
_atom_site_fract_y
_atom_site_fract_z
Si Si1 0.414921 0.814638 0.511357
Si Si2 0.287245 0.825505 0.865371
Si Si3 0.932817 0.133938 0.488201
Si Si4 0.387248 0.000000 0.004596
Si Si5 0.293740 0.000000 0.273948
Si Si6 0.220878 0.858180 0.101731
Si Si7 0.830673 0.906490 0.160615
O O1 0.500000 0.826290 0.500000
O O2 0.534276 0.838602 0.322618
O O3 0.367302 0.722950 0.551074
O O4 0.268303 0.869057 0.668008
O O5 0.247100 0.731296 0.901236
O O6 0.206919 0.868795 0.880631
O O7 0.227786 0.862986 0.004294
O O8 0.796886 0.078357 0.610199
O O9 0.000000 0.114853 0.500000
O O10 0.057466 0.116291 0.296259
O O11 0.324399 0.000000 0.153677
O O12 0.338176 0.080488 0.013547
O O13 0.563070 0.000000 0.823364
O O14 0.796756 0.000000 0.193459
O O15 0.000000 0.887686 0.000000
#
# Coordination Sequence:
#
# PCOD8079645 Si02
#       7
#     8   8   8   4   4   8   8
#     4   8  17  33  55  80 102 135 182 219 263 312
#     4   9  20  37  59  81 104 139 181 227 266 315
#     4  10  17  33  55  78 106 146 180 217 258 312
#     4  11  23  34  51  82 111 145 174 219 268 315
#     4  11  22  33  50  81 116 140 180 216 259 317
#     4  10  20  37  57  81 108 140 185 219 264 318
#     4  10  21  36  55  82 109 139 177 221 274 322
#
# _framework density 17.855214
#
# number of rings (size 3 to 8) (size 9 to 14) (size 15 to 20)
#    0.000    2.333    1.667    1.750    1.167    4.333 
#    0.000    1.667    0.000    6.000    0.000    0.000 
#    0.000    0.000    0.000    0.000    0.000    0.000 
#
# Total GULP energy -297565.170972 kJ/mol
# GULP energy per Si atom -12398.548791 kJ/mol
# Density = 1.781457 g / cm^3
# Si number density = 17.855214 Si / 1000 Ang^3
#
#
#
# Elastic Constant Matrix: (Units=GPa)
#
#
# Indices 1 2 3 4 5 6 
#
# 1 72.8441 53.4343 66.9005 -0.0005 3.0219 -0.0002
# 2 53.4343 115.5500 81.8556 -0.0068 -13.8682 -0.0007
# 3 66.9005 81.8556 153.1155 -0.0054 3.5333 -0.0026
# 4 -0.0005 -0.0068 -0.0054 31.9271 0.0038 -4.4062
# 5 3.0219 -13.8682 3.5333 0.0038 31.4914 0.0042
# 6 -0.0002 -0.0007 -0.0026 -4.4062 0.0042 17.6896
#
#
#
# Elastic Compliance Matrix: (Units=1/GPa)
#
#
# Indices 1 2 3 4 5 6 
#
# 1 0.026152 -0.007537 -0.007282 -0.000002 -0.005012 0.000000
# 2 -0.007537 0.017825 -0.006451 0.000001 0.009297 -0.000002
# 3 -0.007282 -0.006451 0.013245 0.000002 -0.003628 0.000003
# 4 -0.000002 0.000001 0.000002 0.032436 -0.000004 0.008079
# 5 -0.005012 0.009297 -0.003628 -0.000004 0.036737 -0.000010
# 6 0.000000 -0.000002 0.000003 0.008079 -0.000010 0.058543
#
#
# Mechanical properties :
#
#
# Convention : Reuss Voigt Hill
#
# Bulk Modulus (GPa) = 68.10392 82.87672 75.49032
# Shear Modulus (GPa) = 21.51732 25.50956 23.51344
#
# Velocity S-wave (km/s) = 3.47522 3.78390 3.63284
# Velocity P-wave (km/s) = 7.37075 8.09983 7.74388
#
# Compressibility (1/GPa) = 0.01468344
#
# Stress axis : x y z
#
# Youngs Moduli (GPa) = 38.23804 56.10094 75.50022
#
# Poissons Ratio (x) = 0.42281 0.54978
# Poissons Ratio (y) = 0.28819 0.48704
# Poissons Ratio (z) = 0.27844 0.36190
#
# Static dielectric constant tensor:
#      x y z
#    x 3.017860 0.000000 0.250530 
#    y 0.000000 3.420460 0.000020 
#    z 0.250530 0.000020 3.743910 
# 
# 
# High freq. dielectric constant tensor:
#      x y z
#    x 1.656020 0.000000 0.015150 
#    y 0.000000 1.702020 0.000000 
#    z 0.015150 0.000000 1.703990 
# 
# From -- ./inp_files/278058.got.cif
#   From: 2010.06.25/outbox.cif.g09.slc.cpg/sg12_140_cif.got.tgz:278058.got - 2010.06.28 00:19:55.
