data_PCOD8079061
_publ_section_title
;
Structure prediction by ZEFSAII (Michael W. Deem and Ramdas Pophale) SiO2 
 PCOD8079061
Probable space group: C 2/M
;
_chemical_formula_sum "Si O2"
_cell_formula_units_Z 56
_cell_length_a 22.107231
_cell_length_b 13.676365
_cell_length_c 12.677145
_cell_angle_alpha 90.000000
_cell_angle_beta 66.144668
_cell_angle_gamma 90.000000
_cell_volume 3505.445479
_symmetry_space_group_name_H-M "C 2/M"
_symmetry_group_IT_number 12
_symmetry_cell_setting 'monoclinic'
loop_
_space_group_symop_operation_xyz
x,y,z
-x,y,-z
-x,-y,-z
x,-y,z
1/2+x,1/2+y,z
1/2-x,1/2+y,-z
1/2-x,1/2-y,-z
1/2+x,1/2-y,z
loop_
_atom_site_type_symbol
_atom_site_label
_atom_site_fract_x
_atom_site_fract_y
_atom_site_fract_z
Si Si1 0.591045 0.112615 0.129309
Si Si2 0.561048 0.886473 0.731673
Si Si3 0.825624 0.889630 0.194549
Si Si4 0.844327 0.303128 0.501657
Si Si5 0.793431 0.110192 0.457117
Si Si6 0.076680 0.274809 0.931415
Si Si7 0.677650 0.115519 0.263369
O O1 0.517095 0.129244 0.222569
O O2 0.641140 0.150528 0.183511
O O3 0.603958 0.000000 0.094375
O O4 0.605490 0.170196 0.012363
O O5 0.591324 0.829343 0.611360
O O6 0.588531 0.843014 0.821709
O O7 0.580469 0.000000 0.714239
O O8 0.826737 0.881016 0.319567
O O9 0.883742 0.825461 0.105629
O O10 0.754471 0.854028 0.201253
O O11 0.839309 0.000000 0.148191
O O12 0.830039 0.186709 0.507773
O O13 0.783951 0.364764 0.495247
O O14 0.857064 0.330799 0.613799
O O15 0.801345 0.000000 0.496381
O O16 0.000000 0.248932 0.000000
O O17 0.670562 0.000000 0.287590
#
# Coordination Sequence:
#
# PCOD8079061 Si02
#       7
#     8   8   8   8   8   8   8
#     4   9  19  33  47  65  96 130 154 186 232 281
#     4  10  18  29  47  72  97 120 150 192 236 277
#     4   9  17  31  49  68  92 121 155 195 233 272
#     4  10  17  28  48  72  96 120 151 191 230 272
#     4   9  17  29  46  70  98 123 150 186 235 281
#     4  10  19  31  47  69  94 120 158 193 233 275
#     4   9  18  32  48  69  95 124 155 187 232 283
#
# _framework density 15.975144999999999
#
# number of rings (size 3 to 8) (size 9 to 14) (size 15 to 20)
#    0.000    2.571    1.429    2.571    0.000    3.143 
#    0.000    2.143    0.000    0.857    0.000    1.000 
#    0.000    0.000    0.000    0.000    0.000    0.000 
#
# Total GULP energy -347231.552917 kJ/mol
# GULP energy per Si atom -12401.126890 kJ/mol
# Density = 1.593878 g / cm^3
# Si number density = 15.975145 Si / 1000 Ang^3
#
#
#
# Elastic Constant Matrix: (Units=GPa)
#
#
# Indices 1 2 3 4 5 6 
#
# 1 63.2769 35.2057 41.4866 0.0000 15.4164 0.0000
# 2 35.2057 89.3688 39.6961 0.0000 1.6346 0.0000
# 3 41.4866 39.6961 74.7628 0.0000 5.6243 0.0000
# 4 0.0000 0.0000 0.0000 26.5081 0.0000 -3.5668
# 5 15.4164 1.6346 5.6243 0.0000 24.4612 0.0000
# 6 0.0000 0.0000 0.0000 -3.5668 0.0000 22.0181
#
#
#
# Elastic Compliance Matrix: (Units=1/GPa)
#
#
# Indices 1 2 3 4 5 6 
#
# 1 0.032106 -0.006528 -0.013087 0.000000 -0.016789 0.000000
# 2 -0.006528 0.015987 -0.005185 0.000000 0.004238 0.000000
# 3 -0.013087 -0.005185 0.023144 0.000000 0.003273 0.000000
# 4 0.000000 0.000000 0.000000 0.038565 0.000000 0.006247
# 5 -0.016789 0.004238 0.003273 0.000000 0.050426 0.000000
# 6 0.000000 0.000000 0.000000 0.006247 0.000000 0.046429
#
#
# Mechanical properties :
#
#
# Convention : Reuss Voigt Hill
#
# Bulk Modulus (GPa) = 46.21462 51.13171 48.67316
# Shear Modulus (GPa) = 18.97754 21.99883 20.48819
#
# Velocity S-wave (km/s) = 3.45039 3.71491 3.58509
# Velocity P-wave (km/s) = 6.69817 7.10474 6.90445
#
# Compressibility (1/GPa) = 0.02163818
#
# Stress axis : x y z
#
# Youngs Moduli (GPa) = 31.14673 62.55252 43.20695
#
# Poissons Ratio (x) = 0.40832 0.56545
# Poissons Ratio (y) = 0.20332 0.22402
# Poissons Ratio (z) = 0.40762 0.32432
#
# Static dielectric constant tensor:
#      x y z
#    x 2.944200 0.000000 0.018560 
#    y 0.000000 3.024470 0.000000 
#    z 0.018560 0.000000 2.971050 
# 
# 
# High freq. dielectric constant tensor:
#      x y z
#    x 1.598850 0.000000 -0.005760 
#    y 0.000000 1.608960 0.000000 
#    z -0.005760 0.000000 1.610230 
# 
# From -- ./inp_files/96304.got.cif
#   From: 2010.06.25/outbox.cif.g09.slc.cpg/sg12_49_cif.got.tgz:96304.got - 2010.06.28 00:19:55.
