data_PCOD8079889
_publ_section_title
;
Structure prediction by ZEFSAII (Michael W. Deem and Ramdas Pophale) SiO2 
 PCOD8079889
Probable space group: C 2/M
;
_chemical_formula_sum "Si O2"
_cell_formula_units_Z 64
_cell_length_a 32.160508
_cell_length_b 8.952681
_cell_length_c 30.430159
_cell_angle_alpha 90.000000
_cell_angle_beta 150.170044
_cell_angle_gamma 90.000000
_cell_volume 4358.229536
_symmetry_space_group_name_H-M "C 2/M"
_symmetry_group_IT_number 12
_symmetry_cell_setting 'monoclinic'
loop_
_space_group_symop_operation_xyz
x,y,z
-x,y,-z
-x,-y,-z
x,-y,z
1/2+x,1/2+y,z
1/2-x,1/2+y,-z
1/2-x,1/2-y,-z
1/2+x,1/2-y,z
loop_
_atom_site_type_symbol
_atom_site_label
_atom_site_fract_x
_atom_site_fract_y
_atom_site_fract_z
Si Si1 0.342151 0.177375 0.176877
Si Si2 0.554757 0.825155 0.812366
Si Si3 0.797409 0.824680 0.481529
Si Si4 0.079034 0.174684 0.666680
Si Si5 0.372334 0.823498 0.632326
Si Si6 0.208876 0.324025 0.004320
Si Si7 0.113252 0.173582 0.524063
Si Si8 0.598400 0.167903 0.597144
O O1 0.400976 0.238045 0.191191
O O2 0.378192 0.235130 0.255299
O O3 0.248628 0.246117 0.083827
O O4 0.335004 0.000000 0.171444
O O5 0.460913 0.760037 0.731674
O O6 0.548032 0.000000 0.798706
O O7 0.609148 0.791740 0.906421
O O8 0.701355 0.774876 0.401785
O O9 0.858083 0.743304 0.571163
O O10 0.823402 0.777655 0.456341
O O11 0.809821 0.000000 0.499990
O O12 0.120898 0.231086 0.659781
O O13 0.980684 0.211706 0.577248
O O14 0.096735 0.000000 0.688342
O O15 0.373851 0.000000 0.628620
O O16 0.227077 0.500000 0.022082
O O17 0.250000 0.250000 0.000000
O O18 0.141072 0.264148 0.592748
O O19 0.120599 0.000000 0.542406
O O20 0.500000 0.169845 0.500000
O O21 0.631640 0.000000 0.635011
#
# Coordination Sequence:
#
# PCOD8079889 Si02
#       8
#     8   8   8   8   8   8   8   8
#     4  10  18  27  39  57  80 104 133 165 195 231
#     4   8  15  26  40  56  75 103 135 164 193 227
#     4   9  17  27  39  57  80 104 132 166 197 225
#     4  10  18  27  40  57  79 106 132 160 195 232
#     4   9  16  27  41  56  77 105 135 165 196 226
#     4   9  16  27  40  55  76 101 131 164 198 234
#     4   9  17  28  40  56  79 106 134 162 195 232
#     4   9  17  28  41  57  76 100 131 164 195 229
#
# _framework density 14.684863
#
# number of rings (size 3 to 8) (size 9 to 14) (size 15 to 20)
#    0.000    2.875    0.000    3.000    0.000    2.500 
#    0.000    3.125    0.000    0.000    0.000    0.000 
#    0.000    1.000    0.000   11.750    0.000    2.250 
#
# Total GULP energy -396595.439998 kJ/mol
# GULP energy per Si atom -12393.607500 kJ/mol
# Density = 1.465144 g / cm^3
# Si number density = 14.684863 Si / 1000 Ang^3
#
#
#
# Elastic Constant Matrix: (Units=GPa)
#
#
# Indices 1 2 3 4 5 6 
#
# 1 85.6324 28.2367 42.3232 0.0000 -4.7317 0.0000
# 2 28.2367 57.7943 34.1228 -0.0001 -4.7881 0.0001
# 3 42.3232 34.1228 96.7338 0.0000 0.1193 0.0000
# 4 0.0000 -0.0001 0.0000 21.2265 0.0000 -7.6167
# 5 -4.7317 -4.7881 0.1193 0.0000 16.8355 0.0000
# 6 0.0000 0.0001 0.0000 -7.6167 0.0000 20.6729
#
#
#
# Elastic Compliance Matrix: (Units=1/GPa)
#
#
# Indices 1 2 3 4 5 6 
#
# 1 0.015988 -0.004300 -0.005482 0.000000 0.003309 0.000000
# 2 -0.004300 0.023694 -0.006483 0.000000 0.005576 0.000000
# 3 -0.005482 -0.006483 0.015028 0.000000 -0.003491 0.000000
# 4 0.000000 0.000000 0.000000 0.054288 0.000000 0.020002
# 5 0.003309 0.005576 -0.003491 0.000000 0.061939 0.000000
# 6 0.000000 0.000000 0.000000 0.020002 0.000000 0.055742
#
#
# Mechanical properties :
#
#
# Convention : Reuss Voigt Hill
#
# Bulk Modulus (GPa) = 45.09087 49.94733 47.51910
# Shear Modulus (GPa) = 18.75445 20.77884 19.76664
#
# Velocity S-wave (km/s) = 3.57757 3.76571 3.67284
# Velocity P-wave (km/s) = 6.91648 7.27970 7.10041
#
# Compressibility (1/GPa) = 0.02217744
#
# Stress axis : x y z
#
# Youngs Moduli (GPa) = 62.54565 42.20557 66.54431
#
# Poissons Ratio (x) = 0.18150 0.36482
# Poissons Ratio (y) = 0.26897 0.43142
# Poissons Ratio (z) = 0.34290 0.27363
#
# Static dielectric constant tensor:
#      x y z
#    x 2.805360 0.000000 0.052240 
#    y 0.000000 2.901870 0.000000 
#    z 0.052240 0.000000 3.142340 
# 
# 
# High freq. dielectric constant tensor:
#      x y z
#    x 1.534110 0.000000 -0.010270 
#    y 0.000000 1.564990 0.000000 
#    z -0.010270 0.000000 1.546250 
# 
# From -- ./inp_files/384606.got.cif
#   From: 2010.06.25/outbox.cif.g09.slc.cpg/sg12_193_cif.got.tgz:384606.got - 2010.06.28 00:19:55.
