data_PCOD8079409
_publ_section_title
;
Structure prediction by ZEFSAII (Michael W. Deem and Ramdas Pophale) SiO2 
 PCOD8079409
Probable space group: C 2/M
;
_chemical_formula_sum "Si O2"
_cell_formula_units_Z 56
_cell_length_a 21.475418
_cell_length_b 15.431588
_cell_length_c 9.190740
_cell_angle_alpha 90.000000
_cell_angle_beta 72.665846
_cell_angle_gamma 90.000000
_cell_volume 2907.479007
_symmetry_space_group_name_H-M "C 2/M"
_symmetry_group_IT_number 12
_symmetry_cell_setting 'monoclinic'
loop_
_space_group_symop_operation_xyz
x,y,z
-x,y,-z
-x,-y,-z
x,-y,z
1/2+x,1/2+y,z
1/2-x,1/2+y,-z
1/2-x,1/2-y,-z
1/2+x,1/2-y,z
loop_
_atom_site_type_symbol
_atom_site_label
_atom_site_fract_x
_atom_site_fract_y
_atom_site_fract_z
Si Si1 0.292157 0.771718 0.670215
Si Si2 0.574217 0.172001 0.975113
Si Si3 0.847733 0.751265 0.330005
Si Si4 0.564558 0.594186 0.760922
Si Si5 0.424634 0.363230 0.917226
Si Si6 0.822512 0.597859 0.899478
Si Si7 0.800736 0.097570 0.818843
O O1 0.214208 0.785650 0.719644
O O2 0.323862 0.796309 0.492831
O O3 0.324704 0.834801 0.765088
O O4 0.306772 0.670053 0.689947
O O5 0.610172 0.183764 0.794593
O O6 0.500000 0.140889 0.000000
O O7 0.576305 0.260433 0.063935
O O8 0.612097 0.102832 0.048130
O O9 0.891117 0.833684 0.345974
O O10 0.583623 0.500000 0.684099
O O11 0.488768 0.612672 0.780460
O O12 0.575332 0.592742 0.926072
O O13 0.363582 0.400226 0.875581
O O14 0.816585 0.500000 0.842938
O O15 0.761490 0.622952 0.041532
O O16 0.793122 0.000000 0.758640
#
# Coordination Sequence:
#
# PCOD8079409 Si02
#       7
#     8   8   8   8   8   8   8
#     4  11  22  39  60  85 125 153 195 244 292 360
#     4  11  19  38  64  86 112 151 202 247 292 349
#     4  10  22  37  58  88 116 163 191 235 301 343
#     4  10  18  31  52  85 121 150 192 230 278 351
#     4  10  17  30  55  87 114 152 188 235 282 337
#     4  11  23  39  62  88 112 152 206 255 298 344
#     4  11  21  34  58  88 117 151 195 241 288 348
#
# _framework density 19.260672
#
# number of rings (size 3 to 8) (size 9 to 14) (size 15 to 20)
#    0.000    1.429    5.714    3.857    0.000    2.571 
#    0.000    5.714    0.000    2.571    0.000    0.000 
#    0.000    0.000    0.000    0.000    0.000    0.000 
#
# Total GULP energy -347197.998837 kJ/mol
# GULP energy per Si atom -12399.928530 kJ/mol
# Density = 1.921683 g / cm^3
# Si number density = 19.260672 Si / 1000 Ang^3
#
#
#
# Elastic Constant Matrix: (Units=GPa)
#
#
# Indices 1 2 3 4 5 6 
#
# 1 138.0910 18.2998 40.4324 0.0000 -8.8235 0.0000
# 2 18.2998 80.0617 22.7890 0.0000 5.3218 0.0000
# 3 40.4324 22.7890 72.7388 0.0000 -4.4165 0.0000
# 4 0.0000 0.0000 0.0000 6.5041 0.0000 -0.2127
# 5 -8.8235 5.3218 -4.4165 0.0000 21.4505 0.0000
# 6 0.0000 0.0000 0.0000 -0.2127 0.0000 19.0311
#
#
#
# Elastic Compliance Matrix: (Units=1/GPa)
#
#
# Indices 1 2 3 4 5 6 
#
# 1 0.008859 -0.000957 -0.004445 0.000000 0.002967 0.000000
# 2 -0.000957 0.014228 -0.004217 0.000000 -0.004792 0.000000
# 3 -0.004445 -0.004217 0.017713 0.000000 0.002865 0.000000
# 4 0.000000 0.000000 0.000000 0.153806 0.000000 0.001719
# 5 0.002967 -0.004792 0.002865 0.000000 0.049618 0.000000
# 6 0.000000 0.000000 0.000000 0.001719 0.000000 0.052565
#
#
# Mechanical properties :
#
#
# Convention : Reuss Voigt Hill
#
# Bulk Modulus (GPa) = 46.37308 50.43709 48.40509
# Shear Modulus (GPa) = 15.46964 23.35515 19.41240
#
# Velocity S-wave (km/s) = 2.83710 3.48599 3.17815
# Velocity P-wave (km/s) = 5.90432 6.51508 6.21721
#
# Compressibility (1/GPa) = 0.02156423
#
# Stress axis : x y z
#
# Youngs Moduli (GPa) = 112.87531 70.28472 56.45454
#
# Poissons Ratio (x) = 0.06727 0.25092
# Poissons Ratio (y) = 0.10803 0.23804
# Poissons Ratio (z) = 0.50168 0.29636
#
# Static dielectric constant tensor:
#      x y z
#    x 3.725960 0.000000 -0.102900 
#    y 0.000000 3.466430 0.000000 
#    z -0.102900 0.000000 3.174150 
# 
# 
# High freq. dielectric constant tensor:
#      x y z
#    x 1.762740 0.000000 -0.007190 
#    y 0.000000 1.740850 0.000000 
#    z -0.007190 0.000000 1.718870 
# 
# From -- ./inp_files/96233.got.cif
#   From: 2010.06.25/outbox.cif.g09.slc.cpg/sg12_49_cif.got.tgz:96233.got - 2010.06.28 00:19:55.
