data_PCOD8079521
_publ_section_title
;
Structure prediction by ZEFSAII (Michael W. Deem and Ramdas Pophale) SiO2 
 PCOD8079521
Probable space group: C 2/M
;
_chemical_formula_sum "Si O2"
_cell_formula_units_Z 56
_cell_length_a 17.820086
_cell_length_b 12.634838
_cell_length_c 19.136571
_cell_angle_alpha 90.000000
_cell_angle_beta 52.679351
_cell_angle_gamma 90.000000
_cell_volume 3426.494366
_symmetry_space_group_name_H-M "C 2/M"
_symmetry_group_IT_number 12
_symmetry_cell_setting 'monoclinic'
loop_
_space_group_symop_operation_xyz
x,y,z
-x,y,-z
-x,-y,-z
x,-y,z
1/2+x,1/2+y,z
1/2-x,1/2+y,-z
1/2-x,1/2-y,-z
1/2+x,1/2-y,z
loop_
_atom_site_type_symbol
_atom_site_label
_atom_site_fract_x
_atom_site_fract_y
_atom_site_fract_z
Si Si1 0.715677 0.378562 0.217860
Si Si2 0.720472 0.687507 0.371561
Si Si3 0.426005 0.124805 0.096421
Si Si4 0.947784 0.267439 0.702612
Si Si5 0.948225 0.119083 0.458152
Si Si6 0.099007 0.379811 0.406358
Si Si7 0.071309 0.625614 0.746926
O O1 0.702981 0.500000 0.201372
O O2 0.698784 0.371352 0.310697
O O3 0.820051 0.334280 0.140592
O O4 0.639664 0.304940 0.221650
O O5 0.663770 0.626446 0.464591
O O6 0.682878 0.808217 0.390777
O O7 0.830390 0.682172 0.328354
O O8 0.456521 0.153709 0.157843
O O9 0.424512 0.000000 0.087872
O O10 0.500000 0.176639 0.000000
O O11 0.911953 0.357158 0.669746
O O12 0.024477 0.193021 0.621760
O O13 0.990102 0.325951 0.745303
O O14 0.000000 0.158192 0.500000
O O15 0.978112 0.000000 0.422003
O O16 0.131374 0.500000 0.399094
O O17 0.000000 0.356999 0.500000
O O18 0.081190 0.500000 0.730097
#
# Coordination Sequence:
#
# PCOD8079521 Si02
#       7
#     8   8   8   8   8   8   8
#     4   9  16  28  50  73  94 122 158 200 236 270
#     4  10  17  32  47  67  88 126 171 205 228 270
#     4   8  15  31  54  75  92 116 152 192 237 288
#     4  11  19  30  43  69  99 129 158 193 236 286
#     4  11  18  28  47  69  92 126 168 205 230 263
#     4  10  18  31  46  62  88 127 168 199 228 272
#     4  10  21  33  48  69  98 125 151 198 249 283
#
# _framework density 16.343233999999999
#
# number of rings (size 3 to 8) (size 9 to 14) (size 15 to 20)
#    0.000    2.143    4.286    3.000    0.000    0.571 
#    0.000    2.143    0.000    0.000    0.000    0.000 
#    0.000   64.000    0.000    0.000    0.000    0.000 
#
# Total GULP energy -347135.617595 kJ/mol
# GULP energy per Si atom -12397.700628 kJ/mol
# Density = 1.630604 g / cm^3
# Si number density = 16.343234 Si / 1000 Ang^3
#
#
#
# Elastic Constant Matrix: (Units=GPa)
#
#
# Indices 1 2 3 4 5 6 
#
# 1 90.0095 39.3569 39.7235 0.0000 -8.5064 0.0000
# 2 39.3569 90.1475 31.3526 0.0000 -5.9114 0.0000
# 3 39.7235 31.3526 104.1855 0.0000 -14.9399 0.0000
# 4 0.0000 0.0000 0.0000 11.4074 0.0000 -1.2223
# 5 -8.5064 -5.9114 -14.9399 0.0000 18.1656 0.0000
# 6 0.0000 0.0000 0.0000 -1.2223 0.0000 27.1838
#
#
#
# Elastic Compliance Matrix: (Units=1/GPa)
#
#
# Indices 1 2 3 4 5 6 
#
# 1 0.015332 -0.005166 -0.003971 0.000000 0.002233 0.000000
# 2 -0.005166 0.014150 -0.002239 0.000000 0.000344 0.000000
# 3 -0.003971 -0.002239 0.012941 0.000000 0.008055 0.000000
# 4 0.000000 0.000000 0.000000 0.088087 0.000000 0.003961
# 5 0.002233 0.000344 0.008055 0.000000 0.062831 0.000000
# 6 0.000000 0.000000 0.000000 0.003961 0.000000 0.036965
#
#
# Mechanical properties :
#
#
# Convention : Reuss Voigt Hill
#
# Bulk Modulus (GPa) = 50.83721 56.13429 53.48575
# Shear Modulus (GPa) = 19.25920 22.94531 21.10226
#
# Velocity S-wave (km/s) = 3.43654 3.75102 3.59721
# Velocity P-wave (km/s) = 6.84981 7.29259 7.07466
#
# Compressibility (1/GPa) = 0.01967063
#
# Stress axis : x y z
#
# Youngs Moduli (GPa) = 65.22101 70.67273 77.27264
#
# Poissons Ratio (x) = 0.36512 0.30685
# Poissons Ratio (y) = 0.33696 0.17301
# Poissons Ratio (z) = 0.25900 0.15823
#
# Static dielectric constant tensor:
#      x y z
#    x 2.898430 0.000000 -0.235290 
#    y 0.000000 3.006240 0.000000 
#    z -0.235290 0.000000 3.247830 
# 
# 
# High freq. dielectric constant tensor:
#      x y z
#    x 1.604310 0.000000 -0.017870 
#    y 0.000000 1.620100 0.000000 
#    z -0.017870 0.000000 1.613090 
# 
# From -- ./inp_files/315278.got.cif
#   From: 2010.06.25/outbox.cif.g09.slc.cpg/sg12_158_cif.got.tgz:315278.got - 2010.06.28 00:19:55.
