data_PCOD8079070
_publ_section_title
;
Structure prediction by ZEFSAII (Michael W. Deem and Ramdas Pophale) SiO2 
 PCOD8079070
Probable space group: C 2/M
;
_chemical_formula_sum "Si O2"
_cell_formula_units_Z 32
_cell_length_a 16.917352
_cell_length_b 10.630775
_cell_length_c 8.569339
_cell_angle_alpha 90.000000
_cell_angle_beta 105.375483
_cell_angle_gamma 90.000000
_cell_volume 1485.989680
_symmetry_space_group_name_H-M "C 2/M"
_symmetry_group_IT_number 12
_symmetry_cell_setting 'monoclinic'
loop_
_space_group_symop_operation_xyz
x,y,z
-x,y,-z
-x,-y,-z
x,-y,z
1/2+x,1/2+y,z
1/2-x,1/2+y,-z
1/2-x,1/2-y,-z
1/2+x,1/2-y,z
loop_
_atom_site_type_symbol
_atom_site_label
_atom_site_fract_x
_atom_site_fract_y
_atom_site_fract_z
Si Si1 0.983212 0.500000 0.174225
Si Si2 0.997169 0.000000 0.682741
Si Si3 0.816076 0.000000 0.184413
Si Si4 0.703274 0.000000 0.822914
Si Si5 0.239992 0.254627 0.180302
Si Si6 0.554388 0.253812 0.180872
O O1 0.887341 0.500000 0.156558
O O2 0.023301 0.629503 0.260261
O O3 0.000000 0.500000 0.000000
O O4 0.087925 0.000000 0.802492
O O5 0.000000 0.000000 0.500000
O O6 0.949288 0.124248 0.712070
O O7 0.790772 0.124548 0.269666
O O8 0.769465 0.000000 0.995994
O O9 0.720184 0.125876 0.729310
O O10 0.146635 0.271069 0.178037
O O11 0.250000 0.250000 0.000000
O O12 0.500000 0.278370 0.000000
#
# Coordination Sequence:
#
# PCOD8079070 Si02
#       6
#     4   4   4   4   8   8
#     4  10  18  31  56  91 116 136 176 236 294 347
#     4  12  26  41  55  80 118 162 204 238 275 336
#     4  10  18  34  53  73 109 149 180 229 281 327
#     4  10  17  28  48  82 112 135 169 223 282 336
#     4  10  18  30  53  85 112 138 176 227 285 342
#     4  11  20  36  61  89 115 147 186 238 295 347
#
# _framework density 21.534469999999999
#
# number of rings (size 3 to 8) (size 9 to 14) (size 15 to 20)
#    0.000    1.500    0.000   12.375    0.000    0.000 
#    0.000    1.875    0.000    0.000    0.000    0.000 
#    0.000    0.000    0.000    0.000    0.000    0.000 
#
# Total GULP energy -198320.616954 kJ/mol
# GULP energy per Si atom -12395.038560 kJ/mol
# Density = 2.148546 g / cm^3
# Si number density = 21.534470 Si / 1000 Ang^3
#
#
#
# Elastic Constant Matrix: (Units=GPa)
#
#
# Indices 1 2 3 4 5 6 
#
# 1 138.1578 23.1012 0.5204 0.0000 -4.9712 0.0000
# 2 23.1012 215.9689 14.3233 0.0000 -0.5790 0.0000
# 3 0.5204 14.3233 30.1110 0.0000 -7.8542 0.0000
# 4 0.0000 0.0000 0.0000 5.5388 0.0000 -9.6621
# 5 -4.9712 -0.5790 -7.8542 0.0000 6.3520 0.0000
# 6 0.0000 0.0000 0.0000 -9.6621 0.0000 45.2246
#
#
#
# Elastic Compliance Matrix: (Units=1/GPa)
#
#
# Indices 1 2 3 4 5 6 
#
# 1 0.007731 -0.000987 0.002791 0.000000 0.009411 0.000000
# 2 -0.000987 0.004961 -0.003581 0.000000 -0.004748 0.000000
# 3 0.002791 -0.003581 0.052180 0.000000 0.066378 0.000000
# 4 0.000000 0.000000 0.000000 0.287811 0.000000 0.061490
# 5 0.009411 -0.004748 0.066378 0.000000 0.246440 0.000000
# 6 0.000000 0.000000 0.000000 0.061490 0.000000 0.035249
#
#
# Mechanical properties :
#
#
# Convention : Reuss Voigt Hill
#
# Bulk Modulus (GPa) = 16.30865 51.12529 33.71697
# Shear Modulus (GPa) = 7.59456 34.50926 21.05191
#
# Velocity S-wave (km/s) = 1.87999 4.00748 3.13004
# Velocity P-wave (km/s) = 3.50745 6.72353 5.36228
#
# Compressibility (1/GPa) = 0.06131717
#
# Stress axis : x y z
#
# Youngs Moduli (GPa) = 129.34540 201.58729 19.16446
#
# Poissons Ratio (x) = 0.19893 -0.05348
# Poissons Ratio (y) = 0.12764 0.06863
# Poissons Ratio (z) = -0.36096 0.72192
#
# Static dielectric constant tensor:
#      x y z
#    x 3.985740 0.000000 0.006790 
#    y 0.000000 9.047290 0.000000 
#    z 0.006790 0.000000 3.189290 
# 
# 
# High freq. dielectric constant tensor:
#      x y z
#    x 1.863720 0.000000 -0.014340 
#    y 0.000000 1.893920 0.000000 
#    z -0.014340 0.000000 1.752320 
# 
# From -- ./inp_files/56952.got.cif
#   From: 2010.06.25/outbox.cif.g09.slc.cpg/sg12_29_cif.got.tgz:56952.got - 2010.06.28 00:19:55.
