data_PCOD8079259
_publ_section_title
;
Structure prediction by ZEFSAII (Michael W. Deem and Ramdas Pophale) SiO2 
 PCOD8079259
Probable space group: C 2/M
;
_chemical_formula_sum "Si O2"
_cell_formula_units_Z 64
_cell_length_a 19.587333
_cell_length_b 18.871074
_cell_length_c 8.877818
_cell_angle_alpha 90.000000
_cell_angle_beta 79.599143
_cell_angle_gamma 90.000000
_cell_volume 3227.623678
_symmetry_space_group_name_H-M "C 2/M"
_symmetry_group_IT_number 12
_symmetry_cell_setting 'monoclinic'
loop_
_space_group_symop_operation_xyz
x,y,z
-x,y,-z
-x,-y,-z
x,-y,z
1/2+x,1/2+y,z
1/2-x,1/2+y,-z
1/2-x,1/2-y,-z
1/2+x,1/2-y,z
loop_
_atom_site_type_symbol
_atom_site_label
_atom_site_fract_x
_atom_site_fract_y
_atom_site_fract_z
Si Si1 0.309488 0.920634 0.558840
Si Si2 0.460548 0.176891 0.174181
Si Si3 0.730872 0.682598 0.366279
Si Si4 0.701065 0.422124 0.140213
Si Si5 0.636363 0.923204 0.946174
Si Si6 0.850050 0.220428 0.323505
Si Si7 0.180934 0.079089 0.808394
Si Si8 0.430302 0.917296 0.719448
O O1 0.280362 0.869170 0.443489
O O2 0.261142 0.919530 0.726727
O O3 0.387046 0.899263 0.584432
O O4 0.310815 0.000000 0.489483
O O5 0.395360 0.127604 0.165487
O O6 0.425822 0.245994 0.263872
O O7 0.505600 0.136629 0.283699
O O8 0.500000 0.194087 0.000000
O O9 0.683150 0.639773 0.265801
O O10 0.784306 0.739271 0.267380
O O11 0.673149 0.722093 0.491457
O O12 0.672515 0.500000 0.201263
O O13 0.782878 0.424789 0.105570
O O14 0.672334 0.402627 0.987767
O O15 0.602826 0.000000 0.929661
O O16 0.619666 0.900108 0.121640
O O17 0.860006 0.139450 0.265881
O O18 0.150256 0.000000 0.787617
O O19 0.454395 0.000000 0.706127
#
# Coordination Sequence:
#
# PCOD8079259 Si02
#       8
#     8   8   8   8   8   8   8   8
#     4   9  16  30  50  76 109 146 180 209 253 305
#     4  10  19  32  50  74 106 140 187 223 251 297
#     4  10  20  33  49  74 111 145 173 211 261 322
#     4  10  17  29  52  82 107 132 167 211 264 316
#     4   9  15  26  46  74 106 135 170 211 248 291
#     4  10  21  36  50  73 105 142 178 216 267 315
#     4   9  18  33  56  79 102 129 171 229 273 317
#     4   9  16  28  49  76 107 148 183 209 243 290
#
# _framework density 19.828828999999999
#
# number of rings (size 3 to 8) (size 9 to 14) (size 15 to 20)
#    0.000    2.500    2.500    0.750    0.000    2.500 
#    0.000    1.875    0.000    1.875    0.000    0.000 
#    0.000    4.000    0.000    0.000    0.000    0.000 
#
# Total GULP energy -396431.714392 kJ/mol
# GULP energy per Si atom -12388.491075 kJ/mol
# Density = 1.978370 g / cm^3
# Si number density = 19.828829 Si / 1000 Ang^3
#
#
#
# Elastic Constant Matrix: (Units=GPa)
#
#
# Indices 1 2 3 4 5 6 
#
# 1 50.7277 27.5382 12.0975 0.0000 -3.7483 0.0000
# 2 27.5382 95.3411 24.7422 0.0000 -0.5867 0.0000
# 3 12.0975 24.7422 45.1494 0.0000 -2.3426 0.0000
# 4 0.0000 0.0000 0.0000 26.5910 0.0000 -6.0163
# 5 -3.7483 -0.5867 -2.3426 0.0000 19.0430 0.0000
# 6 0.0000 0.0000 0.0000 -6.0163 0.0000 26.5048
#
#
#
# Elastic Compliance Matrix: (Units=1/GPa)
#
#
# Indices 1 2 3 4 5 6 
#
# 1 0.024058 -0.006187 -0.002838 0.000000 0.004196 0.000000
# 2 -0.006187 0.013822 -0.005996 0.000000 -0.001530 0.000000
# 3 -0.002838 -0.005996 0.026325 0.000000 0.002495 0.000000
# 4 0.000000 0.000000 0.000000 0.039643 0.000000 0.008998
# 5 0.004196 -0.001530 0.002495 0.000000 0.053598 0.000000
# 6 0.000000 0.000000 0.000000 0.008998 0.000000 0.039772
#
#
# Mechanical properties :
#
#
# Convention : Reuss Voigt Hill
#
# Bulk Modulus (GPa) = 29.27161 35.55267 32.41214
# Shear Modulus (GPa) = 20.95133 22.88378 21.91755
#
# Velocity S-wave (km/s) = 3.25408 3.40084 3.32827
# Velocity P-wave (km/s) = 5.37707 5.77838 5.58133
#
# Compressibility (1/GPa) = 0.03416279
#
# Stress axis : x y z
#
# Youngs Moduli (GPa) = 41.56543 72.34680 37.98709
#
# Poissons Ratio (x) = 0.44758 0.10782
# Poissons Ratio (y) = 0.25715 0.22779
# Poissons Ratio (z) = 0.11798 0.43382
#
# Static dielectric constant tensor:
#      x y z
#    x 3.191420 0.000000 -0.071610 
#    y 0.000000 4.299230 0.000000 
#    z -0.071610 0.000000 3.692900 
# 
# 
# High freq. dielectric constant tensor:
#      x y z
#    x 1.716630 0.000000 -0.007310 
#    y 0.000000 1.775180 0.000000 
#    z -0.007310 0.000000 1.768560 
# 
# From -- ./inp_files/89172.got.cif
#   From: 2010.06.25/outbox.cif.g09.slc.cpg/sg12_45_cif.got.tgz:89172.got - 2010.06.28 00:19:55.
