data_PCOD8079217
_publ_section_title
;
Structure prediction by ZEFSAII (Michael W. Deem and Ramdas Pophale) SiO2 
 PCOD8079217
Probable space group: C 2/M
;
_chemical_formula_sum "Si O2"
_cell_formula_units_Z 56
_cell_length_a 24.174373
_cell_length_b 16.135881
_cell_length_c 12.356436
_cell_angle_alpha 90.000000
_cell_angle_beta 41.442276
_cell_angle_gamma 90.000000
_cell_volume 3190.146630
_symmetry_space_group_name_H-M "C 2/M"
_symmetry_group_IT_number 12
_symmetry_cell_setting 'monoclinic'
loop_
_space_group_symop_operation_xyz
x,y,z
-x,y,-z
-x,-y,-z
x,-y,z
1/2+x,1/2+y,z
1/2-x,1/2+y,-z
1/2-x,1/2-y,-z
1/2+x,1/2-y,z
loop_
_atom_site_type_symbol
_atom_site_label
_atom_site_fract_x
_atom_site_fract_y
_atom_site_fract_z
Si Si1 0.739314 0.335148 0.575801
Si Si2 0.059775 0.709658 0.198412
Si Si3 0.696751 0.407526 0.425106
Si Si4 0.145592 0.691813 0.289833
Si Si5 0.097954 0.596008 0.556429
Si Si6 0.199833 0.259723 0.832721
Si Si7 0.041045 0.159823 0.543306
O O1 0.750000 0.250000 0.500000
O O2 0.691172 0.396036 0.563826
O O3 0.829212 0.373601 0.470830
O O4 0.688095 0.313254 0.760362
O O5 0.121284 0.674347 0.201817
O O6 0.984994 0.645773 0.289113
O O7 0.028234 0.802560 0.273500
O O8 0.110809 0.716038 0.012082
O O9 0.729073 0.500000 0.351831
O O10 0.759040 0.341930 0.279279
O O11 0.602972 0.400027 0.516407
O O12 0.126686 0.610356 0.389824
O O13 0.241496 0.721843 0.158468
O O14 0.087576 0.761156 0.426878
O O15 0.079725 0.500000 0.601375
O O16 0.000000 0.112071 0.500000
#
# Coordination Sequence:
#
# PCOD8079217 Si02
#       7
#     8   8   8   8   8   8   8
#     4   9  18  35  52  65  87 127 174 202 229 288
#     4  10  17  29  50  73 100 128 158 202 243 278
#     4  10  19  33  52  70  92 124 159 196 243 297
#     4   8  16  30  48  69  96 136 172 190 220 283
#     4  10  19  30  47  74 104 131 160 197 244 296
#     4   9  18  31  50  74  95 122 164 206 238 275
#     4   8  16  31  50  72  95 125 165 197 229 283
#
# _framework density 17.554051999999999
#
# number of rings (size 3 to 8) (size 9 to 14) (size 15 to 20)
#    0.000    2.857    0.000    4.714    0.000    2.000 
#    0.000    6.429    0.000    9.429    0.000    0.000 
#    0.000    0.000    0.000    0.000    0.000    0.000 
#
# Total GULP energy -347006.722766 kJ/mol
# GULP energy per Si atom -12393.097242 kJ/mol
# Density = 1.751410 g / cm^3
# Si number density = 17.554052 Si / 1000 Ang^3
#
#
#
# Elastic Constant Matrix: (Units=GPa)
#
#
# Indices 1 2 3 4 5 6 
#
# 1 122.7311 40.1088 43.5407 0.0000 7.5599 0.0000
# 2 40.1088 75.7084 38.6834 0.0000 -2.7392 0.0000
# 3 43.5407 38.6834 101.2141 0.0000 -0.4830 0.0000
# 4 0.0000 0.0000 0.0000 14.3712 0.0000 -0.4379
# 5 7.5599 -2.7392 -0.4830 0.0000 16.1244 0.0000
# 6 0.0000 0.0000 0.0000 -0.4379 0.0000 13.1634
#
#
#
# Elastic Compliance Matrix: (Units=1/GPa)
#
#
# Indices 1 2 3 4 5 6 
#
# 1 0.011089 -0.004526 -0.003070 0.000000 -0.006060 0.000000
# 2 -0.004526 0.018371 -0.005050 0.000000 0.005091 0.000000
# 3 -0.003070 -0.005050 0.013135 0.000000 0.000975 0.000000
# 4 0.000000 0.000000 0.000000 0.069654 0.000000 0.002317
# 5 -0.006060 0.005091 0.000975 0.000000 0.065753 0.000000
# 6 0.000000 0.000000 0.000000 0.002317 0.000000 0.076046
#
#
# Mechanical properties :
#
#
# Convention : Reuss Voigt Hill
#
# Bulk Modulus (GPa) = 57.78814 60.47992 59.13403
# Shear Modulus (GPa) = 17.53730 20.55318 19.04524
#
# Velocity S-wave (km/s) = 3.16420 3.42548 3.29743
# Velocity P-wave (km/s) = 6.80743 7.08333 6.94675
#
# Compressibility (1/GPa) = 0.01730459
#
# Stress axis : x y z
#
# Youngs Moduli (GPa) = 90.17822 54.43456 76.13086
#
# Poissons Ratio (x) = 0.24635 0.23369
# Poissons Ratio (y) = 0.40811 0.38446
# Poissons Ratio (z) = 0.27681 0.27490
#
# Static dielectric constant tensor:
#      x y z
#    x 3.834490 0.000000 0.064520 
#    y 0.000000 3.079120 0.000000 
#    z 0.064520 0.000000 2.998520 
# 
# 
# High freq. dielectric constant tensor:
#      x y z
#    x 1.696220 0.000000 0.003030 
#    y 0.000000 1.655110 0.000000 
#    z 0.003030 0.000000 1.648440 
# 
# From -- ./inp_files/177084.got.cif
#   From: 2010.06.25/outbox.cif.g09.slc.cpg/sg12_89_cif.got.tgz:177084.got - 2010.06.28 00:19:55.
