data_PCOD8079242
_publ_section_title
;
Structure prediction by ZEFSAII (Michael W. Deem and Ramdas Pophale) SiO2 
 PCOD8079242
Probable space group: C 2/M
;
_chemical_formula_sum "Si O2"
_cell_formula_units_Z 56
_cell_length_a 29.808419
_cell_length_b 9.118038
_cell_length_c 16.794412
_cell_angle_alpha 90.000000
_cell_angle_beta 133.489350
_cell_angle_gamma 90.000000
_cell_volume 3311.646268
_symmetry_space_group_name_H-M "C 2/M"
_symmetry_group_IT_number 12
_symmetry_cell_setting 'monoclinic'
loop_
_space_group_symop_operation_xyz
x,y,z
-x,y,-z
-x,-y,-z
x,-y,z
1/2+x,1/2+y,z
1/2-x,1/2+y,-z
1/2-x,1/2-y,-z
1/2+x,1/2-y,z
loop_
_atom_site_type_symbol
_atom_site_label
_atom_site_fract_x
_atom_site_fract_y
_atom_site_fract_z
Si Si1 0.403660 0.329440 0.418109
Si Si2 0.011215 0.673742 0.792133
Si Si3 0.696735 0.174134 0.608638
Si Si4 0.444175 0.173849 0.984460
Si Si5 0.971013 0.830310 0.342165
Si Si6 0.871673 0.673695 0.633135
Si Si7 0.823867 0.674183 0.744628
O O1 0.388029 0.500000 0.412538
O O2 0.345843 0.229677 0.371260
O O3 0.418494 0.298624 0.343698
O O4 0.462407 0.282180 0.542650
O O5 0.011177 0.500000 0.784691
O O6 0.045007 0.738864 0.756143
O O7 0.941256 0.735834 0.712451
O O8 0.048751 0.726651 0.915814
O O9 0.668076 0.230355 0.490119
O O10 0.763457 0.244470 0.701751
O O11 0.701648 0.000000 0.617860
O O12 0.378789 0.226300 0.869927
O O13 0.448561 0.000000 0.984901
O O14 0.500000 0.240807 0.000000
O O15 0.972048 0.000000 0.320888
O O16 0.875277 0.500000 0.638760
O O17 0.839478 0.729272 0.674570
O O18 0.813770 0.500000 0.735151
#
# Coordination Sequence:
#
# PCOD8079242 Si02
#       7
#     8   8   8   8   8   8   8
#     4   9  18  33  51  71  98 131 165 197 238 299
#     4  10  17  29  51  77 102 127 161 205 246 286
#     4  11  21  32  47  73 105 133 162 202 249 292
#     4   9  16  29  52  75  95 127 172 211 237 275
#     4   9  18  32  50  74 101 128 159 199 248 298
#     4   9  17  29  47  72 101 131 163 198 239 287
#     4  10  19  33  51  70  97 137 175 201 234 286
#
# _framework density 16.910018999999998
#
# number of rings (size 3 to 8) (size 9 to 14) (size 15 to 20)
#    0.000    2.429    2.857    1.714    0.000    0.571 
#    0.000    3.571    0.000    1.714    0.000    0.000 
#    0.000    0.000    0.000    0.000    0.000    0.000 
#
# Total GULP energy -347196.455857 kJ/mol
# GULP energy per Si atom -12399.873423 kJ/mol
# Density = 1.687153 g / cm^3
# Si number density = 16.910019 Si / 1000 Ang^3
#
#
#
# Elastic Constant Matrix: (Units=GPa)
#
#
# Indices 1 2 3 4 5 6 
#
# 1 126.8304 42.1278 69.7426 0.0000 -3.5142 0.0000
# 2 42.1278 39.6495 34.9994 0.0000 0.6226 0.0000
# 3 69.7426 34.9994 120.9416 0.0000 0.5406 0.0000
# 4 0.0000 0.0000 0.0000 18.6032 0.0000 0.6136
# 5 -3.5142 0.6226 0.5406 0.0000 28.9446 0.0000
# 6 0.0000 0.0000 0.0000 0.6136 0.0000 22.7288
#
#
#
# Elastic Compliance Matrix: (Units=1/GPa)
#
#
# Indices 1 2 3 4 5 6 
#
# 1 0.014348 -0.010698 -0.005187 0.000000 0.002069 0.000000
# 2 -0.010698 0.041860 -0.005935 0.000000 -0.002088 0.000000
# 3 -0.005187 -0.005935 0.012981 0.000000 -0.000745 0.000000
# 4 0.000000 0.000000 0.000000 0.053802 0.000000 -0.001452
# 5 0.002069 -0.002088 -0.000745 0.000000 0.034859 0.000000
# 6 0.000000 0.000000 0.000000 -0.001452 0.000000 0.044036
#
#
# Mechanical properties :
#
#
# Convention : Reuss Voigt Hill
#
# Bulk Modulus (GPa) = 39.14349 64.57347 51.85848
# Shear Modulus (GPa) = 19.68178 23.42544 21.55361
#
# Velocity S-wave (km/s) = 3.41532 3.72600 3.57404
# Velocity P-wave (km/s) = 6.22502 7.53526 6.91126
#
# Compressibility (1/GPa) = 0.02554703
#
# Stress axis : x y z
#
# Youngs Moduli (GPa) = 69.69754 23.88922 77.03826
#
# Poissons Ratio (x) = 0.25557 0.39960
# Poissons Ratio (y) = 0.74564 0.45724
# Poissons Ratio (z) = 0.36153 0.14179
#
# Static dielectric constant tensor:
#      x y z
#    x 3.176760 0.000000 -0.098660 
#    y 0.000000 2.810830 0.000000 
#    z -0.098660 0.000000 3.185830 
# 
# 
# High freq. dielectric constant tensor:
#      x y z
#    x 1.654520 0.000000 -0.006890 
#    y 0.000000 1.622830 0.000000 
#    z -0.006890 0.000000 1.638800 
# 
# From -- ./inp_files/287852.got.cif
#   From: 2010.06.25/outbox.cif.g09.slc.cpg/sg12_144_cif.got.tgz:287852.got - 2010.06.28 00:19:55.
