data_PCOD8079673
_publ_section_title
;
Structure prediction by ZEFSAII (Michael W. Deem and Ramdas Pophale) SiO2 
 PCOD8079673
Probable space group: C 2/M
;
_chemical_formula_sum "Si O2"
_cell_formula_units_Z 64
_cell_length_a 25.655471
_cell_length_b 22.676771
_cell_length_c 11.727224
_cell_angle_alpha 90.000000
_cell_angle_beta 29.689499
_cell_angle_gamma 90.000000
_cell_volume 3379.280806
_symmetry_space_group_name_H-M "C 2/M"
_symmetry_group_IT_number 12
_symmetry_cell_setting 'monoclinic'
loop_
_space_group_symop_operation_xyz
x,y,z
-x,y,-z
-x,-y,-z
x,-y,z
1/2+x,1/2+y,z
1/2-x,1/2+y,-z
1/2-x,1/2-y,-z
1/2+x,1/2-y,z
loop_
_atom_site_type_symbol
_atom_site_label
_atom_site_fract_x
_atom_site_fract_y
_atom_site_fract_z
Si Si1 0.112439 0.319976 0.976044
Si Si2 0.619656 0.273677 0.768440
Si Si3 0.671903 0.600449 0.677784
Si Si4 0.998464 0.932676 0.180046
Si Si5 0.899764 0.734978 0.439809
Si Si6 0.718725 0.735193 0.933244
Si Si7 0.484339 0.660285 0.662989
Si Si8 0.885678 0.432889 0.164352
O O1 0.992230 0.311676 0.243895
O O2 0.136931 0.280731 0.818919
O O3 0.187558 0.297929 0.934579
O O4 0.133771 0.388257 0.904575
O O5 0.688685 0.330122 0.673098
O O6 0.652935 0.253409 0.579498
O O7 0.500000 0.296060 0.000000
O O8 0.600244 0.594233 0.700954
O O9 0.788765 0.572990 0.438532
O O10 0.609195 0.570287 0.900976
O O11 0.007134 0.900376 0.284548
O O12 0.972402 0.000000 0.256120
O O13 0.813358 0.704399 0.683975
O O14 0.932501 0.793299 0.446817
O O15 0.750000 0.750000 0.000000
O O16 0.629054 0.687128 0.097706
O O17 0.500000 0.647589 0.500000
O O18 0.888113 0.500000 0.113752
O O19 0.000000 0.416607 0.000000
#
# Coordination Sequence:
#
# PCOD8079673 Si02
#       8
#     8   8   8   8   8   8   8   8
#     4  10  23  34  57  90 116 153 191 237 292 352
#     4  10  17  33  58  90 120 140 181 237 303 353
#     4  11  19  37  60  84 119 154 190 239 289 350
#     4  11  22  36  58  87 114 152 196 235 288 348
#     4  10  19  36  56  81 116 144 186 241 290 354
#     4  11  22  37  59  85 113 152 189 240 305 352
#     4  11  22  37  56  80 113 149 192 243 289 348
#     4  11  24  39  54  81 125 168 201 233 279 345
#
# _framework density 18.938942000000001
#
# number of rings (size 3 to 8) (size 9 to 14) (size 15 to 20)
#    0.000    1.375    3.750    4.875    0.000    5.250 
#    0.000    0.000    0.000    0.750    0.000    0.875 
#    0.000    0.000    0.000    0.875    0.000    0.000 
#
# Total GULP energy -396753.682493 kJ/mol
# GULP energy per Si atom -12398.552578 kJ/mol
# Density = 1.889584 g / cm^3
# Si number density = 18.938942 Si / 1000 Ang^3
#
#
#
# Elastic Constant Matrix: (Units=GPa)
#
#
# Indices 1 2 3 4 5 6 
#
# 1 94.6722 39.4888 39.4428 0.0000 20.5867 0.0000
# 2 39.4888 108.5126 34.1212 0.0000 8.6261 0.0000
# 3 39.4428 34.1212 134.4390 0.0000 2.4540 -0.0001
# 4 0.0000 0.0000 0.0000 23.8077 0.0000 6.3586
# 5 20.5867 8.6261 2.4540 0.0000 35.3175 0.0000
# 6 0.0000 0.0000 -0.0001 6.3586 0.0000 15.8378
#
#
#
# Elastic Compliance Matrix: (Units=1/GPa)
#
#
# Indices 1 2 3 4 5 6 
#
# 1 0.015255 -0.003886 -0.003349 0.000000 -0.007711 0.000000
# 2 -0.003886 0.011190 -0.001694 0.000000 -0.000350 0.000000
# 3 -0.003349 -0.001694 0.008819 0.000000 0.001753 0.000000
# 4 0.000000 0.000000 0.000000 0.047048 0.000000 -0.018889
# 5 -0.007711 -0.000350 0.001753 0.000000 0.032773 0.000000
# 6 0.000000 0.000000 0.000000 -0.018889 0.000000 0.070724
#
#
# Mechanical properties :
#
#
# Convention : Reuss Voigt Hill
#
# Bulk Modulus (GPa) = 57.44537 62.63660 60.04099
# Shear Modulus (GPa) = 23.87000 29.96399 26.91700
#
# Velocity S-wave (km/s) = 3.55402 3.98192 3.77404
# Velocity P-wave (km/s) = 6.87307 7.36788 7.12477
#
# Compressibility (1/GPa) = 0.01740784
#
# Stress axis : x y z
#
# Youngs Moduli (GPa) = 65.55050 89.36583 113.39568
#
# Poissons Ratio (x) = 0.34724 0.37974
# Poissons Ratio (y) = 0.25470 0.19205
# Poissons Ratio (z) = 0.21952 0.15136
#
# Static dielectric constant tensor:
#      x y z
#    x 3.374200 0.000000 -0.062580 
#    y 0.000000 3.310900 0.000000 
#    z -0.062580 0.000000 3.744200 
# 
# 
# High freq. dielectric constant tensor:
#      x y z
#    x 1.719310 0.000000 -0.011900 
#    y 0.000000 1.717700 0.000000 
#    z -0.011900 0.000000 1.756920 
# 
# From -- ./inp_files/184943.got.cif
#   From: 2010.06.25/outbox.cif.g09.slc.cpg/sg12_93_cif.got.tgz:184943.got - 2010.06.28 00:19:55.
