data_PCOD8079617
_publ_section_title
;
Structure prediction by ZEFSAII (Michael W. Deem and Ramdas Pophale) SiO2 
 PCOD8079617
Probable space group: C 2/M
;
_chemical_formula_sum "Si O2"
_cell_formula_units_Z 64
_cell_length_a 24.218235
_cell_length_b 21.056139
_cell_length_c 8.021764
_cell_angle_alpha 90.000000
_cell_angle_beta 69.508064
_cell_angle_gamma 90.000000
_cell_volume 3831.788971
_symmetry_space_group_name_H-M "C 2/M"
_symmetry_group_IT_number 12
_symmetry_cell_setting 'monoclinic'
loop_
_space_group_symop_operation_xyz
x,y,z
-x,y,-z
-x,-y,-z
x,-y,z
1/2+x,1/2+y,z
1/2-x,1/2+y,-z
1/2-x,1/2-y,-z
1/2+x,1/2-y,z
loop_
_atom_site_type_symbol
_atom_site_label
_atom_site_fract_x
_atom_site_fract_y
_atom_site_fract_z
Si Si1 0.944615 0.831443 0.475541
Si Si2 0.767136 0.573005 0.098329
Si Si3 0.724981 0.070506 0.284495
Si Si4 0.856972 0.097858 0.151490
Si Si5 0.781750 0.343645 0.395713
Si Si6 0.128506 0.071816 0.230935
Si Si7 0.530377 0.430117 0.800801
Si Si8 0.840114 0.786793 0.376408
O O1 0.904433 0.874866 0.632991
O O2 0.984358 0.879347 0.323354
O O3 0.900388 0.785612 0.421642
O O4 0.000000 0.792611 0.500000
O O5 0.785576 0.500000 0.107548
O O6 0.795252 0.614948 0.216447
O O7 0.697564 0.581143 0.183760
O O8 0.789409 0.595216 0.889450
O O9 0.795098 0.062305 0.226370
O O10 0.701995 0.117816 0.452103
O O11 0.697790 0.000000 0.339970
O O12 0.898506 0.068532 0.250685
O O13 0.849551 0.173327 0.196145
O O14 0.888400 0.084601 0.942929
O O15 0.826323 0.284901 0.340861
O O16 0.714289 0.318970 0.465637
O O17 0.109662 0.000000 0.302003
O O18 0.507557 0.500000 0.773367
O O19 0.500000 0.405550 0.000000
#
# Coordination Sequence:
#
# PCOD8079617 Si02
#       8
#     8   8   8   8   8   8   8   8
#     4  11  21  32  44  61  88 118 156 199 233 265
#     4   9  17  29  47  72  98 120 151 191 234 282
#     4   9  17  28  46  72  94 119 149 184 237 284
#     4   9  17  30  42  59  88 120 152 195 226 266
#     4  10  17  33  49  64  95 123 157 194 227 277
#     4  10  18  29  44  67  91 118 158 195 235 272
#     4  10  19  29  42  59  81 115 157 196 234 264
#     4   9  20  33  44  64  86 121 165 189 225 277
#
# _framework density 16.702380999999999
#
# number of rings (size 3 to 8) (size 9 to 14) (size 15 to 20)
#    0.000    2.375    1.250    3.375    0.000    2.000 
#    2.250    2.500    0.000    0.000    0.000    0.000 
#    0.000    2.000    0.000    2.750    0.000    0.125 
#
# Total GULP energy -396516.460351 kJ/mol
# GULP energy per Si atom -12391.139386 kJ/mol
# Density = 1.666437 g / cm^3
# Si number density = 16.702381 Si / 1000 Ang^3
#
#
#
# Elastic Constant Matrix: (Units=GPa)
#
#
# Indices 1 2 3 4 5 6 
#
# 1 49.8112 29.1095 16.1645 0.0000 14.5355 0.0000
# 2 29.1095 84.2273 36.7063 0.0000 12.5634 0.0000
# 3 16.1645 36.7063 64.3433 0.0000 16.5444 0.0000
# 4 0.0000 0.0000 0.0000 20.9723 0.0000 -2.1073
# 5 14.5355 12.5634 16.5444 0.0000 19.2351 0.0000
# 6 0.0000 0.0000 0.0000 -2.1073 0.0000 -56.2838
#
#
#
# Elastic Compliance Matrix: (Units=1/GPa)
#
#
# Indices 1 2 3 4 5 6 
#
# 1 0.029811 -0.008435 0.002181 0.000000 -0.018894 0.000000
# 2 -0.008435 0.018352 -0.008869 0.000000 0.002016 0.000000
# 3 0.002181 -0.008869 0.024379 0.000000 -0.016824 0.000000
# 4 0.000000 0.000000 0.000000 0.047503 0.000000 -0.001779
# 5 -0.018894 0.002016 -0.016824 0.000000 0.079420 0.000000
# 6 0.000000 0.000000 0.000000 -0.001779 0.000000 -0.017701
#
#
# Mechanical properties :
#
#
# Convention : Reuss Voigt Hill
#
# Bulk Modulus (GPa) = 23.64255 40.26026 31.95140
# Shear Modulus (GPa) = 22.11316 4.54482 13.32899
#
# Velocity S-wave (km/s) = 3.64256 1.65135 2.82801
# Velocity P-wave (km/s) = 5.64597 5.27189 5.46213
#
# Compressibility (1/GPa) = 0.04229663
#
# Stress axis : x y z
#
# Youngs Moduli (GPa) = 33.54466 54.48947 41.01887
#
# Poissons Ratio (x) = 0.45963 -0.08946
# Poissons Ratio (y) = 0.28295 0.36378
# Poissons Ratio (z) = -0.07316 0.48325
#
# Static dielectric constant tensor:
#      x y z
#    x 2.928500 0.000000 0.217420 
#    y 0.000000 2.938060 0.000000 
#    z 0.217420 0.000000 3.316850 
# 
# 
# High freq. dielectric constant tensor:
#      x y z
#    x 1.611050 0.000000 0.020470 
#    y 0.000000 1.615570 0.000000 
#    z 0.020470 0.000000 1.646610 
# 
# From -- ./inp_files/97703.got.cif
#   From: 2010.06.25/outbox.cif.g09.slc.cpg/sg12_49_cif.got.tgz:97703.got - 2010.06.28 00:19:55.
