data_PCOD8079625
_publ_section_title
;
Structure prediction by ZEFSAII (Michael W. Deem and Ramdas Pophale) SiO2 
 PCOD8079625
Probable space group: C 2/M
;
_chemical_formula_sum "Si O2"
_cell_formula_units_Z 44
_cell_length_a 15.032045
_cell_length_b 18.215968
_cell_length_c 11.291845
_cell_angle_alpha 90.000000
_cell_angle_beta 122.072207
_cell_angle_gamma 90.000000
_cell_volume 2620.072027
_symmetry_space_group_name_H-M "C 2/M"
_symmetry_group_IT_number 12
_symmetry_cell_setting 'monoclinic'
loop_
_space_group_symop_operation_xyz
x,y,z
-x,y,-z
-x,-y,-z
x,-y,z
1/2+x,1/2+y,z
1/2-x,1/2+y,-z
1/2-x,1/2-y,-z
1/2+x,1/2-y,z
loop_
_atom_site_type_symbol
_atom_site_label
_atom_site_fract_x
_atom_site_fract_y
_atom_site_fract_z
Si Si1 0.751230 0.132470 0.071583
Si Si2 0.335016 0.000000 0.868715
Si Si3 0.208241 0.082113 0.148533
Si Si4 0.561830 0.873454 0.663581
Si Si5 0.910700 0.254049 0.150006
Si Si6 0.500000 0.673017 0.000000
Si Si7 0.495540 0.000000 0.198324
O O1 0.846077 0.187945 0.164984
O O2 0.730088 0.076936 0.166575
O O3 0.780484 0.078853 0.984561
O O4 0.654874 0.184464 0.967217
O O5 0.388132 0.000000 0.776671
O O6 0.415857 0.000000 0.033766
O O7 0.313262 0.119766 0.276319
O O8 0.102953 0.126161 0.104354
O O9 0.197838 0.000000 0.192086
O O10 0.500000 0.886297 0.500000
O O11 0.534225 0.793706 0.699482
O O12 0.522496 0.930291 0.733138
O O13 0.990524 0.222572 0.110128
#
# Coordination Sequence:
#
# PCOD8079625 Si02
#       7
#     8   4   8   8   8   4   4
#     4   9  16  31  51  74 106 132 162 216 262 307
#     4  11  18  30  54  82 104 125 167 227 266 295
#     4  10  17  33  52  79 104 134 173 204 263 304
#     4  11  21  37  54  71 106 144 171 204 252 317
#     4   9  19  31  49  76 102 137 171 204 260 298
#     4  10  21  30  54  79 108 130 164 230 254 295
#     4  11  21  30  52  82 102 130 167 218 265 297
#
# _framework density 16.793431000000002
#
# number of rings (size 3 to 8) (size 9 to 14) (size 15 to 20)
#    0.000    2.000    5.455    1.636    2.545    0.000 
#    0.000    0.909    0.000    0.000    0.000    0.636 
#    0.000    0.000    0.000    0.000    0.000    0.000 
#
# Total GULP energy -272592.719233 kJ/mol
# GULP energy per Si atom -12390.578147 kJ/mol
# Density = 1.675521 g / cm^3
# Si number density = 16.793431 Si / 1000 Ang^3
#
#
#
# Elastic Constant Matrix: (Units=GPa)
#
#
# Indices 1 2 3 4 5 6 
#
# 1 122.0685 58.6381 37.2533 0.0000 5.4208 0.0000
# 2 58.6381 109.2248 31.5123 0.0000 4.1715 0.0000
# 3 37.2533 31.5123 70.1682 0.0000 0.4748 0.0000
# 4 0.0000 0.0000 0.0000 66.6661 0.0000 -36.9529
# 5 5.4208 4.1715 0.4748 0.0000 14.3991 0.0000
# 6 0.0000 0.0000 0.0000 -36.9529 0.0000 33.3564
#
#
#
# Elastic Compliance Matrix: (Units=1/GPa)
#
#
# Indices 1 2 3 4 5 6 
#
# 1 0.012049 -0.005191 -0.004046 0.000000 -0.002899 0.000000
# 2 -0.005191 0.012876 -0.003016 0.000000 -0.001677 0.000000
# 3 -0.004046 -0.003016 0.017742 0.000000 0.001812 0.000000
# 4 0.000000 0.000000 0.000000 0.038867 0.000000 0.043058
# 5 -0.002899 -0.001677 0.001812 0.000000 0.070966 0.000000
# 6 0.000000 0.000000 0.000000 0.043058 0.000000 0.077679
#
#
# Mechanical properties :
#
#
# Convention : Reuss Voigt Hill
#
# Bulk Modulus (GPa) = 55.05982 61.80765 58.43374
# Shear Modulus (GPa) = 19.17635 34.48818 26.83227
#
# Velocity S-wave (km/s) = 3.38286 4.53666 4.00156
# Velocity P-wave (km/s) = 6.93657 8.02037 7.49808
#
# Compressibility (1/GPa) = 0.01816207
#
# Stress axis : x y z
#
# Youngs Moduli (GPa) = 82.99364 77.66363 56.36425
#
# Poissons Ratio (x) = 0.40312 0.22807
# Poissons Ratio (y) = 0.43078 0.16997
# Poissons Ratio (z) = 0.33582 0.23420
#
# Static dielectric constant tensor:
#      x y z
#    x 3.422720 0.000000 0.009330 
#    y 0.000000 3.430740 0.000000 
#    z 0.009330 0.000000 2.769510 
# 
# 
# High freq. dielectric constant tensor:
#      x y z
#    x 1.648990 0.000000 0.002910 
#    y 0.000000 1.668020 0.000000 
#    z 0.002910 0.000000 1.587350 
# 
# From -- ./inp_files/76131.got.cif
#   From: 2010.06.25/outbox.cif.g09.slc.cpg/sg12_39_cif.got.tgz:76131.got - 2010.06.28 00:19:55.
