data_PCOD8079598
_publ_section_title
;
Structure prediction by ZEFSAII (Michael W. Deem and Ramdas Pophale) SiO2 
 PCOD8079598
Probable space group: C 2/M
;
_chemical_formula_sum "Si O2"
_cell_formula_units_Z 64
_cell_length_a 21.589491
_cell_length_b 19.316002
_cell_length_c 9.794112
_cell_angle_alpha 90.000000
_cell_angle_beta 120.929459
_cell_angle_gamma 90.000000
_cell_volume 3503.572700
_symmetry_space_group_name_H-M "C 2/M"
_symmetry_group_IT_number 12
_symmetry_cell_setting 'monoclinic'
loop_
_space_group_symop_operation_xyz
x,y,z
-x,y,-z
-x,-y,-z
x,-y,z
1/2+x,1/2+y,z
1/2-x,1/2+y,-z
1/2-x,1/2-y,-z
1/2+x,1/2-y,z
loop_
_atom_site_type_symbol
_atom_site_label
_atom_site_fract_x
_atom_site_fract_y
_atom_site_fract_z
Si Si1 0.553636 0.655483 0.434608
Si Si2 0.765533 0.673301 0.464224
Si Si3 0.790052 0.654293 0.949051
Si Si4 0.698536 0.686769 0.104108
Si Si5 0.538633 0.687572 0.900839
Si Si6 0.085834 0.312749 0.472036
Si Si7 0.201438 0.918691 0.620214
Si Si8 0.931995 0.674628 0.236406
O O1 0.500000 0.656251 0.500000
O O2 0.510743 0.634693 0.245646
O O3 0.583318 0.731552 0.436334
O O4 0.618716 0.604585 0.547393
O O5 0.750000 0.750000 0.500000
O O6 0.735349 0.660057 0.281056
O O7 0.850919 0.657566 0.550637
O O8 0.730729 0.615411 0.517309
O O9 0.796411 0.730016 0.890415
O O10 0.754551 0.601626 0.803583
O O11 0.738383 0.654278 0.020478
O O12 0.872379 0.630328 0.084028
O O13 0.617345 0.656164 0.018833
O O14 0.555714 0.752910 0.824188
O O15 0.500000 0.707163 0.000000
O O16 0.102251 0.316404 0.652031
O O17 0.013160 0.355757 0.346858
O O18 0.203030 0.000000 0.605268
#
# Coordination Sequence:
#
# PCOD8079598 Si02
#       8
#     8   8   8   8   8   8   8   8
#     4  11  19  36  59  82 124 165 196 242 299 368
#     4  12  21  35  62  89 119 160 204 258 311 354
#     4  10  19  35  57  84 117 150 196 256 307 348
#     4  10  19  32  58  90 111 149 203 255 303 351
#     4  10  19  27  47  84 122 149 181 243 303 348
#     4  10  17  32  57  94 118 148 191 251 311 357
#     4  12  27  41  57  86 128 169 208 249 301 369
#     4   9  18  30  52  87 124 141 179 249 310 363
#
# _framework density 18.267067000000001
#
# number of rings (size 3 to 8) (size 9 to 14) (size 15 to 20)
#    0.000    1.500    6.250    1.500    3.500    0.250 
#    0.000    0.625    0.000    4.875    0.000    1.750 
#    0.000    0.000    0.000    0.000    0.000    0.000 
#
# Total GULP energy -396507.936916 kJ/mol
# GULP energy per Si atom -12390.873029 kJ/mol
# Density = 1.822549 g / cm^3
# Si number density = 18.267067 Si / 1000 Ang^3
#
#
#
# Elastic Constant Matrix: (Units=GPa)
#
#
# Indices 1 2 3 4 5 6 
#
# 1 108.1769 13.1992 54.0637 0.0000 15.6921 0.0000
# 2 13.1992 46.8930 37.6442 0.0000 6.6720 0.0000
# 3 54.0637 37.6442 74.5660 0.0000 18.7374 0.0000
# 4 0.0000 0.0000 0.0000 13.7524 0.0000 -2.2377
# 5 15.6921 6.6720 18.7374 0.0000 35.0246 0.0000
# 6 0.0000 0.0000 0.0000 -2.2377 0.0000 4.5646
#
#
#
# Elastic Compliance Matrix: (Units=1/GPa)
#
#
# Indices 1 2 3 4 5 6 
#
# 1 0.016171 0.008135 -0.015737 0.000000 -0.000376 0.000000
# 2 0.008135 0.040282 -0.027023 0.000000 0.003139 0.000000
# 3 -0.015737 -0.027023 0.040896 0.000000 -0.009680 0.000000
# 4 0.000000 0.000000 0.000000 0.079017 0.000000 0.038736
# 5 -0.000376 0.003139 -0.009680 0.000000 0.033300 0.000000
# 6 0.000000 0.000000 0.000000 0.038736 0.000000 0.238066
#
#
# Mechanical properties :
#
#
# Convention : Reuss Voigt Hill
#
# Bulk Modulus (GPa) = 35.58895 48.82780 42.20837
# Shear Modulus (GPa) = 9.49938 18.98356 14.24147
#
# Velocity S-wave (km/s) = 2.28289 3.22720 2.79521
# Velocity P-wave (km/s) = 5.14525 6.37765 5.79431
#
# Compressibility (1/GPa) = 0.02809861
#
# Stress axis : x y z
#
# Youngs Moduli (GPa) = 61.83879 24.82487 24.45216
#
# Poissons Ratio (x) = -0.20195 0.38481
# Poissons Ratio (y) = -0.50307 0.66078
# Poissons Ratio (z) = 0.97318 0.67085
#
# Static dielectric constant tensor:
#      x y z
#    x 3.690820 0.000000 0.559550 
#    y 0.000000 2.919470 0.000000 
#    z 0.559550 0.000000 3.803170 
# 
# 
# High freq. dielectric constant tensor:
#      x y z
#    x 1.732920 0.000000 0.009560 
#    y 0.000000 1.619070 0.000000 
#    z 0.009560 0.000000 1.736050 
# 
# From -- ./inp_files/98876.got.cif
#   From: 2010.06.25/outbox.cif.g09.slc.cpg/sg12_50_cif.got.tgz:98876.got - 2010.06.28 00:19:55.
