data_PCOD8079900
_publ_section_title
;
Structure prediction by ZEFSAII (Michael W. Deem and Ramdas Pophale) SiO2 
 PCOD8079900
Probable space group: C 2/M
;
_chemical_formula_sum "Si O2"
_cell_formula_units_Z 56
_cell_length_a 27.038934
_cell_length_b 21.966478
_cell_length_c 20.516120
_cell_angle_alpha 90.000000
_cell_angle_beta 162.797135
_cell_angle_gamma 90.000000
_cell_volume 3603.948045
_symmetry_space_group_name_H-M "C 2/M"
_symmetry_group_IT_number 12
_symmetry_cell_setting 'monoclinic'
loop_
_space_group_symop_operation_xyz
x,y,z
-x,y,-z
-x,-y,-z
x,-y,z
1/2+x,1/2+y,z
1/2-x,1/2+y,-z
1/2-x,1/2-y,-z
1/2+x,1/2-y,z
loop_
_atom_site_type_symbol
_atom_site_label
_atom_site_fract_x
_atom_site_fract_y
_atom_site_fract_z
Si Si1 0.809251 0.846746 0.773818
Si Si2 0.997460 0.185036 0.351965
Si Si3 0.195287 0.429023 0.742919
Si Si4 0.703881 0.346390 0.018125
Si Si5 0.188176 0.290997 0.045895
Si Si6 0.490492 0.178801 0.680407
Si Si7 0.832924 0.290330 0.831892
O O1 0.754757 0.901580 0.750200
O O2 0.695831 0.848086 0.565117
O O3 0.780670 0.780501 0.769578
O O4 0.000000 0.858248 0.000000
O O5 0.184025 0.169542 0.612105
O O6 0.867751 0.182238 0.249201
O O7 0.994322 0.251248 0.317982
O O8 0.939416 0.142830 0.217786
O O9 0.234163 0.500000 0.793152
O O10 0.302818 0.398976 0.936401
O O11 0.000000 0.414148 0.500000
O O12 0.685021 0.281660 0.030991
O O13 0.881207 0.355281 0.205625
O O14 0.146748 0.310072 0.067675
O O15 0.043515 0.325751 0.822698
O O16 0.000000 0.300966 0.000000
#
# Coordination Sequence:
#
# PCOD8079900 Si02
#       7
#     8   8   8   8   8   8   8
#     4  10  19  31  42  60  90 125 148 175 218 258
#     4   8  16  26  43  63  82 118 148 171 212 263
#     4  11  21  31  48  66  83 115 154 190 221 246
#     4   9  15  29  45  62  85 110 150 189 212 249
#     4   9  15  26  46  62  83 120 146 176 212 255
#     4   8  15  27  43  63  85 111 151 177 209 262
#     4  10  18  27  39  66  96 118 143 175 213 260
#
# _framework density 15.538515
#
# number of rings (size 3 to 8) (size 9 to 14) (size 15 to 20)
#    0.000    2.714    2.857    2.143    0.000    0.286 
#    2.571    2.857    0.000    0.000    0.000    0.000 
#    0.000   10.857    0.000    0.000    0.000    0.571 
#
# Total GULP energy -346930.923973 kJ/mol
# GULP energy per Si atom -12390.390142 kJ/mol
# Density = 1.550315 g / cm^3
# Si number density = 15.538515 Si / 1000 Ang^3
#
#
#
# Elastic Constant Matrix: (Units=GPa)
#
#
# Indices 1 2 3 4 5 6 
#
# 1 91.7919 24.2410 67.2389 0.0003 -15.8839 0.0001
# 2 24.2410 40.8169 32.1147 0.0000 -5.6519 0.0000
# 3 67.2389 32.1147 139.5297 0.0005 -11.3014 -0.0001
# 4 0.0003 0.0000 0.0005 12.2793 0.0003 -2.3984
# 5 -15.8839 -5.6519 -11.3014 0.0003 23.3577 0.0000
# 6 0.0001 0.0000 -0.0001 -2.3984 0.0000 14.4728
#
#
#
# Elastic Compliance Matrix: (Units=1/GPa)
#
#
# Indices 1 2 3 4 5 6 
#
# 1 0.018903 -0.004207 -0.007475 0.000000 0.008220 0.000000
# 2 -0.004207 0.031230 -0.004975 0.000000 0.002289 0.000000
# 3 -0.007475 -0.004975 0.011870 0.000000 -0.000544 0.000000
# 4 0.000000 0.000000 0.000000 0.084162 -0.000002 0.013947
# 5 0.008220 0.002289 -0.000544 -0.000002 0.048693 0.000000
# 6 0.000000 0.000000 0.000000 0.013947 0.000000 0.071406
#
#
# Mechanical properties :
#
#
# Convention : Reuss Voigt Hill
#
# Bulk Modulus (GPa) = 34.85743 57.70307 46.28025
# Shear Modulus (GPa) = 16.17378 19.92491 18.04934
#
# Velocity S-wave (km/s) = 3.22977 3.58479 3.41190
# Velocity P-wave (km/s) = 6.03243 7.37228 6.73575
#
# Compressibility (1/GPa) = 0.02868829
#
# Stress axis : x y z
#
# Youngs Moduli (GPa) = 52.90038 32.02099 84.24309
#
# Poissons Ratio (x) = 0.13470 0.62976
# Poissons Ratio (y) = 0.22254 0.41914
# Poissons Ratio (z) = 0.39545 0.15931
#
# Static dielectric constant tensor:
#      x y z
#    x 4.135010 0.000000 3.429880 
#    y 0.000000 2.484390 -0.000010 
#    z 3.429880 -0.000010 13.651890 
# 
# 
# High freq. dielectric constant tensor:
#      x y z
#    x 1.591930 0.000000 -0.012370 
#    y 0.000000 1.527590 0.000000 
#    z -0.012370 0.000000 1.608020 
# 
# From -- ./inp_files/76846.got.cif
#   From: 2010.06.25/outbox.cif.g09.slc.cpg/sg12_39_cif.got.tgz:76846.got - 2010.06.28 00:19:55.
