data_PCOD8079445
_publ_section_title
;
Structure prediction by ZEFSAII (Michael W. Deem and Ramdas Pophale) SiO2 
 PCOD8079445
Probable space group: C 2/M
;
_chemical_formula_sum "Si O2"
_cell_formula_units_Z 56
_cell_length_a 17.357268
_cell_length_b 20.985996
_cell_length_c 12.005614
_cell_angle_alpha 90.000000
_cell_angle_beta 47.435013
_cell_angle_gamma 90.000000
_cell_volume 3220.878353
_symmetry_space_group_name_H-M "C 2/M"
_symmetry_group_IT_number 12
_symmetry_cell_setting 'monoclinic'
loop_
_space_group_symop_operation_xyz
x,y,z
-x,y,-z
-x,-y,-z
x,-y,z
1/2+x,1/2+y,z
1/2-x,1/2+y,-z
1/2-x,1/2-y,-z
1/2+x,1/2-y,z
loop_
_atom_site_type_symbol
_atom_site_label
_atom_site_fract_x
_atom_site_fract_y
_atom_site_fract_z
Si Si1 0.872338 0.129302 0.867107
Si Si2 0.698394 0.249302 0.429249
Si Si3 0.750928 0.698522 0.836644
Si Si4 0.162111 0.000000 0.388745
Si Si5 0.031904 0.739784 0.278934
Si Si6 0.962258 0.000000 0.720038
Si Si7 0.421979 0.200122 0.988022
Si Si8 0.747630 0.873334 0.760154
O O1 0.953888 0.187704 0.779465
O O2 0.809510 0.126541 0.814665
O O3 0.934445 0.062679 0.820241
O O4 0.793907 0.137615 0.051368
O O5 0.750000 0.250000 0.500000
O O6 0.753259 0.195307 0.295356
O O7 0.575091 0.235108 0.549181
O O8 0.712746 0.317696 0.358875
O O9 0.871117 0.714871 0.744412
O O10 0.679510 0.757703 0.944810
O O11 0.099013 0.000000 0.335825
O O12 0.236888 0.938636 0.321623
O O13 0.085295 0.000000 0.570252
O O14 0.017861 0.691733 0.187092
O O15 0.375909 0.135407 0.088493
O O16 0.500000 0.233309 0.000000
#
# Coordination Sequence:
#
# PCOD8079445 Si02
#       8
#     8   8   8   4   8   4   8   8
#     4  10  17  31  50  75  99 130 163 206 251 300
#     4  11  22  31  47  77 105 131 163 209 259 300
#     4  10  19  32  49  73  99 133 168 201 252 301
#     4   9  18  30  49  75 102 131 158 210 257 295
#     4  11  17  30  50  72 100 132 165 202 249 302
#     4   9  18  28  48  79 103 124 163 211 260 285
#     4  10  18  30  47  70 103 134 160 201 246 301
#     4  10  18  33  48  72 104 127 166 204 252 304
#
# _framework density 17.386562000000001
#
# number of rings (size 3 to 8) (size 9 to 14) (size 15 to 20)
#    0.000    1.857    4.286    3.857    0.000    1.143 
#    0.000    0.357    0.000    0.857    0.000   21.000 
#    0.000    0.000    0.000    0.000    0.000    0.000 
#
# Total GULP energy -346874.098944 kJ/mol
# GULP energy per Si atom -12388.360677 kJ/mol
# Density = 1.734699 g / cm^3
# Si number density = 17.386562 Si / 1000 Ang^3
#
#
#
# Elastic Constant Matrix: (Units=GPa)
#
#
# Indices 1 2 3 4 5 6 
#
# 1 56.6806 18.4405 25.3159 0.0000 10.5972 0.0000
# 2 18.4405 89.0270 70.7277 0.0000 -4.8956 0.0000
# 3 25.3159 70.7277 134.2317 0.0000 9.0219 0.0000
# 4 0.0000 0.0000 0.0000 29.9928 0.0000 -2.2969
# 5 10.5972 -4.8956 9.0219 0.0000 29.2149 0.0000
# 6 0.0000 0.0000 0.0000 -2.2969 0.0000 7.0637
#
#
#
# Elastic Compliance Matrix: (Units=1/GPa)
#
#
# Indices 1 2 3 4 5 6 
#
# 1 0.020926 -0.003495 -0.001588 0.000000 -0.007686 0.000000
# 2 -0.003495 0.021200 -0.011065 0.000000 0.008237 0.000000
# 3 -0.001588 -0.011065 0.013955 0.000000 -0.005588 0.000000
# 4 0.000000 0.000000 0.000000 0.034193 0.000000 0.011119
# 5 -0.007686 0.008237 -0.005588 0.000000 0.040123 0.000000
# 6 0.000000 0.000000 0.000000 0.011119 0.000000 0.145184
#
#
# Mechanical properties :
#
#
# Convention : Reuss Voigt Hill
#
# Bulk Modulus (GPa) = 42.04457 56.54528 49.29493
# Shear Modulus (GPa) = 15.83247 24.28462 20.05854
#
# Velocity S-wave (km/s) = 3.02091 3.74136 3.40027
# Velocity P-wave (km/s) = 6.03346 7.15938 6.62040
#
# Compressibility (1/GPa) = 0.02378428
#
# Stress axis : x y z
#
# Youngs Moduli (GPa) = 47.78676 47.16975 71.65837
#
# Poissons Ratio (x) = 0.16487 0.11382
# Poissons Ratio (y) = 0.16703 0.79289
# Poissons Ratio (z) = 0.07591 0.52193
#
# Static dielectric constant tensor:
#      x y z
#    x 3.068690 0.000000 -0.021660 
#    y 0.000000 3.241240 0.000000 
#    z -0.021660 0.000000 3.715910 
# 
# 
# High freq. dielectric constant tensor:
#      x y z
#    x 1.654920 0.000000 -0.003440 
#    y 0.000000 1.625020 0.000000 
#    z -0.003440 0.000000 1.692010 
# 
# From -- ./inp_files/159211.got.cif
#   From: 2010.06.25/outbox.cif.g09.slc.cpg/sg12_80_cif.got.tgz:159211.got - 2010.06.28 00:19:55.
