data_PCOD8079401
_publ_section_title
;
Structure prediction by ZEFSAII (Michael W. Deem and Ramdas Pophale) SiO2 
 PCOD8079401
Probable space group: C 2/M
;
_chemical_formula_sum "Si O2"
_cell_formula_units_Z 64
_cell_length_a 28.442853
_cell_length_b 9.175652
_cell_length_c 14.179860
_cell_angle_alpha 90.000000
_cell_angle_beta 117.878498
_cell_angle_gamma 90.000000
_cell_volume 3271.187191
_symmetry_space_group_name_H-M "C 2/M"
_symmetry_group_IT_number 12
_symmetry_cell_setting 'monoclinic'
loop_
_space_group_symop_operation_xyz
x,y,z
-x,y,-z
-x,-y,-z
x,-y,z
1/2+x,1/2+y,z
1/2-x,1/2+y,-z
1/2-x,1/2-y,-z
1/2+x,1/2-y,z
loop_
_atom_site_type_symbol
_atom_site_label
_atom_site_fract_x
_atom_site_fract_y
_atom_site_fract_z
Si Si1 0.294669 0.826858 0.602042
Si Si2 0.383152 0.161538 0.982909
Si Si3 0.086314 0.326319 0.342186
Si Si4 0.041065 0.662757 0.108442
Si Si5 0.791193 0.829710 0.106665
Si Si6 0.410333 0.328200 0.179005
Si Si7 0.492150 0.671937 0.600701
Si Si8 0.280611 0.170180 0.798919
O O1 0.250000 0.750000 0.500000
O O2 0.352229 0.781449 0.614390
O O3 0.285199 0.762848 0.698825
O O4 0.286892 0.000000 0.591018
O O5 0.403691 0.154893 0.894978
O O6 0.324807 0.233050 0.914174
O O7 0.380732 0.000000 0.025411
O O8 0.420786 0.258316 0.085931
O O9 0.081480 0.500000 0.345236
O O10 0.052439 0.264789 0.220507
O O11 0.060915 0.251021 0.410206
O O12 0.017766 0.500000 0.105152
O O13 0.000000 0.747825 0.000000
O O14 0.851699 0.772360 0.154899
O O15 0.775678 0.800565 0.202383
O O16 0.787863 0.000000 0.079452
O O17 0.750000 0.750000 0.000000
O O18 0.412404 0.500000 0.171960
O O19 0.455309 0.274670 0.293967
O O20 0.500000 0.718352 0.500000
O O21 0.483282 0.500000 0.602156
O O22 0.293285 0.000000 0.800696
#
# Coordination Sequence:
#
# PCOD8079401 Si02
#       8
#     8   8   8   8   8   8   8   8
#     4  10  21  38  59  85 116 149 188 232 276 329
#     4  10  17  30  54  80 106 141 182 220 267 331
#     4  10  20  37  60  86 113 141 182 238 284 322
#     4   9  16  27  49  81 110 138 175 218 267 323
#     4  10  19  32  52  78 109 145 181 223 274 328
#     4  10  21  35  52  80 114 144 181 233 281 323
#     4  10  23  42  60  79 108 149 194 233 276 338
#     4   9  17  32  54  78 107 144 183 222 267 325
#
# _framework density 19.564762000000002
#
# number of rings (size 3 to 8) (size 9 to 14) (size 15 to 20)
#    0.000    2.250    2.500    0.750    0.000    3.250 
#    0.000    4.375    0.000    2.250    0.000    0.000 
#    0.000    0.000    0.000    0.000    0.000    0.000 
#
# Total GULP energy -396542.181061 kJ/mol
# GULP energy per Si atom -12391.943158 kJ/mol
# Density = 1.952023 g / cm^3
# Si number density = 19.564762 Si / 1000 Ang^3
#
#
#
# Elastic Constant Matrix: (Units=GPa)
#
#
# Indices 1 2 3 4 5 6 
#
# 1 109.6157 26.9453 51.5133 0.0000 -8.5768 0.0000
# 2 26.9453 23.5173 28.3808 0.0000 -1.5077 0.0000
# 3 51.5133 28.3808 132.7094 0.0000 -4.6844 0.0000
# 4 0.0000 0.0000 0.0000 26.2211 0.0000 1.2814
# 5 -8.5768 -1.5077 -4.6844 0.0000 33.7367 0.0000
# 6 0.0000 0.0000 0.0000 1.2814 0.0000 23.5723
#
#
#
# Elastic Compliance Matrix: (Units=1/GPa)
#
#
# Indices 1 2 3 4 5 6 
#
# 1 0.013532 -0.012281 -0.002537 0.000000 0.002539 0.000000
# 2 -0.012281 0.068484 -0.009930 0.000000 -0.001440 0.000000
# 3 -0.002537 -0.009930 0.010657 0.000000 0.000391 0.000000
# 4 0.000000 0.000000 0.000000 0.038239 0.000000 -0.002079
# 5 0.002539 -0.001440 0.000391 0.000000 0.030277 0.000000
# 6 0.000000 0.000000 0.000000 -0.002079 0.000000 0.042536
#
#
# Mechanical properties :
#
#
# Convention : Reuss Voigt Hill
#
# Bulk Modulus (GPa) = 23.15942 53.28012 38.21977
# Shear Modulus (GPa) = 18.68378 27.30622 22.99500
#
# Velocity S-wave (km/s) = 3.09361 3.73994 3.43202
# Velocity P-wave (km/s) = 4.96222 6.77800 5.93990
#
# Compressibility (1/GPa) = 0.04317897
#
# Stress axis : x y z
#
# Youngs Moduli (GPa) = 73.89641 14.60205 93.83230
#
# Poissons Ratio (x) = 0.17932 0.23804
# Poissons Ratio (y) = 0.90750 0.93171
# Poissons Ratio (z) = 0.18747 0.14499
#
# Static dielectric constant tensor:
#      x y z
#    x 3.824960 0.000000 -0.002540 
#    y 0.000000 3.154740 0.000000 
#    z -0.002540 0.000000 3.617720 
# 
# 
# High freq. dielectric constant tensor:
#      x y z
#    x 1.779670 0.000000 -0.000660 
#    y 0.000000 1.716560 0.000000 
#    z -0.000660 0.000000 1.760270 
# 
# From -- ./inp_files/249148.got.cif
#   From: 2010.06.25/outbox.cif.g09.slc.cpg/sg12_125_cif.got.tgz:249148.got - 2010.06.28 00:19:55.
