data_PCOD8079745
_publ_section_title
;
Structure prediction by ZEFSAII (Michael W. Deem and Ramdas Pophale) SiO2 
 PCOD8079745
Probable space group: C 2/M
;
_chemical_formula_sum "Si O2"
_cell_formula_units_Z 40
_cell_length_a 17.366992
_cell_length_b 20.293948
_cell_length_c 5.075759
_cell_angle_alpha 90.000000
_cell_angle_beta 89.633152
_cell_angle_gamma 90.000000
_cell_volume 1788.888363
_symmetry_space_group_name_H-M "C 2/M"
_symmetry_group_IT_number 12
_symmetry_cell_setting 'monoclinic'
loop_
_space_group_symop_operation_xyz
x,y,z
-x,y,-z
-x,-y,-z
x,-y,z
1/2+x,1/2+y,z
1/2-x,1/2+y,-z
1/2-x,1/2-y,-z
1/2+x,1/2-y,z
loop_
_atom_site_type_symbol
_atom_site_label
_atom_site_fract_x
_atom_site_fract_y
_atom_site_fract_z
Si Si1 0.832107 0.619241 0.961791
Si Si2 0.575809 0.229886 0.826575
Si Si3 0.418588 0.101235 0.447550
Si Si4 0.335581 0.576386 0.918445
Si Si5 0.086384 0.129672 0.596219
O O1 0.859704 0.590019 0.685273
O O2 0.741118 0.612188 0.978866
O O3 0.857284 0.696549 0.991210
O O4 0.875215 0.575427 0.186345
O O5 0.558807 0.178125 0.594382
O O6 0.604649 0.296292 0.688637
O O7 0.500000 0.244951 0.000000
O O8 0.500000 0.064006 0.500000
O O9 0.321736 0.500000 0.857769
O O10 0.398364 0.583270 0.150822
O O11 0.359116 0.612367 0.649220
O O12 0.000000 0.119252 0.500000
#
# Coordination Sequence:
#
# PCOD8079745 Si02
#       5
#     8   8   8   8   8
#     4  10  22  37  66  97 134 174 210 261 334 391
#     4  10  21  38  69 102 141 162 203 263 338 400
#     4  10  17  35  61  99 135 173 200 248 317 402
#     4  12  28  49  66  91 132 181 230 276 319 373
#     4  12  27  44  71  98 126 170 224 278 336 395
#
# _framework density 22.360257000000001
#
# number of rings (size 3 to 8) (size 9 to 14) (size 15 to 20)
#    1.200    0.000    2.000    4.800    2.800    4.000 
#    0.000    0.000    0.000    6.600    0.000    0.000 
#    0.000    0.000    0.000    0.000    0.000    0.000 
#
# Total GULP energy -247832.870903 kJ/mol
# GULP energy per Si atom -12391.643545 kJ/mol
# Density = 2.230936 g / cm^3
# Si number density = 22.360257 Si / 1000 Ang^3
#
#
#
# Elastic Constant Matrix: (Units=GPa)
#
#
# Indices 1 2 3 4 5 6 
#
# 1 91.7392 45.7447 28.6257 0.0000 -11.8991 0.0000
# 2 45.7447 93.3154 28.7966 0.0000 -14.0570 0.0000
# 3 28.6257 28.7966 152.1653 0.0000 -20.4509 0.0000
# 4 0.0000 0.0000 0.0000 1.6015 0.0000 4.1676
# 5 -11.8991 -14.0570 -20.4509 0.0000 49.2732 0.0000
# 6 0.0000 0.0000 0.0000 4.1676 0.0000 68.6200
#
#
#
# Elastic Compliance Matrix: (Units=1/GPa)
#
#
# Indices 1 2 3 4 5 6 
#
# 1 0.014794 -0.006662 -0.001374 0.000000 0.001102 0.000000
# 2 -0.006662 0.014678 -0.001247 0.000000 0.002061 0.000000
# 3 -0.001374 -0.001247 0.007386 0.000000 0.002378 0.000000
# 4 0.000000 0.000000 0.000000 0.741603 0.000000 -0.045041
# 5 0.001102 0.002061 0.002378 0.000000 0.022136 0.000000
# 6 0.000000 0.000000 0.000000 -0.045041 0.000000 0.017309
#
#
# Mechanical properties :
#
#
# Convention : Reuss Voigt Hill
#
# Bulk Modulus (GPa) = 54.67483 60.39487 57.53485
# Shear Modulus (GPa) = 5.93423 39.50248 22.71835
#
# Velocity S-wave (km/s) = 1.63085 4.20770 3.19096
# Velocity P-wave (km/s) = 5.29633 7.11863 6.27399
#
# Compressibility (1/GPa) = 0.01828995
#
# Stress axis : x y z
#
# Youngs Moduli (GPa) = 67.59369 68.13053 135.39192
#
# Poissons Ratio (x) = 0.45391 0.18606
# Poissons Ratio (y) = 0.45033 0.16889
# Poissons Ratio (z) = 0.09289 0.08499
#
# Static dielectric constant tensor:
#      x y z
#    x 3.863440 0.000000 0.096440 
#    y 0.000000 3.720610 0.000000 
#    z 0.096440 0.000000 4.166970 
# 
# 
# High freq. dielectric constant tensor:
#      x y z
#    x 1.879550 0.000000 0.002030 
#    y 0.000000 1.855210 0.000000 
#    z 0.002030 0.000000 1.899940 
# 
# From -- ./inp_files/15209.got.cif
#   From: 2010.06.25/outbox.cif.g09.slc.cpg/sg12_8_cif.got.tgz:15209.got - 2010.06.28 00:19:55.
