data_PCOD8079781
_publ_section_title
;
Structure prediction by ZEFSAII (Michael W. Deem and Ramdas Pophale) SiO2 
 PCOD8079781
Probable space group: C 2/M
;
_chemical_formula_sum "Si O2"
_cell_formula_units_Z 56
_cell_length_a 15.190206
_cell_length_b 21.526150
_cell_length_c 8.639301
_cell_angle_alpha 90.000000
_cell_angle_beta 84.857512
_cell_angle_gamma 90.000000
_cell_volume 2813.565386
_symmetry_space_group_name_H-M "C 2/M"
_symmetry_group_IT_number 12
_symmetry_cell_setting 'monoclinic'
loop_
_space_group_symop_operation_xyz
x,y,z
-x,y,-z
-x,-y,-z
x,-y,z
1/2+x,1/2+y,z
1/2-x,1/2+y,-z
1/2-x,1/2-y,-z
1/2+x,1/2-y,z
loop_
_atom_site_type_symbol
_atom_site_label
_atom_site_fract_x
_atom_site_fract_y
_atom_site_fract_z
Si Si1 0.664344 0.232618 0.113830
Si Si2 0.907684 0.571318 0.579465
Si Si3 0.400843 0.653431 0.014864
Si Si4 0.733608 0.429846 0.129279
Si Si5 0.273404 0.847653 0.410982
Si Si6 0.691109 0.717240 0.687375
Si Si7 0.907255 0.397494 0.936350
O O1 0.704865 0.215341 0.274026
O O2 0.609244 0.176082 0.052412
O O3 0.750000 0.250000 0.000000
O O4 0.602475 0.293511 0.118890
O O5 0.894861 0.500000 0.533884
O O6 0.830474 0.608645 0.510459
O O7 0.905408 0.577780 0.763365
O O8 0.000000 0.597245 0.500000
O O9 0.376141 0.684584 0.183810
O O10 0.500000 0.626488 0.000000
O O11 0.333383 0.597808 0.988498
O O12 0.704388 0.500000 0.174288
O O13 0.729599 0.387486 0.281866
O O14 0.831807 0.432115 0.044782
O O15 0.332481 0.790416 0.332767
O O16 0.192001 0.819654 0.524928
O O17 0.000000 0.414107 0.000000
#
# Coordination Sequence:
#
# PCOD8079781 Si02
#       7
#     8   8   8   8   8   8   8
#     4  10  17  37  62  89 121 148 194 251 308 357
#     4  11  24  39  55  85 129 168 202 245 298 367
#     4  11  22  40  65  91 121 155 208 261 307 365
#     4  12  24  40  63  89 122 166 208 254 305 363
#     4  11  21  39  62  86 124 159 202 247 311 377
#     4  10  20  39  65  89 118 158 196 256 319 363
#     4  12  23  39  65  94 122 161 210 255 307 371
#
# _framework density 19.903573000000002
#
# number of rings (size 3 to 8) (size 9 to 14) (size 15 to 20)
#    0.000    1.000    5.714    3.000    0.000    3.714 
#    0.000    1.429    0.000    0.857    0.000    0.000 
#    0.000    0.000    0.000    0.000    0.000    0.000 
#
# Total GULP energy -347145.823090 kJ/mol
# GULP energy per Si atom -12398.065110 kJ/mol
# Density = 1.985827 g / cm^3
# Si number density = 19.903573 Si / 1000 Ang^3
#
#
#
# Elastic Constant Matrix: (Units=GPa)
#
#
# Indices 1 2 3 4 5 6 
#
# 1 98.8462 30.4768 28.9121 0.0000 6.2823 0.0000
# 2 30.4768 121.5103 34.8569 0.0000 -0.7241 0.0000
# 3 28.9121 34.8569 107.2350 0.0000 -1.9090 0.0000
# 4 0.0000 0.0000 0.0000 19.4212 0.0000 -10.7845
# 5 6.2823 -0.7241 -1.9090 0.0000 23.7913 0.0000
# 6 0.0000 0.0000 0.0000 -10.7845 0.0000 8.6701
#
#
#
# Elastic Compliance Matrix: (Units=1/GPa)
#
#
# Indices 1 2 3 4 5 6 
#
# 1 0.011756 -0.002252 -0.002498 0.000000 -0.003373 0.000000
# 2 -0.002252 0.009508 -0.002471 0.000000 0.000686 0.000000
# 3 -0.002498 -0.002471 0.010828 0.000000 0.001453 0.000000
# 4 0.000000 0.000000 0.000000 0.166482 0.000000 0.207083
# 5 -0.003373 0.000686 0.001453 0.000000 0.043060 0.000000
# 6 0.000000 0.000000 0.000000 0.207083 0.000000 0.372924
#
#
# Mechanical properties :
#
#
# Convention : Reuss Voigt Hill
#
# Bulk Modulus (GPa) = 56.65793 57.34257 57.00025
# Shear Modulus (GPa) = 7.87546 25.93291 16.90419
#
# Velocity S-wave (km/s) = 1.99133 3.61352 2.91744
# Velocity P-wave (km/s) = 5.81508 6.80315 6.32843
#
# Compressibility (1/GPa) = 0.01764978
#
# Stress axis : x y z
#
# Youngs Moduli (GPa) = 85.06237 105.17920 92.35522
#
# Poissons Ratio (x) = 0.23689 0.23066
# Poissons Ratio (y) = 0.19158 0.22821
# Poissons Ratio (z) = 0.21245 0.25990
#
# Static dielectric constant tensor:
#      x y z
#    x 3.511770 0.000000 0.279490 
#    y 0.000000 3.780850 0.000000 
#    z 0.279490 0.000000 3.988480 
# 
# 
# High freq. dielectric constant tensor:
#      x y z
#    x 1.745310 0.000000 0.008260 
#    y 0.000000 1.784390 0.000000 
#    z 0.008260 0.000000 1.784920 
# 
# From -- ./inp_files/64111.got.cif
#   From: 2010.06.25/outbox.cif.g09.slc.cpg/sg12_33_cif.got.tgz:64111.got - 2010.06.28 00:19:55.
