data_PCOD8079927
_publ_section_title
;
Structure prediction by ZEFSAII (Michael W. Deem and Ramdas Pophale) SiO2 
 PCOD8079927
Probable space group: C 2/M
;
_chemical_formula_sum "Si O2"
_cell_formula_units_Z 56
_cell_length_a 28.087911
_cell_length_b 9.066100
_cell_length_c 13.955900
_cell_angle_alpha 90.000000
_cell_angle_beta 98.287919
_cell_angle_gamma 90.000000
_cell_volume 3516.723801
_symmetry_space_group_name_H-M "C 2/M"
_symmetry_group_IT_number 12
_symmetry_cell_setting 'monoclinic'
loop_
_space_group_symop_operation_xyz
x,y,z
-x,y,-z
-x,-y,-z
x,-y,z
1/2+x,1/2+y,z
1/2-x,1/2+y,-z
1/2-x,1/2-y,-z
1/2+x,1/2-y,z
loop_
_atom_site_type_symbol
_atom_site_label
_atom_site_fract_x
_atom_site_fract_y
_atom_site_fract_z
Si Si1 0.959989 0.675222 0.916118
Si Si2 0.240608 0.668151 0.093439
Si Si3 0.361406 0.826975 0.978892
Si Si4 0.518019 0.172712 0.289455
Si Si5 0.158413 0.826344 0.825526
Si Si6 0.587029 0.172878 0.663800
Si Si7 0.946469 0.833840 0.524295
O O1 0.962786 0.500000 0.915851
O O2 0.907748 0.730416 0.934912
O O3 0.970618 0.734639 0.812842
O O4 0.000000 0.739758 0.000000
O O5 0.246004 0.500000 0.066895
O O6 0.184855 0.700988 0.105837
O O7 0.284286 0.706713 0.179144
O O8 0.250000 0.750000 0.000000
O O9 0.366570 0.000000 0.006560
O O10 0.357144 0.737078 0.076011
O O11 0.462434 0.207516 0.295246
O O12 0.553714 0.256300 0.372279
O O13 0.528690 0.000000 0.302651
O O14 0.130390 0.745016 0.733832
O O15 0.146790 0.000000 0.819649
O O16 0.587158 0.242771 0.557867
O O17 0.595970 0.000000 0.656387
O O18 0.000000 0.832917 0.500000
O O19 0.926627 0.000000 0.528249
#
# Coordination Sequence:
#
# PCOD8079927 Si02
#       7
#     8   8   8   8   8   8   8
#     4   9  16  26  42  64  87 112 144 177 202 231
#     4   8  15  26  40  58  80 108 140 173 209 249
#     4   9  16  28  44  60  82 114 148 175 203 244
#     4   9  17  29  44  62  85 113 144 174 203 241
#     4  10  18  27  40  61  88 112 137 174 217 252
#     4  10  18  28  44  64  85 110 140 172 208 251
#     4   9  17  29  44  62  85 111 138 170 210 252
#
# _framework density 15.923912
#
# number of rings (size 3 to 8) (size 9 to 14) (size 15 to 20)
#    0.000    2.857    0.000    2.143    0.000    5.143 
#    0.000    0.714    0.000    1.714    0.000    1.000 
#    0.000    0.000    0.000    0.000    0.000    0.000 
#
# Total GULP energy -346946.413337 kJ/mol
# GULP energy per Si atom -12390.943333 kJ/mol
# Density = 1.588767 g / cm^3
# Si number density = 15.923912 Si / 1000 Ang^3
#
#
#
# Elastic Constant Matrix: (Units=GPa)
#
#
# Indices 1 2 3 4 5 6 
#
# 1 100.5114 35.5370 64.6160 0.0000 19.1676 0.0000
# 2 35.5370 65.4822 51.4057 0.0000 14.5680 0.0000
# 3 64.6160 51.4057 141.6656 0.0000 16.6912 0.0000
# 4 0.0000 0.0000 0.0000 25.4444 0.0000 6.0088
# 5 19.1676 14.5680 16.6912 0.0000 24.5912 0.0000
# 6 0.0000 0.0000 0.0000 6.0088 0.0000 14.2008
#
#
#
# Elastic Compliance Matrix: (Units=1/GPa)
#
#
# Indices 1 2 3 4 5 6 
#
# 1 0.015683 -0.002784 -0.005323 0.000000 -0.006962 0.000000
# 2 -0.002784 0.023416 -0.006357 0.000000 -0.007387 0.000000
# 3 -0.005323 -0.006357 0.011805 0.000000 -0.000098 0.000000
# 4 0.000000 0.000000 0.000000 0.043665 0.000000 -0.018476
# 5 -0.006962 -0.007387 -0.000098 0.000000 0.050534 0.000000
# 6 0.000000 0.000000 0.000000 -0.018476 0.000000 0.078236
#
#
# Mechanical properties :
#
#
# Convention : Reuss Voigt Hill
#
# Bulk Modulus (GPa) = 45.50180 67.86405 56.68292
# Shear Modulus (GPa) = 19.26109 23.25399 21.25754
#
# Velocity S-wave (km/s) = 3.48166 3.82556 3.65765
# Velocity P-wave (km/s) = 6.69322 7.88818 7.31514
#
# Compressibility (1/GPa) = 0.02197715
#
# Stress axis : x y z
#
# Youngs Moduli (GPa) = 63.76370 42.70635 84.71039
#
# Poissons Ratio (x) = 0.11887 0.45090
# Poissons Ratio (y) = 0.17749 0.53849
# Poissons Ratio (z) = 0.33941 0.27148
#
# Static dielectric constant tensor:
#      x y z
#    x 3.321440 0.000000 0.307840 
#    y 0.000000 2.987170 0.000000 
#    z 0.307840 0.000000 3.065650 
# 
# 
# High freq. dielectric constant tensor:
#      x y z
#    x 1.589860 0.000000 0.024720 
#    y 0.000000 1.608810 0.000000 
#    z 0.024720 0.000000 1.600210 
# 
# From -- ./inp_files/186443.got.cif
#   From: 2010.06.25/outbox.cif.g09.slc.cpg/sg12_94_cif.got.tgz:186443.got - 2010.06.28 00:19:55.
