data_PCOD8079502
_publ_section_title
;
Structure prediction by ZEFSAII (Michael W. Deem and Ramdas Pophale) SiO2 
 PCOD8079502
Probable space group: C 2/M
;
_chemical_formula_sum "Si O2"
_cell_formula_units_Z 48
_cell_length_a 12.744287
_cell_length_b 26.915595
_cell_length_c 9.745421
_cell_angle_alpha 90.000000
_cell_angle_beta 51.148721
_cell_angle_gamma 90.000000
_cell_volume 2603.353639
_symmetry_space_group_name_H-M "C 2/M"
_symmetry_group_IT_number 12
_symmetry_cell_setting 'monoclinic'
loop_
_space_group_symop_operation_xyz
x,y,z
-x,y,-z
-x,-y,-z
x,-y,z
1/2+x,1/2+y,z
1/2-x,1/2+y,-z
1/2-x,1/2-y,-z
1/2+x,1/2-y,z
loop_
_atom_site_type_symbol
_atom_site_label
_atom_site_fract_x
_atom_site_fract_y
_atom_site_fract_z
Si Si1 0.272382 0.139617 0.357206
Si Si2 0.288062 0.644835 0.905562
Si Si3 0.589418 0.444715 0.053402
Si Si4 0.536094 0.709105 0.624151
Si Si5 0.096641 0.945712 0.536700
Si Si6 0.021412 0.301628 0.142261
O O1 0.257465 0.129693 0.207820
O O2 0.182826 0.184122 0.494255
O O3 0.227163 0.087782 0.461764
O O4 0.428091 0.151184 0.258774
O O5 0.298133 0.596612 0.997688
O O6 0.433647 0.670194 0.777050
O O7 0.175136 0.683775 0.054465
O O8 0.653648 0.500000 0.971145
O O9 0.486253 0.451183 0.259601
O O10 0.500000 0.425532 0.000000
O O11 0.500000 0.725802 0.500000
O O12 0.534154 0.756506 0.722838
O O13 0.000000 0.920295 0.500000
O O14 0.144412 0.000000 0.444860
O O15 0.000000 0.287334 0.000000
#
# Coordination Sequence:
#
# PCOD8079502 Si02
#       6
#     8   8   8   8   8   8
#     4  10  18  34  54  79 105 134 174 216 255 299
#     4  10  19  35  54  77 106 138 171 213 259 305
#     4  10  20  34  54  82 107 131 170 217 259 303
#     4  10  19  35  54  74 102 138 181 219 249 295
#     4  10  17  31  57  80 100 132 174 213 252 304
#     4  10  22  35  51  75 110 141 170 211 261 311
#
# _framework density 18.437756
#
# number of rings (size 3 to 8) (size 9 to 14) (size 15 to 20)
#    0.000    2.000    3.333    1.500    0.000    0.667 
#    3.000    0.833    0.000    3.000    0.000    3.500 
#    0.000    0.000    0.000    0.000    0.000    0.000 
#
# Total GULP energy -297420.236787 kJ/mol
# GULP energy per Si atom -12392.509866 kJ/mol
# Density = 1.839579 g / cm^3
# Si number density = 18.437756 Si / 1000 Ang^3
#
#
#
# Elastic Constant Matrix: (Units=GPa)
#
#
# Indices 1 2 3 4 5 6 
#
# 1 55.8170 28.1651 29.6524 0.0000 1.6964 0.0000
# 2 28.1651 92.3553 26.6085 0.0000 9.7675 0.0000
# 3 29.6524 26.6085 64.3150 0.0000 -0.1697 0.0000
# 4 0.0000 0.0000 0.0000 24.0871 0.0000 6.9295
# 5 1.6964 9.7675 -0.1697 0.0000 22.0990 0.0000
# 6 0.0000 0.0000 0.0000 6.9295 0.0000 11.7060
#
#
#
# Elastic Compliance Matrix: (Units=1/GPa)
#
#
# Indices 1 2 3 4 5 6 
#
# 1 0.025616 -0.005028 -0.009730 0.000000 0.000181 0.000000
# 2 -0.005028 0.013979 -0.003481 0.000000 -0.005820 0.000000
# 3 -0.009730 -0.003481 0.021481 0.000000 0.002450 0.000000
# 4 0.000000 0.000000 0.000000 0.050037 0.000000 -0.029620
# 5 0.000181 -0.005820 0.002450 0.000000 0.047828 0.000000
# 6 0.000000 0.000000 0.000000 -0.029620 0.000000 0.102960
#
#
# Mechanical properties :
#
#
# Convention : Reuss Voigt Hill
#
# Bulk Modulus (GPa) = 40.65111 42.37104 41.51107
# Shear Modulus (GPa) = 16.30907 20.11585 18.21246
#
# Velocity S-wave (km/s) = 2.97736 3.30663 3.14631
# Velocity P-wave (km/s) = 5.82367 6.13261 5.98014
#
# Compressibility (1/GPa) = 0.02459958
#
# Stress axis : x y z
#
# Youngs Moduli (GPa) = 39.03795 71.53360 46.55306
#
# Poissons Ratio (x) = 0.35967 0.45294
# Poissons Ratio (y) = 0.19628 0.16204
# Poissons Ratio (z) = 0.37982 0.24900
#
# Static dielectric constant tensor:
#      x y z
#    x 3.233630 0.000000 -0.127300 
#    y 0.000000 3.643790 0.000000 
#    z -0.127300 0.000000 3.416670 
# 
# 
# High freq. dielectric constant tensor:
#      x y z
#    x 1.683760 0.000000 0.001730 
#    y 0.000000 1.719060 0.000000 
#    z 0.001730 0.000000 1.712100 
# 
# From -- ./inp_files/52420.got.cif
#   From: 2010.06.25/outbox.cif.g09.slc.cpg/sg12_27_cif.got.tgz:52420.got - 2010.06.28 00:19:55.
