data_PCOD8079976
_publ_section_title
;
Structure prediction by ZEFSAII (Michael W. Deem and Ramdas Pophale) SiO2 
 PCOD8079976
Probable space group: C 2/M
;
_chemical_formula_sum "Si O2"
_cell_formula_units_Z 56
_cell_length_a 24.096548
_cell_length_b 9.294341
_cell_length_c 22.386156
_cell_angle_alpha 90.000000
_cell_angle_beta 44.351534
_cell_angle_gamma 90.000000
_cell_volume 3504.827271
_symmetry_space_group_name_H-M "C 2/M"
_symmetry_group_IT_number 12
_symmetry_cell_setting 'monoclinic'
loop_
_space_group_symop_operation_xyz
x,y,z
-x,y,-z
-x,-y,-z
x,-y,z
1/2+x,1/2+y,z
1/2-x,1/2+y,-z
1/2-x,1/2-y,-z
1/2+x,1/2-y,z
loop_
_atom_site_type_symbol
_atom_site_label
_atom_site_fract_x
_atom_site_fract_y
_atom_site_fract_z
Si Si1 0.645014 0.840514 0.040571
Si Si2 0.172998 0.667442 0.486074
Si Si3 0.724032 0.161492 0.109344
Si Si4 0.528781 0.334539 0.543061
Si Si5 0.916883 0.167318 0.737935
Si Si6 0.325175 0.835787 0.376655
Si Si7 0.500367 0.833273 0.777152
O O1 0.685620 0.837017 0.073903
O O2 0.552652 0.797892 0.123100
O O3 0.651820 0.000000 0.007582
O O4 0.687930 0.731115 0.962290
O O5 0.175184 0.500000 0.469903
O O6 0.103410 0.737168 0.501607
O O7 0.257480 0.734485 0.401373
O O8 0.158144 0.700502 0.566986
O O9 0.668378 0.253449 0.196340
O O10 0.732665 0.000000 0.127668
O O11 0.500000 0.288843 0.500000
O O12 0.556450 0.500000 0.524084
O O13 0.455220 0.308137 0.643896
O O14 0.976209 0.232246 0.741109
O O15 0.903427 0.000000 0.763011
O O16 0.407365 0.806873 0.278057
O O17 0.296793 0.000000 0.391598
O O18 0.486348 0.000000 0.768535
#
# Coordination Sequence:
#
# PCOD8079976 Si02
#       7
#     8   8   8   8   8   8   8
#     4   8  14  23  36  55  80 109 141 172 205 247
#     4  10  19  30  46  66  87 113 148 185 221 260
#     4   9  16  25  37  53  79 111 141 173 210 253
#     4  10  21  35  48  63  86 116 150 188 228 265
#     4  10  18  27  42  60  80 109 146 182 217 258
#     4   9  17  29  45  64  90 118 145 178 218 263
#     4   9  16  27  42  61  86 115 144 176 212 254
#
# _framework density 15.977963000000001
#
# number of rings (size 3 to 8) (size 9 to 14) (size 15 to 20)
#    0.000    2.714    1.429    2.143    0.000    5.429 
#    0.000    0.000    0.000    0.000    0.000    0.000 
#    0.000    1.143    0.000   13.143    0.000    5.429 
#
# Total GULP energy -347126.388589 kJ/mol
# GULP energy per Si atom -12397.371021 kJ/mol
# Density = 1.594160 g / cm^3
# Si number density = 15.977963 Si / 1000 Ang^3
#
#
#
# Elastic Constant Matrix: (Units=GPa)
#
#
# Indices 1 2 3 4 5 6 
#
# 1 64.1236 52.1762 50.3605 0.0003 -17.6432 0.0000
# 2 52.1762 113.8132 64.7612 0.0016 -17.7925 -0.0011
# 3 50.3605 64.7612 102.4344 -0.0007 -32.4820 0.0001
# 4 0.0003 0.0016 -0.0007 23.2572 -0.0001 -8.0653
# 5 -17.6432 -17.7925 -32.4820 -0.0001 26.1878 0.0000
# 6 0.0000 -0.0011 0.0001 -8.0653 0.0000 20.8824
#
#
#
# Elastic Compliance Matrix: (Units=1/GPa)
#
#
# Indices 1 2 3 4 5 6 
#
# 1 0.030020 -0.008553 -0.007880 0.000000 0.004640 0.000000
# 2 -0.008553 0.016250 -0.007244 -0.000001 -0.003707 0.000000
# 3 -0.007880 -0.007244 0.024679 0.000002 0.020379 0.000000
# 4 0.000000 -0.000001 0.000002 0.049647 0.000001 0.019175
# 5 0.004640 -0.003707 0.020379 0.000001 0.064071 0.000000
# 6 0.000000 0.000000 0.000000 0.019175 0.000000 0.055293
#
#
# Mechanical properties :
#
#
# Convention : Reuss Voigt Hill
#
# Bulk Modulus (GPa) = 42.38393 68.32966 55.35679
# Shear Modulus (GPa) = 16.93898 21.60370 19.27134
#
# Velocity S-wave (km/s) = 3.25952 3.68107 3.47669
# Velocity P-wave (km/s) = 6.38358 7.80544 7.13004
#
# Compressibility (1/GPa) = 0.02359385
#
# Stress axis : x y z
#
# Youngs Moduli (GPa) = 33.31163 61.53980 40.52081
#
# Poissons Ratio (x) = 0.52634 0.31931
# Poissons Ratio (y) = 0.28491 0.29353
# Poissons Ratio (z) = 0.26250 0.44579
#
# Static dielectric constant tensor:
#      x y z
#    x 2.617480 0.000000 -0.388170 
#    y 0.000000 3.178620 0.000000 
#    z -0.388170 0.000000 3.206350 
# 
# 
# High freq. dielectric constant tensor:
#      x y z
#    x 1.555740 0.000000 -0.041140 
#    y 0.000000 1.625420 0.000000 
#    z -0.041140 0.000000 1.611080 
# 
# From -- ./inp_files/323543.got.cif
#   From: 2010.06.25/outbox.cif.g09.slc.cpg/sg12_162_cif.got.tgz:323543.got - 2010.06.28 00:19:55.
