data_PCOD8079974
_publ_section_title
;
Structure prediction by ZEFSAII (Michael W. Deem and Ramdas Pophale) SiO2 
 PCOD8079974
Probable space group: C 2/M
;
_chemical_formula_sum "Si O2"
_cell_formula_units_Z 64
_cell_length_a 25.280479
_cell_length_b 9.045323
_cell_length_c 19.330750
_cell_angle_alpha 90.000000
_cell_angle_beta 63.683640
_cell_angle_gamma 90.000000
_cell_volume 3962.237398
_symmetry_space_group_name_H-M "C 2/M"
_symmetry_group_IT_number 12
_symmetry_cell_setting 'monoclinic'
loop_
_space_group_symop_operation_xyz
x,y,z
-x,y,-z
-x,-y,-z
x,-y,z
1/2+x,1/2+y,z
1/2-x,1/2+y,-z
1/2-x,1/2-y,-z
1/2+x,1/2-y,z
loop_
_atom_site_type_symbol
_atom_site_label
_atom_site_fract_x
_atom_site_fract_y
_atom_site_fract_z
Si Si1 0.243317 0.326161 0.835134
Si Si2 0.305250 0.170181 0.998508
Si Si3 0.747810 0.827816 0.307353
Si Si4 0.883711 0.324539 0.590144
Si Si5 0.799295 0.826558 0.424894
Si Si6 0.541923 0.174790 0.325408
Si Si7 0.589019 0.175702 0.579741
Si Si8 0.142226 0.326609 0.167886
O O1 0.251538 0.500000 0.820686
O O2 0.190752 0.289003 0.922047
O O3 0.223139 0.255917 0.774476
O O4 0.305394 0.259318 0.824323
O O5 0.289862 0.000000 0.001842
O O6 0.250000 0.250000 0.000000
O O7 0.359829 0.206898 0.914540
O O8 0.682059 0.764686 0.357946
O O9 0.786757 0.795080 0.351927
O O10 0.745915 0.000000 0.290794
O O11 0.882948 0.500000 0.592934
O O12 0.927642 0.259625 0.622924
O O13 0.905217 0.271433 0.502793
O O14 0.750000 0.750000 0.500000
O O15 0.863081 0.758540 0.401988
O O16 0.798180 0.000000 0.442136
O O17 0.474935 0.230753 0.356509
O O18 0.579675 0.224039 0.236316
O O19 0.540221 0.000000 0.334274
O O20 0.598238 0.000000 0.581554
O O21 0.152566 0.500000 0.176687
#
# Coordination Sequence:
#
# PCOD8079974 Si02
#       8
#     8   8   8   8   8   8   8   8
#     4  10  18  27  41  67  96 121 150 191 236 272
#     4   8  15  25  39  61  92 123 151 183 224 271
#     4  10  19  32  49  66  87 122 159 188 225 276
#     4   9  15  27  46  68  91 118 153 187 219 263
#     4  11  22  36  52  69  90 119 156 195 235 275
#     4   9  16  26  47  72  92 120 159 189 217 263
#     4  10  19  32  49  70  93 120 155 195 228 265
#     4   9  15  27  45  65  92 128 159 183 217 274
#
# _framework density 16.152491000000001
#
# number of rings (size 3 to 8) (size 9 to 14) (size 15 to 20)
#    0.000    2.500    2.500    1.125    0.000    3.000 
#    0.000    0.625    0.000    0.750    0.000    0.875 
#    0.000    7.000    0.000    0.000    0.000    0.000 
#
# Total GULP energy -396501.050362 kJ/mol
# GULP energy per Si atom -12390.657824 kJ/mol
# Density = 1.611573 g / cm^3
# Si number density = 16.152491 Si / 1000 Ang^3
#
#
#
# Elastic Constant Matrix: (Units=GPa)
#
#
# Indices 1 2 3 4 5 6 
#
# 1 108.1940 30.1128 67.1664 0.0000 -1.4326 0.0000
# 2 30.1128 42.4784 46.2172 0.0002 4.0618 0.0004
# 3 67.1664 46.2172 164.8853 0.0000 -6.1881 0.0000
# 4 0.0000 0.0002 0.0000 21.9536 0.0000 3.1190
# 5 -1.4326 4.0618 -6.1881 0.0000 14.9165 0.0000
# 6 0.0000 0.0004 0.0000 3.1190 0.0000 19.7132
#
#
#
# Elastic Compliance Matrix: (Units=1/GPa)
#
#
# Indices 1 2 3 4 5 6 
#
# 1 0.013085 -0.005216 -0.003827 0.000000 0.001089 0.000000
# 2 -0.005216 0.038796 -0.009310 0.000000 -0.014927 -0.000001
# 3 -0.003827 -0.009310 0.010478 0.000000 0.006514 0.000000
# 4 0.000000 0.000000 0.000000 0.046598 0.000000 -0.007373
# 5 0.001089 -0.014927 0.006514 0.000000 0.073912 0.000000
# 6 0.000000 -0.000001 0.000000 -0.007373 0.000000 0.051894
#
#
# Mechanical properties :
#
#
# Convention : Reuss Voigt Hill
#
# Bulk Modulus (GPa) = 38.98281 66.95006 52.96643
# Shear Modulus (GPa) = 17.85595 22.78740 20.32168
#
# Velocity S-wave (km/s) = 3.32845 3.76009 3.55084
# Velocity P-wave (km/s) = 6.24164 7.77109 7.04798
#
# Compressibility (1/GPa) = 0.02565233
#
# Stress axis : x y z
#
# Youngs Moduli (GPa) = 76.42542 25.77612 95.43884
#
# Poissons Ratio (x) = 0.13444 0.36527
# Poissons Ratio (y) = 0.39861 0.88853
# Poissons Ratio (z) = 0.29250 0.23997
#
# Static dielectric constant tensor:
#      x y z
#    x 2.916390 0.000000 -0.124380 
#    y 0.000000 2.831930 0.000000 
#    z -0.124380 0.000000 3.651950 
# 
# 
# High freq. dielectric constant tensor:
#      x y z
#    x 1.582220 0.000000 -0.004420 
#    y 0.000000 1.601140 0.000000 
#    z -0.004420 0.000000 1.637770 
# 
# From -- ./inp_files/287540.got.cif
#   From: 2010.06.25/outbox.cif.g09.slc.cpg/sg12_144_cif.got.tgz:287540.got - 2010.06.28 00:19:55.
