data_PCOD8079423
_publ_section_title
;
Structure prediction by ZEFSAII (Michael W. Deem and Ramdas Pophale) SiO2 
 PCOD8079423
Probable space group: C 2/M
;
_chemical_formula_sum "Si O2"
_cell_formula_units_Z 64
_cell_length_a 29.371227
_cell_length_b 9.155092
_cell_length_c 22.363039
_cell_angle_alpha 90.000000
_cell_angle_beta 31.405299
_cell_angle_gamma 90.000000
_cell_volume 3133.481761
_symmetry_space_group_name_H-M "C 2/M"
_symmetry_group_IT_number 12
_symmetry_cell_setting 'monoclinic'
loop_
_space_group_symop_operation_xyz
x,y,z
-x,y,-z
-x,-y,-z
x,-y,z
1/2+x,1/2+y,z
1/2-x,1/2+y,-z
1/2-x,1/2-y,-z
1/2+x,1/2-y,z
loop_
_atom_site_type_symbol
_atom_site_label
_atom_site_fract_x
_atom_site_fract_y
_atom_site_fract_z
Si Si1 0.750446 0.163309 0.165114
Si Si2 0.977520 0.336841 0.110057
Si Si3 0.861088 0.271731 0.140711
Si Si4 0.812039 0.328163 0.477324
Si Si5 0.201023 0.843254 0.392807
Si Si6 0.995112 0.671856 0.222223
Si Si7 0.098366 0.830176 0.396570
Si Si8 0.689219 0.825768 0.019262
O O1 0.816433 0.149402 0.148370
O O2 0.657825 0.230654 0.287539
O O3 0.789498 0.266390 0.070211
O O4 0.735651 0.000000 0.156797
O O5 0.934137 0.500000 0.160191
O O6 0.981951 0.262356 0.170319
O O7 0.920087 0.226095 0.132632
O O8 0.074599 0.361581 0.974756
O O9 0.781772 0.364284 0.256724
O O10 0.800274 0.500000 0.483072
O O11 0.750000 0.250000 0.500000
O O12 0.783649 0.281708 0.575526
O O13 0.913219 0.279267 0.354678
O O14 0.118565 0.803765 0.444012
O O15 0.186763 0.000000 0.441119
O O16 0.996357 0.500000 0.211742
O O17 0.087929 0.718905 0.146859
O O18 0.000000 0.776279 0.500000
O O19 0.110665 0.000000 0.364851
O O20 0.702941 0.000000 0.005591
O O21 0.750000 0.750000 0.000000
#
# Coordination Sequence:
#
# PCOD8079423 Si02
#       8
#     8   8   8   8   8   8   8   8
#     4  11  23  39  59  87 126 162 196 242 303 372
#     4  10  17  30  58  90 115 147 199 247 294 353
#     4  10  19  32  56  86 119 154 192 237 289 349
#     4  11  23  40  61  85 118 160 206 251 301 360
#     4  10  20  35  57  85 119 154 195 241 294 357
#     4   9  20  38  61  87 117 157 207 253 297 362
#     4   9  20  39  63  90 118 154 203 254 304 354
#     4  11  23  42  66  89 117 155 205 261 314 366
#
# _framework density 20.424565000000001
#
# number of rings (size 3 to 8) (size 9 to 14) (size 15 to 20)
#    0.000    1.875    1.250    3.375    0.000    6.250 
#    0.000    6.250    0.000    0.000    0.000    0.000 
#    0.000    0.000    0.000    0.000    0.000    0.000 
#
# Total GULP energy -396448.342730 kJ/mol
# GULP energy per Si atom -12389.010710 kJ/mol
# Density = 2.037808 g / cm^3
# Si number density = 20.424565 Si / 1000 Ang^3
#
#
#
# Elastic Constant Matrix: (Units=GPa)
#
#
# Indices 1 2 3 4 5 6 
#
# 1 116.6698 37.7099 51.7438 -0.0022 -15.4521 0.0026
# 2 37.7099 89.7768 41.0858 -0.0027 -5.0882 0.0023
# 3 51.7438 41.0858 109.7345 -0.0037 -15.3937 0.0023
# 4 -0.0022 -0.0027 -0.0037 19.2656 0.0014 0.8813
# 5 -15.4521 -5.0882 -15.3937 0.0014 36.3267 -0.0013
# 6 0.0026 0.0023 0.0023 0.8813 -0.0013 27.7331
#
#
#
# Elastic Compliance Matrix: (Units=1/GPa)
#
#
# Indices 1 2 3 4 5 6 
#
# 1 0.011668 -0.002902 -0.004015 0.000000 0.002855 0.000000
# 2 -0.002902 0.014166 -0.004073 0.000001 -0.000976 -0.000001
# 3 -0.004015 -0.004073 0.012983 0.000001 0.003223 0.000000
# 4 0.000000 0.000001 0.000001 0.051982 -0.000001 -0.001652
# 5 0.002855 -0.000976 0.003223 -0.000001 0.029972 0.000001
# 6 0.000000 -0.000001 0.000000 -0.001652 0.000001 0.036110
#
#
# Mechanical properties :
#
#
# Convention : Reuss Voigt Hill
#
# Bulk Modulus (GPa) = 59.38702 64.14001 61.76351
# Shear Modulus (GPa) = 27.10440 29.04120 28.07280
#
# Velocity S-wave (km/s) = 3.64682 3.77487 3.71140
# Velocity P-wave (km/s) = 6.84630 7.10430 6.97649
#
# Compressibility (1/GPa) = 0.01683870
#
# Stress axis : x y z
#
# Youngs Moduli (GPa) = 85.70536 70.59126 77.02369
#
# Poissons Ratio (x) = 0.20484 0.30924
# Poissons Ratio (y) = 0.24870 0.31368
# Poissons Ratio (z) = 0.34409 0.28748
#
# Static dielectric constant tensor:
#      x y z
#    x 3.935510 -0.000010 -0.144190 
#    y -0.000010 3.288930 0.000010 
#    z -0.144190 0.000010 3.932560 
# 
# 
# High freq. dielectric constant tensor:
#      x y z
#    x 1.805080 0.000000 -0.008580 
#    y 0.000000 1.761430 0.000000 
#    z -0.008580 0.000000 1.804330 
# 
# From -- ./inp_files/353304.got.cif
#   From: 2010.06.25/outbox.cif.g09.slc.cpg/sg12_177_cif.got.tgz:353304.got - 2010.06.28 00:19:55.
