data_PCOD8079103
_publ_section_title
;
Structure prediction by ZEFSAII (Michael W. Deem and Ramdas Pophale) SiO2 
 PCOD8079103
Probable space group: C 2/M
;
_chemical_formula_sum "Si O2"
_cell_formula_units_Z 56
_cell_length_a 17.987687
_cell_length_b 22.480804
_cell_length_c 8.743059
_cell_angle_alpha 90.000000
_cell_angle_beta 82.223803
_cell_angle_gamma 90.000000
_cell_volume 3502.985837
_symmetry_space_group_name_H-M "C 2/M"
_symmetry_group_IT_number 12
_symmetry_cell_setting 'monoclinic'
loop_
_space_group_symop_operation_xyz
x,y,z
-x,y,-z
-x,-y,-z
x,-y,z
1/2+x,1/2+y,z
1/2-x,1/2+y,-z
1/2-x,1/2-y,-z
1/2+x,1/2-y,z
loop_
_atom_site_type_symbol
_atom_site_label
_atom_site_fract_x
_atom_site_fract_y
_atom_site_fract_z
Si Si1 0.414851 0.775512 0.491737
Si Si2 0.300143 0.338714 0.038002
Si Si3 0.690431 0.753374 0.207166
Si Si4 0.281372 0.168189 0.385533
Si Si5 0.849761 0.834854 0.354321
Si Si6 0.790140 0.930944 0.790204
Si Si7 0.416559 0.432359 0.524313
O O1 0.500000 0.795283 0.500000
O O2 0.379595 0.767960 0.668369
O O3 0.368929 0.825920 0.408825
O O4 0.409180 0.713818 0.399282
O O5 0.219302 0.312282 0.112057
O O6 0.352782 0.341557 0.171408
O O7 0.339748 0.294454 0.907112
O O8 0.288786 0.403123 0.961203
O O9 0.760198 0.722537 0.278021
O O10 0.233460 0.178257 0.554890
O O11 0.266695 0.105085 0.306275
O O12 0.870484 0.899538 0.407698
O O13 0.874729 0.924864 0.699517
O O14 0.764863 0.000000 0.804526
O O15 0.500000 0.405229 0.500000
O O16 0.419287 0.500000 0.470659
#
# Coordination Sequence:
#
# PCOD8079103 Si02
#       7
#     8   8   8   8   8   8   8
#     4  11  19  30  48  72  97 121 156 195 232 274
#     4  10  17  28  51  67  98 121 152 189 228 275
#     4   9  17  31  48  69  93 127 150 181 240 280
#     4   9  16  32  51  67  92 125 157 193 229 267
#     4  10  17  29  49  72  92 126 161 190 219 273
#     4   9  19  32  50  72  91 121 160 194 230 273
#     4   9  18  33  48  64  93 130 162 192 225 262
#
# _framework density 15.986362
#
# number of rings (size 3 to 8) (size 9 to 14) (size 15 to 20)
#    0.000    2.429    2.857    2.143    0.000    0.571 
#    0.000    2.857    0.000    3.000    0.000    1.000 
#    0.000    0.000    0.000    0.000    0.000    0.000 
#
# Total GULP energy -347036.548197 kJ/mol
# GULP energy per Si atom -12394.162436 kJ/mol
# Density = 1.594998 g / cm^3
# Si number density = 15.986362 Si / 1000 Ang^3
#
#
#
# Elastic Constant Matrix: (Units=GPa)
#
#
# Indices 1 2 3 4 5 6 
#
# 1 98.1736 37.0187 35.3909 0.0000 5.5106 0.0000
# 2 37.0187 93.1840 43.9044 0.0000 -0.3761 0.0000
# 3 35.3909 43.9044 111.7267 0.0000 4.5300 0.0000
# 4 0.0000 0.0000 0.0000 25.0557 0.0000 -0.5178
# 5 5.5106 -0.3761 4.5300 0.0000 14.4969 0.0000
# 6 0.0000 0.0000 0.0000 -0.5178 0.0000 16.9568
#
#
#
# Elastic Compliance Matrix: (Units=1/GPa)
#
#
# Indices 1 2 3 4 5 6 
#
# 1 0.012762 -0.004005 -0.002297 0.000000 -0.004237 0.000000
# 2 -0.004005 0.014483 -0.004557 0.000000 0.003322 0.000000
# 3 -0.002297 -0.004557 0.011585 0.000000 -0.002865 0.000000
# 4 0.000000 0.000000 0.000000 0.039936 0.000000 0.001220
# 5 -0.004237 0.003322 -0.002865 0.000000 0.071573 0.000000
# 6 0.000000 0.000000 0.000000 0.001220 0.000000 0.059011
#
#
# Mechanical properties :
#
#
# Convention : Reuss Voigt Hill
#
# Bulk Modulus (GPa) = 58.43929 59.52360 58.98145
# Shear Modulus (GPa) = 21.11735 23.75321 22.43528
#
# Velocity S-wave (km/s) = 3.63844 3.85884 3.75026
# Velocity P-wave (km/s) = 7.36791 7.56102 7.46509
#
# Compressibility (1/GPa) = 0.01711177
#
# Stress axis : x y z
#
# Youngs Moduli (GPa) = 78.35746 69.04604 86.31772
#
# Poissons Ratio (x) = 0.27651 0.19827
# Poissons Ratio (y) = 0.31380 0.39339
# Poissons Ratio (z) = 0.17999 0.31467
#
# Static dielectric constant tensor:
#      x y z
#    x 2.793730 0.000000 -0.020280 
#    y 0.000000 3.003040 0.000000 
#    z -0.020280 0.000000 3.165590 
# 
# 
# High freq. dielectric constant tensor:
#      x y z
#    x 1.577460 0.000000 0.002070 
#    y 0.000000 1.606370 0.000000 
#    z 0.002070 0.000000 1.622410 
# 
# From -- ./inp_files/76873.got.cif
#   From: 2010.06.25/outbox.cif.g09.slc.cpg/sg12_39_cif.got.tgz:76873.got - 2010.06.28 00:19:55.
