data_PCOD8079016
_publ_section_title
;
Structure prediction by ZEFSAII (Michael W. Deem and Ramdas Pophale) SiO2 
 PCOD8079016
Probable space group: C 2/M
;
_chemical_formula_sum "Si O2"
_cell_formula_units_Z 64
_cell_length_a 23.671730
_cell_length_b 12.468628
_cell_length_c 23.472799
_cell_angle_alpha 90.000000
_cell_angle_beta 148.361706
_cell_angle_gamma 90.000000
_cell_volume 3634.164784
_symmetry_space_group_name_H-M "C 2/M"
_symmetry_group_IT_number 12
_symmetry_cell_setting 'monoclinic'
loop_
_space_group_symop_operation_xyz
x,y,z
-x,y,-z
-x,-y,-z
x,-y,z
1/2+x,1/2+y,z
1/2-x,1/2+y,-z
1/2-x,1/2-y,-z
1/2+x,1/2-y,z
loop_
_atom_site_type_symbol
_atom_site_label
_atom_site_fract_x
_atom_site_fract_y
_atom_site_fract_z
Si Si1 0.115759 0.123306 0.259891
Si Si2 0.513166 0.377781 0.444523
Si Si3 0.480915 0.879660 0.304865
Si Si4 0.315162 0.745304 0.225193
Si Si5 0.928024 0.756939 0.157304
Si Si6 0.261033 0.873637 0.944730
Si Si7 0.754312 0.119316 0.732833
Si Si8 0.658066 0.809370 0.540674
O O1 0.133138 0.128573 0.205967
O O2 0.219260 0.182995 0.378065
O O3 0.006357 0.182541 0.181354
O O4 0.111697 0.000000 0.277242
O O5 0.500000 0.361603 0.500000
O O6 0.534699 0.500000 0.446149
O O7 0.404007 0.339738 0.321230
O O8 0.615602 0.312528 0.508471
O O9 0.371912 0.846078 0.243676
O O10 0.498782 0.800518 0.266810
O O11 0.581736 0.876836 0.433859
O O12 0.465645 0.000000 0.269295
O O13 0.235340 0.684724 0.113534
O O14 0.246121 0.791478 0.218380
O O15 0.849039 0.844789 0.117035
O O16 0.862877 0.665917 0.068022
O O17 0.268900 0.000000 0.942977
O O18 0.656895 0.139391 0.603628
O O19 0.741187 0.000000 0.747544
#
# Coordination Sequence:
#
# PCOD8079016 Si02
#       8
#     8   8   8   8   8   8   8   8
#     4   9  18  35  57  78 106 141 170 210 265 318
#     4  10  17  28  46  72 107 143 177 211 247 296
#     4  10  19  31  51  80 110 140 173 216 261 302
#     4  10  19  32  52  79 106 141 177 216 259 315
#     4  10  21  36  57  79 102 134 179 226 262 312
#     4  10  21  38  57  77 102 136 177 224 272 309
#     4   9  17  32  53  78 109 140 169 210 259 313
#     4   9  18  32  50  78 110 141 174 205 257 320
#
# _framework density 17.610648999999999
#
# number of rings (size 3 to 8) (size 9 to 14) (size 15 to 20)
#    0.750    1.625    1.250    2.250    0.000    0.500 
#    0.000    6.250    0.000    2.250    0.000    0.000 
#    0.000    0.000    0.000    0.000    0.000    0.000 
#
# Total GULP energy -396625.800844 kJ/mol
# GULP energy per Si atom -12394.556276 kJ/mol
# Density = 1.757057 g / cm^3
# Si number density = 17.610649 Si / 1000 Ang^3
#
#
#
# Elastic Constant Matrix: (Units=GPa)
#
#
# Indices 1 2 3 4 5 6 
#
# 1 85.6455 53.2681 40.1688 0.0000 1.2979 0.0000
# 2 53.2681 116.2344 37.3016 0.0000 7.7256 0.0000
# 3 40.1688 37.3016 60.4486 0.0000 -11.1394 0.0000
# 4 0.0000 0.0000 0.0000 13.7444 0.0000 -3.3301
# 5 1.2979 7.7256 -11.1394 0.0000 24.4887 0.0000
# 6 0.0000 0.0000 0.0000 -3.3301 0.0000 17.1588
#
#
#
# Elastic Compliance Matrix: (Units=1/GPa)
#
#
# Indices 1 2 3 4 5 6 
#
# 1 0.020260 -0.005522 -0.010841 0.000000 -0.004263 0.000000
# 2 -0.005522 0.013450 -0.005849 0.000000 -0.006611 0.000000
# 3 -0.010841 -0.005849 0.030345 0.000000 0.016223 0.000000
# 4 0.000000 0.000000 0.000000 0.076347 0.000000 0.014817
# 5 -0.004263 -0.006611 0.016223 0.000000 0.050526 0.000000
# 6 0.000000 0.000000 0.000000 0.014817 0.000000 0.061155
#
#
# Mechanical properties :
#
#
# Convention : Reuss Voigt Hill
#
# Bulk Modulus (GPa) = 50.93642 58.20061 54.56851
# Shear Modulus (GPa) = 16.49888 19.85103 18.17496
#
# Velocity S-wave (km/s) = 3.06415 3.36105 3.21603
# Velocity P-wave (km/s) = 6.44245 6.94136 6.69655
#
# Compressibility (1/GPa) = 0.01963232
#
# Stress axis : x y z
#
# Youngs Moduli (GPa) = 49.35898 74.34724 32.95412
#
# Poissons Ratio (x) = 0.41058 0.35724
# Poissons Ratio (y) = 0.27258 0.19273
# Poissons Ratio (z) = 0.53508 0.43482
#
# Static dielectric constant tensor:
#      x y z
#    x 3.108020 0.000000 -0.164840 
#    y 0.000000 3.195710 0.000000 
#    z -0.164840 0.000000 3.148130 
# 
# 
# High freq. dielectric constant tensor:
#      x y z
#    x 1.660610 0.000000 -0.013770 
#    y 0.000000 1.686000 0.000000 
#    z -0.013770 0.000000 1.668710 
# 
# From -- ./inp_files/351789.got.cif
#   From: 2010.06.25/outbox.cif.g09.slc.cpg/sg12_176_cif.got.tgz:351789.got - 2010.06.28 00:19:55.
