data_PCOD8079643
_publ_section_title
;
Structure prediction by ZEFSAII (Michael W. Deem and Ramdas Pophale) SiO2 
 PCOD8079643
Probable space group: C 2/M
;
_chemical_formula_sum "Si O2"
_cell_formula_units_Z 48
_cell_length_a 16.124555
_cell_length_b 17.493102
_cell_length_c 16.191793
_cell_angle_alpha 90.000000
_cell_angle_beta 145.201926
_cell_angle_gamma 90.000000
_cell_volume 2606.433813
_symmetry_space_group_name_H-M "C 2/M"
_symmetry_group_IT_number 12
_symmetry_cell_setting 'monoclinic'
loop_
_space_group_symop_operation_xyz
x,y,z
-x,y,-z
-x,-y,-z
x,-y,z
1/2+x,1/2+y,z
1/2-x,1/2+y,-z
1/2-x,1/2-y,-z
1/2+x,1/2-y,z
loop_
_atom_site_type_symbol
_atom_site_label
_atom_site_fract_x
_atom_site_fract_y
_atom_site_fract_z
Si Si1 0.117353 0.707331 0.436902
Si Si2 0.526252 0.695264 0.928812
Si Si3 0.551007 0.586979 0.801221
Si Si4 0.257009 0.413967 0.459050
Si Si5 0.754115 0.210458 0.320181
Si Si6 0.816873 0.215458 0.183813
O O1 0.250000 0.750000 0.500000
O O2 0.136031 0.619171 0.424593
O O3 0.142091 0.723821 0.554472
O O4 0.962335 0.737722 0.280096
O O5 0.508968 0.622475 0.855418
O O6 0.411395 0.761286 0.814023
O O7 0.500000 0.664758 0.000000
O O8 0.683796 0.732737 0.045953
O O9 0.604075 0.500000 0.857571
O O10 0.414121 0.590497 0.628895
O O11 0.680187 0.636146 0.864746
O O12 0.210824 0.500000 0.400851
O O13 0.263090 0.368327 0.378015
O O14 0.810561 0.194676 0.274892
#
# Coordination Sequence:
#
# PCOD8079643 Si02
#       6
#     8   8   8   8   8   8
#     4  10  17  33  55  77 107 141 183 219 259 313
#     4  10  22  39  58  81 107 146 189 227 266 321
#     4  11  21  35  55  82 113 145 179 225 276 326
#     4  10  20  34  56  83 114 145 177 224 276 324
#     4  10  19  36  58  81 110 143 183 225 270 318
#     4  11  21  35  58  85 109 142 185 227 268 326
#
# _framework density 18.415966999999998
#
# number of rings (size 3 to 8) (size 9 to 14) (size 15 to 20)
#    0.000    1.667    5.000    2.000    0.000    1.000 
#    0.000    5.000    0.000    6.000    0.000    0.000 
#    0.000    0.000    0.000    0.000    0.000    0.000 
#
# Total GULP energy -297553.113665 kJ/mol
# GULP energy per Si atom -12398.046403 kJ/mol
# Density = 1.837405 g / cm^3
# Si number density = 18.415967 Si / 1000 Ang^3
#
#
#
# Elastic Constant Matrix: (Units=GPa)
#
#
# Indices 1 2 3 4 5 6 
#
# 1 94.8112 56.4641 24.3675 -0.0007 -2.7015 -0.0004
# 2 56.4641 113.2462 22.9302 -0.0015 -6.5894 -0.0006
# 3 24.3675 22.9302 69.4135 -0.0023 7.7478 -0.0012
# 4 -0.0007 -0.0015 -0.0023 18.0361 -0.0018 -4.4550
# 5 -2.7015 -6.5894 7.7478 -0.0018 36.8930 -0.0008
# 6 -0.0004 -0.0006 -0.0012 -4.4550 -0.0008 16.9271
#
#
#
# Elastic Compliance Matrix: (Units=1/GPa)
#
#
# Indices 1 2 3 4 5 6 
#
# 1 0.015617 -0.007108 -0.003195 0.000000 0.000545 0.000000
# 2 -0.007108 0.012911 -0.002016 0.000001 0.002209 0.000000
# 3 -0.003195 -0.002016 0.016651 0.000002 -0.004091 0.000001
# 4 0.000000 0.000001 0.000002 0.059299 0.000003 0.015607
# 5 0.000545 0.002209 -0.004091 0.000003 0.028399 0.000002
# 6 0.000000 0.000000 0.000001 0.015607 0.000002 0.063184
#
#
# Mechanical properties :
#
#
# Convention : Reuss Voigt Hill
#
# Bulk Modulus (GPa) = 48.68548 53.88828 51.28688
# Shear Modulus (GPa) = 21.97349 25.95186 23.96268
#
# Velocity S-wave (km/s) = 3.45799 3.75801 3.61111
# Velocity P-wave (km/s) = 6.51441 6.93941 6.73026
#
# Compressibility (1/GPa) = 0.02054000
#
# Stress axis : x y z
#
# Youngs Moduli (GPa) = 64.03246 77.45250 60.05719
#
# Poissons Ratio (x) = 0.55053 0.19189
# Poissons Ratio (y) = 0.45514 0.12110
# Poissons Ratio (z) = 0.20459 0.15618
#
# Static dielectric constant tensor:
#      x y z
#    x 3.579430 0.000000 -0.159250 
#    y 0.000000 3.637470 0.000000 
#    z -0.159250 0.000000 3.488570 
# 
# 
# High freq. dielectric constant tensor:
#      x y z
#    x 1.719440 0.000000 -0.010610 
#    y 0.000000 1.693350 0.000000 
#    z -0.010610 0.000000 1.718430 
# 
# From -- ./inp_files/278612.got.cif
#   From: 2010.06.25/outbox.cif.g09.slc.cpg/sg12_140_cif.got.tgz:278612.got - 2010.06.28 00:19:55.
