data_PCOD8079151
_publ_section_title
;
Structure prediction by ZEFSAII (Michael W. Deem and Ramdas Pophale) SiO2 
 PCOD8079151
Probable space group: C 2/M
;
_chemical_formula_sum "Si O2"
_cell_formula_units_Z 40
_cell_length_a 20.728908
_cell_length_b 9.685530
_cell_length_c 13.384955
_cell_angle_alpha 90.000000
_cell_angle_beta 126.984884
_cell_angle_gamma 90.000000
_cell_volume 2146.602660
_symmetry_space_group_name_H-M "C 2/M"
_symmetry_group_IT_number 12
_symmetry_cell_setting 'monoclinic'
loop_
_space_group_symop_operation_xyz
x,y,z
-x,y,-z
-x,-y,-z
x,-y,z
1/2+x,1/2+y,z
1/2-x,1/2+y,-z
1/2-x,1/2-y,-z
1/2+x,1/2-y,z
loop_
_atom_site_type_symbol
_atom_site_label
_atom_site_fract_x
_atom_site_fract_y
_atom_site_fract_z
Si Si1 0.934693 0.500000 0.143232
Si Si2 0.408803 0.500000 0.934851
Si Si3 0.919504 0.500000 0.361432
Si Si4 0.856593 0.712307 0.936007
Si Si5 0.290556 0.500000 0.651603
Si Si6 0.104269 0.500000 0.189387
Si Si7 0.211553 0.000000 0.579789
Si Si8 0.299722 0.769363 0.319635
O O1 0.943669 0.500000 0.269146
O O2 0.026882 0.500000 0.189042
O O3 0.881586 0.632018 0.059554
O O4 0.385252 0.367849 0.977608
O O5 0.371549 0.500000 0.790418
O O6 0.500000 0.500000 0.000000
O O7 0.871245 0.358886 0.338628
O O8 0.000000 0.500000 0.500000
O O9 0.900651 0.636314 0.884078
O O10 0.760433 0.718830 0.825164
O O11 0.315220 0.500000 0.559603
O O12 0.242547 0.361963 0.635138
O O13 0.190114 0.500000 0.327066
O O14 0.171067 0.132201 0.595943
#
# Coordination Sequence:
#
# PCOD8079151 Si02
#       8
#     4   4   4   8   4   4   4   8
#     4  11  21  36  61  86 114 157 194 224 289 349
#     4  10  17  29  46  79 123 140 165 231 295 338
#     4  11  26  45  56  78 115 163 201 242 277 339
#     4   9  18  35  57  86 115 142 181 241 291 334
#     4   9  18  31  53  86 115 153 183 222 295 355
#     4   9  18  31  57  92 120 140 184 238 285 349
#     4  10  18  34  61  90 109 152 193 240 290 339
#     4   9  20  38  58  81 119 145 190 246 277 337
#
# _framework density 18.634096
#
# number of rings (size 3 to 8) (size 9 to 14) (size 15 to 20)
#    0.000    2.400    0.000    4.200    2.800    0.800 
#    3.600    1.500    0.000    0.000    0.000    0.000 
#    0.000    0.000    0.000    0.000    0.000    0.000 
#
# Total GULP energy -247901.224362 kJ/mol
# GULP energy per Si atom -12395.061218 kJ/mol
# Density = 1.859168 g / cm^3
# Si number density = 18.634096 Si / 1000 Ang^3
#
#
#
# Elastic Constant Matrix: (Units=GPa)
#
#
# Indices 1 2 3 4 5 6 
#
# 1 94.2542 43.4594 55.3531 0.0000 -0.8025 0.0000
# 2 43.4594 153.1708 53.5493 0.0000 -4.3967 0.0000
# 3 55.3531 53.5493 110.3109 0.0000 -10.0834 0.0000
# 4 0.0000 0.0000 0.0000 27.5405 0.0000 5.0821
# 5 -0.8025 -4.3967 -10.0834 0.0000 27.1130 0.0000
# 6 0.0000 0.0000 0.0000 5.0821 0.0000 19.5679
#
#
#
# Elastic Compliance Matrix: (Units=1/GPa)
#
#
# Indices 1 2 3 4 5 6 
#
# 1 0.015713 -0.002040 -0.007124 0.000000 -0.002515 0.000000
# 2 -0.002040 0.008128 -0.002906 0.000000 0.000177 0.000000
# 3 -0.007124 -0.002906 0.014481 0.000000 0.004703 0.000000
# 4 0.000000 0.000000 0.000000 0.038138 0.000000 -0.009905
# 5 -0.002515 0.000177 0.004703 0.000000 0.038586 0.000000
# 6 0.000000 0.000000 0.000000 -0.009905 0.000000 0.053677
#
#
# Mechanical properties :
#
#
# Convention : Reuss Voigt Hill
#
# Bulk Modulus (GPa) = 70.51343 73.60663 72.06003
# Shear Modulus (GPa) = 25.30491 28.53587 26.92039
#
# Velocity S-wave (km/s) = 3.68909 3.91753 3.80502
# Velocity P-wave (km/s) = 7.48793 7.74916 7.61966
#
# Compressibility (1/GPa) = 0.01418170
#
# Stress axis : x y z
#
# Youngs Moduli (GPa) = 63.64351 123.02401 69.05665
#
# Poissons Ratio (x) = 0.25093 0.49197
# Poissons Ratio (y) = 0.12981 0.20069
# Poissons Ratio (z) = 0.45341 0.35754
#
# Static dielectric constant tensor:
#      x y z
#    x 3.008510 0.000000 0.125640 
#    y 0.000000 3.746870 0.000000 
#    z 0.125640 0.000000 3.403430 
# 
# 
# High freq. dielectric constant tensor:
#      x y z
#    x 1.683460 0.000000 0.007050 
#    y 0.000000 1.743500 0.000000 
#    z 0.007050 0.000000 1.722140 
# 
# From -- ./inp_files/230669.got.cif
#   From: 2010.06.25/outbox.cif.g09.slc.cpg/sg12_116_cif.got.tgz:230669.got - 2010.06.28 00:19:55.
