data_PCOD8079247
_publ_section_title
;
Structure prediction by ZEFSAII (Michael W. Deem and Ramdas Pophale) SiO2 
 PCOD8079247
Probable space group: C 2/M
;
_chemical_formula_sum "Si O2"
_cell_formula_units_Z 64
_cell_length_a 20.398737
_cell_length_b 8.854323
_cell_length_c 24.104520
_cell_angle_alpha 90.000000
_cell_angle_beta 52.847177
_cell_angle_gamma 90.000000
_cell_volume 3470.007533
_symmetry_space_group_name_H-M "C 2/M"
_symmetry_group_IT_number 12
_symmetry_cell_setting 'monoclinic'
loop_
_space_group_symop_operation_xyz
x,y,z
-x,y,-z
-x,-y,-z
x,-y,z
1/2+x,1/2+y,z
1/2-x,1/2+y,-z
1/2-x,1/2-y,-z
1/2+x,1/2-y,z
loop_
_atom_site_type_symbol
_atom_site_label
_atom_site_fract_x
_atom_site_fract_y
_atom_site_fract_z
Si Si1 0.547635 0.320949 0.847094
Si Si2 0.659744 0.678055 0.272257
Si Si3 0.423417 0.667074 0.997951
Si Si4 0.175236 0.322905 0.864701
Si Si5 0.397375 0.823852 0.289557
Si Si6 0.793088 0.822667 0.630871
Si Si7 0.976987 0.178842 0.353264
Si Si8 0.929434 0.676236 0.491762
O O1 0.557340 0.500000 0.841849
O O2 0.623067 0.254239 0.843129
O O3 0.547349 0.257358 0.785258
O O4 0.459819 0.275565 0.920378
O O5 0.658378 0.500000 0.278901
O O6 0.729843 0.726768 0.192361
O O7 0.680253 0.742023 0.322784
O O8 0.571130 0.735918 0.297001
O O9 0.385051 0.500000 0.011660
O O10 0.352986 0.775205 0.058956
O O11 0.500000 0.662697 0.000000
O O12 0.163286 0.500000 0.863682
O O13 0.302468 0.787720 0.327924
O O14 0.420790 0.760644 0.337272
O O15 0.416150 0.000000 0.277150
O O16 0.841768 0.728137 0.560059
O O17 0.812385 0.000000 0.614131
O O18 0.946215 0.225035 0.429269
O O19 0.969269 0.000000 0.350088
O O20 0.926663 0.500000 0.477749
O O21 0.000000 0.712972 0.500000
#
# Coordination Sequence:
#
# PCOD8079247 Si02
#       8
#     8   8   8   8   8   8   8   8
#     4  10  19  32  51  76 111 150 185 220 271 332
#     4   9  18  34  56  82 109 142 185 226 270 325
#     4   8  16  29  44  72 111 146 180 223 272 325
#     4  10  17  29  51  81 111 141 183 233 275 315
#     4  11  23  39  58  83 115 143 181 233 277 321
#     4  10  20  38  61  82 108 146 184 223 273 329
#     4  11  23  40  61  81 109 149 186 219 271 339
#     4  11  23  38  58  87 116 140 178 232 277 316
#
# _framework density 18.443764000000002
#
# number of rings (size 3 to 8) (size 9 to 14) (size 15 to 20)
#    0.000    2.000    2.500    2.625    0.000    4.750 
#    0.000    2.500    0.000    0.750    0.000    0.000 
#    0.000    0.000    0.000    0.000    0.000    0.000 
#
# Total GULP energy -396779.963595 kJ/mol
# GULP energy per Si atom -12399.373862 kJ/mol
# Density = 1.840179 g / cm^3
# Si number density = 18.443764 Si / 1000 Ang^3
#
#
#
# Elastic Constant Matrix: (Units=GPa)
#
#
# Indices 1 2 3 4 5 6 
#
# 1 54.8514 26.6930 22.8561 0.0002 1.0847 -0.0001
# 2 26.6930 62.3188 40.7485 0.0002 -5.9363 0.0000
# 3 22.8561 40.7485 128.3334 0.0000 -8.2144 0.0000
# 4 0.0002 0.0002 0.0000 30.9671 0.0001 5.5573
# 5 1.0847 -5.9363 -8.2144 0.0001 19.8712 -0.0002
# 6 -0.0001 0.0000 0.0000 5.5573 -0.0002 19.0017
#
#
#
# Elastic Compliance Matrix: (Units=1/GPa)
#
#
# Indices 1 2 3 4 5 6 
#
# 1 0.023611 -0.009614 -0.001457 0.000000 -0.004763 0.000000
# 2 -0.009614 0.024403 -0.005687 0.000000 0.005464 0.000000
# 3 -0.001457 -0.005687 0.010019 0.000000 0.002522 0.000000
# 4 0.000000 0.000000 0.000000 0.034081 0.000000 -0.009968
# 5 -0.004763 0.005464 0.002522 0.000000 0.053259 0.000000
# 6 0.000000 0.000000 0.000000 -0.009968 0.000000 0.055542
#
#
# Mechanical properties :
#
#
# Convention : Reuss Voigt Hill
#
# Bulk Modulus (GPa) = 40.78768 47.34431 44.06599
# Shear Modulus (GPa) = 20.60970 24.31507 22.46239
#
# Velocity S-wave (km/s) = 3.34643 3.63483 3.49361
# Velocity P-wave (km/s) = 6.09049 6.58341 6.34174
#
# Compressibility (1/GPa) = 0.02451721
#
# Stress axis : x y z
#
# Youngs Moduli (GPa) = 42.35269 40.97799 99.81252
#
# Poissons Ratio (x) = 0.39397 0.14546
# Poissons Ratio (y) = 0.40719 0.56758
# Poissons Ratio (z) = 0.06172 0.23302
#
# Static dielectric constant tensor:
#      x y z
#    x 3.200970 0.000000 -0.104270 
#    y 0.000000 3.347900 0.000000 
#    z -0.104270 0.000000 3.784490 
# 
# 
# High freq. dielectric constant tensor:
#      x y z
#    x 1.681580 0.000000 -0.005910 
#    y 0.000000 1.712570 0.000000 
#    z -0.005910 0.000000 1.734060 
# 
# From -- ./inp_files/346090.got.cif
#   From: 2010.06.25/outbox.cif.g09.slc.cpg/sg12_174_cif.got.tgz:346090.got - 2010.06.28 00:19:55.
