data_PCOD8079027
_publ_section_title
;
Structure prediction by ZEFSAII (Michael W. Deem and Ramdas Pophale) SiO2 
 PCOD8079027
Probable space group: C 2/M
;
_chemical_formula_sum "Si O2"
_cell_formula_units_Z 48
_cell_length_a 14.539466
_cell_length_b 39.257012
_cell_length_c 5.167277
_cell_angle_alpha 90.000000
_cell_angle_beta 72.241472
_cell_angle_gamma 90.000000
_cell_volume 2808.821976
_symmetry_space_group_name_H-M "C 2/M"
_symmetry_group_IT_number 12
_symmetry_cell_setting 'monoclinic'
loop_
_space_group_symop_operation_xyz
x,y,z
-x,y,-z
-x,-y,-z
x,-y,z
1/2+x,1/2+y,z
1/2-x,1/2+y,-z
1/2-x,1/2-y,-z
1/2+x,1/2-y,z
loop_
_atom_site_type_symbol
_atom_site_label
_atom_site_fract_x
_atom_site_fract_y
_atom_site_fract_z
Si Si1 0.894500 0.460544 0.794537
Si Si2 0.201634 0.676572 0.300722
Si Si3 0.889584 0.208993 0.084796
Si Si4 0.608688 0.068400 0.705990
Si Si5 0.610242 0.854081 0.880427
Si Si6 0.390054 0.752183 0.587313
O O1 0.903233 0.500000 0.715978
O O2 0.838839 0.440286 0.611438
O O3 0.999036 0.443652 0.751529
O O4 0.839698 0.454132 0.113037
O O5 0.318780 0.676496 0.189353
O O6 0.164665 0.667338 0.616760
O O7 0.173762 0.715689 0.277104
O O8 0.159741 0.651294 0.117422
O O9 0.867060 0.237635 0.321786
O O10 0.869245 0.223377 0.817160
O O11 0.000000 0.195936 0.000000
O O12 0.614500 0.107218 0.783927
O O13 0.500000 0.841613 0.000000
O O14 0.500000 0.764734 0.500000
#
# Coordination Sequence:
#
# PCOD8079027 Si02
#       6
#     8   8   8   8   8   8
#     4  10  17  28  47  65  86 124 182 206 216 258
#     4  12  23  34  51  74  94 126 166 191 246 306
#     4  10  21  37  56  71  92 118 155 212 259 291
#     4  10  18  29  42  61  92 125 163 201 231 253
#     4  12  23  34  47  67 103 136 160 197 233 291
#     4  10  19  34  53  73  95 119 149 199 255 300
#
# _framework density 17.089015
#
# number of rings (size 3 to 8) (size 9 to 14) (size 15 to 20)
#    0.000    1.333    1.667    8.000    2.333    1.333 
#    0.000    0.000    0.000    0.000    0.000    0.000 
#    0.000    0.000    0.000    0.000    0.000   96.667 
#
# Total GULP energy -297429.492801 kJ/mol
# GULP energy per Si atom -12392.895533 kJ/mol
# Density = 1.705012 g / cm^3
# Si number density = 17.089015 Si / 1000 Ang^3
#
#
#
# Elastic Constant Matrix: (Units=GPa)
#
#
# Indices 1 2 3 4 5 6 
#
# 1 54.1037 32.7085 32.4862 0.0000 -4.1108 0.0000
# 2 32.7085 65.5395 22.9237 0.0000 -4.6832 0.0000
# 3 32.4862 22.9237 123.4760 0.0000 16.6127 0.0000
# 4 0.0000 0.0000 0.0000 19.8259 0.0000 9.0646
# 5 -4.1108 -4.6832 16.6127 0.0000 28.9272 0.0000
# 6 0.0000 0.0000 0.0000 9.0646 0.0000 12.1792
#
#
#
# Elastic Compliance Matrix: (Units=1/GPa)
#
#
# Indices 1 2 3 4 5 6 
#
# 1 0.030366 -0.012455 -0.006487 0.000000 0.006025 0.000000
# 2 -0.012455 0.022051 -0.001148 0.000000 0.002459 0.000000
# 3 -0.006487 -0.001148 0.011019 0.000000 -0.007436 0.000000
# 4 0.000000 0.000000 0.000000 0.076456 0.000000 -0.056904
# 5 0.006025 0.002459 -0.007436 0.000000 0.040094 0.000000
# 6 0.000000 0.000000 0.000000 -0.056904 0.000000 0.124459
#
#
# Mechanical properties :
#
#
# Convention : Reuss Voigt Hill
#
# Bulk Modulus (GPa) = 43.00053 46.59511 44.79782
# Shear Modulus (GPa) = 14.18933 22.51986 18.35459
#
# Velocity S-wave (km/s) = 2.88465 3.63409 3.28084
# Velocity P-wave (km/s) = 6.02596 6.70329 6.37363
#
# Compressibility (1/GPa) = 0.02325553
#
# Stress axis : x y z
#
# Youngs Moduli (GPa) = 32.93190 45.34951 90.75152
#
# Poissons Ratio (x) = 0.56482 0.58874
# Poissons Ratio (y) = 0.41016 0.10417
# Poissons Ratio (z) = 0.21364 0.05205
#
# Static dielectric constant tensor:
#      x y z
#    x 2.573420 0.000000 -1.177940 
#    y 0.000000 3.037030 0.000000 
#    z -1.177940 0.000000 0.141520 
# 
# 
# High freq. dielectric constant tensor:
#      x y z
#    x 1.612160 0.000000 0.029390 
#    y 0.000000 1.638790 0.000000 
#    z 0.029390 0.000000 1.692370 
# 
# From -- ./inp_files/12799.got.cif
#   From: 2010.06.25/outbox.cif.g09.slc.cpg/sg12_7_cif.got.tgz:12799.got - 2010.06.28 00:19:55.
