data_PCOD8079930
_publ_section_title
;
Structure prediction by ZEFSAII (Michael W. Deem and Ramdas Pophale) SiO2 
 PCOD8079930
Probable space group: C 2/M
;
_chemical_formula_sum "Si O2"
_cell_formula_units_Z 64
_cell_length_a 21.762213
_cell_length_b 13.806582
_cell_length_c 13.397587
_cell_angle_alpha 90.000000
_cell_angle_beta 104.460871
_cell_angle_gamma 90.000000
_cell_volume 3897.929739
_symmetry_space_group_name_H-M "C 2/M"
_symmetry_group_IT_number 12
_symmetry_cell_setting 'monoclinic'
loop_
_space_group_symop_operation_xyz
x,y,z
-x,y,-z
-x,-y,-z
x,-y,z
1/2+x,1/2+y,z
1/2-x,1/2+y,-z
1/2-x,1/2-y,-z
1/2+x,1/2-y,z
loop_
_atom_site_type_symbol
_atom_site_label
_atom_site_fract_x
_atom_site_fract_y
_atom_site_fract_z
Si Si1 0.355945 0.306321 0.833902
Si Si2 0.837404 0.195453 0.261951
Si Si3 0.205313 0.390751 0.192083
Si Si4 0.394426 0.295262 0.072638
Si Si5 0.461509 0.612526 0.389934
Si Si6 0.332646 0.895830 0.040252
Si Si7 0.723281 0.891598 0.776064
Si Si8 0.516918 0.613038 0.198521
O O1 0.346173 0.192385 0.800645
O O2 0.294711 0.366395 0.773253
O O3 0.414346 0.344209 0.793950
O O4 0.365309 0.329316 0.955406
O O5 0.774494 0.134556 0.263831
O O6 0.855185 0.169087 0.153968
O O7 0.893999 0.165713 0.357925
O O8 0.825553 0.309269 0.281866
O O9 0.185107 0.500000 0.218927
O O10 0.210368 0.383853 0.074831
O O11 0.391171 0.178530 0.071951
O O12 0.466535 0.331529 0.108134
O O13 0.500000 0.653987 0.500000
O O14 0.446991 0.500000 0.398032
O O15 0.502666 0.632685 0.308321
O O16 0.280808 0.885388 0.106006
O O17 0.366837 0.000000 0.057197
O O18 0.705359 0.000000 0.729475
O O19 0.513772 0.500000 0.170503
#
# Coordination Sequence:
#
# PCOD8079930 Si02
#       8
#     8   8   8   8   8   8   8   8
#     4  10  18  27  40  61  92 124 147 169 203 251
#     4   9  16  27  45  67  88 111 143 182 217 247
#     4   9  16  26  41  61  87 117 148 181 212 243
#     4   9  17  27  39  61  91 119 148 178 207 244
#     4   9  18  33  52  70  84 101 133 179 223 258
#     4   8  14  25  40  59  84 117 154 184 207 235
#     4   9  16  25  40  62  89 120 149 175 205 245
#     4  10  20  31  43  61  86 115 144 173 209 256
#
# _framework density 16.418970999999999
#
# number of rings (size 3 to 8) (size 9 to 14) (size 15 to 20)
#    0.000    2.875    0.000    1.875    0.000    5.000 
#    0.000    0.625    0.000    7.125    0.000    1.750 
#    0.000    0.000    0.000    0.000    0.000    0.000 
#
# Total GULP energy -396509.099463 kJ/mol
# GULP energy per Si atom -12390.909358 kJ/mol
# Density = 1.638160 g / cm^3
# Si number density = 16.418971 Si / 1000 Ang^3
#
#
#
# Elastic Constant Matrix: (Units=GPa)
#
#
# Indices 1 2 3 4 5 6 
#
# 1 103.7536 53.4385 31.2947 0.0000 15.7895 0.0000
# 2 53.4385 106.0977 31.9026 0.0000 11.9470 0.0000
# 3 31.2947 31.9026 57.5138 0.0000 20.3088 0.0000
# 4 0.0000 0.0000 0.0000 14.1043 0.0000 2.8525
# 5 15.7895 11.9470 20.3088 0.0000 17.9824 0.0000
# 6 0.0000 0.0000 0.0000 2.8525 0.0000 24.3602
#
#
#
# Elastic Compliance Matrix: (Units=1/GPa)
#
#
# Indices 1 2 3 4 5 6 
#
# 1 0.014253 -0.005772 -0.002476 0.000000 -0.005884 0.000000
# 2 -0.005772 0.013655 -0.005023 0.000000 0.001669 0.000000
# 3 -0.002476 -0.005023 0.032559 0.000000 -0.031260 0.000000
# 4 0.000000 0.000000 0.000000 0.072620 0.000000 -0.008504
# 5 -0.005884 0.001669 -0.031260 0.000000 0.094971 0.000000
# 6 0.000000 0.000000 0.000000 -0.008504 0.000000 0.042046
#
#
# Mechanical properties :
#
#
# Convention : Reuss Voigt Hill
#
# Bulk Modulus (GPa) = 29.47700 55.62630 42.55165
# Shear Modulus (GPa) = 16.23613 21.33801 18.78707
#
# Velocity S-wave (km/s) = 3.14803 3.60890 3.38632
# Velocity P-wave (km/s) = 5.58619 7.16369 6.42354
#
# Compressibility (1/GPa) = 0.03392476
#
# Stress axis : x y z
#
# Youngs Moduli (GPa) = 70.15879 73.23412 30.71360
#
# Poissons Ratio (x) = 0.42270 0.07606
# Poissons Ratio (y) = 0.40495 0.15427
# Poissons Ratio (z) = 0.17374 0.36785
#
# Static dielectric constant tensor:
#      x y z
#    x 2.917680 0.000000 0.073610 
#    y 0.000000 3.355420 0.000000 
#    z 0.073610 0.000000 2.776290 
# 
# 
# High freq. dielectric constant tensor:
#      x y z
#    x 1.618680 0.000000 0.008140 
#    y 0.000000 1.641210 0.000000 
#    z 0.008140 0.000000 1.585930 
# 
# From -- ./inp_files/224807.got.cif
#   From: 2010.06.25/outbox.cif.g09.slc.cpg/sg12_113_cif.got.tgz:224807.got - 2010.06.28 00:19:55.
