data_PCOD8079275
_publ_section_title
;
Structure prediction by ZEFSAII (Michael W. Deem and Ramdas Pophale) SiO2 
 PCOD8079275
Probable space group: C 2/M
;
_chemical_formula_sum "Si O2"
_cell_formula_units_Z 52
_cell_length_a 20.619493
_cell_length_b 21.038203
_cell_length_c 18.891948
_cell_angle_alpha 90.000000
_cell_angle_beta 159.203483
_cell_angle_gamma 90.000000
_cell_volume 2909.732374
_symmetry_space_group_name_H-M "C 2/M"
_symmetry_group_IT_number 12
_symmetry_cell_setting 'monoclinic'
loop_
_space_group_symop_operation_xyz
x,y,z
-x,y,-z
-x,-y,-z
x,-y,z
1/2+x,1/2+y,z
1/2-x,1/2+y,-z
1/2-x,1/2-y,-z
1/2+x,1/2-y,z
loop_
_atom_site_type_symbol
_atom_site_label
_atom_site_fract_x
_atom_site_fract_y
_atom_site_fract_z
Si Si1 0.525640 0.722538 0.343654
Si Si2 0.162793 0.071985 0.286063
Si Si3 0.500000 0.661047 0.000000
Si Si4 0.929072 0.689724 0.743275
Si Si5 0.480423 0.072610 0.710769
Si Si6 0.706469 0.734609 0.101513
Si Si7 0.126578 0.124172 0.911408
O O1 0.737496 0.714430 0.578675
O O2 0.508666 0.776365 0.266143
O O3 0.417847 0.745506 0.304480
O O4 0.439223 0.655574 0.229532
O O5 0.106196 0.118239 0.164992
O O6 0.364462 0.089738 0.521432
O O7 0.027922 0.077778 0.215458
O O8 0.158694 0.000000 0.252821
O O9 0.660148 0.705825 0.131069
O O10 0.918145 0.615143 0.714123
O O11 0.078826 0.703933 0.956139
O O12 0.443828 0.000000 0.695028
O O13 0.692886 0.082676 0.912252
O O14 0.651809 0.681477 0.990337
#
# Coordination Sequence:
#
# PCOD8079275 Si02
#       7
#     8   8   4   8   8   8   8
#     4  10  17  29  55  74 102 128 166 223 281 310
#     4  10  21  36  50  70 109 150 181 212 242 299
#     4  10  23  36  52  72 101 152 194 208 244 298
#     4  10  18  31  53  80  98 129 168 216 284 320
#     4  11  20  31  51  79 108 134 166 212 265 321
#     4  10  19  33  51  73 103 133 174 225 256 303
#     4  10  17  31  51  78 100 132 170 217 269 318
#
# _framework density 17.871061000000001
#
# number of rings (size 3 to 8) (size 9 to 14) (size 15 to 20)
#    0.000    1.846    4.615    1.615    2.154    0.000 
#    0.000    6.923    0.000    8.308    0.000    0.538 
#    0.000    1.231    0.000    0.000    0.000    0.000 
#
# Total GULP energy -322275.121659 kJ/mol
# GULP energy per Si atom -12395.196987 kJ/mol
# Density = 1.783039 g / cm^3
# Si number density = 17.871061 Si / 1000 Ang^3
#
#
#
# Elastic Constant Matrix: (Units=GPa)
#
#
# Indices 1 2 3 4 5 6 
#
# 1 75.1876 40.1367 33.6723 0.0084 24.3059 -0.0002
# 2 40.1367 88.4373 31.6011 0.0132 -2.0326 -0.0094
# 3 33.6723 31.6011 88.5837 0.0949 23.9790 0.0041
# 4 0.0084 0.0132 0.0949 26.3985 0.0382 1.9846
# 5 24.3059 -2.0326 23.9790 0.0382 25.3790 -0.0018
# 6 -0.0002 -0.0094 0.0041 1.9846 -0.0018 22.1312
#
#
#
# Elastic Compliance Matrix: (Units=1/GPa)
#
#
# Indices 1 2 3 4 5 6 
#
# 1 0.031924 -0.016421 0.003165 0.000038 -0.034880 -0.000014
# 2 -0.016421 0.022486 -0.008766 -0.000013 0.025810 0.000014
# 3 0.003165 -0.008766 0.019111 -0.000033 -0.021790 -0.000006
# 4 0.000038 -0.000013 -0.000033 0.038138 -0.000064 -0.003420
# 5 -0.034880 0.025810 -0.021790 -0.000064 0.095463 0.000028
# 6 -0.000014 0.000014 -0.000006 -0.003420 0.000028 0.045492
#
#
# Mechanical properties :
#
#
# Convention : Reuss Voigt Hill
#
# Bulk Modulus (GPa) = 33.92555 51.44765 42.68660
# Shear Modulus (GPa) = 16.31397 24.56829 20.44113
#
# Velocity S-wave (km/s) = 3.02465 3.71179 3.38570
# Velocity P-wave (km/s) = 5.58773 6.87172 6.26272
#
# Compressibility (1/GPa) = 0.02947631
#
# Stress axis : x y z
#
# Youngs Moduli (GPa) = 31.32398 44.47265 52.32460
#
# Poissons Ratio (x) = 0.73029 -0.16559
# Poissons Ratio (y) = 0.51438 0.45869
# Poissons Ratio (z) = -0.09913 0.38985
#
# Static dielectric constant tensor:
#      x y z
#    x 3.107150 -0.000030 0.246180 
#    y -0.000030 3.390870 -0.000080 
#    z 0.246180 -0.000080 3.465260 
# 
# 
# High freq. dielectric constant tensor:
#      x y z
#    x 1.642900 0.000000 0.025520 
#    y 0.000000 1.686140 0.000000 
#    z 0.025520 0.000000 1.701520 
# 
# From -- ./inp_files/322923.got.cif
#   From: 2010.06.25/outbox.cif.g09.slc.cpg/sg12_162_cif.got.tgz:322923.got - 2010.06.28 00:19:55.
