data_PCOD8079176
_publ_section_title
;
Structure prediction by ZEFSAII (Michael W. Deem and Ramdas Pophale) SiO2 
 PCOD8079176
Probable space group: C 2/M
;
_chemical_formula_sum "Si O2"
_cell_formula_units_Z 64
_cell_length_a 23.083073
_cell_length_b 12.867037
_cell_length_c 13.347124
_cell_angle_alpha 90.000000
_cell_angle_beta 82.193851
_cell_angle_gamma 90.000000
_cell_volume 3927.503831
_symmetry_space_group_name_H-M "C 2/M"
_symmetry_group_IT_number 12
_symmetry_cell_setting 'monoclinic'
loop_
_space_group_symop_operation_xyz
x,y,z
-x,y,-z
-x,-y,-z
x,-y,z
1/2+x,1/2+y,z
1/2-x,1/2+y,-z
1/2-x,1/2-y,-z
1/2+x,1/2-y,z
loop_
_atom_site_type_symbol
_atom_site_label
_atom_site_fract_x
_atom_site_fract_y
_atom_site_fract_z
Si Si1 0.936336 0.881060 0.968883
Si Si2 0.432654 0.193867 0.829739
Si Si3 0.131584 0.621427 0.341357
Si Si4 0.747810 0.880586 0.214926
Si Si5 0.443419 0.121452 0.458402
Si Si6 0.560253 0.877934 0.764883
Si Si7 0.147787 0.241413 0.871124
Si Si8 0.824184 0.616010 0.965118
O O1 0.931829 0.812876 0.868727
O O2 0.923143 0.000000 0.942403
O O3 0.889850 0.845671 0.063183
O O4 0.000000 0.867687 0.000000
O O5 0.410338 0.189417 0.720469
O O6 0.496654 0.144996 0.824568
O O7 0.390547 0.125605 0.909692
O O8 0.121804 0.500000 0.315228
O O9 0.199502 0.651648 0.309754
O O10 0.113948 0.643561 0.460449
O O11 0.806483 0.813575 0.214907
O O12 0.721182 0.858190 0.111946
O O13 0.765102 0.000000 0.224292
O O14 0.500000 0.171199 0.500000
O O15 0.434962 0.167669 0.349488
O O16 0.455306 0.000000 0.441845
O O17 0.607706 0.819093 0.818985
O O18 0.573876 0.000000 0.767008
O O19 0.186404 0.306179 0.941137
O O20 0.814475 0.500000 0.007265
#
# Coordination Sequence:
#
# PCOD8079176 Si02
#       8
#     8   8   8   8   8   8   8   8
#     4  10  20  33  44  62  92 127 165 198 226 267
#     4  10  17  29  48  73  95 124 152 191 237 288
#     4   9  16  30  52  75  98 120 152 195 239 283
#     4   9  18  32  49  66  86 123 169 203 225 267
#     4   9  16  27  47  74 102 126 146 184 237 292
#     4  11  20  29  45  74 105 125 150 187 243 299
#     4  11  20  31  45  67  97 131 160 193 235 283
#     4   9  18  30  47  69  96 124 154 193 238 283
#
# _framework density 16.295337
#
# number of rings (size 3 to 8) (size 9 to 14) (size 15 to 20)
#    0.000    2.250    2.500    3.000    0.000    0.000 
#    0.000    2.500    0.000    3.000    0.000    3.500 
#    0.000    0.000    0.000    0.000    0.000    0.000 
#
# Total GULP energy -396739.895217 kJ/mol
# GULP energy per Si atom -12398.121726 kJ/mol
# Density = 1.625825 g / cm^3
# Si number density = 16.295337 Si / 1000 Ang^3
#
#
#
# Elastic Constant Matrix: (Units=GPa)
#
#
# Indices 1 2 3 4 5 6 
#
# 1 81.2198 31.7138 12.8061 0.0000 -15.9894 0.0000
# 2 31.7138 69.3064 22.6247 0.0000 -2.8633 0.0000
# 3 12.8061 22.6247 50.6533 0.0000 -10.0819 0.0000
# 4 0.0000 0.0000 0.0000 14.0639 0.0000 -2.3527
# 5 -15.9894 -2.8633 -10.0819 0.0000 20.1981 0.0000
# 6 0.0000 0.0000 0.0000 -2.3527 0.0000 17.2403
#
#
#
# Elastic Compliance Matrix: (Units=1/GPa)
#
#
# Indices 1 2 3 4 5 6 
#
# 1 0.018012 -0.008298 0.001950 0.000000 0.014056 0.000000
# 2 -0.008298 0.020757 -0.008766 0.000000 -0.008002 0.000000
# 3 0.001950 -0.008766 0.025786 0.000000 0.013172 0.000000
# 4 0.000000 0.000000 0.000000 0.072765 0.000000 0.009930
# 5 0.014056 -0.008002 0.013172 0.000000 0.066077 0.000000
# 6 0.000000 0.000000 0.000000 0.009930 0.000000 0.059359
#
#
# Mechanical properties :
#
#
# Convention : Reuss Voigt Hill
#
# Bulk Modulus (GPa) = 29.13116 37.27427 33.20272
# Shear Modulus (GPa) = 16.42436 19.23613 17.83025
#
# Velocity S-wave (km/s) = 3.17822 3.43952 3.31145
# Velocity P-wave (km/s) = 5.60213 6.22074 5.91952
#
# Compressibility (1/GPa) = 0.03432750
#
# Stress axis : x y z
#
# Youngs Moduli (GPa) = 55.51850 48.17705 38.78048
#
# Poissons Ratio (x) = 0.39977 -0.07563
# Poissons Ratio (y) = 0.46069 0.33995
# Poissons Ratio (z) = -0.10828 0.42232
#
# Static dielectric constant tensor:
#      x y z
#    x 3.050610 0.000000 -0.114180 
#    y 0.000000 2.918240 0.000000 
#    z -0.114180 0.000000 3.090520 
# 
# 
# High freq. dielectric constant tensor:
#      x y z
#    x 1.628200 0.000000 -0.011970 
#    y 0.000000 1.602730 0.000000 
#    z -0.011970 0.000000 1.612240 
# 
# From -- ./inp_files/174636.got.cif
#   From: 2010.06.25/outbox.cif.g09.slc.cpg/sg12_88_cif.got.tgz:174636.got - 2010.06.28 00:19:55.
