data_PCOD8079852
_publ_section_title
;
Structure prediction by ZEFSAII (Michael W. Deem and Ramdas Pophale) SiO2 
 PCOD8079852
Probable space group: C 2/M
;
_chemical_formula_sum "Si O2"
_cell_formula_units_Z 56
_cell_length_a 27.932326
_cell_length_b 9.163507
_cell_length_c 14.347469
_cell_angle_alpha 90.000000
_cell_angle_beta 104.875776
_cell_angle_gamma 90.000000
_cell_volume 3549.270496
_symmetry_space_group_name_H-M "C 2/M"
_symmetry_group_IT_number 12
_symmetry_cell_setting 'monoclinic'
loop_
_space_group_symop_operation_xyz
x,y,z
-x,y,-z
-x,-y,-z
x,-y,z
1/2+x,1/2+y,z
1/2-x,1/2+y,-z
1/2-x,1/2-y,-z
1/2+x,1/2-y,z
loop_
_atom_site_type_symbol
_atom_site_label
_atom_site_fract_x
_atom_site_fract_y
_atom_site_fract_z
Si Si1 0.370156 0.163076 0.283602
Si Si2 0.556744 0.172399 0.521721
Si Si3 0.314555 0.669358 0.112128
Si Si4 0.213917 0.169915 0.103544
Si Si5 0.630314 0.328061 0.433032
Si Si6 0.706370 0.165748 0.595534
Si Si7 0.311354 0.328489 0.709457
O O1 0.415226 0.223809 0.370177
O O2 0.362202 0.262125 0.188127
O O3 0.319768 0.165192 0.317141
O O4 0.383013 0.000000 0.256198
O O5 0.500000 0.220632 0.500000
O O6 0.580649 0.248460 0.443024
O O7 0.563386 0.000000 0.511731
O O8 0.312692 0.500000 0.135335
O O9 0.264055 0.739557 0.123020
O O10 0.320331 0.698080 0.004137
O O11 0.183262 0.222418 0.180078
O O12 0.228901 0.000000 0.117169
O O13 0.623778 0.500000 0.444113
O O14 0.678203 0.274561 0.512989
O O15 0.640724 0.286619 0.329243
O O16 0.761032 0.233260 0.637343
O O17 0.705976 0.000000 0.554947
O O18 0.303929 0.500000 0.704678
#
# Coordination Sequence:
#
# PCOD8079852 Si02
#       7
#     8   8   8   8   8   8   8
#     4   9  16  28  47  64  85 116 145 177 217 263
#     4   9  19  36  53  66  83 113 148 177 217 276
#     4  10  18  26  41  65  88 114 151 190 218 243
#     4   9  17  30  43  56  85 126 158 180 206 249
#     4  10  19  28  43  67  90 111 141 184 225 256
#     4   9  16  28  43  58  84 125 158 174 201 255
#     4   9  16  28  43  59  85 124 156 174 207 258
#
# _framework density 15.777889999999999
#
# number of rings (size 3 to 8) (size 9 to 14) (size 15 to 20)
#    0.000    2.714    1.429    2.143    0.000    3.143 
#    0.000    2.143    0.000    0.000    0.000    1.000 
#    0.000    8.000    0.000    0.000    0.000    0.000 
#
# Total GULP energy -347015.391615 kJ/mol
# GULP energy per Si atom -12393.406843 kJ/mol
# Density = 1.574198 g / cm^3
# Si number density = 15.777890 Si / 1000 Ang^3
#
#
#
# Elastic Constant Matrix: (Units=GPa)
#
#
# Indices 1 2 3 4 5 6 
#
# 1 95.3802 30.9241 59.3169 0.0000 -4.6879 0.0000
# 2 30.9241 52.9772 42.2600 0.0000 -3.2136 0.0000
# 3 59.3169 42.2600 111.9137 0.0000 -13.3077 0.0000
# 4 0.0000 0.0000 0.0000 21.3458 0.0000 1.5393
# 5 -4.6879 -3.2136 -13.3077 0.0000 19.1076 0.0000
# 6 0.0000 0.0000 0.0000 1.5393 0.0000 17.5818
#
#
#
# Elastic Compliance Matrix: (Units=1/GPa)
#
#
# Indices 1 2 3 4 5 6 
#
# 1 0.016192 -0.003640 -0.007423 0.000000 -0.001809 0.000000
# 2 -0.003640 0.027969 -0.008917 0.000000 -0.002400 0.000000
# 3 -0.007423 -0.008917 0.017272 0.000000 0.008709 0.000000
# 4 0.000000 0.000000 0.000000 0.047145 0.000000 -0.004128
# 5 -0.001809 -0.002400 0.008709 0.000000 0.057553 0.000000
# 6 0.000000 0.000000 0.000000 -0.004128 0.000000 0.057238
#
#
# Mechanical properties :
#
#
# Convention : Reuss Voigt Hill
#
# Bulk Modulus (GPa) = 46.57073 58.36368 52.46721
# Shear Modulus (GPa) = 18.48515 20.12504 19.30509
#
# Velocity S-wave (km/s) = 3.42656 3.57532 3.50173
# Velocity P-wave (km/s) = 6.72574 7.35629 7.04807
#
# Compressibility (1/GPa) = 0.02147271
#
# Stress axis : x y z
#
# Youngs Moduli (GPa) = 61.75982 35.75422 57.89581
#
# Poissons Ratio (x) = 0.13016 0.42973
# Poissons Ratio (y) = 0.22482 0.51627
# Poissons Ratio (z) = 0.45841 0.31883
#
# Static dielectric constant tensor:
#      x y z
#    x 2.808770 0.000000 -0.140920 
#    y 0.000000 2.932130 0.000000 
#    z -0.140920 0.000000 3.243310 
# 
# 
# High freq. dielectric constant tensor:
#      x y z
#    x 1.563840 0.000000 -0.008120 
#    y 0.000000 1.599050 0.000000 
#    z -0.008120 0.000000 1.605190 
# 
# From -- ./inp_files/247820.got.cif
#   From: 2010.06.25/outbox.cif.g09.slc.cpg/sg12_124_cif.got.tgz:247820.got - 2010.06.28 00:19:55.
