data_PCOD8079687
_publ_section_title
;
Structure prediction by ZEFSAII (Michael W. Deem and Ramdas Pophale) SiO2 
 PCOD8079687
Probable space group: C 2/M
;
_chemical_formula_sum "Si O2"
_cell_formula_units_Z 64
_cell_length_a 9.553799
_cell_length_b 19.481749
_cell_length_c 22.486187
_cell_angle_alpha 90.000000
_cell_angle_beta 53.328691
_cell_angle_gamma 90.000000
_cell_volume 3356.871652
_symmetry_space_group_name_H-M "C 2/M"
_symmetry_group_IT_number 12
_symmetry_cell_setting 'monoclinic'
loop_
_space_group_symop_operation_xyz
x,y,z
-x,y,-z
-x,-y,-z
x,-y,z
1/2+x,1/2+y,z
1/2-x,1/2+y,-z
1/2-x,1/2-y,-z
1/2+x,1/2-y,z
loop_
_atom_site_type_symbol
_atom_site_label
_atom_site_fract_x
_atom_site_fract_y
_atom_site_fract_z
Si Si1 0.361799 0.921129 0.483035
Si Si2 0.296577 0.076183 0.791265
Si Si3 0.986919 0.264217 0.154158
Si Si4 0.458388 0.357409 0.377672
Si Si5 0.972287 0.704213 0.373268
Si Si6 0.150577 0.813935 0.916556
Si Si7 0.347927 0.341188 0.274115
Si Si8 0.645285 0.144806 0.714357
O O1 0.500000 0.908157 0.500000
O O2 0.167453 0.910493 0.557230
O O3 0.393677 0.863051 0.425284
O O4 0.377440 0.000000 0.454776
O O5 0.198827 0.121510 0.864435
O O6 0.230457 0.093610 0.741555
O O7 0.507514 0.082805 0.741212
O O8 0.241634 0.000000 0.820523
O O9 0.904142 0.248892 0.111652
O O10 0.988264 0.197827 0.197300
O O11 0.875499 0.323751 0.214527
O O12 0.182036 0.288233 0.089991
O O13 0.410643 0.279482 0.411720
O O14 0.435217 0.366057 0.312782
O O15 0.655455 0.379110 0.345243
O O16 0.914792 0.701970 0.318847
O O17 0.181162 0.708421 0.327621
O O18 0.000000 0.835712 0.000000
#
# Coordination Sequence:
#
# PCOD8079687 Si02
#       8
#     8   8   8   8   8   8   8   8
#     4  11  26  42  54  78 114 156 195 234 281 345
#     4   9  21  38  54  80 117 152 189 228 274 334
#     4  10  17  34  52  84 121 134 178 236 278 330
#     4  12  20  37  61  85 111 141 196 244 288 344
#     4  11  20  38  59  84 113 146 189 238 293 343
#     4  10  20  32  56  85 115 155 182 219 277 331
#     4  10  19  33  61  83 106 148 184 233 289 332
#     4  10  21  33  60  87 108 143 181 241 296 325
#
# _framework density 19.065370000000001
#
# number of rings (size 3 to 8) (size 9 to 14) (size 15 to 20)
#    0.000    1.625    3.750    2.250    0.000    3.750 
#    0.000    0.625    0.000    0.000    0.000    0.000 
#    0.000   12.000    0.000    0.000    0.000    0.000 
#
# Total GULP energy -396687.979679 kJ/mol
# GULP energy per Si atom -12396.499365 kJ/mol
# Density = 1.902198 g / cm^3
# Si number density = 19.065370 Si / 1000 Ang^3
#
#
#
# Elastic Constant Matrix: (Units=GPa)
#
#
# Indices 1 2 3 4 5 6 
#
# 1 73.6766 20.1520 22.0068 -0.0001 -12.2961 0.0000
# 2 20.1520 92.8144 22.6102 -0.0001 -4.1034 0.0000
# 3 22.0068 22.6102 81.4608 0.0000 -18.3955 0.0000
# 4 -0.0001 -0.0001 0.0000 7.9258 0.0000 0.0700
# 5 -12.2961 -4.1034 -18.3955 0.0000 32.1114 -0.0001
# 6 0.0000 0.0000 0.0000 0.0700 -0.0001 9.4427
#
#
#
# Elastic Compliance Matrix: (Units=1/GPa)
#
#
# Indices 1 2 3 4 5 6 
#
# 1 0.015762 -0.002607 -0.002581 0.000000 0.004224 0.000000
# 2 -0.002607 0.011991 -0.002875 0.000000 -0.001113 0.000000
# 3 -0.002581 -0.002875 0.015466 0.000000 0.007504 0.000000
# 4 0.000000 0.000000 0.000000 0.126179 0.000000 -0.000935
# 5 0.004224 -0.001113 0.007504 0.000000 0.036916 0.000000
# 6 0.000000 0.000000 0.000000 -0.000935 0.000000 0.105909
#
#
# Mechanical properties :
#
#
# Convention : Reuss Voigt Hill
#
# Bulk Modulus (GPa) = 36.90990 41.94331 39.42661
# Shear Modulus (GPa) = 14.82009 22.10815 18.46412
#
# Velocity S-wave (km/s) = 2.79109 3.40898 3.11539
# Velocity P-wave (km/s) = 5.45789 6.12718 5.80220
#
# Compressibility (1/GPa) = 0.02709300
#
# Stress axis : x y z
#
# Youngs Moduli (GPa) = 63.44531 83.39266 64.65914
#
# Poissons Ratio (x) = 0.21739 0.16686
# Poissons Ratio (y) = 0.16539 0.18593
# Poissons Ratio (z) = 0.16373 0.23979
#
# Static dielectric constant tensor:
#      x y z
#    x 3.538610 0.000000 -0.075960 
#    y 0.000000 3.234150 0.000000 
#    z -0.075960 0.000000 3.351710 
# 
# 
# High freq. dielectric constant tensor:
#      x y z
#    x 1.748120 0.000000 -0.006550 
#    y 0.000000 1.718930 0.000000 
#    z -0.006550 0.000000 1.728610 
# 
# From -- ./inp_files/333716.got.cif
#   From: 2010.06.25/outbox.cif.g09.slc.cpg/sg12_167_cif.got.tgz:333716.got - 2010.06.28 00:19:55.
