data_PCOD8079696
_publ_section_title
;
Structure prediction by ZEFSAII (Michael W. Deem and Ramdas Pophale) SiO2 
 PCOD8079696
Probable space group: C 2/M
;
_chemical_formula_sum "Si O2"
_cell_formula_units_Z 60
_cell_length_a 9.030347
_cell_length_b 27.086827
_cell_length_c 19.762652
_cell_angle_alpha 90.000000
_cell_angle_beta 39.328250
_cell_angle_gamma 90.000000
_cell_volume 3063.615272
_symmetry_space_group_name_H-M "C 2/M"
_symmetry_group_IT_number 12
_symmetry_cell_setting 'monoclinic'
loop_
_space_group_symop_operation_xyz
x,y,z
-x,y,-z
-x,-y,-z
x,-y,z
1/2+x,1/2+y,z
1/2-x,1/2+y,-z
1/2-x,1/2-y,-z
1/2+x,1/2-y,z
loop_
_atom_site_type_symbol
_atom_site_label
_atom_site_fract_x
_atom_site_fract_y
_atom_site_fract_z
Si Si1 0.331648 0.855510 0.500480
Si Si2 0.383929 0.882935 0.183337
Si Si3 0.636208 0.295306 0.336539
Si Si4 0.569604 0.557637 0.657481
Si Si5 0.000000 0.585113 0.000000
Si Si6 0.511333 0.445602 0.830661
Si Si7 0.510510 0.194019 0.314407
Si Si8 0.807326 0.128969 0.122045
O O1 0.500000 0.835530 0.500000
O O2 0.249382 0.911268 0.547422
O O3 0.467035 0.852177 0.381075
O O4 0.118783 0.818116 0.565927
O O5 0.282853 0.828528 0.232414
O O6 0.473421 0.880290 0.074922
O O7 0.594187 0.897556 0.158873
O O8 0.193428 0.925296 0.265277
O O9 0.611975 0.240243 0.318420
O O10 0.769793 0.293249 0.360974
O O11 0.598721 0.500000 0.629389
O O12 0.620656 0.568709 0.718756
O O13 0.230069 0.551642 0.925122
O O14 0.598794 0.500000 0.820300
O O15 0.587935 0.407865 0.860278
O O16 0.714009 0.178182 0.191015
O O17 0.000000 0.145711 0.000000
#
# Coordination Sequence:
#
# PCOD8079696 Si02
#       8
#     8   8   8   8   4   8   8   8
#     4  11  21  37  63  90 116 154 189 244 293 347
#     4   9  20  37  58  84 118 155 192 242 289 343
#     4  10  22  40  60  88 115 151 195 241 293 355
#     4   9  20  38  60  89 120 153 193 238 294 352
#     4  10  17  34  54  82 114 150 194 236 283 332
#     4  10  20  34  57  84 115 152 196 239 282 342
#     4  11  23  40  62  85 118 152 198 243 296 351
#     4  11  22  40  56  85 121 155 197 246 292 340
#
# _framework density 19.584706000000001
#
# number of rings (size 3 to 8) (size 9 to 14) (size 15 to 20)
#    0.000    1.867    1.333    2.600    0.000    3.733 
#    1.200    2.000    0.000   10.400    0.000    0.000 
#    0.000    0.000    0.000    0.000    0.000    0.000 
#
# Total GULP energy -371960.797481 kJ/mol
# GULP energy per Si atom -12398.693249 kJ/mol
# Density = 1.954013 g / cm^3
# Si number density = 19.584706 Si / 1000 Ang^3
#
#
#
# Elastic Constant Matrix: (Units=GPa)
#
#
# Indices 1 2 3 4 5 6 
#
# 1 132.6037 54.8523 44.1133 0.0000 -0.1378 0.0000
# 2 54.8523 112.3334 58.9487 0.0000 10.0025 0.0000
# 3 44.1133 58.9487 99.4991 0.0000 11.6077 0.0000
# 4 0.0000 0.0000 0.0000 15.1795 0.0000 3.3575
# 5 -0.1378 10.0025 11.6077 0.0000 30.9819 0.0000
# 6 0.0000 0.0000 0.0000 3.3575 0.0000 22.9250
#
#
#
# Elastic Compliance Matrix: (Units=1/GPa)
#
#
# Indices 1 2 3 4 5 6 
#
# 1 0.009902 -0.003761 -0.002414 0.000000 0.002163 0.000000
# 2 -0.003761 0.014402 -0.006610 0.000000 -0.002190 0.000000
# 3 -0.002414 -0.006610 0.015465 0.000000 -0.003671 0.000000
# 4 0.000000 0.000000 0.000000 0.068084 0.000000 -0.009971
# 5 0.002163 -0.002190 -0.003671 0.000000 0.034369 0.000000
# 6 0.000000 0.000000 0.000000 -0.009971 0.000000 0.045081
#
#
# Mechanical properties :
#
#
# Convention : Reuss Voigt Hill
#
# Bulk Modulus (GPa) = 70.42528 73.36278 71.89403
# Shear Modulus (GPa) = 22.97729 26.25207 24.61468
#
# Velocity S-wave (km/s) = 3.42895 3.66517 3.54903
# Velocity P-wave (km/s) = 7.19127 7.44660 7.32005
#
# Compressibility (1/GPa) = 0.01419945
#
# Stress axis : x y z
#
# Youngs Moduli (GPa) = 100.98501 69.43452 64.66229
#
# Poissons Ratio (x) = 0.26114 0.15612
# Poissons Ratio (y) = 0.37980 0.42740
# Poissons Ratio (z) = 0.24382 0.45894
#
# Static dielectric constant tensor:
#      x y z
#    x 3.747550 0.000000 -0.002150 
#    y 0.000000 3.287440 0.000000 
#    z -0.002150 0.000000 3.772810 
# 
# 
# High freq. dielectric constant tensor:
#      x y z
#    x 1.775750 0.000000 -0.002520 
#    y 0.000000 1.745000 0.000000 
#    z -0.002520 0.000000 1.769710 
# 
# From -- ./inp_files/302742.got.cif
#   From: 2010.06.25/outbox.cif.g09.slc.cpg/sg12_152_cif.got.tgz:302742.got - 2010.06.28 00:19:55.
