data_PCOD8079160
_publ_section_title
;
Structure prediction by ZEFSAII (Michael W. Deem and Ramdas Pophale) SiO2 
 PCOD8079160
Probable space group: C 2/M
;
_chemical_formula_sum "Si O2"
_cell_formula_units_Z 64
_cell_length_a 24.288404
_cell_length_b 8.926792
_cell_length_c 30.873061
_cell_angle_alpha 90.000000
_cell_angle_beta 149.266709
_cell_angle_gamma 90.000000
_cell_volume 3420.826526
_symmetry_space_group_name_H-M "C 2/M"
_symmetry_group_IT_number 12
_symmetry_cell_setting 'monoclinic'
loop_
_space_group_symop_operation_xyz
x,y,z
-x,y,-z
-x,-y,-z
x,-y,z
1/2+x,1/2+y,z
1/2-x,1/2+y,-z
1/2-x,1/2-y,-z
1/2+x,1/2-y,z
loop_
_atom_site_type_symbol
_atom_site_label
_atom_site_fract_x
_atom_site_fract_y
_atom_site_fract_z
Si Si1 0.878930 0.835151 0.923719
Si Si2 0.846002 0.679026 0.145425
Si Si3 0.891574 0.822961 0.794828
Si Si4 0.925362 0.175690 0.285118
Si Si5 0.357026 0.824904 0.589574
Si Si6 0.123176 0.834640 0.976855
Si Si7 0.924663 0.327219 0.731391
Si Si8 0.250257 0.170658 0.769317
O O1 0.815933 0.704660 0.857111
O O2 0.857272 0.000000 0.887730
O O3 0.853707 0.843657 0.956689
O O4 0.000000 0.786952 0.000000
O O5 0.843929 0.500000 0.150631
O O6 0.853183 0.750808 0.198231
O O7 0.950972 0.724944 0.188724
O O8 0.741658 0.736243 0.045777
O O9 0.867555 0.771231 0.729788
O O10 0.793265 0.769020 0.758487
O O11 0.009974 0.752054 0.888856
O O12 0.894888 0.000000 0.800887
O O13 0.872238 0.202365 0.297122
O O14 0.042295 0.250450 0.366536
O O15 0.936137 0.000000 0.282432
O O16 0.250000 0.750000 0.500000
O O17 0.363077 0.796468 0.645053
O O18 0.357452 0.000000 0.579095
O O19 0.113255 0.000000 0.949695
O O20 0.916897 0.500000 0.739650
O O21 0.265725 0.000000 0.765643
#
# Coordination Sequence:
#
# PCOD8079160 Si02
#       8
#     8   8   8   8   8   8   8   8
#     4  10  17  29  47  67  97 138 186 237 277 316
#     4   9  17  32  53  72 100 142 184 229 279 322
#     4  11  22  35  51  72 102 149 196 228 265 318
#     4  10  20  33  52  82 114 139 173 220 270 317
#     4  10  21  39  66  93 115 137 164 204 260 321
#     4   9  17  29  47  71  99 138 189 235 274 315
#     4   9  20  37  54  78 109 140 172 214 268 320
#     4  11  22  33  48  74 108 143 182 230 275 315
#
# _framework density 18.708929999999999
#
# number of rings (size 3 to 8) (size 9 to 14) (size 15 to 20)
#    0.000    2.125    2.500    2.250    0.000    4.750 
#    0.000    1.250    0.000    0.750    0.000    5.250 
#    0.000    0.000    0.000    0.000    0.000    0.000 
#
# Total GULP energy -396424.280508 kJ/mol
# GULP energy per Si atom -12388.258766 kJ/mol
# Density = 1.866635 g / cm^3
# Si number density = 18.708930 Si / 1000 Ang^3
#
#
#
# Elastic Constant Matrix: (Units=GPa)
#
#
# Indices 1 2 3 4 5 6 
#
# 1 107.2302 48.8997 42.2254 0.0003 2.6356 0.0002
# 2 48.8997 78.2596 41.3397 0.0006 6.4869 0.0005
# 3 42.2254 41.3397 85.4489 0.0005 14.8460 0.0001
# 4 0.0003 0.0006 0.0005 25.0384 0.0000 -0.2544
# 5 2.6356 6.4869 14.8460 0.0000 17.0030 -0.0003
# 6 0.0002 0.0005 0.0001 -0.2544 -0.0003 29.9348
#
#
#
# Elastic Compliance Matrix: (Units=1/GPa)
#
#
# Indices 1 2 3 4 5 6 
#
# 1 0.014059 -0.006820 -0.004387 0.000000 0.004253 0.000000
# 2 -0.006820 0.020483 -0.006325 0.000000 -0.001235 0.000000
# 3 -0.004387 -0.006325 0.019325 0.000000 -0.013780 0.000000
# 4 0.000000 0.000000 0.000000 0.039942 0.000000 0.000339
# 5 0.004253 -0.001235 -0.013780 0.000000 0.070657 0.000001
# 6 0.000000 0.000000 0.000000 0.000339 0.000001 0.033409
#
#
# Mechanical properties :
#
#
# Convention : Reuss Voigt Hill
#
# Bulk Modulus (GPa) = 53.18167 59.54089 56.36128
# Shear Modulus (GPa) = 20.90265 23.62684 22.26474
#
# Velocity S-wave (km/s) = 3.34616 3.55754 3.45347
# Velocity P-wave (km/s) = 6.58913 6.98346 6.78916
#
# Compressibility (1/GPa) = 0.01880347
#
# Stress axis : x y z
#
# Youngs Moduli (GPa) = 71.13112 48.82215 51.74705
#
# Poissons Ratio (x) = 0.33295 0.22700
# Poissons Ratio (y) = 0.48509 0.32729
# Poissons Ratio (z) = 0.31204 0.30879
#
# Static dielectric constant tensor:
#      x y z
#    x 3.540040 0.000000 0.252790 
#    y 0.000000 3.342490 0.000000 
#    z 0.252790 0.000000 3.283830 
# 
# 
# High freq. dielectric constant tensor:
#      x y z
#    x 1.733740 0.000000 0.018930 
#    y 0.000000 1.715760 0.000000 
#    z 0.018930 0.000000 1.693870 
# 
# From -- ./inp_files/382525.got.cif
#   From: 2010.06.25/outbox.cif.g09.slc.cpg/sg12_192_cif.got.tgz:382525.got - 2010.06.28 00:19:55.
