data_PCOD8079582
_publ_section_title
;
Structure prediction by ZEFSAII (Michael W. Deem and Ramdas Pophale) SiO2 
 PCOD8079582
Probable space group: C 2/M
;
_chemical_formula_sum "Si O2"
_cell_formula_units_Z 56
_cell_length_a 18.746969
_cell_length_b 19.691715
_cell_length_c 15.838666
_cell_angle_alpha 90.000000
_cell_angle_beta 27.691169
_cell_angle_gamma 90.000000
_cell_volume 2717.134180
_symmetry_space_group_name_H-M "C 2/M"
_symmetry_group_IT_number 12
_symmetry_cell_setting 'monoclinic'
loop_
_space_group_symop_operation_xyz
x,y,z
-x,y,-z
-x,-y,-z
x,-y,z
1/2+x,1/2+y,z
1/2-x,1/2+y,-z
1/2-x,1/2-y,-z
1/2+x,1/2-y,z
loop_
_atom_site_type_symbol
_atom_site_label
_atom_site_fract_x
_atom_site_fract_y
_atom_site_fract_z
Si Si1 0.317583 0.741085 0.264869
Si Si2 0.352548 0.821798 0.702649
Si Si3 0.574950 0.000000 0.832418
Si Si4 0.900576 0.636044 0.268394
Si Si5 0.977423 0.736911 0.322403
Si Si6 0.439599 0.500000 0.465319
Si Si7 0.958140 0.883932 0.954808
Si Si8 0.938575 0.889174 0.331611
O O1 0.226855 0.734363 0.273110
O O2 0.370807 0.819395 0.214919
O O3 0.459804 0.689996 0.125430
O O4 0.200278 0.727971 0.464942
O O5 0.500000 0.854834 0.500000
O O6 0.401443 0.781625 0.733528
O O7 0.227151 0.879117 0.855382
O O8 0.515180 0.066264 0.844537
O O9 0.756549 0.000000 0.657568
O O10 0.500000 0.000000 0.000000
O O11 0.744364 0.614167 0.478370
O O12 0.005925 0.683364 0.217340
O O13 0.013502 0.814239 0.258385
O O14 0.500000 0.500000 0.500000
O O15 0.495972 0.434320 0.351622
O O16 0.012327 0.921044 0.811680
O O17 0.000000 0.922531 0.000000
#
# Coordination Sequence:
#
# PCOD8079582 Si02
#       8
#     8   8   4   8   8   4   8   8
#     4   9  16  32  54  79 110 147 188 238 291 342
#     4   9  20  30  47  84 118 143 177 239 304 346
#     4  10  24  40  56  83 114 160 201 225 282 360
#     4  10  18  35  59  79 113 154 199 239 285 342
#     4  10  17  32  55  83 115 144 191 246 298 326
#     4  10  24  44  63  83 120 159 193 240 293 341
#     4  10  18  32  54  83 113 145 186 237 289 347
#     4  10  19  36  60  84 110 153 201 237 289 354
#
# _framework density 20.609949
#
# number of rings (size 3 to 8) (size 9 to 14) (size 15 to 20)
#    0.000    2.286    2.857    0.857    0.000    6.286 
#    2.571    0.357    0.000    0.000    0.000    6.000 
#    0.000    0.000    0.000    0.000    0.000    0.000 
#
# Total GULP energy -346904.868122 kJ/mol
# GULP energy per Si atom -12389.459576 kJ/mol
# Density = 2.056304 g / cm^3
# Si number density = 20.609949 Si / 1000 Ang^3
#
#
#
# Elastic Constant Matrix: (Units=GPa)
#
#
# Indices 1 2 3 4 5 6 
#
# 1 132.4096 54.9269 40.7051 0.0000 27.8827 0.0021
# 2 54.9269 116.1573 19.1279 -0.0070 14.6150 0.0048
# 3 40.7051 19.1279 78.8435 -0.0079 11.2672 0.0061
# 4 0.0000 -0.0070 -0.0079 13.2266 0.0035 10.5192
# 5 27.8827 14.6150 11.2672 0.0035 37.5136 -0.0035
# 6 0.0021 0.0048 0.0061 10.5192 -0.0035 26.8485
#
#
#
# Elastic Compliance Matrix: (Units=1/GPa)
#
#
# Indices 1 2 3 4 5 6 
#
# 1 0.011822 -0.004148 -0.004255 -0.000005 -0.005893 0.000002
# 2 -0.004148 0.010750 -0.000322 0.000010 -0.001008 -0.000006
# 3 -0.004255 -0.000322 0.015138 0.000017 -0.001259 -0.000010
# 4 -0.000005 0.000010 0.000017 0.109827 -0.000020 -0.043030
# 5 -0.005893 -0.001008 -0.001259 -0.000020 0.031808 0.000013
# 6 0.000002 -0.000006 -0.000010 -0.043030 0.000013 0.054105
#
#
# Mechanical properties :
#
#
# Convention : Reuss Voigt Hill
#
# Bulk Modulus (GPa) = 49.35927 61.88115 55.62021
# Shear Modulus (GPa) = 19.40583 29.69445 24.55014
#
# Velocity S-wave (km/s) = 3.07184 3.79988 3.45509
# Velocity P-wave (km/s) = 6.04837 7.02440 6.55458
#
# Compressibility (1/GPa) = 0.02025962
#
# Stress axis : x y z
#
# Youngs Moduli (GPa) = 84.58774 93.01902 66.05815
#
# Poissons Ratio (x) = 0.38585 0.28107
# Poissons Ratio (y) = 0.35088 0.02130
# Poissons Ratio (z) = 0.35992 0.03000
#
# Static dielectric constant tensor:
#      x y z
#    x 3.912210 -0.000020 0.339150 
#    y -0.000020 3.615630 0.000000 
#    z 0.339150 0.000000 3.884020 
# 
# 
# High freq. dielectric constant tensor:
#      x y z
#    x 1.807650 0.000000 0.021610 
#    y 0.000000 1.769550 0.000000 
#    z 0.021610 0.000000 1.802530 
# 
# From -- ./inp_files/227628.got.cif
#   From: 2010.06.25/outbox.cif.g09.slc.cpg/sg12_114_cif.got.tgz:227628.got - 2010.06.28 00:19:55.
