data_PCOD8079162
_publ_section_title
;
Structure prediction by ZEFSAII (Michael W. Deem and Ramdas Pophale) SiO2 
 PCOD8079162
Probable space group: C 2/M
;
_chemical_formula_sum "Si O2"
_cell_formula_units_Z 64
_cell_length_a 22.198532
_cell_length_b 12.822599
_cell_length_c 24.801878
_cell_angle_alpha 90.000000
_cell_angle_beta 35.134143
_cell_angle_gamma 90.000000
_cell_volume 4062.793003
_symmetry_space_group_name_H-M "C 2/M"
_symmetry_group_IT_number 12
_symmetry_cell_setting 'monoclinic'
loop_
_space_group_symop_operation_xyz
x,y,z
-x,y,-z
-x,-y,-z
x,-y,z
1/2+x,1/2+y,z
1/2-x,1/2+y,-z
1/2-x,1/2-y,-z
1/2+x,1/2-y,z
loop_
_atom_site_type_symbol
_atom_site_label
_atom_site_fract_x
_atom_site_fract_y
_atom_site_fract_z
Si Si1 0.225354 0.192940 0.810336
Si Si2 0.584891 0.121965 0.479119
Si Si3 0.827861 0.119896 0.035906
Si Si4 0.501509 0.759163 0.853540
Si Si5 0.555527 0.879518 0.322094
Si Si6 0.906221 0.380240 0.824688
Si Si7 0.585320 0.880375 0.891454
Si Si8 0.191808 0.880726 0.718749
O O1 0.169282 0.140648 0.902439
O O2 0.350598 0.192977 0.725169
O O3 0.187482 0.312122 0.830847
O O4 0.191421 0.125227 0.783768
O O5 0.500000 0.171359 0.500000
O O6 0.548491 0.144692 0.567111
O O7 0.700283 0.168317 0.384225
O O8 0.593081 0.000000 0.460550
O O9 0.714887 0.149847 0.094641
O O10 0.854689 0.000000 0.005242
O O11 0.913719 0.188477 0.944326
O O12 0.456224 0.810027 0.833399
O O13 0.536902 0.847581 0.869565
O O14 0.598081 0.688088 0.763662
O O15 0.532076 0.858343 0.276510
O O16 0.591652 0.000000 0.303469
O O17 0.917329 0.500000 0.833853
O O18 0.621555 0.000000 0.861628
O O19 0.500000 0.863050 0.000000
O O20 0.175603 0.000000 0.712438
#
# Coordination Sequence:
#
# PCOD8079162 Si02
#       8
#     8   8   8   8   8   8   8   8
#     4  10  17  29  47  72  94 123 150 190 235 283
#     4   9  15  26  46  74 102 124 143 181 236 292
#     4  10  19  31  48  70  96 121 152 192 240 282
#     4  11  20  32  46  66  93 130 162 193 229 275
#     4   9  16  29  51  74  98 118 148 194 240 283
#     4   9  19  33  49  66  87 123 165 201 226 267
#     4  10  20  33  45  62  91 126 163 198 227 264
#     4  10  19  28  45  73 103 125 148 184 239 293
#
# _framework density 15.75271
#
# number of rings (size 3 to 8) (size 9 to 14) (size 15 to 20)
#    0.000    2.250    2.500    3.000    0.000    0.000 
#    0.000    2.500    0.000    3.000    0.000    7.875 
#    0.000    0.000    0.000    0.000    0.000    0.000 
#
# Total GULP energy -396775.145319 kJ/mol
# GULP energy per Si atom -12399.223291 kJ/mol
# Density = 1.571686 g / cm^3
# Si number density = 15.752710 Si / 1000 Ang^3
#
#
#
# Elastic Constant Matrix: (Units=GPa)
#
#
# Indices 1 2 3 4 5 6 
#
# 1 78.3205 35.0534 46.3202 -0.0001 -2.7217 0.0000
# 2 35.0534 69.4728 42.7275 -0.0001 -5.8029 0.0000
# 3 46.3202 42.7275 119.0557 -0.0003 1.5787 0.0001
# 4 -0.0001 -0.0001 -0.0003 12.8377 0.0000 -8.8139
# 5 -2.7217 -5.8029 1.5787 0.0000 16.8776 0.0000
# 6 0.0000 0.0000 0.0001 -8.8139 0.0000 15.5186
#
#
#
# Elastic Compliance Matrix: (Units=1/GPa)
#
#
# Indices 1 2 3 4 5 6 
#
# 1 0.018539 -0.006153 -0.005022 0.000000 0.001344 0.000000
# 2 -0.006153 0.021373 -0.005367 0.000000 0.006858 0.000000
# 3 -0.005022 -0.005367 0.012330 0.000000 -0.003809 0.000000
# 4 0.000000 0.000000 0.000000 0.127684 0.000000 0.072519
# 5 0.001344 0.006858 -0.003809 0.000000 0.062181 0.000000
# 6 0.000000 0.000000 0.000000 0.072519 0.000000 0.105626
#
#
# Mechanical properties :
#
#
# Convention : Reuss Voigt Hill
#
# Bulk Modulus (GPa) = 52.20214 57.22792 54.71503
# Shear Modulus (GPa) = 12.91309 18.56331 15.73820
#
# Velocity S-wave (km/s) = 2.86621 3.43654 3.16425
# Velocity P-wave (km/s) = 6.64560 7.22178 6.93968
#
# Compressibility (1/GPa) = 0.01915630
#
# Stress axis : x y z
#
# Youngs Moduli (GPa) = 53.94057 46.78892 81.10110
#
# Poissons Ratio (x) = 0.28789 0.40733
# Poissons Ratio (y) = 0.33189 0.43530
# Poissons Ratio (z) = 0.27091 0.25114
#
# Static dielectric constant tensor:
#      x y z
#    x 2.932160 0.000000 0.053300 
#    y 0.000000 2.830760 0.000000 
#    z 0.053300 0.000000 3.121030 
# 
# 
# High freq. dielectric constant tensor:
#      x y z
#    x 1.597870 0.000000 0.006320 
#    y 0.000000 1.580210 0.000000 
#    z 0.006320 0.000000 1.607310 
# 
# From -- ./inp_files/346816.got.cif
#   From: 2010.06.25/outbox.cif.g09.slc.cpg/sg12_174_cif.got.tgz:346816.got - 2010.06.28 00:19:55.
