data_PCOD8079675
_publ_section_title
;
Structure prediction by ZEFSAII (Michael W. Deem and Ramdas Pophale) SiO2 
 PCOD8079675
Probable space group: C 2/M
;
_chemical_formula_sum "Si O2"
_cell_formula_units_Z 56
_cell_length_a 9.421310
_cell_length_b 17.734498
_cell_length_c 18.818887
_cell_angle_alpha 90.000000
_cell_angle_beta 113.833073
_cell_angle_gamma 90.000000
_cell_volume 2876.175783
_symmetry_space_group_name_H-M "C 2/M"
_symmetry_group_IT_number 12
_symmetry_cell_setting 'monoclinic'
loop_
_space_group_symop_operation_xyz
x,y,z
-x,y,-z
-x,-y,-z
x,-y,z
1/2+x,1/2+y,z
1/2-x,1/2+y,-z
1/2-x,1/2-y,-z
1/2+x,1/2-y,z
loop_
_atom_site_type_symbol
_atom_site_label
_atom_site_fract_x
_atom_site_fract_y
_atom_site_fract_z
Si Si1 0.826963 0.915838 0.269865
Si Si2 0.789254 0.687329 0.180757
Si Si3 0.177115 0.671419 0.963718
Si Si4 0.681506 0.152748 0.115904
Si Si5 0.111499 0.321352 0.320396
Si Si6 0.530622 0.087077 0.587822
Si Si7 0.151387 0.152832 0.298823
O O1 0.720181 0.914613 0.177355
O O2 0.762118 0.858495 0.315259
O O3 0.000901 0.895281 0.284634
O O4 0.821567 0.000000 0.300002
O O5 0.752343 0.643631 0.098075
O O6 0.787718 0.776723 0.163428
O O7 0.666199 0.664579 0.216326
O O8 0.961227 0.665444 0.240944
O O9 0.994238 0.681109 0.914479
O O10 0.250000 0.750000 0.000000
O O11 0.213666 0.621516 0.041570
O O12 0.085287 0.359778 0.391223
O O13 0.146040 0.233156 0.337505
O O14 0.500000 0.104916 0.500000
O O15 0.707427 0.105091 0.642009
O O16 0.496280 0.000000 0.599406
#
# Coordination Sequence:
#
# PCOD8079675 Si02
#       7
#     8   8   8   8   8   8   8
#     4  12  23  36  57  88 122 153 188 240 303 353
#     4  10  17  33  59  83 110 146 199 245 280 328
#     4   9  18  29  52  84 112 148 199 247 287 335
#     4  10  18  32  52  84 114 149 191 248 292 331
#     4  11  20  38  64  88 113 151 198 241 282 348
#     4  10  23  43  63  86 120 157 190 230 290 360
#     4  11  21  37  63  89 118 149 196 245 286 337
#
# _framework density 19.470296999999999
#
# number of rings (size 3 to 8) (size 9 to 14) (size 15 to 20)
#    0.000    1.571    4.286    1.714    2.000    0.571 
#    0.000    2.143    0.000    3.429    0.000    0.000 
#    0.000    0.000    0.000    0.000    0.000    0.000 
#
# Total GULP energy -347025.725246 kJ/mol
# GULP energy per Si atom -12393.775902 kJ/mol
# Density = 1.942598 g / cm^3
# Si number density = 19.470297 Si / 1000 Ang^3
#
#
#
# Elastic Constant Matrix: (Units=GPa)
#
#
# Indices 1 2 3 4 5 6 
#
# 1 94.8514 15.7080 35.8624 0.0000 -10.9472 0.0000
# 2 15.7080 63.8165 21.6293 0.0000 -11.1571 0.0000
# 3 35.8624 21.6293 97.3733 0.0000 -26.3003 0.0000
# 4 0.0000 0.0000 0.0000 19.1834 0.0000 1.5425
# 5 -10.9472 -11.1571 -26.3003 0.0000 29.4680 0.0000
# 6 0.0000 0.0000 0.0000 1.5425 0.0000 20.2032
#
#
#
# Elastic Compliance Matrix: (Units=1/GPa)
#
#
# Indices 1 2 3 4 5 6 
#
# 1 0.012405 -0.001599 -0.004127 0.000000 0.000319 0.000000
# 2 -0.001599 0.017522 -0.002203 0.000000 0.004074 0.000000
# 3 -0.004127 -0.002203 0.015337 0.000000 0.011321 0.000000
# 4 0.000000 0.000000 0.000000 0.052451 0.000000 -0.004005
# 5 0.000319 0.004074 0.011321 0.000000 0.045700 0.000000
# 6 0.000000 0.000000 0.000000 -0.004005 0.000000 0.049803
#
#
# Mechanical properties :
#
#
# Convention : Reuss Voigt Hill
#
# Bulk Modulus (GPa) = 34.00631 44.71563 39.36097
# Shear Modulus (GPa) = 22.84378 25.96034 24.40206
#
# Velocity S-wave (km/s) = 3.42901 3.65544 3.54403
# Velocity P-wave (km/s) = 5.76031 6.39001 6.08331
#
# Compressibility (1/GPa) = 0.02940631
#
# Stress axis : x y z
#
# Youngs Moduli (GPa) = 80.61317 57.06985 65.20208
#
# Poissons Ratio (x) = 0.09124 0.26911
# Poissons Ratio (y) = 0.12887 0.14364
# Poissons Ratio (z) = 0.33272 0.12572
#
# Static dielectric constant tensor:
#      x y z
#    x 3.769390 0.000000 -0.264900 
#    y 0.000000 3.290090 0.000000 
#    z -0.264900 0.000000 3.747550 
# 
# 
# High freq. dielectric constant tensor:
#      x y z
#    x 1.769770 0.000000 -0.010340 
#    y 0.000000 1.723180 0.000000 
#    z -0.010340 0.000000 1.756050 
# 
# From -- ./inp_files/300910.got.cif
#   From: 2010.06.25/outbox.cif.g09.slc.cpg/sg12_151_cif.got.tgz:300910.got - 2010.06.28 00:19:55.
