data_PCOD8079508
_publ_section_title
;
Structure prediction by ZEFSAII (Michael W. Deem and Ramdas Pophale) SiO2 
 PCOD8079508
Probable space group: C 2/M
;
_chemical_formula_sum "Si O2"
_cell_formula_units_Z 56
_cell_length_a 23.061682
_cell_length_b 21.624651
_cell_length_c 8.774025
_cell_angle_alpha 90.000000
_cell_angle_beta 46.159603
_cell_angle_gamma 90.000000
_cell_volume 3156.007703
_symmetry_space_group_name_H-M "C 2/M"
_symmetry_group_IT_number 12
_symmetry_cell_setting 'monoclinic'
loop_
_space_group_symop_operation_xyz
x,y,z
-x,y,-z
-x,-y,-z
x,-y,z
1/2+x,1/2+y,z
1/2-x,1/2+y,-z
1/2-x,1/2-y,-z
1/2+x,1/2-y,z
loop_
_atom_site_type_symbol
_atom_site_label
_atom_site_fract_x
_atom_site_fract_y
_atom_site_fract_z
Si Si1 0.189878 0.930439 0.450382
Si Si2 0.821608 0.746975 0.568569
Si Si3 0.192799 0.832633 0.665489
Si Si4 0.746772 0.841085 0.913256
Si Si5 0.389779 0.333290 0.876968
Si Si6 0.913642 0.706899 0.665471
Si Si7 0.005023 0.929309 0.812488
O O1 0.203390 0.904281 0.598675
O O2 0.244703 0.893846 0.229350
O O3 0.095528 0.926123 0.584030
O O4 0.221461 0.000000 0.392371
O O5 0.848239 0.802593 0.410485
O O6 0.780331 0.695013 0.540034
O O7 0.763666 0.773252 0.809606
O O8 0.897491 0.718957 0.515955
O O9 0.134353 0.817260 0.907968
O O10 0.810411 0.856694 0.931367
O O11 0.655140 0.838136 0.141088
O O12 0.425225 0.271979 0.734054
O O13 0.455203 0.387857 0.781194
O O14 0.000000 0.672727 0.500000
O O15 0.972680 0.000000 0.864164
O O16 0.000000 0.906683 0.000000
#
# Coordination Sequence:
#
# PCOD8079508 Si02
#       7
#     8   8   8   8   8   8   8
#     4  10  22  37  55  78 109 147 183 219 263 315
#     4   9  18  34  51  79 105 143 175 219 268 323
#     4  10  17  31  58  73 108 142 179 214 260 318
#     4  10  20  37  53  74 109 143 181 225 267 318
#     4  11  20  32  53  77 108 151 179 211 261 328
#     4  11  22  34  53  80 110 137 183 229 277 321
#     4  10  21  34  49  79 115 145 182 221 253 309
#
# _framework density 17.743936999999999
#
# number of rings (size 3 to 8) (size 9 to 14) (size 15 to 20)
#    0.000    1.857    4.286    0.857    6.000    0.571 
#    0.000    1.429    0.000    0.429    0.000    1.000 
#    0.000    0.000    0.000    0.000    0.000    0.000 
#
# Total GULP energy -346998.985457 kJ/mol
# GULP energy per Si atom -12392.820909 kJ/mol
# Density = 1.770355 g / cm^3
# Si number density = 17.743937 Si / 1000 Ang^3
#
#
#
# Elastic Constant Matrix: (Units=GPa)
#
#
# Indices 1 2 3 4 5 6 
#
# 1 94.6032 42.3949 39.6386 0.0000 2.5282 0.0000
# 2 42.3949 76.8536 19.6519 0.0000 -6.6880 0.0000
# 3 39.6386 19.6519 74.2348 0.0000 -2.6468 0.0000
# 4 0.0000 0.0000 0.0000 15.1781 0.0000 -4.0571
# 5 2.5282 -6.6880 -2.6468 0.0000 29.4422 0.0000
# 6 0.0000 0.0000 0.0000 -4.0571 0.0000 24.9917
#
#
#
# Elastic Compliance Matrix: (Units=1/GPa)
#
#
# Indices 1 2 3 4 5 6 
#
# 1 0.017325 -0.008045 -0.007262 0.000000 -0.003968 0.000000
# 2 -0.008045 0.017934 -0.000283 0.000000 0.004739 0.000000
# 3 -0.007262 -0.000283 0.017500 0.000000 0.002133 0.000000
# 4 0.000000 0.000000 0.000000 0.068873 0.000000 0.011181
# 5 -0.003968 0.004739 0.002133 0.000000 0.035574 0.000000
# 6 0.000000 0.000000 0.000000 0.011181 0.000000 0.041828
#
#
# Mechanical properties :
#
#
# Convention : Reuss Voigt Hill
#
# Bulk Modulus (GPa) = 46.34415 49.89581 48.11998
# Shear Modulus (GPa) = 21.06083 23.52282 22.29183
#
# Velocity S-wave (km/s) = 3.44892 3.64494 3.54829
# Velocity P-wave (km/s) = 6.48345 6.77459 6.63062
#
# Compressibility (1/GPa) = 0.02157770
#
# Stress axis : x y z
#
# Youngs Moduli (GPa) = 57.72080 55.75847 57.14417
#
# Poissons Ratio (x) = 0.44859 0.41501
# Poissons Ratio (y) = 0.46437 0.01617
# Poissons Ratio (z) = 0.41920 0.01578
#
# Static dielectric constant tensor:
#      x y z
#    x 3.439390 0.000000 0.163630 
#    y 0.000000 3.245110 0.000000 
#    z 0.163630 0.000000 3.203530 
# 
# 
# High freq. dielectric constant tensor:
#      x y z
#    x 1.683520 0.000000 0.018410 
#    y 0.000000 1.657960 0.000000 
#    z 0.018410 0.000000 1.681370 
# 
# From -- ./inp_files/90344.got.cif
#   From: 2010.06.25/outbox.cif.g09.slc.cpg/sg12_46_cif.got.tgz:90344.got - 2010.06.28 00:19:55.
