data_PCOD8079333
_publ_section_title
;
Structure prediction by ZEFSAII (Michael W. Deem and Ramdas Pophale) SiO2 
 PCOD8079333
Probable space group: C 2/M
;
_chemical_formula_sum "Si O2"
_cell_formula_units_Z 40
_cell_length_a 28.798709
_cell_length_b 8.563577
_cell_length_c 10.384253
_cell_angle_alpha 90.000000
_cell_angle_beta 59.277136
_cell_angle_gamma 90.000000
_cell_volume 2201.528853
_symmetry_space_group_name_H-M "C 2/M"
_symmetry_group_IT_number 12
_symmetry_cell_setting 'monoclinic'
loop_
_space_group_symop_operation_xyz
x,y,z
-x,y,-z
-x,-y,-z
x,-y,z
1/2+x,1/2+y,z
1/2-x,1/2+y,-z
1/2-x,1/2-y,-z
1/2+x,1/2-y,z
loop_
_atom_site_type_symbol
_atom_site_label
_atom_site_fract_x
_atom_site_fract_y
_atom_site_fract_z
Si Si1 0.039045 0.815974 0.561704
Si Si2 0.138828 0.815838 0.026022
Si Si3 0.248539 0.684286 0.858633
Si Si4 0.976122 0.185668 0.901269
Si Si5 0.357112 0.182800 0.696663
O O1 0.095482 0.725644 0.468997
O O2 0.000000 0.770067 0.500000
O O3 0.012130 0.754638 0.731308
O O4 0.050325 0.000000 0.547647
O O5 0.085505 0.756640 0.027218
O O6 0.132727 0.771665 0.183977
O O7 0.145698 0.000000 0.006653
O O8 0.190616 0.736080 0.882761
O O9 0.254083 0.500000 0.848310
O O10 0.300219 0.760382 0.713474
O O11 0.250000 0.750000 0.000000
O O12 0.977261 0.000000 0.900444
O O13 0.000000 0.254837 0.000000
O O14 0.354912 0.000000 0.727183
#
# Coordination Sequence:
#
# PCOD8079333 Si02
#       5
#     8   8   8   8   8
#     4  10  18  32  52  75 101 133 167 207 252 296
#     4  10  17  30  50  73 102 133 168 207 250 296
#     4  10  18  29  46  71 101 132 166 206 255 300
#     4   9  18  32  52  76 102 134 170 203 245 302
#     4  11  20  30  47  74 104 132 167 208 254 297
#
# _framework density 18.169191999999999
#
# number of rings (size 3 to 8) (size 9 to 14) (size 15 to 20)
#    0.000    2.000    2.000    6.600    0.000    0.400 
#    0.000    0.000    0.000    6.600    0.000    0.000 
#    0.000    0.000    0.000    0.000    0.000    0.000 
#
# Total GULP energy -247948.108582 kJ/mol
# GULP energy per Si atom -12397.405429 kJ/mol
# Density = 1.812784 g / cm^3
# Si number density = 18.169192 Si / 1000 Ang^3
#
#
#
# Elastic Constant Matrix: (Units=GPa)
#
#
# Indices 1 2 3 4 5 6 
#
# 1 127.7978 21.6856 77.0047 0.0000 -29.1044 0.0000
# 2 21.6856 66.3604 24.1039 0.0000 -16.0094 0.0000
# 3 77.0047 24.1039 108.9864 0.0000 -25.4425 0.0000
# 4 0.0000 0.0000 0.0000 22.7835 0.0000 -13.2748
# 5 -29.1044 -16.0094 -25.4425 0.0000 41.3227 0.0000
# 6 0.0000 0.0000 0.0000 -13.2748 0.0000 19.0349
#
#
#
# Elastic Compliance Matrix: (Units=1/GPa)
#
#
# Indices 1 2 3 4 5 6 
#
# 1 0.014315 -0.000343 -0.009011 0.000000 0.004401 0.000000
# 2 -0.000343 0.017255 -0.002417 0.000000 0.004955 0.000000
# 3 -0.009011 -0.002417 0.016790 0.000000 0.003055 0.000000
# 4 0.000000 0.000000 0.000000 0.073933 0.000000 0.051560
# 5 0.004401 0.004955 0.003055 0.000000 0.031100 0.000000
# 6 0.000000 0.000000 0.000000 0.051560 0.000000 0.088493
#
#
# Mechanical properties :
#
#
# Convention : Reuss Voigt Hill
#
# Bulk Modulus (GPa) = 40.29421 60.97034 50.63227
# Shear Modulus (GPa) = 18.26820 28.65159 23.45989
#
# Velocity S-wave (km/s) = 3.17432 3.97537 3.59721
# Velocity P-wave (km/s) = 5.97164 7.39603 6.72167
#
# Compressibility (1/GPa) = 0.02481746
#
# Stress axis : x y z
#
# Youngs Moduli (GPa) = 69.85688 57.95536 59.56008
#
# Poissons Ratio (x) = 0.01988 0.53669
# Poissons Ratio (y) = 0.02397 0.14395
# Poissons Ratio (z) = 0.62948 0.14008
#
# Static dielectric constant tensor:
#      x y z
#    x 3.765580 0.000000 -0.587830 
#    y 0.000000 3.170040 0.000000 
#    z -0.587830 0.000000 3.513680 
# 
# 
# High freq. dielectric constant tensor:
#      x y z
#    x 1.691680 0.000000 -0.045910 
#    y 0.000000 1.694720 0.000000 
#    z -0.045910 0.000000 1.684790 
# 
# From -- ./inp_files/92918.got.cif
#   From: 2010.06.25/outbox.cif.g09.slc.cpg/sg12_47_cif.got.tgz:92918.got - 2010.06.28 00:19:55.
