data_PCOD8079132
_publ_section_title
;
Structure prediction by ZEFSAII (Michael W. Deem and Ramdas Pophale) SiO2 
 PCOD8079132
Probable space group: C 2/M
;
_chemical_formula_sum "Si O2"
_cell_formula_units_Z 40
_cell_length_a 22.991490
_cell_length_b 12.981368
_cell_length_c 15.728162
_cell_angle_alpha 90.000000
_cell_angle_beta 148.000791
_cell_angle_gamma 90.000000
_cell_volume 2487.514753
_symmetry_space_group_name_H-M "C 2/M"
_symmetry_group_IT_number 12
_symmetry_cell_setting 'monoclinic'
loop_
_space_group_symop_operation_xyz
x,y,z
-x,y,-z
-x,-y,-z
x,-y,z
1/2+x,1/2+y,z
1/2-x,1/2+y,-z
1/2-x,1/2-y,-z
1/2+x,1/2-y,z
loop_
_atom_site_type_symbol
_atom_site_label
_atom_site_fract_x
_atom_site_fract_y
_atom_site_fract_z
Si Si1 0.158520 0.882438 0.900286
Si Si2 0.890695 0.379032 0.455175
Si Si3 0.624272 0.191765 0.751959
Si Si4 0.837061 0.121390 0.768287
Si Si5 0.465416 0.377738 0.090047
O O1 0.141632 0.811892 0.796552
O O2 0.076423 0.836520 0.871013
O O3 0.131470 0.000000 0.841787
O O4 0.283155 0.877239 0.088509
O O5 0.889777 0.500000 0.432696
O O6 0.870493 0.318343 0.342704
O O7 0.791744 0.348763 0.397418
O O8 0.005849 0.346795 0.639582
O O9 0.909332 0.159563 0.776617
O O10 0.851589 0.000000 0.790154
O O11 0.886846 0.165853 0.917976
O O12 0.455841 0.500000 0.082641
#
# Coordination Sequence:
#
# PCOD8079132 Si02
#       5
#     8   8   8   8   8
#     4  10  18  30  43  61  90 115 136 173 210 248
#     4  10  17  29  45  64  88 110 136 182 215 238
#     4  10  19  27  43  65  85 113 145 165 210 260
#     4   8  13  22  41  63  82 106 136 170 210 247
#     4   8  13  23  40  62  83 107 136 167 209 250
#
# _framework density 16.080307000000001
#
# number of rings (size 3 to 8) (size 9 to 14) (size 15 to 20)
#    0.000    2.800    2.000    3.600    0.000    0.000 
#    0.000    3.000    0.000    0.000    0.000    0.000 
#    0.000   16.000    0.000    0.000    0.000    0.000 
#
# Total GULP energy -247784.703192 kJ/mol
# GULP energy per Si atom -12389.235160 kJ/mol
# Density = 1.604371 g / cm^3
# Si number density = 16.080307 Si / 1000 Ang^3
#
#
#
# Elastic Constant Matrix: (Units=GPa)
#
#
# Indices 1 2 3 4 5 6 
#
# 1 81.5678 31.0389 49.4834 0.0000 28.5942 0.0000
# 2 31.0389 54.8941 21.4612 0.0000 -2.4484 0.0000
# 3 49.4834 21.4612 71.6299 0.0000 22.6525 0.0000
# 4 0.0000 0.0000 0.0000 12.3339 0.0000 -3.0355
# 5 28.5942 -2.4484 22.6525 0.0000 32.6208 0.0000
# 6 0.0000 0.0000 0.0000 -3.0355 0.0000 6.4049
#
#
#
# Elastic Compliance Matrix: (Units=1/GPa)
#
#
# Indices 1 2 3 4 5 6 
#
# 1 0.032144 -0.014898 -0.010864 0.000000 -0.021751 0.000000
# 2 -0.014898 0.029071 -0.004149 0.000000 0.018123 0.000000
# 3 -0.010864 -0.004149 0.025366 0.000000 -0.008404 0.000000
# 4 0.000000 0.000000 0.000000 0.091783 0.000000 0.043499
# 5 -0.021751 0.018123 -0.008404 0.000000 0.056917 0.000000
# 6 0.000000 0.000000 0.000000 0.043499 0.000000 0.176747
#
#
# Mechanical properties :
#
#
# Convention : Reuss Voigt Hill
#
# Bulk Modulus (GPa) = 37.37000 45.78430 41.57715
# Shear Modulus (GPa) = 10.39995 17.34581 13.87288
#
# Velocity S-wave (km/s) = 2.54589 3.28792 2.94040
# Velocity P-wave (km/s) = 5.65085 6.55347 6.11883
#
# Compressibility (1/GPa) = 0.02675943
#
# Stress axis : x y z
#
# Youngs Moduli (GPa) = 31.10964 34.39813 39.42251
#
# Poissons Ratio (x) = 0.51247 0.42827
# Poissons Ratio (y) = 0.46348 0.16357
# Poissons Ratio (z) = 0.33797 0.14273
#
# Static dielectric constant tensor:
#      x y z
#    x 3.412600 0.000000 0.427580 
#    y 0.000000 2.627470 0.000000 
#    z 0.427580 0.000000 3.005030 
# 
# 
# High freq. dielectric constant tensor:
#      x y z
#    x 1.624230 0.000000 0.031760 
#    y 0.000000 1.568510 0.000000 
#    z 0.031760 0.000000 1.601170 
# 
# From -- ./inp_files/154901.got.cif
#   From: 2010.06.25/outbox.cif.g09.slc.cpg/sg12_78_cif.got.tgz:154901.got - 2010.06.28 00:19:55.
