data_PCOD8079344
_publ_section_title
;
Structure prediction by ZEFSAII (Michael W. Deem and Ramdas Pophale) SiO2 
 PCOD8079344
Probable space group: C 2/M
;
_chemical_formula_sum "Si O2"
_cell_formula_units_Z 36
_cell_length_a 21.033434
_cell_length_b 14.223369
_cell_length_c 10.471495
_cell_angle_alpha 90.000000
_cell_angle_beta 36.757431
_cell_angle_gamma 90.000000
_cell_volume 1874.707984
_symmetry_space_group_name_H-M "C 2/M"
_symmetry_group_IT_number 12
_symmetry_cell_setting 'monoclinic'
loop_
_space_group_symop_operation_xyz
x,y,z
-x,y,-z
-x,-y,-z
x,-y,z
1/2+x,1/2+y,z
1/2-x,1/2+y,-z
1/2-x,1/2-y,-z
1/2+x,1/2-y,z
loop_
_atom_site_type_symbol
_atom_site_label
_atom_site_fract_x
_atom_site_fract_y
_atom_site_fract_z
Si Si1 0.834040 0.200447 0.955138
Si Si2 0.757686 0.893481 0.460178
Si Si3 0.000000 0.754086 0.500000
Si Si4 0.655682 0.898084 0.362147
Si Si5 0.382659 0.229487 0.147843
O O1 0.938432 0.179257 0.700423
O O2 0.750000 0.250000 0.000000
O O3 0.773722 0.109340 0.107931
O O4 0.871818 0.265534 0.012178
O O5 0.668869 0.892571 0.492664
O O6 0.701969 0.849994 0.674624
O O7 0.857458 0.829182 0.257629
O O8 0.797059 0.000000 0.425444
O O9 0.080971 0.686773 0.443325
O O10 0.608548 0.000000 0.398760
O O11 0.500000 0.198377 0.000000
#
# Coordination Sequence:
#
# PCOD8079344 Si02
#       5
#     8   8   4   8   8
#     4   9  19  33  50  72 101 132 162 200 247 292
#     4   9  19  34  51  74 103 130 161 206 254 296
#     4  10  17  30  51  70  94 132 170 198 237 292
#     4   9  17  31  50  72  98 127 162 203 245 291
#     4  10  19  33  54  77 100 130 168 206 246 295
#
# _framework density 19.202991000000001
#
# number of rings (size 3 to 8) (size 9 to 14) (size 15 to 20)
#    0.000    2.667    0.000    1.667    0.000    2.667 
#    0.000    6.111    0.000    0.000    0.000    0.000 
#    0.000    0.000    0.000    0.000    0.000    0.000 
#
# Total GULP energy -223030.705091 kJ/mol
# GULP energy per Si atom -12390.594727 kJ/mol
# Density = 1.915928 g / cm^3
# Si number density = 19.202991 Si / 1000 Ang^3
#
#
#
# Elastic Constant Matrix: (Units=GPa)
#
#
# Indices 1 2 3 4 5 6 
#
# 1 69.2545 -7.0230 22.7238 0.0000 9.5683 0.0000
# 2 -7.0230 60.2297 8.6996 0.0000 1.2135 0.0000
# 3 22.7238 8.6996 120.0515 0.0000 7.7067 0.0000
# 4 0.0000 0.0000 0.0000 12.0938 0.0000 -3.8292
# 5 9.5683 1.2135 7.7067 0.0000 29.2294 0.0000
# 6 0.0000 0.0000 0.0000 -3.8292 0.0000 16.5877
#
#
#
# Elastic Compliance Matrix: (Units=1/GPa)
#
#
# Indices 1 2 3 4 5 6 
#
# 1 0.016300 0.002422 -0.002962 0.000000 -0.004655 0.000000
# 2 0.002422 0.017143 -0.001632 0.000000 -0.001074 0.000000
# 3 -0.002962 -0.001632 0.009096 0.000000 -0.001361 0.000000
# 4 0.000000 0.000000 0.000000 0.089208 0.000000 0.020593
# 5 -0.004655 -0.001074 -0.001361 0.000000 0.036139 0.000000
# 6 0.000000 0.000000 0.000000 0.020593 0.000000 0.065040
#
#
# Mechanical properties :
#
#
# Convention : Reuss Voigt Hill
#
# Bulk Modulus (GPa) = 26.18068 33.14849 29.66458
# Shear Modulus (GPa) = 19.99991 26.59120 23.29556
#
# Velocity S-wave (km/s) = 3.23073 3.72525 3.48677
# Velocity P-wave (km/s) = 5.25167 5.98356 5.62952
#
# Compressibility (1/GPa) = 0.03819611
#
# Stress axis : x y z
#
# Youngs Moduli (GPa) = 61.34877 58.33320 109.93804
#
# Poissons Ratio (x) = -0.14130 0.32564
# Poissons Ratio (y) = -0.14861 0.17940
# Poissons Ratio (z) = 0.18172 0.09519
#
# Static dielectric constant tensor:
#      x y z
#    x 3.423300 0.000000 0.065190 
#    y 0.000000 3.369970 0.000000 
#    z 0.065190 0.000000 3.992480 
# 
# 
# High freq. dielectric constant tensor:
#      x y z
#    x 1.742650 0.000000 0.007780 
#    y 0.000000 1.714260 0.000000 
#    z 0.007780 0.000000 1.756720 
# 
# From -- ./inp_files/46648.got.cif
#   From: 2010.06.25/outbox.cif.g09.slc.cpg/sg12_24_cif.got.tgz:46648.got - 2010.06.28 00:19:55.
