data_PCOD8079653
_publ_section_title
;
Structure prediction by ZEFSAII (Michael W. Deem and Ramdas Pophale) SiO2 
 PCOD8079653
Probable space group: C 2/M
;
_chemical_formula_sum "Si O2"
_cell_formula_units_Z 48
_cell_length_a 20.340016
_cell_length_b 17.437295
_cell_length_c 7.742960
_cell_angle_alpha 90.000000
_cell_angle_beta 64.658762
_cell_angle_gamma 90.000000
_cell_volume 2481.976211
_symmetry_space_group_name_H-M "C 2/M"
_symmetry_group_IT_number 12
_symmetry_cell_setting 'monoclinic'
loop_
_space_group_symop_operation_xyz
x,y,z
-x,y,-z
-x,-y,-z
x,-y,z
1/2+x,1/2+y,z
1/2-x,1/2+y,-z
1/2-x,1/2-y,-z
1/2+x,1/2-y,z
loop_
_atom_site_type_symbol
_atom_site_label
_atom_site_fract_x
_atom_site_fract_y
_atom_site_fract_z
Si Si1 0.674221 0.767715 0.772431
Si Si2 0.087991 0.774440 0.534673
Si Si3 0.280495 0.914509 0.098569
Si Si4 0.108988 0.085086 0.302620
Si Si5 0.297567 0.201000 0.810248
Si Si6 0.547011 0.299933 0.117439
O O1 0.640586 0.752378 0.626359
O O2 0.744268 0.709926 0.703553
O O3 0.695355 0.857454 0.773659
O O4 0.615763 0.752564 0.991594
O O5 0.089040 0.865661 0.496086
O O6 0.121334 0.734042 0.324391
O O7 0.004547 0.755454 0.682323
O O8 0.307535 0.883552 0.879505
O O9 0.312851 0.000000 0.093025
O O10 0.194660 0.917457 0.186002
O O11 0.074725 0.120680 0.167468
O O12 0.077214 0.000000 0.364423
O O13 0.250000 0.250000 0.000000
O O14 0.500000 0.319679 0.000000
#
# Coordination Sequence:
#
# PCOD8079653 Si02
#       6
#     8   8   8   8   8   8
#     4  10  19  37  59  79 109 147 188 232 268 322
#     4  11  21  34  58  84 109 146 188 228 272 328
#     4  10  20  35  57  83 113 146 182 229 283 323
#     4  11  21  35  53  81 117 152 182 221 276 330
#     4  10  17  33  56  78 104 144 182 227 264 317
#     4  10  22  37  56  82 109 147 191 226 272 326
#
# _framework density 19.339427000000001
#
# number of rings (size 3 to 8) (size 9 to 14) (size 15 to 20)
#    0.000    1.667    5.000    2.000    0.000    1.667 
#    0.000    4.167    0.000    6.500    0.000    0.000 
#    0.000    0.000    0.000    0.000    0.000    0.000 
#
# Total GULP energy -297324.474726 kJ/mol
# GULP energy per Si atom -12388.519780 kJ/mol
# Density = 1.929541 g / cm^3
# Si number density = 19.339427 Si / 1000 Ang^3
#
#
#
# Elastic Constant Matrix: (Units=GPa)
#
#
# Indices 1 2 3 4 5 6 
#
# 1 62.2538 42.6599 19.2445 0.0000 -17.3268 0.0000
# 2 42.6599 112.7896 32.0446 0.0000 12.4869 0.0000
# 3 19.2445 32.0446 103.4797 0.0000 -21.6663 0.0000
# 4 0.0000 0.0000 0.0000 18.1553 0.0000 2.1956
# 5 -17.3268 12.4869 -21.6663 0.0000 27.7041 0.0000
# 6 0.0000 0.0000 0.0000 2.1956 0.0000 20.1387
#
#
#
# Elastic Compliance Matrix: (Units=1/GPa)
#
#
# Indices 1 2 3 4 5 6 
#
# 1 0.040229 -0.022075 0.008019 0.000000 0.041381 0.000000
# 2 -0.022075 0.023613 -0.009956 0.000000 -0.032236 0.000000
# 3 0.008019 -0.009956 0.015839 0.000000 0.021890 0.000000
# 4 0.000000 0.000000 0.000000 0.055816 0.000000 -0.006085
# 5 0.041381 -0.032236 0.021890 0.000000 0.093625 0.000000
# 6 0.000000 0.000000 0.000000 -0.006085 0.000000 0.050319
#
#
# Mechanical properties :
#
#
# Convention : Reuss Voigt Hill
#
# Bulk Modulus (GPa) = 31.59006 51.82458 41.70732
# Shear Modulus (GPa) = 14.79209 25.50455 20.14832
#
# Velocity S-wave (km/s) = 2.76862 3.63545 3.23123
# Velocity P-wave (km/s) = 5.15658 6.66915 5.96104
#
# Compressibility (1/GPa) = 0.03165553
#
# Stress axis : x y z
#
# Youngs Moduli (GPa) = 24.85763 42.34971 63.13614
#
# Poissons Ratio (x) = 0.93488 -0.50628
# Poissons Ratio (y) = 0.54874 0.62860
# Poissons Ratio (z) = -0.19933 0.42164
#
# Static dielectric constant tensor:
#      x y z
#    x 4.015730 0.000000 -0.001470 
#    y 0.000000 3.841680 0.000000 
#    z -0.001470 0.000000 3.861650 
# 
# 
# High freq. dielectric constant tensor:
#      x y z
#    x 1.772480 0.000000 -0.004830 
#    y 0.000000 1.709240 0.000000 
#    z -0.004830 0.000000 1.765460 
# 
# From -- ./inp_files/87154.got.cif
#   From: 2010.06.25/outbox.cif.g09.slc.cpg/sg12_44_cif.got.tgz:87154.got - 2010.06.28 00:19:55.
