data_PCOD8079814
_publ_section_title
;
Structure prediction by ZEFSAII (Michael W. Deem and Ramdas Pophale) SiO2 
 PCOD8079814
Probable space group: C 2/M
;
_chemical_formula_sum "Si O2"
_cell_formula_units_Z 64
_cell_length_a 27.446682
_cell_length_b 9.408169
_cell_length_c 16.998336
_cell_angle_alpha 90.000000
_cell_angle_beta 101.412358
_cell_angle_gamma 90.000000
_cell_volume 4302.577524
_symmetry_space_group_name_H-M "C 2/M"
_symmetry_group_IT_number 12
_symmetry_cell_setting 'monoclinic'
loop_
_space_group_symop_operation_xyz
x,y,z
-x,y,-z
-x,-y,-z
x,-y,z
1/2+x,1/2+y,z
1/2-x,1/2+y,-z
1/2-x,1/2-y,-z
1/2+x,1/2-y,z
loop_
_atom_site_type_symbol
_atom_site_label
_atom_site_fract_x
_atom_site_fract_y
_atom_site_fract_z
Si Si1 0.054317 0.665465 0.523657
Si Si2 0.216048 0.838699 0.169449
Si Si3 0.800530 0.835567 0.007558
Si Si4 0.355941 0.832772 0.552075
Si Si5 0.825732 0.336557 0.152523
Si Si6 0.701405 0.335230 0.588967
Si Si7 0.191666 0.660835 0.308228
Si Si8 0.631415 0.163016 0.674004
O O1 0.047003 0.500000 0.506944
O O2 0.091447 0.721605 0.466999
O O3 0.077780 0.696265 0.617638
O O4 0.000000 0.740376 0.500000
O O5 0.183382 0.822302 0.078788
O O6 0.272805 0.787784 0.172932
O O7 0.188493 0.753425 0.228971
O O8 0.217339 0.000000 0.198577
O O9 0.793122 0.000000 0.028485
O O10 0.750000 0.750000 0.000000
O O11 0.839051 0.761454 0.080917
O O12 0.311825 0.747962 0.494892
O O13 0.353203 0.802551 0.645061
O O14 0.347973 0.000000 0.532369
O O15 0.821982 0.500000 0.123380
O O16 0.869036 0.315475 0.231606
O O17 0.687047 0.500000 0.575241
O O18 0.759026 0.313929 0.625374
O O19 0.671861 0.269159 0.652532
O O20 0.187952 0.500000 0.277384
O O21 0.646744 0.000000 0.659087
#
# Coordination Sequence:
#
# PCOD8079814 Si02
#       8
#     8   8   8   8   8   8   8   8
#     4   8  14  26  45  63  77  99 131 165 200 240
#     4   9  17  27  38  53  76 107 137 161 194 231
#     4   9  17  27  38  54  76 105 138 168 196 227
#     4   9  18  30  41  55  77 103 131 164 201 237
#     4   9  16  26  39  56  77 105 136 164 198 233
#     4  10  18  26  37  56  78 102 136 166 192 230
#     4  10  19  27  37  55  78 105 135 165 194 228
#     4   9  16  27  42  59  81 106 133 165 201 238
#
# _framework density 14.874803999999999
#
# number of rings (size 3 to 8) (size 9 to 14) (size 15 to 20)
#    0.000    2.875    1.250    2.625    0.000    4.000 
#    0.000    0.000    0.000    6.000    0.000    0.000 
#    0.000    1.000    0.000   12.500    0.000    2.000 
#
# Total GULP energy -396493.309531 kJ/mol
# GULP energy per Si atom -12390.415923 kJ/mol
# Density = 1.484095 g / cm^3
# Si number density = 14.874804 Si / 1000 Ang^3
#
#
#
# Elastic Constant Matrix: (Units=GPa)
#
#
# Indices 1 2 3 4 5 6 
#
# 1 52.6350 20.5509 40.0654 0.0000 2.0939 0.0000
# 2 20.5509 63.4949 49.5731 0.0000 -2.4582 0.0000
# 3 40.0654 49.5731 119.6998 0.0000 0.0276 0.0000
# 4 0.0000 0.0000 0.0000 29.8459 0.0000 -0.6282
# 5 2.0939 -2.4582 0.0276 0.0000 12.7911 0.0000
# 6 0.0000 0.0000 0.0000 -0.6282 0.0000 7.8767
#
#
#
# Elastic Compliance Matrix: (Units=1/GPa)
#
#
# Indices 1 2 3 4 5 6 
#
# 1 0.026016 -0.002670 -0.007601 0.000000 -0.004756 0.000000
# 2 -0.002670 0.023810 -0.008968 0.000000 0.005032 0.000000
# 3 -0.007601 -0.008968 0.014613 0.000000 -0.000511 0.000000
# 4 0.000000 0.000000 0.000000 0.033562 0.000000 0.002677
# 5 -0.004756 0.005032 -0.000511 0.000000 0.079926 0.000000
# 6 0.000000 0.000000 0.000000 0.002677 0.000000 0.127171
#
#
# Mechanical properties :
#
#
# Convention : Reuss Voigt Hill
#
# Bulk Modulus (GPa) = 38.52048 50.68986 44.60517
# Shear Modulus (GPa) = 14.19523 18.47874 16.33699
#
# Velocity S-wave (km/s) = 3.09255 3.52843 3.31766
# Velocity P-wave (km/s) = 6.22129 7.12400 6.68790
#
# Compressibility (1/GPa) = 0.02596022
#
# Stress axis : x y z
#
# Youngs Moduli (GPa) = 38.43720 41.99864 68.43316
#
# Poissons Ratio (x) = 0.11214 0.52018
# Poissons Ratio (y) = 0.10263 0.61373
# Poissons Ratio (z) = 0.29217 0.37666
#
# Static dielectric constant tensor:
#      x y z
#    x 2.655330 0.000000 0.066870 
#    y 0.000000 2.896450 0.000000 
#    z 0.066870 0.000000 3.205330 
# 
# 
# High freq. dielectric constant tensor:
#      x y z
#    x 1.507640 0.000000 0.002370 
#    y 0.000000 1.565500 0.000000 
#    z 0.002370 0.000000 1.575900 
# 
# From -- ./inp_files/291607.got.cif
#   From: 2010.06.25/outbox.cif.g09.slc.cpg/sg12_146_cif.got.tgz:291607.got - 2010.06.28 00:19:55.
