data_PCOD8079670
_publ_section_title
;
Structure prediction by ZEFSAII (Michael W. Deem and Ramdas Pophale) SiO2 
 PCOD8079670
Probable space group: C 2/M
;
_chemical_formula_sum "Si O2"
_cell_formula_units_Z 64
_cell_length_a 20.216018
_cell_length_b 8.786415
_cell_length_c 21.410185
_cell_angle_alpha 90.000000
_cell_angle_beta 116.349106
_cell_angle_gamma 90.000000
_cell_volume 3407.903654
_symmetry_space_group_name_H-M "C 2/M"
_symmetry_group_IT_number 12
_symmetry_cell_setting 'monoclinic'
loop_
_space_group_symop_operation_xyz
x,y,z
-x,y,-z
-x,-y,-z
x,-y,z
1/2+x,1/2+y,z
1/2-x,1/2+y,-z
1/2-x,1/2-y,-z
1/2+x,1/2-y,z
loop_
_atom_site_type_symbol
_atom_site_label
_atom_site_fract_x
_atom_site_fract_y
_atom_site_fract_z
Si Si1 0.001246 0.320077 0.727302
Si Si2 0.078089 0.318597 0.058266
Si Si3 0.169923 0.321458 0.799310
Si Si4 0.399404 0.820999 0.793436
Si Si5 0.233968 0.177658 0.705370
Si Si6 0.891224 0.822225 0.435322
Si Si7 0.726659 0.179673 0.055391
Si Si8 0.472497 0.320013 0.587383
O O1 0.994970 0.500000 0.722483
O O2 0.959553 0.253635 0.770822
O O3 0.960641 0.257457 0.649007
O O4 0.085507 0.266240 0.767112
O O5 0.077855 0.500000 0.059967
O O6 0.090151 0.250850 0.132978
O O7 0.145132 0.262268 0.042064
O O8 0.000000 0.255963 0.000000
O O9 0.177689 0.500000 0.816567
O O10 0.200810 0.283988 0.744499
O O11 0.214155 0.226658 0.868592
O O12 0.319189 0.780591 0.732186
O O13 0.410016 0.000000 0.803581
O O14 0.191364 0.216772 0.622747
O O15 0.223411 0.000000 0.719303
O O16 0.907260 0.763439 0.512520
O O17 0.950449 0.759506 0.409908
O O18 0.905989 0.000000 0.444021
O O19 0.726311 0.000000 0.048363
O O20 0.750000 0.250000 0.000000
O O21 0.472046 0.500000 0.597687
#
# Coordination Sequence:
#
# PCOD8079670 Si02
#       8
#     8   8   8   8   8   8   8   8
#     4  10  21  34  51  78 110 142 177 219 267 313
#     4   9  18  33  57  82 104 136 178 214 250 308
#     4  11  22  35  54  80 111 141 174 220 268 312
#     4   9  18  33  53  76 103 139 181 218 255 312
#     4  10  17  33  58  79  99 135 186 227 259 308
#     4   8  15  27  50  78 102 134 176 223 267 314
#     4  11  23  39  60  85 110 139 177 219 265 310
#     4   9  16  30  50  75 106 137 176 221 267 318
#
# _framework density 18.779874
#
# number of rings (size 3 to 8) (size 9 to 14) (size 15 to 20)
#    0.000    2.375    2.500    1.500    1.750    0.500 
#    0.000    3.125    0.000    1.500    0.000    0.000 
#    0.000    0.000    0.000    0.000    0.000    0.000 
#
# Total GULP energy -396677.058920 kJ/mol
# GULP energy per Si atom -12396.158091 kJ/mol
# Density = 1.873713 g / cm^3
# Si number density = 18.779874 Si / 1000 Ang^3
#
#
#
# Elastic Constant Matrix: (Units=GPa)
#
#
# Indices 1 2 3 4 5 6 
#
# 1 123.8079 20.5729 72.6303 0.0000 -10.1403 0.0000
# 2 20.5729 24.4819 20.0771 0.0000 -2.0658 0.0000
# 3 72.6303 20.0771 149.8182 0.0000 6.7985 0.0000
# 4 0.0000 0.0000 0.0000 26.4623 0.0000 -5.9041
# 5 -10.1403 -2.0658 6.7985 0.0000 30.3922 0.0000
# 6 0.0000 0.0000 0.0000 -5.9041 0.0000 18.3720
#
#
#
# Elastic Compliance Matrix: (Units=1/GPa)
#
#
# Indices 1 2 3 4 5 6 
#
# 1 0.012757 -0.005644 -0.005661 0.000000 0.005139 0.000000
# 2 -0.005644 0.049015 -0.003938 0.000000 0.002330 0.000000
# 3 -0.005661 -0.003938 0.010148 0.000000 -0.004427 0.000000
# 4 0.000000 0.000000 0.000000 0.040709 0.000000 0.013082
# 5 0.005139 0.002330 -0.004427 0.000000 0.035766 0.000000
# 6 0.000000 0.000000 0.000000 0.013082 0.000000 0.058635
#
#
# Mechanical properties :
#
#
# Convention : Reuss Voigt Hill
#
# Bulk Modulus (GPa) = 24.13499 58.29651 41.21575
# Shear Modulus (GPa) = 19.89436 27.36713 23.63075
#
# Velocity S-wave (km/s) = 3.25829 3.82155 3.55110
# Velocity P-wave (km/s) = 5.19949 7.11208 6.22962
#
# Compressibility (1/GPa) = 0.04143362
#
# Stress axis : x y z
#
# Youngs Moduli (GPa) = 78.38920 20.40183 98.54228
#
# Poissons Ratio (x) = 0.11514 0.55788
# Poissons Ratio (y) = 0.44240 0.38808
# Poissons Ratio (z) = 0.44378 0.08035
#
# Static dielectric constant tensor:
#      x y z
#    x 3.553460 0.000000 -0.056160 
#    y 0.000000 2.511650 0.000000 
#    z -0.056160 0.000000 2.978330 
# 
# 
# High freq. dielectric constant tensor:
#      x y z
#    x 1.721840 0.000000 0.006600 
#    y 0.000000 1.686980 0.000000 
#    z 0.006600 0.000000 1.746400 
# 
# From -- ./inp_files/320138.got.cif
#   From: 2010.06.25/outbox.cif.g09.slc.cpg/sg12_161_cif.got.tgz:320138.got - 2010.06.28 00:19:55.
