data_PCOD8079731
_publ_section_title
;
Structure prediction by ZEFSAII (Michael W. Deem and Ramdas Pophale) SiO2 
 PCOD8079731
Probable space group: C 2/M
;
_chemical_formula_sum "Si O2"
_cell_formula_units_Z 48
_cell_length_a 21.058741
_cell_length_b 13.864147
_cell_length_c 9.033900
_cell_angle_alpha 90.000000
_cell_angle_beta 71.955391
_cell_angle_gamma 90.000000
_cell_volume 2507.824561
_symmetry_space_group_name_H-M "C 2/M"
_symmetry_group_IT_number 12
_symmetry_cell_setting 'monoclinic'
loop_
_space_group_symop_operation_xyz
x,y,z
-x,y,-z
-x,-y,-z
x,-y,z
1/2+x,1/2+y,z
1/2-x,1/2+y,-z
1/2-x,1/2-y,-z
1/2+x,1/2-y,z
loop_
_atom_site_type_symbol
_atom_site_label
_atom_site_fract_x
_atom_site_fract_y
_atom_site_fract_z
Si Si1 0.596508 0.781532 0.192899
Si Si2 0.296661 0.294211 0.291377
Si Si3 0.474232 0.895427 0.352781
Si Si4 0.849468 0.291490 0.528236
Si Si5 0.204310 0.386599 0.921514
Si Si6 0.656368 0.392283 0.016286
O O1 0.521461 0.821922 0.228371
O O2 0.612320 0.757703 0.352647
O O3 0.598091 0.678849 0.111014
O O4 0.648244 0.857384 0.082536
O O5 0.221980 0.334320 0.372673
O O6 0.335060 0.294087 0.421014
O O7 0.298164 0.185912 0.217257
O O8 0.331870 0.373620 0.165237
O O9 0.500000 0.902312 0.500000
O O10 0.396449 0.866910 0.407346
O O11 0.479707 0.000000 0.272012
O O12 0.195074 0.500000 0.883541
O O13 0.275919 0.369372 0.944424
O O14 0.630976 0.500000 0.059875
#
# Coordination Sequence:
#
# PCOD8079731 Si02
#       6
#     8   8   8   8   8   8
#     4  10  17  35  55  75 105 136 177 218 258 304
#     4  10  19  34  51  77 110 136 167 216 272 305
#     4   9  19  32  52  81 108 138 171 205 255 318
#     4  10  19  32  52  75 109 140 165 209 265 315
#     4  10  18  31  52  76 101 136 178 218 257 308
#     4  10  19  33  54  75  98 134 182 220 256 305
#
# _framework density 19.140096
#
# number of rings (size 3 to 8) (size 9 to 14) (size 15 to 20)
#    0.000    2.167    3.333    1.500    0.000    2.000 
#    0.000    6.667    0.000   12.500    0.000    0.000 
#    0.000    0.000    0.000    0.000    0.000    0.000 
#
# Total GULP energy -297408.675406 kJ/mol
# GULP energy per Si atom -12392.028142 kJ/mol
# Density = 1.909653 g / cm^3
# Si number density = 19.140096 Si / 1000 Ang^3
#
#
#
# Elastic Constant Matrix: (Units=GPa)
#
#
# Indices 1 2 3 4 5 6 
#
# 1 70.2737 43.3991 43.1578 0.0000 -20.2623 0.0000
# 2 43.3991 120.9236 38.3946 0.0000 -32.7991 0.0000
# 3 43.1578 38.3946 87.0423 0.0000 -20.6875 0.0000
# 4 0.0000 0.0000 0.0000 17.8274 0.0000 -5.7660
# 5 -20.2623 -32.7991 -20.6875 0.0000 30.1075 0.0000
# 6 0.0000 0.0000 0.0000 -5.7660 0.0000 20.0065
#
#
#
# Elastic Compliance Matrix: (Units=1/GPa)
#
#
# Indices 1 2 3 4 5 6 
#
# 1 0.023717 -0.004341 -0.008576 0.000000 0.005340 0.000000
# 2 -0.004341 0.013028 -0.001094 0.000000 0.010520 0.000000
# 3 -0.008576 -0.001094 0.017412 0.000000 0.005000 0.000000
# 4 0.000000 0.000000 0.000000 0.061860 0.000000 0.017828
# 5 0.005340 0.010520 0.005000 0.000000 0.051705 0.000000
# 6 0.000000 0.000000 0.000000 0.017828 0.000000 0.055122
#
#
# Mechanical properties :
#
#
# Convention : Reuss Voigt Hill
#
# Bulk Modulus (GPa) = 38.26114 58.68254 48.47184
# Shear Modulus (GPa) = 19.26207 23.80748 21.53478
#
# Velocity S-wave (km/s) = 3.17578 3.53066 3.35791
# Velocity P-wave (km/s) = 5.78627 6.88090 6.35719
#
# Compressibility (1/GPa) = 0.02613618
#
# Stress axis : x y z
#
# Youngs Moduli (GPa) = 42.16353 76.75525 57.43201
#
# Poissons Ratio (x) = 0.33317 0.49252
# Poissons Ratio (y) = 0.18302 0.06285
# Poissons Ratio (z) = 0.36158 0.08400
#
# Static dielectric constant tensor:
#      x y z
#    x 3.398510 0.000000 -0.133780 
#    y 0.000000 3.430740 0.000000 
#    z -0.133780 0.000000 3.626950 
# 
# 
# High freq. dielectric constant tensor:
#      x y z
#    x 1.722350 0.000000 -0.008840 
#    y 0.000000 1.722160 0.000000 
#    z -0.008840 0.000000 1.751370 
# 
# From -- ./inp_files/85702.got.cif
#   From: 2010.06.25/outbox.cif.g09.slc.cpg/sg12_43_cif.got.tgz:85702.got - 2010.06.28 00:19:55.
