data_PCOD8079200
_publ_section_title
;
Structure prediction by ZEFSAII (Michael W. Deem and Ramdas Pophale) SiO2 
 PCOD8079200
Probable space group: C 2/M
;
_chemical_formula_sum "Si O2"
_cell_formula_units_Z 56
_cell_length_a 20.662491
_cell_length_b 21.272646
_cell_length_c 8.468828
_cell_angle_alpha 90.000000
_cell_angle_beta 127.768031
_cell_angle_gamma 90.000000
_cell_volume 2942.575790
_symmetry_space_group_name_H-M "C 2/M"
_symmetry_group_IT_number 12
_symmetry_cell_setting 'monoclinic'
loop_
_space_group_symop_operation_xyz
x,y,z
-x,y,-z
-x,-y,-z
x,-y,z
1/2+x,1/2+y,z
1/2-x,1/2+y,-z
1/2-x,1/2-y,-z
1/2+x,1/2-y,z
loop_
_atom_site_type_symbol
_atom_site_label
_atom_site_fract_x
_atom_site_fract_y
_atom_site_fract_z
Si Si1 0.776798 0.666444 0.455103
Si Si2 0.446668 0.723485 0.131228
Si Si3 0.818905 0.428671 0.059519
Si Si4 0.390243 0.070136 0.510717
Si Si5 0.537952 0.132741 0.882263
Si Si6 0.881253 0.784112 0.688681
Si Si7 0.716958 0.684883 0.014146
O O1 0.815576 0.597413 0.505638
O O2 0.847830 0.713056 0.622317
O O3 0.696745 0.668941 0.451283
O O4 0.747049 0.686231 0.238425
O O5 0.437269 0.798097 0.136083
O O6 0.541518 0.703880 0.313995
O O7 0.421969 0.705670 0.917869
O O8 0.382486 0.687297 0.148484
O O9 0.784986 0.500000 0.981481
O O10 0.870363 0.426265 0.297088
O O11 0.879862 0.409778 0.007455
O O12 0.745739 0.377360 0.962155
O O13 0.472609 0.108489 0.658492
O O14 0.403718 0.000000 0.591223
O O15 0.500000 0.129825 0.000000
O O16 0.750000 0.750000 0.000000
#
# Coordination Sequence:
#
# PCOD8079200 Si02
#       7
#     8   8   8   8   8   8   8
#     4   9  17  29  50  69  93 135 164 196 249 305
#     4  10  17  29  49  74 103 127 160 213 254 291
#     4  10  22  37  51  69 103 141 172 206 249 305
#     4  10  20  34  48  70 102 138 169 199 240 302
#     4  12  20  31  51  76 107 135 166 203 255 306
#     4   9  16  30  47  72 100 128 156 204 261 292
#     4  10  19  32  50  72  94 131 172 212 247 293
#
# _framework density 19.030944000000002
#
# number of rings (size 3 to 8) (size 9 to 14) (size 15 to 20)
#    0.000    2.000    4.286    0.857    0.000    2.286 
#    0.000    0.714    0.000    0.857    0.000    6.000 
#    0.000    1.143    0.000    0.000    0.000    0.000 
#
# Total GULP energy -346890.242335 kJ/mol
# GULP energy per Si atom -12388.937226 kJ/mol
# Density = 1.898763 g / cm^3
# Si number density = 19.030944 Si / 1000 Ang^3
#
#
#
# Elastic Constant Matrix: (Units=GPa)
#
#
# Indices 1 2 3 4 5 6 
#
# 1 146.9678 66.6862 27.1081 0.0000 38.6767 0.0000
# 2 66.6862 104.3039 9.3279 0.0000 11.6388 0.0000
# 3 27.1081 9.3279 27.5519 0.0000 17.8813 0.0000
# 4 0.0000 0.0000 0.0000 15.6177 0.0000 1.3163
# 5 38.6767 11.6388 17.8813 0.0000 30.3679 0.0000
# 6 0.0000 0.0000 0.0000 1.3163 0.0000 23.6873
#
#
#
# Elastic Compliance Matrix: (Units=1/GPa)
#
#
# Indices 1 2 3 4 5 6 
#
# 1 0.014241 -0.007334 -0.002560 0.000000 -0.013819 0.000000
# 2 -0.007334 0.013829 -0.000143 0.000000 0.004125 0.000000
# 3 -0.002560 -0.000143 0.059416 0.000000 -0.031671 0.000000
# 4 0.000000 0.000000 0.000000 0.064331 0.000000 -0.003575
# 5 -0.013819 0.004125 -0.031671 0.000000 0.067597 0.000000
# 6 0.000000 0.000000 0.000000 -0.003575 0.000000 0.042415
#
#
# Mechanical properties :
#
#
# Convention : Reuss Voigt Hill
#
# Bulk Modulus (GPa) = 14.83404 53.89647 34.36526
# Shear Modulus (GPa) = 16.42718 25.64801 21.03759
#
# Velocity S-wave (km/s) = 2.94118 3.67509 3.32842
# Velocity P-wave (km/s) = 4.39837 6.81104 5.73306
#
# Compressibility (1/GPa) = 0.06741250
#
# Stress axis : x y z
#
# Youngs Moduli (GPa) = 70.22095 72.31306 16.83038
#
# Poissons Ratio (x) = 0.53033 0.04308
# Poissons Ratio (y) = 0.51499 0.00241
# Poissons Ratio (z) = 0.17975 0.01034
#
# Static dielectric constant tensor:
#      x y z
#    x 4.190240 0.000000 0.505310 
#    y 0.000000 3.477200 0.000000 
#    z 0.505310 0.000000 3.562540 
# 
# 
# High freq. dielectric constant tensor:
#      x y z
#    x 1.749920 0.000000 0.014120 
#    y 0.000000 1.710090 0.000000 
#    z 0.014120 0.000000 1.719710 
# 
# From -- ./inp_files/89692.got.cif
#   From: 2010.06.25/outbox.cif.g09.slc.cpg/sg12_45_cif.got.tgz:89692.got - 2010.06.28 00:19:55.
