data_PCOD8079757
_publ_section_title
;
Structure prediction by ZEFSAII (Michael W. Deem and Ramdas Pophale) SiO2 
 PCOD8079757
Probable space group: C 2/M
;
_chemical_formula_sum "Si O2"
_cell_formula_units_Z 48
_cell_length_a 19.536809
_cell_length_b 17.424060
_cell_length_c 9.578143
_cell_angle_alpha 90.000000
_cell_angle_beta 54.074860
_cell_angle_gamma 90.000000
_cell_volume 2640.302246
_symmetry_space_group_name_H-M "C 2/M"
_symmetry_group_IT_number 12
_symmetry_cell_setting 'monoclinic'
loop_
_space_group_symop_operation_xyz
x,y,z
-x,y,-z
-x,-y,-z
x,-y,z
1/2+x,1/2+y,z
1/2-x,1/2+y,-z
1/2-x,1/2-y,-z
1/2+x,1/2-y,z
loop_
_atom_site_type_symbol
_atom_site_label
_atom_site_fract_x
_atom_site_fract_y
_atom_site_fract_z
Si Si1 0.722603 0.088071 0.721928
Si Si2 0.719373 0.914152 0.058198
Si Si3 0.666645 0.288483 0.032361
Si Si4 0.594946 0.214826 0.845720
Si Si5 0.594179 0.799556 0.342440
Si Si6 0.328893 0.718387 0.490765
O O1 0.641082 0.133467 0.757799
O O2 0.808535 0.131366 0.566080
O O3 0.723551 0.000000 0.666508
O O4 0.715833 0.090537 0.896055
O O5 0.636645 0.873781 0.221404
O O6 0.718340 0.000000 0.115392
O O7 0.808800 0.878160 0.004623
O O8 0.590137 0.268794 0.230660
O O9 0.750000 0.250000 0.000000
O O10 0.648063 0.256843 0.902204
O O11 0.593907 0.272194 0.712338
O O12 0.500000 0.196222 0.000000
O O13 0.500000 0.821119 0.500000
O O14 0.651965 0.772286 0.400890
O O15 0.250000 0.750000 0.500000
#
# Coordination Sequence:
#
# PCOD8079757 Si02
#       6
#     8   8   8   8   8   8
#     4  10  19  35  57  80 108 144 180 219 265 323
#     4  10  19  34  58  81 106 142 183 223 265 314
#     4  10  17  36  57  76 104 144 190 215 249 320
#     4  11  21  35  57  85 112 140 174 223 278 320
#     4  11  20  33  56  81 108 139 178 227 266 312
#     4  10  20  35  54  80 108 142 186 218 254 320
#
# _framework density 18.179735999999998
#
# number of rings (size 3 to 8) (size 9 to 14) (size 15 to 20)
#    0.000    1.667    5.000    4.000    0.000    0.667 
#    0.000    7.500    0.000    6.000    0.000    0.000 
#    0.000    0.000    0.000    0.000    0.000    0.000 
#
# Total GULP energy -297371.199796 kJ/mol
# GULP energy per Si atom -12390.466658 kJ/mol
# Density = 1.813836 g / cm^3
# Si number density = 18.179736 Si / 1000 Ang^3
#
#
#
# Elastic Constant Matrix: (Units=GPa)
#
#
# Indices 1 2 3 4 5 6 
#
# 1 45.4308 48.3122 14.5180 0.0000 7.8973 0.0000
# 2 48.3122 149.8095 67.7745 0.0000 -13.0388 0.0000
# 3 14.5180 67.7745 106.3077 0.0000 4.3615 0.0000
# 4 0.0000 0.0000 0.0000 23.9872 0.0000 2.9580
# 5 7.8973 -13.0388 4.3615 0.0000 22.2886 0.0000
# 6 0.0000 0.0000 0.0000 2.9580 0.0000 15.8800
#
#
#
# Elastic Compliance Matrix: (Units=1/GPa)
#
#
# Indices 1 2 3 4 5 6 
#
# 1 0.048880 -0.022716 0.009136 0.000000 -0.032396 0.000000
# 2 -0.022716 0.021052 -0.011245 0.000000 0.022565 0.000000
# 3 0.009136 -0.011245 0.015858 0.000000 -0.012918 0.000000
# 4 0.000000 0.000000 0.000000 0.042669 0.000000 -0.007948
# 5 -0.032396 0.022565 -0.012918 0.000000 0.072073 0.000000
# 6 0.000000 0.000000 0.000000 -0.007948 0.000000 0.064453
#
#
# Mechanical properties :
#
#
# Convention : Reuss Voigt Hill
#
# Bulk Modulus (GPa) = 27.66996 62.52861 45.09928
# Shear Modulus (GPa) = 15.30538 23.82737 19.56637
#
# Velocity S-wave (km/s) = 2.90469 3.62422 3.28422
# Velocity P-wave (km/s) = 5.14809 7.20990 6.26441
#
# Compressibility (1/GPa) = 0.03614028
#
# Stress axis : x y z
#
# Youngs Moduli (GPa) = 20.45808 47.50117 63.05990
#
# Poissons Ratio (x) = 1.07905 -0.57612
# Poissons Ratio (y) = 0.46473 0.70910
# Poissons Ratio (z) = -0.18691 0.53414
#
# Static dielectric constant tensor:
#      x y z
#    x 3.260160 0.000000 -0.037670 
#    y 0.000000 3.766760 0.000000 
#    z -0.037670 0.000000 4.089180 
# 
# 
# High freq. dielectric constant tensor:
#      x y z
#    x 1.686010 0.000000 0.008270 
#    y 0.000000 1.682890 0.000000 
#    z 0.008270 0.000000 1.723280 
# 
# From -- ./inp_files/87149.got.cif
#   From: 2010.06.25/outbox.cif.g09.slc.cpg/sg12_44_cif.got.tgz:87149.got - 2010.06.28 00:19:55.
