data_PCOD8079713
_publ_section_title
;
Structure prediction by ZEFSAII (Michael W. Deem and Ramdas Pophale) SiO2 
 PCOD8079713
Probable space group: C 2/M
;
_chemical_formula_sum "Si O2"
_cell_formula_units_Z 64
_cell_length_a 23.072297
_cell_length_b 17.887509
_cell_length_c 15.322990
_cell_angle_alpha 90.000000
_cell_angle_beta 29.929763
_cell_angle_gamma 90.000000
_cell_volume 3155.228328
_symmetry_space_group_name_H-M "C 2/M"
_symmetry_group_IT_number 12
_symmetry_cell_setting 'monoclinic'
loop_
_space_group_symop_operation_xyz
x,y,z
-x,y,-z
-x,-y,-z
x,-y,z
1/2+x,1/2+y,z
1/2-x,1/2+y,-z
1/2-x,1/2-y,-z
1/2+x,1/2-y,z
loop_
_atom_site_type_symbol
_atom_site_label
_atom_site_fract_x
_atom_site_fract_y
_atom_site_fract_z
Si Si1 0.443683 0.315348 0.800999
Si Si2 0.435192 0.917332 0.211102
Si Si3 0.983960 0.647118 0.722777
Si Si4 0.094984 0.836147 0.443875
Si Si5 0.844793 0.368389 0.156039
Si Si6 0.660551 0.833095 0.345237
Si Si7 0.084641 0.200317 0.965443
Si Si8 0.779042 0.585767 0.905870
O O1 0.425054 0.228892 0.800303
O O2 0.549887 0.343072 0.602292
O O3 0.470461 0.323353 0.869188
O O4 0.331038 0.364142 0.924015
O O5 0.439738 0.866633 0.291026
O O6 0.346950 0.877445 0.258368
O O7 0.388544 0.000000 0.294384
O O8 0.565587 0.927177 0.001881
O O9 0.875185 0.590144 0.857372
O O10 0.072240 0.631971 0.528795
O O11 0.215863 0.882057 0.285834
O O12 0.124238 0.752407 0.374392
O O13 0.000000 0.869872 0.500000
O O14 0.897497 0.288643 0.060617
O O15 0.791354 0.838896 0.211347
O O16 0.654403 0.879891 0.264460
O O17 0.000000 0.171485 0.000000
O O18 0.740629 0.500000 0.940635
#
# Coordination Sequence:
#
# PCOD8079713 Si02
#       8
#     8   8   8   8   8   8   8   8
#     4  10  21  37  59  86 116 152 197 246 288 345
#     4  11  22  36  57  83 115 153 193 241 299 349
#     4  11  20  36  58  87 112 152 202 243 288 345
#     4  10  21  36  60  89 114 153 200 246 288 341
#     4  10  19  36  55  79 116 151 187 235 293 344
#     4   9  21  35  56  85 120 150 191 244 296 342
#     4  10  17  34  59  87 113 149 193 240 291 346
#     4  11  23  37  57  85 122 158 190 241 304 361
#
# _framework density 20.283794
#
# number of rings (size 3 to 8) (size 9 to 14) (size 15 to 20)
#    0.000    1.750    2.500    3.375    1.750    2.500 
#    0.000    5.000    0.000    7.875    0.000    0.000 
#    0.000    0.000    0.000    0.000    0.000    0.000 
#
# Total GULP energy -396669.055724 kJ/mol
# GULP energy per Si atom -12395.907991 kJ/mol
# Density = 2.023763 g / cm^3
# Si number density = 20.283794 Si / 1000 Ang^3
#
#
#
# Elastic Constant Matrix: (Units=GPa)
#
#
# Indices 1 2 3 4 5 6 
#
# 1 114.0903 10.8278 32.9641 0.0000 -24.1455 0.0000
# 2 10.8278 54.9323 25.6500 0.0000 1.5986 0.0000
# 3 32.9641 25.6500 79.9028 0.0000 -7.4898 0.0000
# 4 0.0000 0.0000 0.0000 10.2868 0.0000 -0.8585
# 5 -24.1455 1.5986 -7.4898 0.0000 29.5421 0.0000
# 6 0.0000 0.0000 0.0000 -0.8585 0.0000 14.3490
#
#
#
# Elastic Compliance Matrix: (Units=1/GPa)
#
#
# Indices 1 2 3 4 5 6 
#
# 1 0.011778 -0.000809 -0.003783 0.000000 0.008711 0.000000
# 2 -0.000809 0.021727 -0.006979 0.000000 -0.003606 0.000000
# 3 -0.003783 -0.006979 0.016453 0.000000 0.001457 0.000000
# 4 0.000000 0.000000 0.000000 0.097700 0.000000 0.005845
# 5 0.008711 -0.003606 0.001457 0.000000 0.041535 0.000000
# 6 0.000000 0.000000 0.000000 0.005845 0.000000 0.070041
#
#
# Mechanical properties :
#
#
# Convention : Reuss Voigt Hill
#
# Bulk Modulus (GPa) = 37.29001 43.08991 40.18996
# Shear Modulus (GPa) = 17.16355 22.80115 19.98235
#
# Velocity S-wave (km/s) = 2.91206 3.35641 3.14210
# Velocity P-wave (km/s) = 5.45260 6.02580 5.74635
#
# Compressibility (1/GPa) = 0.02681683
#
# Stress axis : x y z
#
# Youngs Moduli (GPa) = 84.90111 46.02474 60.77956
#
# Poissons Ratio (x) = 0.03722 0.22993
# Poissons Ratio (y) = 0.06866 0.42419
# Poissons Ratio (z) = 0.32118 0.32122
#
# Static dielectric constant tensor:
#      x y z
#    x 3.849960 0.000000 -0.011010 
#    y 0.000000 3.298960 0.000000 
#    z -0.011010 0.000000 3.706220 
# 
# 
# High freq. dielectric constant tensor:
#      x y z
#    x 1.799880 0.000000 0.003980 
#    y 0.000000 1.755820 0.000000 
#    z 0.003980 0.000000 1.788830 
# 
# From -- ./inp_files/241473.got.cif
#   From: 2010.06.25/outbox.cif.g09.slc.cpg/sg12_121_cif.got.tgz:241473.got - 2010.06.28 00:19:55.
