data_PCOD8079934
_publ_section_title
;
Structure prediction by ZEFSAII (Michael W. Deem and Ramdas Pophale) SiO2 
 PCOD8079934
Probable space group: C 2/M
;
_chemical_formula_sum "Si O2"
_cell_formula_units_Z 56
_cell_length_a 27.246220
_cell_length_b 9.344910
_cell_length_c 14.493304
_cell_angle_alpha 90.000000
_cell_angle_beta 76.653113
_cell_angle_gamma 90.000000
_cell_volume 3590.519502
_symmetry_space_group_name_H-M "C 2/M"
_symmetry_group_IT_number 12
_symmetry_cell_setting 'monoclinic'
loop_
_space_group_symop_operation_xyz
x,y,z
-x,y,-z
-x,-y,-z
x,-y,z
1/2+x,1/2+y,z
1/2-x,1/2+y,-z
1/2-x,1/2-y,-z
1/2+x,1/2-y,z
loop_
_atom_site_type_symbol
_atom_site_label
_atom_site_fract_x
_atom_site_fract_y
_atom_site_fract_z
Si Si1 0.065904 0.668047 0.901559
Si Si2 0.956537 0.669318 0.890354
Si Si3 0.618906 0.833219 0.704872
Si Si4 0.955292 0.161513 0.381791
Si Si5 0.122355 0.163817 0.431093
Si Si6 0.434699 0.334857 0.720670
Si Si7 0.302553 0.170136 0.476872
O O1 0.058260 0.500000 0.911426
O O2 0.114546 0.708141 0.816025
O O3 0.014141 0.725049 0.876928
O O4 0.073083 0.721518 0.003608
O O5 0.953071 0.500000 0.876736
O O6 0.929552 0.742458 0.815241
O O7 0.570891 0.764253 0.678932
O O8 0.670922 0.787122 0.632507
O O9 0.611739 0.000000 0.693998
O O10 0.930850 0.182668 0.493013
O O11 0.014157 0.200324 0.357641
O O12 0.946685 0.000000 0.350995
O O13 0.111539 0.201260 0.328697
O O14 0.164130 0.272002 0.452579
O O15 0.141882 0.000000 0.432938
O O16 0.432894 0.500000 0.750567
O O17 0.250000 0.250000 0.500000
O O18 0.295281 0.000000 0.490586
#
# Coordination Sequence:
#
# PCOD8079934 Si02
#       7
#     8   8   8   8   8   8   8
#     4   8  14  26  42  61  85 117 154 184 213 249
#     4   9  16  26  42  60  85 122 155 183 212 246
#     4   9  16  28  46  65  86 114 149 183 214 255
#     4   9  16  26  40  60  87 120 152 178 209 251
#     4   9  18  31  45  61  87 120 150 179 214 260
#     4  10  18  27  40  62  91 122 151 180 215 252
#     4  10  20  33  50  70  89 110 140 182 227 267
#
# _framework density 15.596629
#
# number of rings (size 3 to 8) (size 9 to 14) (size 15 to 20)
#    0.000    2.857    1.429    1.714    0.000    2.857 
#    0.000    2.143    0.000    4.286    0.000    1.000 
#    0.000    0.000    0.000    0.000    0.000    0.000 
#
# Total GULP energy -346900.452769 kJ/mol
# GULP energy per Si atom -12389.301885 kJ/mol
# Density = 1.556113 g / cm^3
# Si number density = 15.596629 Si / 1000 Ang^3
#
#
#
# Elastic Constant Matrix: (Units=GPa)
#
#
# Indices 1 2 3 4 5 6 
#
# 1 74.6542 38.1604 54.8043 0.0000 -1.3887 0.0000
# 2 38.1604 45.2385 45.4593 0.0000 0.7761 0.0000
# 3 54.8043 45.4593 127.5443 0.0000 5.8420 0.0000
# 4 0.0000 0.0000 0.0000 20.4107 0.0000 5.6543
# 5 -1.3887 0.7761 5.8420 0.0000 15.6652 0.0000
# 6 0.0000 0.0000 0.0000 5.6543 0.0000 19.5629
#
#
#
# Elastic Compliance Matrix: (Units=1/GPa)
#
#
# Indices 1 2 3 4 5 6 
#
# 1 0.025944 -0.016410 -0.005536 0.000000 0.005177 0.000000
# 2 -0.016410 0.044952 -0.008955 0.000000 -0.000342 0.000000
# 3 -0.005536 -0.008955 0.013646 0.000000 -0.005136 0.000000
# 4 0.000000 0.000000 0.000000 0.053258 0.000000 -0.015393
# 5 0.005177 -0.000342 -0.005136 0.000000 0.066227 0.000000
# 6 0.000000 0.000000 0.000000 -0.015393 0.000000 0.055566
#
#
# Mechanical properties :
#
#
# Convention : Reuss Voigt Hill
#
# Bulk Modulus (GPa) = 43.97573 58.25388 51.11481
# Shear Modulus (GPa) = 15.19868 18.39530 16.79699
#
# Velocity S-wave (km/s) = 3.12506 3.43802 3.28527
# Velocity P-wave (km/s) = 6.42481 7.29324 6.87276
#
# Compressibility (1/GPa) = 0.02273981
#
# Stress axis : x y z
#
# Youngs Moduli (GPa) = 38.54499 22.24577 73.28143
#
# Poissons Ratio (x) = 0.36506 0.40567
# Poissons Ratio (y) = 0.63254 0.65622
# Poissons Ratio (z) = 0.21338 0.19921
#
# Static dielectric constant tensor:
#      x y z
#    x 2.666610 0.000000 -0.069710 
#    y 0.000000 2.883170 0.000000 
#    z -0.069710 0.000000 3.441040 
# 
# 
# High freq. dielectric constant tensor:
#      x y z
#    x 1.554260 0.000000 -0.000700 
#    y 0.000000 1.588990 0.000000 
#    z -0.000700 0.000000 1.603860 
# 
# From -- ./inp_files/247803.got.cif
#   From: 2010.06.25/outbox.cif.g09.slc.cpg/sg12_124_cif.got.tgz:247803.got - 2010.06.28 00:19:55.
