data_PCOD8079820
_publ_section_title
;
Structure prediction by ZEFSAII (Michael W. Deem and Ramdas Pophale) SiO2 
 PCOD8079820
Probable space group: C 2/M
;
_chemical_formula_sum "Si O2"
_cell_formula_units_Z 56
_cell_length_a 25.792321
_cell_length_b 13.834201
_cell_length_c 11.352567
_cell_angle_alpha 90.000000
_cell_angle_beta 75.588065
_cell_angle_gamma 90.000000
_cell_volume 3923.306674
_symmetry_space_group_name_H-M "C 2/M"
_symmetry_group_IT_number 12
_symmetry_cell_setting 'monoclinic'
loop_
_space_group_symop_operation_xyz
x,y,z
-x,y,-z
-x,-y,-z
x,-y,z
1/2+x,1/2+y,z
1/2-x,1/2+y,-z
1/2-x,1/2-y,-z
1/2+x,1/2-y,z
loop_
_atom_site_type_symbol
_atom_site_label
_atom_site_fract_x
_atom_site_fract_y
_atom_site_fract_z
Si Si1 0.972815 0.886610 0.841103
Si Si2 0.285264 0.893673 0.607125
Si Si3 0.418036 0.613950 0.109666
Si Si4 0.179401 0.206621 0.710410
Si Si5 0.762279 0.606398 0.345735
Si Si6 0.156434 0.793222 0.449309
Si Si7 0.445365 0.388299 0.600464
O O1 0.952995 0.845006 0.727599
O O2 0.031573 0.847093 0.842719
O O3 0.980220 0.000000 0.824419
O O4 0.929385 0.862882 0.966171
O O5 0.231351 0.859924 0.703550
O O6 0.271654 0.896942 0.478440
O O7 0.333326 0.817405 0.598287
O O8 0.302511 0.000000 0.643651
O O9 0.408277 0.500000 0.135585
O O10 0.366115 0.673967 0.174309
O O11 0.195720 0.317233 0.732804
O O12 0.158636 0.196728 0.588840
O O13 0.770760 0.500000 0.284002
O O14 0.701138 0.640138 0.361245
O O15 0.098466 0.824464 0.439889
O O16 0.500000 0.376080 0.500000
O O17 0.426948 0.500000 0.612795
#
# Coordination Sequence:
#
# PCOD8079820 Si02
#       7
#     8   8   8   8   8   8   8
#     4   8  16  27  37  54  78 104 128 150 186 227
#     4   8  14  24  37  55  79 103 128 158 188 219
#     4   9  15  25  40  56  78 101 124 157 187 220
#     4   9  15  22  38  62  78  97 130 157 187 225
#     4   8  14  24  36  54  81 105 126 155 188 223
#     4   9  16  24  37  58  81 103 124 152 193 231
#     4  10  18  26  38  57  80 103 126 152 185 228
#
# _framework density 14.273674
#
# number of rings (size 3 to 8) (size 9 to 14) (size 15 to 20)
#    0.000    3.286    0.000    4.286    0.000    2.857 
#    0.000    0.000    0.000    3.857    0.000    6.000 
#    0.000    0.000    0.000    0.000    0.000    0.000 
#
# Total GULP energy -346991.340843 kJ/mol
# GULP energy per Si atom -12392.547887 kJ/mol
# Density = 1.424119 g / cm^3
# Si number density = 14.273674 Si / 1000 Ang^3
#
#
#
# Elastic Constant Matrix: (Units=GPa)
#
#
# Indices 1 2 3 4 5 6 
#
# 1 72.1286 40.2869 29.4701 0.0000 -7.3002 0.0000
# 2 40.2869 98.3909 27.1335 0.0000 -10.8198 0.0000
# 3 29.4701 27.1335 62.7345 0.0000 -9.3094 0.0000
# 4 0.0000 0.0000 0.0000 14.5392 0.0000 -5.4573
# 5 -7.3002 -10.8198 -9.3094 0.0000 24.4455 0.0000
# 6 0.0000 0.0000 0.0000 -5.4573 0.0000 19.7518
#
#
#
# Elastic Compliance Matrix: (Units=1/GPa)
#
#
# Indices 1 2 3 4 5 6 
#
# 1 0.020200 -0.006366 -0.006634 0.000000 0.000689 0.000000
# 2 -0.006366 0.013819 -0.002502 0.000000 0.003262 0.000000
# 3 -0.006634 -0.002502 0.020859 0.000000 0.004855 0.000000
# 4 0.000000 0.000000 0.000000 0.076738 0.000000 0.021202
# 5 0.000689 0.003262 0.004855 0.000000 0.044406 0.000000
# 6 0.000000 0.000000 0.000000 0.021202 0.000000 0.056486
#
#
# Mechanical properties :
#
#
# Convention : Reuss Voigt Hill
#
# Bulk Modulus (GPa) = 41.88601 47.44834 44.66717
# Shear Modulus (GPa) = 18.41827 20.83820 19.62823
#
# Velocity S-wave (km/s) = 3.59606 3.82501 3.71230
# Velocity P-wave (km/s) = 6.83014 7.26785 7.05239
#
# Compressibility (1/GPa) = 0.02387432
#
# Stress axis : x y z
#
# Youngs Moduli (GPa) = 49.50563 72.36456 47.94068
#
# Poissons Ratio (x) = 0.46066 0.31802
# Poissons Ratio (y) = 0.31515 0.11996
# Poissons Ratio (z) = 0.32840 0.18108
#
# Static dielectric constant tensor:
#      x y z
#    x 2.703420 0.000000 0.018400 
#    y 0.000000 3.015730 0.000000 
#    z 0.018400 0.000000 2.697650 
# 
# 
# High freq. dielectric constant tensor:
#      x y z
#    x 1.533720 0.000000 -0.013370 
#    y 0.000000 1.525880 0.000000 
#    z -0.013370 0.000000 1.520700 
# 
# From -- ./inp_files/175712.got.cif
#   From: 2010.06.25/outbox.cif.g09.slc.cpg/sg12_88_cif.got.tgz:175712.got - 2010.06.28 00:19:55.
