data_PCOD8079106
_publ_section_title
;
Structure prediction by ZEFSAII (Michael W. Deem and Ramdas Pophale) SiO2 
 PCOD8079106
Probable space group: C 2/M
;
_chemical_formula_sum "Si O2"
_cell_formula_units_Z 56
_cell_length_a 23.592432
_cell_length_b 13.495192
_cell_length_c 28.010290
_cell_angle_alpha 90.000000
_cell_angle_beta 21.030509
_cell_angle_gamma 90.000000
_cell_volume 3200.372321
_symmetry_space_group_name_H-M "C 2/M"
_symmetry_group_IT_number 12
_symmetry_cell_setting 'monoclinic'
loop_
_space_group_symop_operation_xyz
x,y,z
-x,y,-z
-x,-y,-z
x,-y,z
1/2+x,1/2+y,z
1/2-x,1/2+y,-z
1/2-x,1/2-y,-z
1/2+x,1/2-y,z
loop_
_atom_site_type_symbol
_atom_site_label
_atom_site_fract_x
_atom_site_fract_y
_atom_site_fract_z
Si Si1 0.269156 0.613616 0.395047
Si Si2 0.664868 0.889881 0.070983
Si Si3 0.620778 0.283653 0.947282
Si Si4 0.241158 0.388160 0.904744
Si Si5 0.450747 0.113797 0.686339
Si Si6 0.985410 0.749690 0.279675
Si Si7 0.481869 0.612151 0.876412
O O1 0.316146 0.500000 0.372575
O O2 0.326842 0.693427 0.389135
O O3 0.349814 0.638575 0.280606
O O4 0.077831 0.622654 0.542928
O O5 0.558383 0.803606 0.176022
O O6 0.614084 0.000000 0.128600
O O7 0.644581 0.884106 0.030085
O O8 0.846936 0.870276 0.942628
O O9 0.646589 0.166825 0.936521
O O10 0.785213 0.335510 0.803433
O O11 0.500000 0.302262 0.000000
O O12 0.549839 0.323374 0.052326
O O13 0.272397 0.500000 0.863477
O O14 0.405206 0.332846 0.783089
O O15 0.537563 0.163261 0.663472
O O16 0.414695 0.000000 0.727279
O O17 0.482421 0.500000 0.894164
#
# Coordination Sequence:
#
# PCOD8079106 Si02
#       7
#     8   8   8   8   8   8   8
#     4  10  20  32  49  75 108 139 164 198 253 312
#     4  10  17  28  51  82 108 133 165 208 255 302
#     4  11  23  37  55  74  96 134 180 218 254 292
#     4  10  19  30  49  78 108 132 163 208 254 301
#     4  10  21  35  49  72 105 136 169 210 254 300
#     4  11  17  28  49  76 109 139 165 197 245 310
#     4  10  18  32  54  79 103 132 167 206 255 306
#
# _framework density 17.497964
#
# number of rings (size 3 to 8) (size 9 to 14) (size 15 to 20)
#    0.000    1.714    4.286    3.000    0.000    1.429 
#    0.000    0.714    0.000    3.429    0.000    0.000 
#    0.000    8.000    0.000    0.000    0.000    0.000 
#
# Total GULP energy -347022.629041 kJ/mol
# GULP energy per Si atom -12393.665323 kJ/mol
# Density = 1.745814 g / cm^3
# Si number density = 17.497964 Si / 1000 Ang^3
#
#
#
# Elastic Constant Matrix: (Units=GPa)
#
#
# Indices 1 2 3 4 5 6 
#
# 1 56.8164 33.0202 32.9103 -0.0182 -13.8408 0.0031
# 2 33.0202 118.8601 43.6816 -0.0285 -7.6272 0.0050
# 3 32.9103 43.6816 106.3796 -0.0885 -4.8510 -0.0121
# 4 -0.0182 -0.0285 -0.0885 20.3216 0.0056 -0.8791
# 5 -13.8408 -7.6272 -4.8510 0.0056 11.3059 0.0070
# 6 0.0031 0.0050 -0.0121 -0.8791 0.0070 7.8242
#
#
#
# Elastic Compliance Matrix: (Units=1/GPa)
#
#
# Indices 1 2 3 4 5 6 
#
# 1 0.032142 -0.004338 -0.006632 -0.000018 0.033577 -0.000052
# 2 -0.004338 0.010783 -0.003056 -0.000003 0.000653 -0.000011
# 3 -0.006632 -0.003056 0.012487 0.000047 -0.004822 0.000033
# 4 -0.000018 -0.000003 0.000047 0.049449 -0.000031 0.005556
# 5 0.033577 0.000653 -0.004822 -0.000031 0.127926 -0.000139
# 6 -0.000052 -0.000011 0.000033 0.005556 -0.000139 0.128433
#
#
# Mechanical properties :
#
#
# Convention : Reuss Voigt Hill
#
# Bulk Modulus (GPa) = 36.54700 55.69780 46.12240
# Shear Modulus (GPa) = 12.55043 19.38660 15.96852
#
# Velocity S-wave (km/s) = 2.68106 3.33218 3.02419
# Velocity P-wave (km/s) = 5.52412 6.83408 6.21372
#
# Compressibility (1/GPa) = 0.02736202
#
# Stress axis : x y z
#
# Youngs Moduli (GPa) = 31.11160 92.73554 80.08371
#
# Poissons Ratio (x) = 0.40225 0.53108
# Poissons Ratio (y) = 0.13495 0.24475
# Poissons Ratio (z) = 0.20632 0.28342
#
# Static dielectric constant tensor:
#      x y z
#    x 2.907810 0.000000 0.093860 
#    y 0.000000 3.599510 0.000090 
#    z 0.093860 0.000090 3.228790 
# 
# 
# High freq. dielectric constant tensor:
#      x y z
#    x 1.626750 0.000000 0.013770 
#    y 0.000000 1.697310 0.000010 
#    z 0.013770 0.000010 1.670460 
# 
# From -- ./inp_files/104448.got.cif
#   From: 2010.06.25/outbox.cif.g09.slc.cpg/sg12_53_cif.got.tgz:104448.got - 2010.06.28 00:19:55.
