data_PCOD8079541
_publ_section_title
;
Structure prediction by ZEFSAII (Michael W. Deem and Ramdas Pophale) SiO2 
 PCOD8079541
Probable space group: C 2/M
;
_chemical_formula_sum "Si O2"
_cell_formula_units_Z 60
_cell_length_a 22.272071
_cell_length_b 12.505191
_cell_length_c 25.017359
_cell_angle_alpha 90.000000
_cell_angle_beta 150.060684
_cell_angle_gamma 90.000000
_cell_volume 3477.480619
_symmetry_space_group_name_H-M "C 2/M"
_symmetry_group_IT_number 12
_symmetry_cell_setting 'monoclinic'
loop_
_space_group_symop_operation_xyz
x,y,z
-x,y,-z
-x,-y,-z
x,-y,z
1/2+x,1/2+y,z
1/2-x,1/2+y,-z
1/2-x,1/2-y,-z
1/2+x,1/2-y,z
loop_
_atom_site_type_symbol
_atom_site_label
_atom_site_fract_x
_atom_site_fract_y
_atom_site_fract_z
Si Si1 0.455091 0.376132 0.310527
Si Si2 0.878465 0.122862 0.936405
Si Si3 0.350603 0.621010 0.462947
Si Si4 0.391133 0.234166 0.049328
Si Si5 0.198453 0.263752 0.726925
Si Si6 0.143906 0.624827 0.231998
Si Si7 0.500000 0.236625 0.500000
Si Si8 0.142848 0.875030 0.877270
O O1 0.418533 0.500000 0.288150
O O2 0.597072 0.357212 0.436604
O O3 0.366164 0.310578 0.279699
O O4 0.437096 0.340329 0.235500
O O5 0.769782 0.142720 0.811547
O O6 0.877366 0.000000 0.953775
O O7 0.861983 0.195890 0.975157
O O8 0.000000 0.153794 0.000000
O O9 0.378424 0.500000 0.468946
O O10 0.209834 0.644270 0.341090
O O11 0.429688 0.689243 0.485288
O O12 0.508253 0.163124 0.131628
O O13 0.412488 0.312346 0.115563
O O14 0.281943 0.153650 0.975535
O O15 0.288095 0.189921 0.761772
O O16 0.100113 0.325784 0.612765
O O17 0.144666 0.500000 0.217040
O O18 0.132465 0.000000 0.881423
#
# Coordination Sequence:
#
# PCOD8079541 Si02
#       8
#     8   8   8   8   8   8   4   8
#     4   9  16  29  51  78 105 130 160 200 243 293
#     4  11  22  36  52  71  99 134 168 202 247 301
#     4   8  14  25  44  72 104 133 159 190 239 296
#     4  11  21  36  51  72 101 130 169 207 249 294
#     4  10  17  32  50  79 104 132 160 201 244 297
#     4  10  19  31  50  77 106 133 161 201 250 294
#     4   8  15  24  47  72 104 130 160 190 244 288
#     4  10  21  35  53  73  96 129 168 210 251 291
#
# _framework density 17.253871
#
# number of rings (size 3 to 8) (size 9 to 14) (size 15 to 20)
#    0.000    2.267    2.667    1.400    0.000    3.200 
#    0.000    1.667    0.000    0.000    0.000    0.000 
#    0.000    0.000    0.000    0.000    0.000    0.000 
#
# Total GULP energy -371654.486923 kJ/mol
# GULP energy per Si atom -12388.482897 kJ/mol
# Density = 1.721460 g / cm^3
# Si number density = 17.253871 Si / 1000 Ang^3
#
#
#
# Elastic Constant Matrix: (Units=GPa)
#
#
# Indices 1 2 3 4 5 6 
#
# 1 51.6012 12.3247 25.1311 0.0001 -12.1189 0.0000
# 2 12.3247 20.9692 15.1918 -0.0007 -2.6706 -0.0002
# 3 25.1311 15.1918 116.1648 -0.0008 -20.1272 0.0000
# 4 0.0001 -0.0007 -0.0008 22.2618 -0.0002 -7.7326
# 5 -12.1189 -2.6706 -20.1272 -0.0002 25.4595 0.0000
# 6 0.0000 -0.0002 0.0000 -7.7326 0.0000 11.9748
#
#
#
# Elastic Compliance Matrix: (Units=1/GPa)
#
#
# Indices 1 2 3 4 5 6 
#
# 1 0.025556 -0.012150 -0.002379 -0.000001 0.009010 -0.000001
# 2 -0.012150 0.058457 -0.005743 0.000003 -0.004191 0.000003
# 3 -0.002379 -0.005743 0.011093 0.000000 0.007035 0.000000
# 4 -0.000001 0.000003 0.000000 0.057908 0.000001 0.037393
# 5 0.009010 -0.004191 0.007035 0.000001 0.048689 0.000000
# 6 -0.000001 0.000003 0.000000 0.037393 0.000000 0.107655
#
#
# Mechanical properties :
#
#
# Convention : Reuss Voigt Hill
#
# Bulk Modulus (GPa) = 18.32728 32.67004 25.49866
# Shear Modulus (GPa) = 13.58374 21.01174 17.29774
#
# Velocity S-wave (km/s) = 2.80891 3.49348 3.16973
# Velocity P-wave (km/s) = 4.60056 5.93705 5.31101
#
# Compressibility (1/GPa) = 0.05456347
#
# Stress axis : x y z
#
# Youngs Moduli (GPa) = 39.13011 17.10668 90.14699
#
# Poissons Ratio (x) = 0.20784 0.21444
# Poissons Ratio (y) = 0.47542 0.51768
# Poissons Ratio (z) = 0.09308 0.09824
#
# Static dielectric constant tensor:
#      x y z
#    x 3.019510 0.000000 -0.267050 
#    y 0.000000 2.965060 0.000000 
#    z -0.267050 0.000000 3.937010 
# 
# 
# High freq. dielectric constant tensor:
#      x y z
#    x 1.643790 0.000000 -0.014970 
#    y 0.000000 1.645110 0.000000 
#    z -0.014970 0.000000 1.692320 
# 
# From -- ./inp_files/347149.got.cif
#   From: 2010.06.25/outbox.cif.g09.slc.cpg/sg12_174_cif.got.tgz:347149.got - 2010.06.28 00:19:55.
