data_PCOD8079709
_publ_section_title
;
Structure prediction by ZEFSAII (Michael W. Deem and Ramdas Pophale) SiO2 
 PCOD8079709
Probable space group: C 2/M
;
_chemical_formula_sum "Si O2"
_cell_formula_units_Z 44
_cell_length_a 24.242952
_cell_length_b 13.936166
_cell_length_c 6.993583
_cell_angle_alpha 90.000000
_cell_angle_beta 76.867242
_cell_angle_gamma 90.000000
_cell_volume 2301.012248
_symmetry_space_group_name_H-M "C 2/M"
_symmetry_group_IT_number 12
_symmetry_cell_setting 'monoclinic'
loop_
_space_group_symop_operation_xyz
x,y,z
-x,y,-z
-x,-y,-z
x,-y,z
1/2+x,1/2+y,z
1/2-x,1/2+y,-z
1/2-x,1/2-y,-z
1/2+x,1/2-y,z
loop_
_atom_site_type_symbol
_atom_site_label
_atom_site_fract_x
_atom_site_fract_y
_atom_site_fract_z
Si Si1 0.256785 0.500000 0.870218
Si Si2 0.066853 0.000000 0.472667
Si Si3 0.870183 0.500000 0.003069
Si Si4 0.128688 0.636425 0.658246
Si Si5 0.871675 0.000000 0.975534
Si Si6 0.433564 0.000000 0.558162
Si Si7 0.246621 0.138037 0.464523
Si Si8 0.372243 0.637281 0.299774
O O1 0.264043 0.598756 0.742060
O O2 0.194999 0.500000 0.017972
O O3 0.304324 0.500000 0.994065
O O4 0.087475 0.905498 0.568002
O O5 0.000000 0.000000 0.500000
O O6 0.093759 0.000000 0.244045
O O7 0.912055 0.500000 0.791854
O O8 0.882773 0.593148 0.123155
O O9 0.085617 0.596519 0.535431
O O10 0.190514 0.601317 0.530689
O O11 0.121894 0.749402 0.689176
O O12 0.889971 0.904726 0.079917
O O13 0.500000 0.000000 0.500000
O O14 0.250000 0.250000 0.500000
O O15 0.192966 0.100453 0.626220
#
# Coordination Sequence:
#
# PCOD8079709 Si02
#       8
#     4   4   4   8   4   4   8   8
#     4  10  17  34  58  87 120 149 182 238 289 338
#     4  11  24  41  57  81 119 158 199 233 277 349
#     4   9  21  38  57  89 113 147 194 233 286 343
#     4   9  21  39  58  85 121 146 185 241 289 340
#     4  11  22  35  61  87 113 153 200 232 287 343
#     4  11  24  40  61  82 110 158 198 230 286 344
#     4   9  17  35  58  85 118 150 179 230 296 345
#     4  10  21  38  59  87 119 152 186 242 292 334
#
# _framework density 19.122019000000002
#
# number of rings (size 3 to 8) (size 9 to 14) (size 15 to 20)
#    0.000    2.182    1.818    1.091    2.545    5.091 
#    0.000    4.545    0.000    0.000    0.000    0.000 
#    0.000    0.000    0.000    0.000    0.000    0.000 
#
# Total GULP energy -272537.574337 kJ/mol
# GULP energy per Si atom -12388.071561 kJ/mol
# Density = 1.907850 g / cm^3
# Si number density = 19.122019 Si / 1000 Ang^3
#
#
#
# Elastic Constant Matrix: (Units=GPa)
#
#
# Indices 1 2 3 4 5 6 
#
# 1 148.5762 51.3741 73.4115 0.0000 1.7425 0.0000
# 2 51.3741 154.6048 59.0529 0.0000 9.9976 0.0000
# 3 73.4115 59.0529 141.2709 0.0000 -0.7393 0.0000
# 4 0.0000 0.0000 0.0000 11.9479 0.0000 3.8680
# 5 1.7425 9.9976 -0.7393 0.0000 23.7169 0.0000
# 6 0.0000 0.0000 0.0000 3.8680 0.0000 21.8919
#
#
#
# Elastic Compliance Matrix: (Units=1/GPa)
#
#
# Indices 1 2 3 4 5 6 
#
# 1 0.009335 -0.001471 -0.004237 0.000000 -0.000198 0.000000
# 2 -0.001471 0.008204 -0.002683 0.000000 -0.003434 0.000000
# 3 -0.004237 -0.002683 0.010411 0.000000 0.001767 0.000000
# 4 0.000000 0.000000 0.000000 0.088775 0.000000 -0.015685
# 5 -0.000198 -0.003434 0.001767 0.000000 0.043681 0.000000
# 6 0.000000 0.000000 0.000000 -0.015685 0.000000 0.048450
#
#
# Mechanical properties :
#
#
# Convention : Reuss Voigt Hill
#
# Bulk Modulus (GPa) = 89.54026 90.23654 89.88840
# Shear Modulus (GPa) = 21.79976 28.88558 25.34267
#
# Velocity S-wave (km/s) = 3.38010 3.89085 3.64443
# Velocity P-wave (km/s) = 7.88422 8.21445 8.05103
#
# Compressibility (1/GPa) = 0.01116816
#
# Stress axis : x y z
#
# Youngs Moduli (GPa) = 107.12347 121.89729 96.05031
#
# Poissons Ratio (x) = 0.17928 0.40699
# Poissons Ratio (y) = 0.15755 0.25770
# Poissons Ratio (z) = 0.45390 0.32704
#
# Static dielectric constant tensor:
#      x y z
#    x 3.474030 0.000000 -0.096890 
#    y 0.000000 3.302330 0.000000 
#    z -0.096890 0.000000 3.333050 
# 
# 
# High freq. dielectric constant tensor:
#      x y z
#    x 1.742360 0.000000 0.000890 
#    y 0.000000 1.748860 0.000000 
#    z 0.000890 0.000000 1.731920 
# 
# From -- ./inp_files/27936.got.cif
#   From: 2010.06.25/outbox.cif.g09.slc.cpg/sg12_14_cif.got.tgz:27936.got - 2010.06.28 00:19:55.
