data_PCOD8079951
_publ_section_title
;
Structure prediction by ZEFSAII (Michael W. Deem and Ramdas Pophale) SiO2 
 PCOD8079951
Probable space group: C 2/M
;
_chemical_formula_sum "Si O2"
_cell_formula_units_Z 64
_cell_length_a 27.682758
_cell_length_b 9.270874
_cell_length_c 16.330284
_cell_angle_alpha 90.000000
_cell_angle_beta 96.118220
_cell_angle_gamma 90.000000
_cell_volume 4167.187134
_symmetry_space_group_name_H-M "C 2/M"
_symmetry_group_IT_number 12
_symmetry_cell_setting 'monoclinic'
loop_
_space_group_symop_operation_xyz
x,y,z
-x,y,-z
-x,-y,-z
x,-y,z
1/2+x,1/2+y,z
1/2-x,1/2+y,-z
1/2-x,1/2-y,-z
1/2+x,1/2-y,z
loop_
_atom_site_type_symbol
_atom_site_label
_atom_site_fract_x
_atom_site_fract_y
_atom_site_fract_z
Si Si1 0.787846 0.831471 0.062861
Si Si2 0.605636 0.668426 0.968731
Si Si3 0.338786 0.331203 0.719162
Si Si4 0.793461 0.159376 0.410018
Si Si5 0.984596 0.337124 0.091103
Si Si6 0.753075 0.168651 0.235930
Si Si7 0.925444 0.165417 0.855754
Si Si8 0.181968 0.338899 0.440885
O O1 0.841647 0.778177 0.050325
O O2 0.778331 0.793044 0.155414
O O3 0.781958 0.000000 0.044169
O O4 0.750000 0.750000 0.000000
O O5 0.598075 0.500000 0.950196
O O6 0.566132 0.753541 0.907420
O O7 0.600631 0.706026 0.063666
O O8 0.327578 0.500000 0.705527
O O9 0.295580 0.261682 0.764057
O O10 0.388570 0.303997 0.775863
O O11 0.345109 0.257268 0.631876
O O12 0.791741 0.208611 0.314616
O O13 0.825403 0.268432 0.470475
O O14 0.738483 0.155756 0.431284
O O15 0.816537 0.000000 0.422461
O O16 0.978202 0.500000 0.121376
O O17 0.026747 0.261023 0.151601
O O18 0.000000 0.330875 0.000000
O O19 0.738686 0.000000 0.240294
O O20 0.942286 0.000000 0.861060
O O21 0.159765 0.500000 0.437860
#
# Coordination Sequence:
#
# PCOD8079951 Si02
#       8
#     8   8   8   8   8   8   8   8
#     4  10  20  32  45  62  85 114 146 178 210 242
#     4   9  17  30  45  59  80 110 141 172 206 243
#     4  10  18  27  41  61  85 112 141 170 204 249
#     4   8  14  25  39  54  75 105 139 172 204 240
#     4   9  17  28  43  62  80 101 133 172 211 247
#     4   9  18  30  42  58  82 112 145 178 209 240
#     4   9  17  28  42  60  82 109 138 167 203 248
#     4   9  16  25  38  57  80 106 135 168 207 247
#
# _framework density 15.358082
#
# number of rings (size 3 to 8) (size 9 to 14) (size 15 to 20)
#    0.000    2.875    0.000    2.625    0.000    7.500 
#    0.000    2.500    0.000    0.000    0.000    0.000 
#    0.000    1.000    0.000   11.500    0.000    3.500 
#
# Total GULP energy -396743.876660 kJ/mol
# GULP energy per Si atom -12398.246146 kJ/mol
# Density = 1.532313 g / cm^3
# Si number density = 15.358082 Si / 1000 Ang^3
#
#
#
# Elastic Constant Matrix: (Units=GPa)
#
#
# Indices 1 2 3 4 5 6 
#
# 1 86.7814 51.1035 47.2700 0.0000 12.6607 0.0000
# 2 51.1035 92.8110 54.6664 0.0000 13.5266 0.0000
# 3 47.2700 54.6664 106.4616 0.0000 9.2627 0.0000
# 4 0.0000 0.0000 0.0000 24.3142 0.0000 6.0583
# 5 12.6607 13.5266 9.2627 0.0000 15.4072 0.0000
# 6 0.0000 0.0000 0.0000 6.0583 0.0000 20.4644
#
#
#
# Elastic Compliance Matrix: (Units=1/GPa)
#
#
# Indices 1 2 3 4 5 6 
#
# 1 0.018913 -0.006900 -0.004252 0.000000 -0.006928 0.000000
# 2 -0.006900 0.019332 -0.006204 0.000000 -0.007572 0.000000
# 3 -0.004252 -0.006204 0.014444 0.000000 0.000257 0.000000
# 4 0.000000 0.000000 0.000000 0.044404 0.000000 -0.013145
# 5 -0.006928 -0.007572 0.000257 0.000000 0.077091 0.000000
# 6 0.000000 0.000000 0.000000 -0.013145 0.000000 0.052757
#
#
# Mechanical properties :
#
#
# Convention : Reuss Voigt Hill
#
# Bulk Modulus (GPa) = 55.62537 65.79263 60.70900
# Shear Modulus (GPa) = 18.68150 20.90478 19.79314
#
# Velocity S-wave (km/s) = 3.49147 3.69339 3.59385
# Velocity P-wave (km/s) = 7.24923 7.81795 7.53895
#
# Compressibility (1/GPa) = 0.01797741
#
# Stress axis : x y z
#
# Youngs Moduli (GPa) = 52.87353 51.72873 69.23152
#
# Poissons Ratio (x) = 0.35692 0.29436
# Poissons Ratio (y) = 0.36482 0.42952
# Poissons Ratio (z) = 0.22481 0.32093
#
# Static dielectric constant tensor:
#      x y z
#    x 2.672170 0.000000 0.095200 
#    y 0.000000 3.107940 0.000000 
#    z 0.095200 0.000000 3.048320 
# 
# 
# High freq. dielectric constant tensor:
#      x y z
#    x 1.545780 0.000000 0.017670 
#    y 0.000000 1.598200 0.000000 
#    z 0.017670 0.000000 1.580680 
# 
# From -- ./inp_files/287753.got.cif
#   From: 2010.06.25/outbox.cif.g09.slc.cpg/sg12_144_cif.got.tgz:287753.got - 2010.06.28 00:19:55.
