data_PCOD8079122
_publ_section_title
;
Structure prediction by ZEFSAII (Michael W. Deem and Ramdas Pophale) SiO2 
 PCOD8079122
Probable space group: C 2/M
;
_chemical_formula_sum "Si O2"
_cell_formula_units_Z 56
_cell_length_a 30.731159
_cell_length_b 16.125868
_cell_length_c 9.460465
_cell_angle_alpha 90.000000
_cell_angle_beta 129.115160
_cell_angle_gamma 90.000000
_cell_volume 3637.548607
_symmetry_space_group_name_H-M "C 2/M"
_symmetry_group_IT_number 12
_symmetry_cell_setting 'monoclinic'
loop_
_space_group_symop_operation_xyz
x,y,z
-x,y,-z
-x,-y,-z
x,-y,z
1/2+x,1/2+y,z
1/2-x,1/2+y,-z
1/2-x,1/2-y,-z
1/2+x,1/2-y,z
loop_
_atom_site_type_symbol
_atom_site_label
_atom_site_fract_x
_atom_site_fract_y
_atom_site_fract_z
Si Si1 0.411515 0.596074 0.081296
Si Si2 0.961907 0.094578 0.648539
Si Si3 0.869888 0.834000 0.271355
Si Si4 0.224608 0.217409 0.594244
Si Si5 0.128343 0.906035 0.310113
Si Si6 0.254660 0.406281 0.140622
Si Si7 0.204002 0.304210 0.823612
O O1 0.411209 0.500000 0.122802
O O2 0.475288 0.629545 0.207242
O O3 0.374169 0.646837 0.114968
O O4 0.380896 0.611779 0.872064
O O5 0.929376 0.147048 0.464178
O O6 0.931728 0.102084 0.737692
O O7 0.962926 0.000000 0.597712
O O8 0.820165 0.888693 0.239564
O O9 0.856456 0.736115 0.263967
O O10 0.250000 0.250000 0.500000
O O11 0.168534 0.165072 0.451260
O O12 0.263892 0.153825 0.765885
O O13 0.212816 0.298031 0.671119
O O14 0.152473 0.000000 0.383008
O O15 0.247446 0.500000 0.175752
O O16 0.214330 0.393688 0.917868
O O17 0.250000 0.250000 0.000000
#
# Coordination Sequence:
#
# PCOD8079122 Si02
#       7
#     8   8   8   8   8   8   8
#     4  10  20  26  39  65  91 121 159 188 207 248
#     4  10  17  29  42  59  89 125 158 184 212 252
#     4  10  17  29  45  63  88 120 153 186 219 256
#     4  10  19  30  47  66  89 118 152 188 224 266
#     4  10  19  30  43  60  91 130 153 176 218 263
#     4  10  19  33  49  64  88 120 153 186 228 277
#     4   8  18  31  45  63  84 115 150 185 229 263
#
# _framework density 15.394983
#
# number of rings (size 3 to 8) (size 9 to 14) (size 15 to 20)
#    0.000    2.571    2.857    2.571    6.000    2.857 
#    0.000    0.714    0.000    0.000    0.000    0.000 
#    0.000    2.286    0.000    2.571    0.000    0.000 
#
# Total GULP energy -346873.779982 kJ/mol
# GULP energy per Si atom -12388.349285 kJ/mol
# Density = 1.535994 g / cm^3
# Si number density = 15.394983 Si / 1000 Ang^3
#
#
#
# Elastic Constant Matrix: (Units=GPa)
#
#
# Indices 1 2 3 4 5 6 
#
# 1 66.4902 22.1891 32.7302 0.0000 -21.5139 0.0000
# 2 22.1891 49.9363 26.3686 0.0000 -5.7150 0.0000
# 3 32.7302 26.3686 73.9521 0.0000 -17.0171 0.0000
# 4 0.0000 0.0000 0.0000 26.5338 0.0000 -1.5268
# 5 -21.5139 -5.7150 -17.0171 0.0000 31.6400 0.0000
# 6 0.0000 0.0000 0.0000 -1.5268 0.0000 16.4543
#
#
#
# Elastic Compliance Matrix: (Units=1/GPa)
#
#
# Indices 1 2 3 4 5 6 
#
# 1 0.023736 -0.006264 -0.005499 0.000000 0.012051 0.000000
# 2 -0.006264 0.026327 -0.007419 0.000000 -0.003494 0.000000
# 3 -0.005499 -0.007419 0.019895 0.000000 0.005621 0.000000
# 4 0.000000 0.000000 0.000000 0.037890 0.000000 0.003516
# 5 0.012051 -0.003494 0.005621 0.000000 0.042192 0.000000
# 6 0.000000 0.000000 0.000000 0.003516 0.000000 0.061100
#
#
# Mechanical properties :
#
#
# Convention : Reuss Voigt Hill
#
# Bulk Modulus (GPa) = 31.65159 39.21716 35.43438
# Shear Modulus (GPa) = 19.22821 22.19834 20.71327
#
# Velocity S-wave (km/s) = 3.53794 3.80138 3.67203
# Velocity P-wave (km/s) = 6.10686 6.69303 6.40665
#
# Compressibility (1/GPa) = 0.03159399
#
# Stress axis : x y z
#
# Youngs Moduli (GPa) = 42.12945 37.98452 50.26491
#
# Poissons Ratio (x) = 0.23795 0.27639
# Poissons Ratio (y) = 0.26392 0.37289
# Poissons Ratio (z) = 0.23166 0.28179
#
# Static dielectric constant tensor:
#      x y z
#    x 2.931290 0.000000 -0.139140 
#    y 0.000000 3.149070 0.000000 
#    z -0.139140 0.000000 3.288000 
# 
# 
# High freq. dielectric constant tensor:
#      x y z
#    x 1.575880 0.000000 -0.020610 
#    y 0.000000 1.547810 0.000000 
#    z -0.020610 0.000000 1.602590 
# 
# From -- ./inp_files/105405.got.cif
#   From: 2010.06.25/outbox.cif.g09.slc.cpg/sg12_53_cif.got.tgz:105405.got - 2010.06.28 00:19:55.
