data_PCOD8079233
_publ_section_title
;
Structure prediction by ZEFSAII (Michael W. Deem and Ramdas Pophale) SiO2 
 PCOD8079233
Probable space group: C 2/M
;
_chemical_formula_sum "Si O2"
_cell_formula_units_Z 56
_cell_length_a 12.186905
_cell_length_b 13.323941
_cell_length_c 25.538367
_cell_angle_alpha 90.000000
_cell_angle_beta 44.749916
_cell_angle_gamma 90.000000
_cell_volume 2919.445354
_symmetry_space_group_name_H-M "C 2/M"
_symmetry_group_IT_number 12
_symmetry_cell_setting 'monoclinic'
loop_
_space_group_symop_operation_xyz
x,y,z
-x,y,-z
-x,-y,-z
x,-y,z
1/2+x,1/2+y,z
1/2-x,1/2+y,-z
1/2-x,1/2-y,-z
1/2+x,1/2-y,z
loop_
_atom_site_type_symbol
_atom_site_label
_atom_site_fract_x
_atom_site_fract_y
_atom_site_fract_z
Si Si1 0.632311 0.118174 0.416989
Si Si2 0.730495 0.884686 0.822154
Si Si3 0.761898 0.808315 0.925394
Si Si4 0.585726 0.885354 0.312473
Si Si5 0.114444 0.614635 0.074188
Si Si6 0.072679 0.885232 0.798245
Si Si7 0.542250 0.296468 0.698081
O O1 0.500000 0.163235 0.500000
O O2 0.590763 0.148940 0.371567
O O3 0.800323 0.158036 0.379942
O O4 0.640157 0.000000 0.419221
O O5 0.720862 0.823004 0.879182
O O6 0.566850 0.867944 0.847742
O O7 0.878693 0.850421 0.736361
O O8 0.752664 0.000000 0.830112
O O9 0.774250 0.688408 0.930698
O O10 0.928441 0.860351 0.885106
O O11 0.632649 0.859227 0.006246
O O12 0.761098 0.870835 0.229609
O O13 0.467988 0.818479 0.318196
O O14 0.528799 0.000000 0.326464
O O15 0.163353 0.500000 0.068969
O O16 0.055964 0.807443 0.755807
O O17 0.064270 0.000000 0.779480
#
# Coordination Sequence:
#
# PCOD8079233 Si02
#       7
#     8   8   8   8   8   8   8
#     4   9  18  33  52  74  97 121 153 190 226 270
#     4  10  19  32  50  71  93 119 156 196 233 276
#     4  10  18  30  49  67  91 125 159 194 237 279
#     4   9  18  31  48  70  96 125 155 188 226 271
#     4  10  20  31  46  69  94 121 157 198 238 280
#     4   9  17  31  49  69  92 121 160 197 229 272
#     4  10  17  29  51  72  93 120 155 191 229 270
#
# _framework density 19.181725
#
# number of rings (size 3 to 8) (size 9 to 14) (size 15 to 20)
#    0.000    2.429    0.000    5.571    0.000    1.714 
#    0.000    2.857    0.000   19.286    0.000    0.000 
#    0.000    0.000    0.000    0.000    0.000    0.000 
#
# Total GULP energy -346982.593648 kJ/mol
# GULP energy per Si atom -12392.235487 kJ/mol
# Density = 1.913807 g / cm^3
# Si number density = 19.181725 Si / 1000 Ang^3
#
#
#
# Elastic Constant Matrix: (Units=GPa)
#
#
# Indices 1 2 3 4 5 6 
#
# 1 45.1813 45.1278 19.5734 0.0000 -6.6840 0.0000
# 2 45.1278 102.9332 27.1127 0.0000 -1.6568 0.0000
# 3 19.5734 27.1127 98.6815 -0.0001 -25.5785 0.0001
# 4 0.0000 0.0000 -0.0001 20.7465 0.0000 -2.7620
# 5 -6.6840 -1.6568 -25.5785 0.0000 22.8255 0.0000
# 6 0.0000 0.0000 0.0001 -2.7620 0.0000 34.0237
#
#
#
# Elastic Compliance Matrix: (Units=1/GPa)
#
#
# Indices 1 2 3 4 5 6 
#
# 1 0.041981 -0.018048 -0.000735 0.000000 0.010160 0.000000
# 2 -0.018048 0.018431 -0.003534 0.000000 -0.007907 0.000000
# 3 -0.000735 -0.003534 0.015683 0.000000 0.017103 0.000000
# 4 0.000000 0.000000 0.000000 0.048727 0.000000 0.003956
# 5 0.010160 -0.007907 0.017103 0.000000 0.065378 0.000000
# 6 0.000000 0.000000 0.000000 0.003956 0.000000 0.029712
#
#
# Mechanical properties :
#
#
# Convention : Reuss Voigt Hill
#
# Bulk Modulus (GPa) = 31.78368 47.82488 39.80428
# Shear Modulus (GPa) = 18.17951 25.85129 22.01540
#
# Velocity S-wave (km/s) = 3.08190 3.67509 3.39149
# Velocity P-wave (km/s) = 5.41016 6.55706 6.01103
#
# Compressibility (1/GPa) = 0.03146269
#
# Stress axis : x y z
#
# Youngs Moduli (GPa) = 23.82010 54.25556 63.76141
#
# Poissons Ratio (x) = 0.97922 0.04684
# Poissons Ratio (y) = 0.42991 0.22531
# Poissons Ratio (z) = 0.01750 0.19172
#
# Static dielectric constant tensor:
#      x y z
#    x 3.152920 0.000000 -0.379900 
#    y 0.000000 3.476380 0.000000 
#    z -0.379900 0.000000 3.854090 
# 
# 
# High freq. dielectric constant tensor:
#      x y z
#    x 1.711990 0.000000 -0.027730 
#    y 0.000000 1.743410 0.000000 
#    z -0.027730 0.000000 1.739130 
# 
# From -- ./inp_files/375885.got.cif
#   From: 2010.06.25/outbox.cif.g09.slc.cpg/sg12_188_cif.got.tgz:375885.got - 2010.06.28 00:19:55.
