data_PCOD8079767
_publ_section_title
;
Structure prediction by ZEFSAII (Michael W. Deem and Ramdas Pophale) SiO2 
 PCOD8079767
Probable space group: C 2/M
;
_chemical_formula_sum "Si O2"
_cell_formula_units_Z 64
_cell_length_a 9.450488
_cell_length_b 29.240295
_cell_length_c 19.163293
_cell_angle_alpha 90.000000
_cell_angle_beta 144.484105
_cell_angle_gamma 90.000000
_cell_volume 3076.302378
_symmetry_space_group_name_H-M "C 2/M"
_symmetry_group_IT_number 12
_symmetry_cell_setting 'monoclinic'
loop_
_space_group_symop_operation_xyz
x,y,z
-x,y,-z
-x,-y,-z
x,-y,z
1/2+x,1/2+y,z
1/2-x,1/2+y,-z
1/2-x,1/2-y,-z
1/2+x,1/2-y,z
loop_
_atom_site_type_symbol
_atom_site_label
_atom_site_fract_x
_atom_site_fract_y
_atom_site_fract_z
Si Si1 0.661182 0.698705 0.206727
Si Si2 0.986366 0.287331 0.203193
Si Si3 0.177950 0.135983 0.009070
Si Si4 0.948990 0.840018 0.402036
Si Si5 0.534672 0.858891 0.435405
Si Si6 0.848155 0.549772 0.589107
Si Si7 0.812480 0.065452 0.322758
Si Si8 0.954856 0.449643 0.061552
O O1 0.823227 0.716535 0.206962
O O2 0.486961 0.739033 0.164366
O O3 0.479305 0.657977 0.115364
O O4 0.834887 0.678713 0.335889
O O5 0.273711 0.296063 0.334814
O O6 0.883125 0.327379 0.113159
O O7 0.284361 0.087953 0.027734
O O8 0.000000 0.123589 0.000000
O O9 0.801102 0.880232 0.304914
O O10 0.000000 0.858770 0.500000
O O11 0.207856 0.832172 0.469015
O O12 0.500000 0.874828 0.500000
O O13 0.505537 0.905318 0.377887
O O14 0.969229 0.500000 0.619102
O O15 0.588488 0.549626 0.445775
O O16 0.839430 0.551748 0.669566
O O17 0.699961 0.044773 0.206835
O O18 0.829203 0.500000 0.010300
O O19 0.000000 0.434265 0.000000
#
# Coordination Sequence:
#
# PCOD8079767 Si02
#       8
#     8   8   8   8   8   8   8   8
#     4  11  25  43  63  93 127 165 216 264 321 388
#     4  11  23  42  68  94 121 166 216 268 320 380
#     4  10  24  44  67  90 129 169 217 266 314 381
#     4  11  19  39  68  93 127 163 208 265 319 379
#     4  11  25  40  59  95 135 164 203 263 328 385
#     4  10  19  34  63  95 122 166 215 259 315 382
#     4  10  17  36  64  94 124 161 216 265 307 379
#     4  11  24  40  64  99 133 169 216 267 322 378
#
# _framework density 20.804196000000001
#
# number of rings (size 3 to 8) (size 9 to 14) (size 15 to 20)
#    0.000    1.375    5.000    1.875    3.500    4.500 
#    0.000    0.625    0.000    0.000    0.000    0.000 
#    0.000    0.000    0.000    0.000    0.000    0.000 
#
# Total GULP energy -396614.738070 kJ/mol
# GULP energy per Si atom -12394.210565 kJ/mol
# Density = 2.075684 g / cm^3
# Si number density = 20.804196 Si / 1000 Ang^3
#
#
#
# Elastic Constant Matrix: (Units=GPa)
#
#
# Indices 1 2 3 4 5 6 
#
# 1 70.7810 41.2838 40.3029 0.0002 -13.1990 0.0003
# 2 41.2838 122.6654 32.1775 0.0001 1.0732 0.0001
# 3 40.3029 32.1775 91.1682 0.0002 -10.2064 0.0009
# 4 0.0002 0.0001 0.0002 45.0029 0.0001 20.5444
# 5 -13.1990 1.0732 -10.2064 0.0001 29.8741 0.0003
# 6 0.0003 0.0001 0.0009 20.5444 0.0003 35.9351
#
#
#
# Elastic Compliance Matrix: (Units=1/GPa)
#
#
# Indices 1 2 3 4 5 6 
#
# 1 0.023254 -0.005989 -0.007270 0.000000 0.008005 0.000000
# 2 -0.005989 0.010588 -0.001485 0.000000 -0.003534 0.000000
# 3 -0.007270 -0.001485 0.014924 0.000000 0.001940 0.000000
# 4 0.000000 0.000000 0.000000 0.030068 0.000000 -0.017190
# 5 0.008005 -0.003534 0.001940 0.000000 0.037801 -0.000001
# 6 0.000000 0.000000 0.000000 -0.017190 -0.000001 0.037656
#
#
# Mechanical properties :
#
#
# Convention : Reuss Voigt Hill
#
# Bulk Modulus (GPa) = 51.87296 56.90476 54.38886
# Shear Modulus (GPa) = 26.28748 33.55244 29.91996
#
# Velocity S-wave (km/s) = 3.55852 4.02029 3.79643
# Velocity P-wave (km/s) = 6.47087 6.99730 6.73923
#
# Compressibility (1/GPa) = 0.01927787
#
# Stress axis : x y z
#
# Youngs Moduli (GPa) = 43.00421 94.44252 67.00701
#
# Poissons Ratio (x) = 0.56563 0.48712
# Poissons Ratio (y) = 0.25756 0.09951
# Poissons Ratio (z) = 0.31263 0.14026
#
# Static dielectric constant tensor:
#      x y z
#    x 3.658500 0.000000 -0.059060 
#    y 0.000000 3.899150 0.000000 
#    z -0.059060 0.000000 3.836070 
# 
# 
# High freq. dielectric constant tensor:
#      x y z
#    x 1.790710 0.000000 -0.008570 
#    y 0.000000 1.826050 0.000000 
#    z -0.008570 0.000000 1.812440 
# 
# From -- ./inp_files/260387.got.cif
#   From: 2010.06.25/outbox.cif.g09.slc.cpg/sg12_131_cif.got.tgz:260387.got - 2010.06.28 00:19:55.
