data_PCOD8079346
_publ_section_title
;
Structure prediction by ZEFSAII (Michael W. Deem and Ramdas Pophale) SiO2 
 PCOD8079346
Probable space group: C 2/M
;
_chemical_formula_sum "Si O2"
_cell_formula_units_Z 64
_cell_length_a 14.363687
_cell_length_b 13.262971
_cell_length_c 18.830614
_cell_angle_alpha 90.000000
_cell_angle_beta 93.317014
_cell_angle_gamma 90.000000
_cell_volume 3581.319283
_symmetry_space_group_name_H-M "C 2/M"
_symmetry_group_IT_number 12
_symmetry_cell_setting 'monoclinic'
loop_
_space_group_symop_operation_xyz
x,y,z
-x,y,-z
-x,-y,-z
x,-y,z
1/2+x,1/2+y,z
1/2-x,1/2+y,-z
1/2-x,1/2-y,-z
1/2+x,1/2-y,z
loop_
_atom_site_type_symbol
_atom_site_label
_atom_site_fract_x
_atom_site_fract_y
_atom_site_fract_z
Si Si1 0.154527 0.384508 0.724989
Si Si2 0.243070 0.755462 0.835830
Si Si3 0.761994 0.710031 0.396251
Si Si4 0.405508 0.252502 0.519686
Si Si5 0.216333 0.613393 0.296700
Si Si6 0.024979 0.387607 0.357215
Si Si7 0.899350 0.115480 0.907598
Si Si8 0.612607 0.385358 0.925907
O O1 0.142341 0.500000 0.745140
O O2 0.175672 0.327364 0.798406
O O3 0.234840 0.369687 0.668356
O O4 0.062124 0.334932 0.686045
O O5 0.266593 0.840907 0.779776
O O6 0.336206 0.697844 0.864980
O O7 0.187525 0.808005 0.897177
O O8 0.668084 0.683190 0.436839
O O9 0.851893 0.702931 0.450814
O O10 0.762294 0.822415 0.362631
O O11 0.500000 0.314041 0.500000
O O12 0.445936 0.162609 0.568402
O O13 0.257778 0.500000 0.302005
O O14 0.106138 0.612945 0.302781
O O15 0.994393 0.500000 0.376497
O O16 0.007607 0.139243 0.894692
O O17 0.875575 0.000000 0.882767
O O18 0.881211 0.126872 0.989848
O O19 0.638196 0.500000 0.905312
#
# Coordination Sequence:
#
# PCOD8079346 Si02
#       8
#     8   8   8   8   8   8   8   8
#     4  10  20  33  48  75 107 133 165 209 261 314
#     4  11  20  31  57  80 103 139 178 218 257 302
#     4   9  19  32  49  74  94 133 161 210 257 302
#     4  10  17  30  51  71  95 122 168 211 254 301
#     4   9  19  34  49  72 103 133 170 211 258 309
#     4   9  18  31  48  70  99 131 163 209 264 313
#     4   9  19  36  55  79 111 142 175 217 261 310
#     4   9  19  36  57  80 107 141 181 217 255 310
#
# _framework density 17.870508999999998
#
# number of rings (size 3 to 8) (size 9 to 14) (size 15 to 20)
#    0.000    2.500    1.250    1.875    1.750    0.750 
#    0.000    1.875    0.000    1.500    0.000    5.250 
#    0.000    0.000    0.000    0.000    0.000    0.000 
#
# Total GULP energy -396575.564314 kJ/mol
# GULP energy per Si atom -12392.986385 kJ/mol
# Density = 1.782984 g / cm^3
# Si number density = 17.870509 Si / 1000 Ang^3
#
#
#
# Elastic Constant Matrix: (Units=GPa)
#
#
# Indices 1 2 3 4 5 6 
#
# 1 86.5355 27.5358 22.6411 0.0000 7.6938 0.0000
# 2 27.5358 73.4601 25.9525 0.0000 7.6207 0.0000
# 3 22.6411 25.9525 59.8005 0.0000 8.4594 0.0000
# 4 0.0000 0.0000 0.0000 19.7283 0.0000 3.3688
# 5 7.6938 7.6207 8.4594 0.0000 32.6928 0.0000
# 6 0.0000 0.0000 0.0000 3.3688 0.0000 24.2500
#
#
#
# Elastic Compliance Matrix: (Units=1/GPa)
#
#
# Indices 1 2 3 4 5 6 
#
# 1 0.013782 -0.003830 -0.003346 0.000000 -0.001485 0.000000
# 2 -0.003830 0.017271 -0.005816 0.000000 -0.001620 0.000000
# 3 -0.003346 -0.005816 0.020978 0.000000 -0.003285 0.000000
# 4 0.000000 0.000000 0.000000 0.051920 0.000000 -0.007213
# 5 -0.001485 -0.001620 -0.003285 0.000000 0.032165 0.000000
# 6 0.000000 0.000000 0.000000 -0.007213 0.000000 0.042239
#
#
# Mechanical properties :
#
#
# Convention : Reuss Voigt Hill
#
# Bulk Modulus (GPa) = 38.39201 41.33941 39.86571
# Shear Modulus (GPa) = 23.47172 24.91198 24.19185
#
# Velocity S-wave (km/s) = 3.62806 3.73772 3.68330
# Velocity P-wave (km/s) = 6.25144 6.46609 6.35967
#
# Compressibility (1/GPa) = 0.02604709
#
# Stress axis : x y z
#
# Youngs Moduli (GPa) = 72.55795 57.89952 47.66918
#
# Poissons Ratio (x) = 0.22176 0.15949
# Poissons Ratio (y) = 0.27790 0.27726
# Poissons Ratio (z) = 0.24277 0.33676
#
# Static dielectric constant tensor:
#      x y z
#    x 3.523590 0.000000 -0.014340 
#    y 0.000000 3.182470 0.000000 
#    z -0.014340 0.000000 3.260490 
# 
# 
# High freq. dielectric constant tensor:
#      x y z
#    x 1.697770 0.000000 -0.002200 
#    y 0.000000 1.668960 0.000000 
#    z -0.002200 0.000000 1.694430 
# 
# From -- ./inp_files/269899.got.cif
#   From: 2010.06.25/outbox.cif.g09.slc.cpg/sg12_135_cif.got.tgz:269899.got - 2010.06.28 00:19:55.
