data_PCOD8079697
_publ_section_title
;
Structure prediction by ZEFSAII (Michael W. Deem and Ramdas Pophale) SiO2 
 PCOD8079697
Probable space group: C 2/M
;
_chemical_formula_sum "Si O2"
_cell_formula_units_Z 52
_cell_length_a 12.114115
_cell_length_b 18.819586
_cell_length_c 12.795894
_cell_angle_alpha 90.000000
_cell_angle_beta 66.071226
_cell_angle_gamma 90.000000
_cell_volume 2666.505745
_symmetry_space_group_name_H-M "C 2/M"
_symmetry_group_IT_number 12
_symmetry_cell_setting 'monoclinic'
loop_
_space_group_symop_operation_xyz
x,y,z
-x,y,-z
-x,-y,-z
x,-y,z
1/2+x,1/2+y,z
1/2-x,1/2+y,-z
1/2-x,1/2-y,-z
1/2+x,1/2-y,z
loop_
_atom_site_type_symbol
_atom_site_label
_atom_site_fract_x
_atom_site_fract_y
_atom_site_fract_z
Si Si1 0.367398 0.000000 0.306117
Si Si2 0.437326 0.730693 0.130675
Si Si3 0.060359 0.211902 0.282992
Si Si4 0.181522 0.847233 0.562800
Si Si5 0.127115 0.500000 0.305798
Si Si6 0.780250 0.000000 0.441252
Si Si7 0.710151 0.155115 0.259090
Si Si8 0.289293 0.851656 0.294138
O O1 0.487889 0.000000 0.329495
O O2 0.254812 0.000000 0.425663
O O3 0.349640 0.071612 0.245634
O O4 0.532587 0.692991 0.172215
O O5 0.327572 0.677085 0.145923
O O6 0.388251 0.797267 0.214996
O O7 0.500000 0.755252 0.000000
O O8 0.096520 0.295049 0.275447
O O9 0.165110 0.158400 0.278858
O O10 0.940205 0.198978 0.399267
O O11 0.264104 0.824880 0.629315
O O12 0.263204 0.839352 0.427851
O O13 0.141499 0.928834 0.604879
O O14 0.157181 0.500000 0.417914
O O15 0.184848 0.573085 0.239327
#
# Coordination Sequence:
#
# PCOD8079697 Si02
#       8
#     4   8   8   8   4   4   8   8
#     4  10  19  33  51  80 115 140 172 214 261 315
#     4  10  22  40  57  75 102 138 183 229 266 308
#     4  10  20  34  54  79 108 143 174 218 270 310
#     4   9  18  33  52  81 115 143 176 214 254 308
#     4  10  17  34  55  75 107 143 176 213 262 309
#     4   8  17  31  50  77 111 149 181 205 243 312
#     4   9  20  34  56  84 108 139 179 216 259 319
#     4  10  21  34  54  83 111 143 178 212 260 321
#
# _framework density 19.501176000000001
#
# number of rings (size 3 to 8) (size 9 to 14) (size 15 to 20)
#    0.000    2.462    0.000    1.615    0.000    9.846 
#    0.000   13.077    0.000    1.846    0.000    0.000 
#    0.000    0.000    0.000    0.000    0.000    0.000 
#
# Total GULP energy -322153.946624 kJ/mol
# GULP energy per Si atom -12390.536409 kJ/mol
# Density = 1.945679 g / cm^3
# Si number density = 19.501176 Si / 1000 Ang^3
#
#
#
# Elastic Constant Matrix: (Units=GPa)
#
#
# Indices 1 2 3 4 5 6 
#
# 1 98.3400 48.2519 29.4486 0.0000 -3.6521 0.0000
# 2 48.2519 130.4352 33.0303 0.0000 -12.1058 0.0000
# 3 29.4486 33.0303 102.7788 0.0000 -10.2761 0.0000
# 4 0.0000 0.0000 0.0000 12.4233 0.0000 2.2089
# 5 -3.6521 -12.1058 -10.2761 0.0000 15.3305 0.0000
# 6 0.0000 0.0000 0.0000 2.2089 0.0000 29.5502
#
#
#
# Elastic Compliance Matrix: (Units=1/GPa)
#
#
# Indices 1 2 3 4 5 6 
#
# 1 0.012985 -0.004353 -0.002525 0.000000 -0.002037 0.000000
# 2 -0.004353 0.010201 -0.001425 0.000000 0.006063 0.000000
# 3 -0.002525 -0.001425 0.011510 0.000000 0.005989 0.000000
# 4 0.000000 0.000000 0.000000 0.081578 0.000000 -0.006098
# 5 -0.002037 0.006063 0.005989 0.000000 0.073546 0.000000
# 6 0.000000 0.000000 0.000000 -0.006098 0.000000 0.034297
#
#
# Mechanical properties :
#
#
# Convention : Reuss Voigt Hill
#
# Bulk Modulus (GPa) = 55.28130 61.44619 58.36375
# Shear Modulus (GPa) = 20.26321 26.18234 23.22277
#
# Velocity S-wave (km/s) = 3.22697 3.66813 3.45460
# Velocity P-wave (km/s) = 6.50336 7.03687 6.77537
#
# Compressibility (1/GPa) = 0.01808930
#
# Stress axis : x y z
#
# Youngs Moduli (GPa) = 77.00990 98.03439 86.88261
#
# Poissons Ratio (x) = 0.42677 0.21940
# Poissons Ratio (y) = 0.33524 0.12378
# Poissons Ratio (z) = 0.19447 0.13967
#
# Static dielectric constant tensor:
#      x y z
#    x 3.633830 0.000000 0.069980 
#    y 0.000000 4.052440 0.000000 
#    z 0.069980 0.000000 3.154450 
# 
# 
# High freq. dielectric constant tensor:
#      x y z
#    x 1.767090 0.000000 0.007790 
#    y 0.000000 1.769160 0.000000 
#    z 0.007790 0.000000 1.712100 
# 
# From -- ./inp_files/133118.got.cif
#   From: 2010.06.25/outbox.cif.g09.slc.cpg/sg12_67_cif.got.tgz:133118.got - 2010.06.28 00:19:55.
