data_PCOD8079077
_publ_section_title
;
Structure prediction by ZEFSAII (Michael W. Deem and Ramdas Pophale) SiO2 
 PCOD8079077
Probable space group: C 2/M
;
_chemical_formula_sum "Si O2"
_cell_formula_units_Z 60
_cell_length_a 21.994044
_cell_length_b 13.697052
_cell_length_c 15.887320
_cell_angle_alpha 90.000000
_cell_angle_beta 47.653165
_cell_angle_gamma 90.000000
_cell_volume 3537.322895
_symmetry_space_group_name_H-M "C 2/M"
_symmetry_group_IT_number 12
_symmetry_cell_setting 'monoclinic'
loop_
_space_group_symop_operation_xyz
x,y,z
-x,y,-z
-x,-y,-z
x,-y,z
1/2+x,1/2+y,z
1/2-x,1/2+y,-z
1/2-x,1/2-y,-z
1/2+x,1/2-y,z
loop_
_atom_site_type_symbol
_atom_site_label
_atom_site_fract_x
_atom_site_fract_y
_atom_site_fract_z
Si Si1 0.361162 0.386703 0.516022
Si Si2 0.091154 0.763666 0.256605
Si Si3 0.000000 0.804156 0.500000
Si Si4 0.256199 0.607895 0.859083
Si Si5 0.810358 0.388307 0.260446
Si Si6 0.474138 0.769075 0.119676
Si Si7 0.971296 0.115569 0.261896
Si Si8 0.601032 0.888657 0.109211
O O1 0.345296 0.500000 0.531285
O O2 0.426323 0.368328 0.530057
O O3 0.271286 0.340946 0.619225
O O4 0.394331 0.353474 0.393541
O O5 0.037918 0.739563 0.389573
O O6 0.179746 0.804094 0.199751
O O7 0.095137 0.661043 0.205712
O O8 0.052691 0.848012 0.233836
O O9 0.298700 0.500000 0.820763
O O10 0.199973 0.616833 0.829634
O O11 0.195996 0.618810 0.994395
O O12 0.826450 0.500000 0.274334
O O13 0.888273 0.323903 0.211618
O O14 0.464420 0.666434 0.177631
O O15 0.544288 0.835620 0.094309
O O16 0.500000 0.746413 0.000000
O O17 0.976555 0.000000 0.243327
O O18 0.571539 0.000000 0.144933
#
# Coordination Sequence:
#
# PCOD8079077 Si02
#       8
#     8   8   4   8   8   8   8   8
#     4   9  17  30  49  75 101 126 159 200 247 291
#     4  10  19  32  52  77 102 128 160 200 249 296
#     4  10  17  28  49  76 102 130 158 194 244 296
#     4  10  18  30  51  77 102 126 158 204 251 292
#     4  10  19  30  50  78 100 125 162 206 248 286
#     4  11  21  34  52  72  97 133 169 205 241 286
#     4   9  20  35  51  73 101 130 162 201 246 294
#     4  10  21  35  51  72  99 132 168 205 243 285
#
# _framework density 16.961980000000001
#
# number of rings (size 3 to 8) (size 9 to 14) (size 15 to 20)
#    0.000    2.133    2.667    1.400    0.000    2.400 
#    0.000    0.333    0.000    0.800    0.000    0.000 
#    0.000    0.000    0.000    0.000    0.000    0.000 
#
# Total GULP energy -371875.669928 kJ/mol
# GULP energy per Si atom -12395.855664 kJ/mol
# Density = 1.692337 g / cm^3
# Si number density = 16.961980 Si / 1000 Ang^3
#
#
#
# Elastic Constant Matrix: (Units=GPa)
#
#
# Indices 1 2 3 4 5 6 
#
# 1 48.0613 27.1377 37.9993 0.0000 0.7941 0.0000
# 2 27.1377 82.4112 48.2125 0.0000 10.3817 0.0000
# 3 37.9993 48.2125 106.7955 0.0000 6.3126 0.0000
# 4 0.0000 0.0000 0.0000 23.8635 0.0000 1.1864
# 5 0.7941 10.3817 6.3126 0.0000 28.8423 0.0000
# 6 0.0000 0.0000 0.0000 1.1864 0.0000 18.2816
#
#
#
# Elastic Compliance Matrix: (Units=1/GPa)
#
#
# Indices 1 2 3 4 5 6 
#
# 1 0.030643 -0.005416 -0.008635 0.000000 0.002996 0.000000
# 2 -0.005416 0.018007 -0.005904 0.000000 -0.005040 0.000000
# 3 -0.008635 -0.005904 0.015158 0.000000 -0.000955 0.000000
# 4 0.000000 0.000000 0.000000 0.042041 0.000000 -0.002728
# 5 0.002996 -0.005040 -0.000955 0.000000 0.036612 0.000000
# 6 0.000000 0.000000 0.000000 -0.002728 0.000000 0.054877
#
#
# Mechanical properties :
#
#
# Convention : Reuss Voigt Hill
#
# Bulk Modulus (GPa) = 41.84649 51.55189 46.69919
# Shear Modulus (GPa) = 20.39043 22.45870 21.42456
#
# Velocity S-wave (km/s) = 3.47093 3.64271 3.55786
# Velocity P-wave (km/s) = 6.38651 6.93910 6.66853
#
# Compressibility (1/GPa) = 0.02389687
#
# Stress axis : x y z
#
# Youngs Moduli (GPa) = 32.63420 55.53486 65.97210
#
# Poissons Ratio (x) = 0.30079 0.56967
# Poissons Ratio (y) = 0.17675 0.38950
# Poissons Ratio (z) = 0.28180 0.32788
#
# Static dielectric constant tensor:
#      x y z
#    x 3.068890 0.000000 -0.074080 
#    y 0.000000 2.943150 0.000000 
#    z -0.074080 0.000000 3.489540 
# 
# 
# High freq. dielectric constant tensor:
#      x y z
#    x 1.647480 0.000000 -0.007920 
#    y 0.000000 1.627140 0.000000 
#    z -0.007920 0.000000 1.669640 
# 
# From -- ./inp_files/239965.got.cif
#   From: 2010.06.25/outbox.cif.g09.slc.cpg/sg12_120_cif.got.tgz:239965.got - 2010.06.28 00:19:55.
