data_PCOD8079734
_publ_section_title
;
Structure prediction by ZEFSAII (Michael W. Deem and Ramdas Pophale) SiO2 
 PCOD8079734
Probable space group: C 2/M
;
_chemical_formula_sum "Si O2"
_cell_formula_units_Z 64
_cell_length_a 17.184088
_cell_length_b 18.070399
_cell_length_c 19.039670
_cell_angle_alpha 90.000000
_cell_angle_beta 148.884080
_cell_angle_gamma 90.000000
_cell_volume 3055.286723
_symmetry_space_group_name_H-M "C 2/M"
_symmetry_group_IT_number 12
_symmetry_cell_setting 'monoclinic'
loop_
_space_group_symop_operation_xyz
x,y,z
-x,y,-z
-x,-y,-z
x,-y,z
1/2+x,1/2+y,z
1/2-x,1/2+y,-z
1/2-x,1/2-y,-z
1/2+x,1/2-y,z
loop_
_atom_site_type_symbol
_atom_site_label
_atom_site_fract_x
_atom_site_fract_y
_atom_site_fract_z
Si Si1 0.345672 0.171324 0.649465
Si Si2 0.342429 0.328298 0.715752
Si Si3 0.639938 0.819238 0.696477
Si Si4 0.491678 0.859053 0.091629
Si Si5 0.733220 0.082843 0.176593
Si Si6 0.611665 0.913960 0.457339
Si Si7 0.012164 0.834024 0.428726
Si Si8 0.091012 0.193427 0.003135
O O1 0.350869 0.259983 0.666955
O O2 0.460487 0.130657 0.791222
O O3 0.398951 0.143880 0.615068
O O4 0.175824 0.143808 0.527998
O O5 0.243904 0.305392 0.708382
O O6 0.266119 0.398753 0.619690
O O7 0.512665 0.347721 0.875006
O O8 0.536662 0.893312 0.610871
O O9 0.521305 0.752280 0.608474
O O10 0.735519 0.824663 0.843645
O O11 0.642357 0.867228 0.161799
O O12 0.421844 0.779630 0.022167
O O13 0.361625 0.917465 0.969827
O O14 0.897023 0.117847 0.293023
O O15 0.747754 0.000000 0.216196
O O16 0.608371 0.000000 0.432799
O O17 0.000000 0.858014 0.500000
O O18 0.000000 0.166427 0.000000
#
# Coordination Sequence:
#
# PCOD8079734 Si02
#       8
#     8   8   8   8   8   8   8   8
#     4  11  23  39  64  89 125 164 208 257 311 371
#     4  10  20  39  67  97 120 157 208 265 313 363
#     4  11  20  39  68  98 120 153 212 268 310 365
#     4  10  17  35  55  83 120 162 208 253 301 365
#     4  11  21  31  51  86 127 168 206 254 310 361
#     4  12  27  43  60  89 132 174 204 249 323 387
#     4  12  19  36  60  90 122 158 207 261 301 356
#     4   9  16  32  64  94 119 145 201 267 314 352
#
# _framework density 20.947299000000001
#
# number of rings (size 3 to 8) (size 9 to 14) (size 15 to 20)
#    0.000    1.250    6.250    2.250    0.000    2.750 
#    0.000    4.375    0.000    2.250    0.000    0.000 
#    0.000    0.000    0.000    0.000    0.000    0.000 
#
# Total GULP energy -396563.223505 kJ/mol
# GULP energy per Si atom -12392.600735 kJ/mol
# Density = 2.089962 g / cm^3
# Si number density = 20.947299 Si / 1000 Ang^3
#
#
#
# Elastic Constant Matrix: (Units=GPa)
#
#
# Indices 1 2 3 4 5 6 
#
# 1 33.4538 19.6812 8.9281 0.0005 -8.5564 0.0001
# 2 19.6812 78.1457 36.7289 0.0026 -5.4048 0.0004
# 3 8.9281 36.7289 117.0154 0.0038 -17.0035 0.0006
# 4 0.0005 0.0026 0.0038 17.6135 -0.0005 -2.1336
# 5 -8.5564 -5.4048 -17.0035 -0.0005 24.0570 -0.0004
# 6 0.0001 0.0004 0.0006 -2.1336 -0.0004 11.4468
#
#
#
# Elastic Compliance Matrix: (Units=1/GPa)
#
#
# Indices 1 2 3 4 5 6 
#
# 1 0.038364 -0.009707 0.001990 0.000000 0.012871 0.000000
# 2 -0.009707 0.017467 -0.005208 -0.000001 -0.003209 -0.000001
# 3 0.001990 -0.005208 0.011102 -0.000002 0.007384 0.000000
# 4 0.000000 -0.000001 -0.000002 0.058086 0.000000 0.010827
# 5 0.012871 -0.003209 0.007384 0.000000 0.050644 0.000001
# 6 0.000000 -0.000001 0.000000 0.010827 0.000001 0.089379
#
#
# Mechanical properties :
#
#
# Convention : Reuss Voigt Hill
#
# Bulk Modulus (GPa) = 24.34167 39.92124 32.13146
# Shear Modulus (GPa) = 16.41570 21.50858 18.96214
#
# Velocity S-wave (km/s) = 2.80244 3.20784 3.01197
# Velocity P-wave (km/s) = 4.70290 5.72884 5.24103
#
# Compressibility (1/GPa) = 0.04108181
#
# Stress axis : x y z
#
# Youngs Moduli (GPa) = 26.06643 57.24961 90.07470
#
# Poissons Ratio (x) = 0.55573 -0.17925
# Poissons Ratio (y) = 0.25303 0.46915
# Poissons Ratio (z) = -0.05187 0.29818
#
# Static dielectric constant tensor:
#      x y z
#    x 3.432300 0.000000 -0.224030 
#    y 0.000000 3.338710 -0.000010 
#    z -0.224030 -0.000010 4.577840 
# 
# 
# High freq. dielectric constant tensor:
#      x y z
#    x 1.781800 0.000000 -0.011450 
#    y 0.000000 1.778350 0.000000 
#    z -0.011450 0.000000 1.855270 
# 
# From -- ./inp_files/317407.got.cif
#   From: 2010.06.25/outbox.cif.g09.slc.cpg/sg12_159_cif.got.tgz:317407.got - 2010.06.28 00:19:55.
