data_PCOD8079495
_publ_section_title
;
Structure prediction by ZEFSAII (Michael W. Deem and Ramdas Pophale) SiO2 
 PCOD8079495
Probable space group: C 2/M
;
_chemical_formula_sum "Si O2"
_cell_formula_units_Z 56
_cell_length_a 24.246407
_cell_length_b 15.907988
_cell_length_c 23.285818
_cell_angle_alpha 90.000000
_cell_angle_beta 19.923688
_cell_angle_gamma 90.000000
_cell_volume 3060.647338
_symmetry_space_group_name_H-M "C 2/M"
_symmetry_group_IT_number 12
_symmetry_cell_setting 'monoclinic'
loop_
_space_group_symop_operation_xyz
x,y,z
-x,y,-z
-x,-y,-z
x,-y,z
1/2+x,1/2+y,z
1/2-x,1/2+y,-z
1/2-x,1/2-y,-z
1/2+x,1/2-y,z
loop_
_atom_site_type_symbol
_atom_site_label
_atom_site_fract_x
_atom_site_fract_y
_atom_site_fract_z
Si Si1 0.655399 0.404364 0.807983
Si Si2 0.416674 0.207157 0.851501
Si Si3 0.488593 0.253605 0.358530
Si Si4 0.910469 0.349912 0.035221
Si Si5 0.223337 0.906681 0.115808
Si Si6 0.626452 0.262555 0.746114
Si Si7 0.645365 0.219176 0.320564
O O1 0.693746 0.500000 0.752891
O O2 0.628654 0.353042 0.775022
O O3 0.807125 0.368880 0.695979
O O4 0.500000 0.398263 0.000000
O O5 0.510750 0.194442 0.699035
O O6 0.522434 0.267655 0.789327
O O7 0.250000 0.250000 0.000000
O O8 0.368356 0.120174 0.930326
O O9 0.570949 0.343639 0.263493
O O10 0.306507 0.269197 0.556186
O O11 0.590966 0.206320 0.307801
O O12 0.048748 0.307507 0.862027
O O13 0.799002 0.410192 0.105950
O O14 0.800785 0.278364 0.172099
O O15 0.000000 0.398911 0.000000
O O16 0.163259 0.000000 0.158414
O O17 0.500000 0.260174 0.500000
#
# Coordination Sequence:
#
# PCOD8079495 Si02
#       7
#     8   8   8   8   8   8   8
#     4  11  22  35  54  84 119 152 186 230 281 323
#     4   9  20  36  59  80 104 144 194 222 273 336
#     4  10  20  34  59  83 104 150 191 222 273 339
#     4  10  17  31  56  79 105 147 183 212 269 336
#     4   9  20  36  54  79 111 137 177 237 280 316
#     4  11  18  36  57  79 113 145 189 229 265 337
#     4  11  18  33  56  82 115 146 185 223 270 330
#
# _framework density 18.296783000000001
#
# number of rings (size 3 to 8) (size 9 to 14) (size 15 to 20)
#    0.000    1.857    4.286    1.286    0.000    0.571 
#    0.000    7.143    0.000   14.571    0.000    0.000 
#    0.000    0.000    0.000    0.000    0.000    0.000 
#
# Total GULP energy -347027.997229 kJ/mol
# GULP energy per Si atom -12393.857044 kJ/mol
# Density = 1.825514 g / cm^3
# Si number density = 18.296783 Si / 1000 Ang^3
#
#
#
# Elastic Constant Matrix: (Units=GPa)
#
#
# Indices 1 2 3 4 5 6 
#
# 1 131.4086 31.9438 26.9369 -0.0025 -5.9237 0.0012
# 2 31.9438 91.0932 27.8399 -0.0067 2.3712 0.0055
# 3 26.9369 27.8399 111.2464 -0.0082 4.9737 0.0097
# 4 -0.0025 -0.0067 -0.0082 9.8392 0.0102 -0.3836
# 5 -5.9237 2.3712 4.9737 0.0102 34.6589 -0.0050
# 6 0.0012 0.0055 0.0097 -0.3836 -0.0050 16.3411
#
#
#
# Elastic Compliance Matrix: (Units=1/GPa)
#
#
# Indices 1 2 3 4 5 6 
#
# 1 0.008642 -0.002614 -0.001522 -0.000003 0.001874 0.000002
# 2 -0.002614 0.012683 -0.002498 0.000007 -0.000956 -0.000003
# 3 -0.001522 -0.002498 0.010051 0.000008 -0.001532 -0.000005
# 4 -0.000003 0.000007 0.000008 0.101728 -0.000032 0.002388
# 5 0.001874 -0.000956 -0.001532 -0.000032 0.029458 0.000009
# 6 0.000002 -0.000003 -0.000005 0.002388 0.000009 0.061252
#
#
# Mechanical properties :
#
#
# Convention : Reuss Voigt Hill
#
# Bulk Modulus (GPa) = 55.22686 56.35438 55.79062
# Shear Modulus (GPa) = 20.56616 28.63634 24.60125
#
# Velocity S-wave (km/s) = 3.35630 3.96043 3.67081
# Velocity P-wave (km/s) = 6.72823 7.19586 6.96597
#
# Compressibility (1/GPa) = 0.01810713
#
# Stress axis : x y z
#
# Youngs Moduli (GPa) = 115.71674 78.84683 99.48971
#
# Poissons Ratio (x) = 0.20611 0.15144
# Poissons Ratio (y) = 0.30249 0.24855
# Poissons Ratio (z) = 0.17614 0.19698
#
# Static dielectric constant tensor:
#      x y z
#    x 4.021010 -0.000010 0.206690 
#    y -0.000010 3.024290 0.000030 
#    z 0.206690 0.000030 3.628670 
# 
# 
# High freq. dielectric constant tensor:
#      x y z
#    x 1.728550 0.000000 -0.000310 
#    y 0.000000 1.659650 0.000000 
#    z -0.000310 0.000000 1.720010 
# 
# From -- ./inp_files/349702.got.cif
#   From: 2010.06.25/outbox.cif.g09.slc.cpg/sg12_175_cif.got.tgz:349702.got - 2010.06.28 00:19:55.
