data_PCOD8079012
_publ_section_title
;
Structure prediction by ZEFSAII (Michael W. Deem and Ramdas Pophale) SiO2 
 PCOD8079012
Probable space group: C 2/M
;
_chemical_formula_sum "Si O2"
_cell_formula_units_Z 64
_cell_length_a 25.049446
_cell_length_b 8.771673
_cell_length_c 23.979414
_cell_angle_alpha 90.000000
_cell_angle_beta 45.988467
_cell_angle_gamma 90.000000
_cell_volume 3789.385406
_symmetry_space_group_name_H-M "C 2/M"
_symmetry_group_IT_number 12
_symmetry_cell_setting 'monoclinic'
loop_
_space_group_symop_operation_xyz
x,y,z
-x,y,-z
-x,-y,-z
x,-y,z
1/2+x,1/2+y,z
1/2-x,1/2+y,-z
1/2-x,1/2-y,-z
1/2+x,1/2-y,z
loop_
_atom_site_type_symbol
_atom_site_label
_atom_site_fract_x
_atom_site_fract_y
_atom_site_fract_z
Si Si1 0.319226 0.177940 0.678496
Si Si2 0.593727 0.819912 0.570520
Si Si3 0.114319 0.320180 0.679734
Si Si4 0.559803 0.331216 0.005668
Si Si5 0.222386 0.819311 0.408344
Si Si6 0.663815 0.321885 0.839098
Si Si7 0.450839 0.179041 0.160507
Si Si8 0.473071 0.321858 0.581548
O O1 0.297909 0.230820 0.632705
O O2 0.251065 0.210711 0.770028
O O3 0.387954 0.274711 0.651404
O O4 0.340003 0.000000 0.661804
O O5 0.583011 0.768821 0.642630
O O6 0.663533 0.725527 0.497901
O O7 0.519916 0.775620 0.591212
O O8 0.608669 0.000000 0.553975
O O9 0.118205 0.500000 0.680121
O O10 0.197858 0.259932 0.628795
O O11 0.059897 0.259517 0.768357
O O12 0.571768 0.500000 0.021029
O O13 0.636023 0.269813 0.921378
O O14 0.500000 0.329828 0.000000
O O15 0.530529 0.231312 0.078482
O O16 0.219139 0.000000 0.399575
O O17 0.645016 0.500000 0.845018
O O18 0.619565 0.234226 0.823497
O O19 0.450016 0.000000 0.159342
O O20 0.500000 0.280330 0.500000
O O21 0.483440 0.500000 0.586337
#
# Coordination Sequence:
#
# PCOD8079012 Si02
#       8
#     8   8   8   8   8   8   8   8
#     4  11  21  33  53  77  97 129 171 205 243 295
#     4  11  22  37  54  72  95 130 174 210 242 292
#     4   9  20  34  49  72 104 135 164 204 248 288
#     4   8  15  28  43  64  98 133 160 195 239 285
#     4  11  20  34  51  72 103 134 162 202 252 291
#     4   9  18  31  46  69 101 130 162 201 242 287
#     4  10  17  28  46  70 100 133 165 195 237 291
#     4  11  23  38  54  72  98 128 161 209 262 296
#
# _framework density 16.889282999999999
#
# number of rings (size 3 to 8) (size 9 to 14) (size 15 to 20)
#    0.000    2.000    2.500    3.000    0.000    3.250 
#    0.000    4.375    0.000    0.000    0.000    0.875 
#    0.000    0.000    0.000    0.000    0.000    0.000 
#
# Total GULP energy -396706.665692 kJ/mol
# GULP energy per Si atom -12397.083303 kJ/mol
# Density = 1.685084 g / cm^3
# Si number density = 16.889283 Si / 1000 Ang^3
#
#
#
# Elastic Constant Matrix: (Units=GPa)
#
#
# Indices 1 2 3 4 5 6 
#
# 1 75.0786 13.4473 49.1633 -0.0001 5.8838 0.0002
# 2 13.4473 33.7473 26.5060 0.0013 -4.6147 0.0062
# 3 49.1633 26.5060 149.5083 0.0001 -2.4971 0.0005
# 4 -0.0001 0.0013 0.0001 26.1634 0.0001 -0.6171
# 5 5.8838 -4.6147 -2.4971 0.0001 14.9067 -0.0002
# 6 0.0002 0.0062 0.0005 -0.6171 -0.0002 15.8952
#
#
#
# Elastic Compliance Matrix: (Units=1/GPa)
#
#
# Indices 1 2 3 4 5 6 
#
# 1 0.018410 -0.004367 -0.005439 0.000000 -0.009529 0.000002
# 2 -0.004367 0.036908 -0.004901 -0.000002 0.012328 -0.000014
# 3 -0.005439 -0.004901 0.009383 0.000000 0.002201 0.000002
# 4 0.000000 -0.000002 0.000000 0.038256 -0.000001 0.001485
# 5 -0.009529 0.012328 0.002201 -0.000001 0.075030 -0.000004
# 6 0.000002 -0.000014 0.000002 0.001485 -0.000004 0.062970
#
#
# Mechanical properties :
#
#
# Convention : Reuss Voigt Hill
#
# Bulk Modulus (GPa) = 28.33997 48.50748 38.42372
# Shear Modulus (GPa) = 17.72216 22.67425 20.19820
#
# Velocity S-wave (km/s) = 3.24283 3.66802 3.46196
# Velocity P-wave (km/s) = 5.55315 6.83538 6.22735
#
# Compressibility (1/GPa) = 0.03528586
#
# Stress axis : x y z
#
# Youngs Moduli (GPa) = 54.31906 27.09464 106.57916
#
# Poissons Ratio (x) = 0.11833 0.57965
# Poissons Ratio (y) = 0.23722 0.52238
# Poissons Ratio (z) = 0.29542 0.13280
#
# Static dielectric constant tensor:
#      x y z
#    x 2.951740 0.000000 -0.023220 
#    y 0.000000 3.155380 0.000000 
#    z -0.023220 0.000000 3.767860 
# 
# 
# High freq. dielectric constant tensor:
#      x y z
#    x 1.611370 0.000000 -0.003590 
#    y 0.000000 1.652000 0.000000 
#    z -0.003590 0.000000 1.664340 
# 
# From -- ./inp_files/348528.got.cif
#   From: 2010.06.25/outbox.cif.g09.slc.cpg/sg12_175_cif.got.tgz:348528.got - 2010.06.28 00:19:55.
