data_PCOD8079460
_publ_section_title
;
Structure prediction by ZEFSAII (Michael W. Deem and Ramdas Pophale) SiO2 
 PCOD8079460
Probable space group: C 2/M
;
_chemical_formula_sum "Si O2"
_cell_formula_units_Z 56
_cell_length_a 14.810328
_cell_length_b 23.978051
_cell_length_c 22.737494
_cell_angle_alpha 90.000000
_cell_angle_beta 158.055141
_cell_angle_gamma 90.000000
_cell_volume 3017.592866
_symmetry_space_group_name_H-M "C 2/M"
_symmetry_group_IT_number 12
_symmetry_cell_setting 'monoclinic'
loop_
_space_group_symop_operation_xyz
x,y,z
-x,y,-z
-x,-y,-z
x,-y,z
1/2+x,1/2+y,z
1/2-x,1/2+y,-z
1/2-x,1/2-y,-z
1/2+x,1/2-y,z
loop_
_atom_site_type_symbol
_atom_site_label
_atom_site_fract_x
_atom_site_fract_y
_atom_site_fract_z
Si Si1 0.950371 0.655966 0.035125
Si Si2 0.889165 0.318735 0.370581
Si Si3 0.708920 0.280110 0.083919
Si Si4 0.748936 0.063667 0.880346
Si Si5 0.093894 0.657363 0.376339
Si Si6 0.916132 0.188657 0.382543
Si Si7 0.870523 0.867743 0.057842
O O1 0.182209 0.655024 0.218432
O O2 0.842037 0.716646 0.958908
O O3 0.739768 0.624042 0.943451
O O4 0.000000 0.629294 0.000000
O O5 0.845551 0.253343 0.330627
O O6 0.653635 0.356866 0.229460
O O7 0.000000 0.326536 0.500000
O O8 0.071289 0.344138 0.432916
O O9 0.960133 0.287211 0.270566
O O10 0.500000 0.306475 0.000000
O O11 0.740800 0.313634 0.042490
O O12 0.529237 0.101782 0.724444
O O13 0.667397 0.000000 0.823327
O O14 0.800874 0.076597 0.980161
O O15 0.000000 0.076978 0.000000
O O16 0.373427 0.664662 0.531222
O O17 0.000000 0.176014 0.500000
#
# Coordination Sequence:
#
# PCOD8079460 Si02
#       7
#     8   8   8   8   8   8   8
#     4  11  23  34  52  80 116 163 198 227 275 347
#     4  11  22  30  49  83 116 157 186 220 288 347
#     4  10  17  31  52  76 106 147 190 230 276 326
#     4  10  20  38  66  90 105 136 193 256 303 333
#     4  11  20  36  55  80 119 147 189 241 285 336
#     4  11  23  35  49  80 121 160 195 225 274 345
#     4  11  19  35  55  78 115 144 192 241 281 344
#
# _framework density 18.557839000000001
#
# number of rings (size 3 to 8) (size 9 to 14) (size 15 to 20)
#    0.000    1.286    4.286    4.286    6.000    0.000 
#    0.000    0.000    0.000    6.000    0.000    0.000 
#    0.000    0.000    0.000    0.000    0.000    0.000 
#
# Total GULP energy -347021.699248 kJ/mol
# GULP energy per Si atom -12393.632116 kJ/mol
# Density = 1.851560 g / cm^3
# Si number density = 18.557839 Si / 1000 Ang^3
#
#
#
# Elastic Constant Matrix: (Units=GPa)
#
#
# Indices 1 2 3 4 5 6 
#
# 1 136.4377 21.0171 12.8581 -0.0144 11.4048 0.0020
# 2 21.0171 43.5471 23.8448 -0.0906 -1.3871 -0.0021
# 3 12.8581 23.8448 52.6527 -0.0335 10.9426 -0.0401
# 4 -0.0144 -0.0906 -0.0335 6.3696 0.0322 -1.5909
# 5 11.4048 -1.3871 10.9426 0.0322 30.3457 0.0236
# 6 0.0020 -0.0021 -0.0401 -1.5909 0.0236 12.3294
#
#
#
# Elastic Compliance Matrix: (Units=1/GPa)
#
#
# Indices 1 2 3 4 5 6 
#
# 1 0.008253 -0.004524 0.000780 -0.000022 -0.003590 0.000004
# 2 -0.004524 0.034414 -0.016388 0.000341 0.009183 -0.000020
# 3 0.000780 -0.016388 0.028583 0.000004 -0.011349 0.000112
# 4 -0.000022 0.000341 0.000004 0.162231 -0.000166 0.020934
# 5 -0.003590 0.009183 -0.011349 -0.000166 0.038815 -0.000130
# 6 0.000004 -0.000020 0.000112 0.020934 -0.000130 0.083808
#
#
# Mechanical properties :
#
#
# Convention : Reuss Voigt Hill
#
# Bulk Modulus (GPa) = 32.27571 38.67527 35.47549
# Shear Modulus (GPa) = 12.29413 21.47011 16.88212
#
# Velocity S-wave (km/s) = 2.57665 3.40506 3.01940
# Velocity P-wave (km/s) = 5.12659 6.02867 5.59584
#
# Compressibility (1/GPa) = 0.03098305
#
# Stress axis : x y z
#
# Youngs Moduli (GPa) = 121.17002 29.05788 34.98640
#
# Poissons Ratio (x) = 0.13147 -0.02727
# Poissons Ratio (y) = 0.54821 0.57337
# Poissons Ratio (z) = -0.09445 0.47621
#
# Static dielectric constant tensor:
#      x y z
#    x 3.909610 -0.000070 0.015060 
#    y -0.000070 2.945330 -0.000160 
#    z 0.015060 -0.000160 3.583100 
# 
# 
# High freq. dielectric constant tensor:
#      x y z
#    x 1.740030 0.000000 -0.001640 
#    y 0.000000 1.656370 -0.000020 
#    z -0.001640 -0.000020 1.721710 
# 
# From -- ./inp_files/341530.got.cif
#   From: 2010.06.25/outbox.cif.g09.slc.cpg/sg12_171_cif.got.tgz:341530.got - 2010.06.28 00:19:55.
