data_PCOD8079808
_publ_section_title
;
Structure prediction by ZEFSAII (Michael W. Deem and Ramdas Pophale) SiO2 
 PCOD8079808
Probable space group: C 2/M
;
_chemical_formula_sum "Si O2"
_cell_formula_units_Z 52
_cell_length_a 22.864369
_cell_length_b 18.747745
_cell_length_c 23.164034
_cell_angle_alpha 90.000000
_cell_angle_beta 161.041356
_cell_angle_gamma 90.000000
_cell_volume 3225.914918
_symmetry_space_group_name_H-M "C 2/M"
_symmetry_group_IT_number 12
_symmetry_cell_setting 'monoclinic'
loop_
_space_group_symop_operation_xyz
x,y,z
-x,y,-z
-x,-y,-z
x,-y,z
1/2+x,1/2+y,z
1/2-x,1/2+y,-z
1/2-x,1/2-y,-z
1/2+x,1/2-y,z
loop_
_atom_site_type_symbol
_atom_site_label
_atom_site_fract_x
_atom_site_fract_y
_atom_site_fract_z
Si Si1 0.963100 0.085062 0.399954
Si Si2 0.633260 0.346269 0.881128
Si Si3 0.024505 0.275946 0.850363
Si Si4 0.920568 0.643321 0.984834
Si Si5 0.700395 0.500000 0.513235
Si Si6 0.672564 0.500000 0.883981
Si Si7 0.525417 0.000000 0.136148
Si Si8 0.827275 0.147738 0.508805
O O1 0.787597 0.125363 0.213043
O O2 0.000000 0.109229 0.500000
O O3 0.118163 0.115897 0.502872
O O4 0.938034 0.000000 0.373540
O O5 0.565101 0.307920 0.876374
O O6 0.641905 0.431528 0.896382
O O7 0.495994 0.321588 0.701970
O O8 0.834527 0.322282 0.054410
O O9 0.824181 0.292668 0.639931
O O10 0.044185 0.294559 0.935732
O O11 0.025093 0.570309 0.097016
O O12 0.000000 0.674297 0.000000
O O13 0.477814 0.500000 0.307521
O O14 0.754155 0.575936 0.533728
O O15 0.781423 0.500000 0.653417
O O16 0.867220 0.500000 0.036212
#
# Coordination Sequence:
#
# PCOD8079808 Si02
#       8
#     8   8   8   8   4   4   4   8
#     4  11  22  31  44  69 104 140 176 205 230 280
#     4  10  21  34  51  72  96 129 165 210 248 293
#     4  11  21  34  50  70  99 130 166 206 251 289
#     4  12  22  33  48  71 103 139 172 207 242 290
#     4  10  18  25  48  65  92 133 159 196 231 274
#     4  10  18  35  51  71 100 128 168 201 247 287
#     4  12  19  32  45  74 100 133 171 195 231 284
#     4  11  18  32  47  68  95 131 170 202 242 283
#
# _framework density 16.119458000000002
#
# number of rings (size 3 to 8) (size 9 to 14) (size 15 to 20)
#    0.000    1.077    6.154    2.538    0.000    0.000 
#    0.000    0.000    0.000    0.000    0.000    0.538 
#    0.000    0.000    0.000    3.231    0.000    0.000 
#
# Total GULP energy -322129.345325 kJ/mol
# GULP energy per Si atom -12389.590205 kJ/mol
# Density = 1.608277 g / cm^3
# Si number density = 16.119458 Si / 1000 Ang^3
#
#
#
# Elastic Constant Matrix: (Units=GPa)
#
#
# Indices 1 2 3 4 5 6 
#
# 1 76.8721 46.8851 16.7548 0.0086 -1.7361 -0.0162
# 2 46.8851 80.4595 17.9042 -0.0162 -0.1680 0.0065
# 3 16.7548 17.9042 75.9869 0.0115 1.6134 0.0063
# 4 0.0086 -0.0162 0.0115 17.0991 0.0709 0.8919
# 5 -1.7361 -0.1680 1.6134 0.0709 21.6125 -0.0056
# 6 -0.0162 0.0065 0.0063 0.8919 -0.0056 21.9621
#
#
#
# Elastic Compliance Matrix: (Units=1/GPa)
#
#
# Indices 1 2 3 4 5 6 
#
# 1 0.020471 -0.011517 -0.001836 -0.000028 0.001692 0.000021
# 2 -0.011517 0.019598 -0.002065 0.000029 -0.000619 -0.000015
# 3 -0.001836 -0.002065 0.014077 -0.000005 -0.001214 -0.000005
# 4 -0.000028 0.000029 -0.000005 0.058608 -0.000194 -0.002380
# 5 0.001692 -0.000619 -0.001214 -0.000194 0.046492 0.000021
# 6 0.000021 -0.000015 -0.000005 -0.002380 0.000021 0.045630
#
#
# Mechanical properties :
#
#
# Convention : Reuss Voigt Hill
#
# Bulk Modulus (GPa) = 42.89941 44.04520 43.47231
# Shear Modulus (GPa) = 20.53536 22.25302 21.39419
#
# Velocity S-wave (km/s) = 3.57311 3.71955 3.64707
# Velocity P-wave (km/s) = 6.61015 6.76981 6.69045
#
# Compressibility (1/GPa) = 0.02331034
#
# Stress axis : x y z
#
# Youngs Moduli (GPa) = 48.84885 51.02577 71.03581
#
# Poissons Ratio (x) = 0.58766 0.13043
# Poissons Ratio (y) = 0.56259 0.14670
# Poissons Ratio (z) = 0.08969 0.10538
#
# Static dielectric constant tensor:
#      x y z
#    x 2.912440 -0.000190 -0.047240 
#    y -0.000190 3.098250 -0.000190 
#    z -0.047240 -0.000190 3.327860 
# 
# 
# High freq. dielectric constant tensor:
#      x y z
#    x 1.578010 -0.000010 0.004770 
#    y -0.000010 1.593040 -0.000010 
#    z 0.004770 -0.000010 1.649920 
# 
# From -- ./inp_files/349911.got.cif
#   From: 2010.06.25/outbox.cif.g09.slc.cpg/sg12_175_cif.got.tgz:349911.got - 2010.06.28 00:19:55.
