data_PCOD8079877
_publ_section_title
;
Structure prediction by ZEFSAII (Michael W. Deem and Ramdas Pophale) SiO2 
 PCOD8079877
Probable space group: C 2/M
;
_chemical_formula_sum "Si O2"
_cell_formula_units_Z 48
_cell_length_a 9.829501
_cell_length_b 31.811475
_cell_length_c 7.098280
_cell_angle_alpha 90.000000
_cell_angle_beta 92.482878
_cell_angle_gamma 90.000000
_cell_volume 2217.484038
_symmetry_space_group_name_H-M "C 2/M"
_symmetry_group_IT_number 12
_symmetry_cell_setting 'monoclinic'
loop_
_space_group_symop_operation_xyz
x,y,z
-x,y,-z
-x,-y,-z
x,-y,z
1/2+x,1/2+y,z
1/2-x,1/2+y,-z
1/2-x,1/2-y,-z
1/2+x,1/2-y,z
loop_
_atom_site_type_symbol
_atom_site_label
_atom_site_fract_x
_atom_site_fract_y
_atom_site_fract_z
Si Si1 0.272729 0.147314 0.173293
Si Si2 0.589983 0.000000 0.817338
Si Si3 0.836813 0.708679 0.470663
Si Si4 0.093333 0.000000 0.186441
Si Si5 0.754772 0.866291 0.269003
Si Si6 0.473151 0.590906 0.777260
Si Si7 0.501050 0.084991 0.220818
O O1 0.294255 0.194152 0.256624
O O2 0.148989 0.123165 0.265579
O O3 0.405194 0.123911 0.260961
O O4 0.257534 0.148908 0.948370
O O5 0.750396 0.000000 0.874372
O O6 0.552627 0.041401 0.691734
O O7 0.500000 0.000000 0.000000
O O8 0.750000 0.750000 0.500000
O O9 0.778718 0.673990 0.609891
O O10 0.000000 0.716359 0.500000
O O11 0.060958 0.043424 0.300037
O O12 0.000000 0.000000 0.000000
O O13 0.649451 0.903770 0.306916
O O14 0.899504 0.887964 0.322820
O O15 0.500000 0.587323 0.000000
O O16 0.500000 0.077374 0.000000
#
# Coordination Sequence:
#
# PCOD8079877 Si02
#       7
#     8   4   8   4   8   8   8
#     4  10  20  41  65  89 124 165 201 247 304 363
#     4  10  18  26  50  89 127 169 214 254 295 346
#     4  12  28  45  67  94 120 153 200 256 318 378
#     4  10  18  28  48  89 132 162 213 260 291 350
#     4  10  22  41  64  92 123 163 207 248 304 371
#     4   9  19  33  59  91 127 168 208 248 300 356
#     4   9  17  31  56  85 121 164 206 244 294 344
#
# _framework density 21.646153000000002
#
# number of rings (size 3 to 8) (size 9 to 14) (size 15 to 20)
#    0.000    2.000    3.333    0.000    9.333    0.667 
#    0.000    0.000    0.000    6.000    0.000    0.000 
#    0.000    0.000    0.000    0.000    0.000    0.000 
#
# Total GULP energy -297379.063516 kJ/mol
# GULP energy per Si atom -12390.794313 kJ/mol
# Density = 2.159689 g / cm^3
# Si number density = 21.646153 Si / 1000 Ang^3
#
#
#
# Elastic Constant Matrix: (Units=GPa)
#
#
# Indices 1 2 3 4 5 6 
#
# 1 184.6006 74.2535 19.4309 0.0000 -9.9389 0.0000
# 2 74.2535 163.6414 22.9197 0.0000 -4.0355 0.0000
# 3 19.4309 22.9197 39.2309 0.0000 -5.0570 0.0000
# 4 0.0000 0.0000 0.0000 8.7045 0.0000 2.3910
# 5 -9.9389 -4.0355 -5.0570 0.0000 17.5971 0.0000
# 6 0.0000 0.0000 0.0000 2.3910 0.0000 -139.3722
#
#
#
# Elastic Compliance Matrix: (Units=1/GPa)
#
#
# Indices 1 2 3 4 5 6 
#
# 1 0.006860 -0.002852 -0.001367 0.000000 0.002828 0.000000
# 2 -0.002852 0.007844 -0.003267 0.000000 -0.000751 0.000000
# 3 -0.001367 -0.003267 0.028952 0.000000 0.006799 0.000000
# 4 0.000000 0.000000 0.000000 0.114344 0.000000 0.001962
# 5 0.002828 -0.000751 0.006799 0.000000 0.060206 0.000000
# 6 0.000000 0.000000 0.000000 0.001962 0.000000 -0.007141
#
#
# Mechanical properties :
#
#
# Convention : Reuss Voigt Hill
#
# Bulk Modulus (GPa) = 34.86187 68.96455 51.91321
# Shear Modulus (GPa) = 21.22250 -4.55618 8.33316
#
# Velocity S-wave (km/s) = 3.13458 -1.45238 1.96420
# Velocity P-wave (km/s) = 5.40750 5.39598 5.40174
#
# Compressibility (1/GPa) = 0.02868463
#
# Stress axis : x y z
#
# Youngs Moduli (GPa) = 145.76555 127.48668 34.53951
#
# Poissons Ratio (x) = 0.36355 0.04723
# Poissons Ratio (y) = 0.41568 0.11284
# Poissons Ratio (z) = 0.19931 0.41650
#
# Static dielectric constant tensor:
#      x y z
#    x 4.198990 0.000000 -0.003670 
#    y 0.000000 4.379300 0.000000 
#    z -0.003670 0.000000 3.701570 
# 
# 
# High freq. dielectric constant tensor:
#      x y z
#    x 1.867630 0.000000 -0.001830 
#    y 0.000000 1.850770 0.000000 
#    z -0.001830 0.000000 1.829720 
# 
# From -- ./inp_files/42310.got.cif
#   From: 2010.06.25/outbox.cif.g09.slc.cpg/sg12_22_cif.got.tgz:42310.got - 2010.06.28 00:19:55.
