data_PCOD8079383
_publ_section_title
;
Structure prediction by ZEFSAII (Michael W. Deem and Ramdas Pophale) SiO2 
 PCOD8079383
Probable space group: C 2/M
;
_chemical_formula_sum "Si O2"
_cell_formula_units_Z 56
_cell_length_a 12.394562
_cell_length_b 28.704623
_cell_length_c 9.831731
_cell_angle_alpha 90.000000
_cell_angle_beta 111.860931
_cell_angle_gamma 90.000000
_cell_volume 3246.409395
_symmetry_space_group_name_H-M "C 2/M"
_symmetry_group_IT_number 12
_symmetry_cell_setting 'monoclinic'
loop_
_space_group_symop_operation_xyz
x,y,z
-x,y,-z
-x,-y,-z
x,-y,z
1/2+x,1/2+y,z
1/2-x,1/2+y,-z
1/2-x,1/2-y,-z
1/2+x,1/2-y,z
loop_
_atom_site_type_symbol
_atom_site_label
_atom_site_fract_x
_atom_site_fract_y
_atom_site_fract_z
Si Si1 0.388172 0.552437 0.037401
Si Si2 0.564727 0.202878 0.741165
Si Si3 0.325360 0.205321 0.502666
Si Si4 0.254942 0.359933 0.919320
Si Si5 0.032789 0.051994 0.362716
Si Si6 0.140746 0.142942 0.323883
Si Si7 0.557284 0.299266 0.878895
O O1 0.354930 0.500000 0.975728
O O2 0.420588 0.553919 0.211871
O O3 0.500000 0.569997 0.000000
O O4 0.275089 0.585352 0.964109
O O5 0.426418 0.195799 0.660186
O O6 0.622305 0.210998 0.622390
O O7 0.620685 0.157491 0.844553
O O8 0.588844 0.248038 0.842933
O O9 0.250000 0.250000 0.500000
O O10 0.236702 0.162156 0.473394
O O11 0.312287 0.350820 0.803170
O O12 0.323068 0.328386 0.060409
O O13 0.125990 0.088914 0.353617
O O14 0.000000 0.065709 0.500000
O O15 0.087756 0.000000 0.383461
O O16 0.022781 0.173765 0.270170
O O17 0.500000 0.295598 0.000000
#
# Coordination Sequence:
#
# PCOD8079383 Si02
#       7
#     8   8   8   8   8   8   8
#     4  10  17  30  53  76  99 130 168 208 255 311
#     4  10  21  33  49  71 101 138 171 213 256 301
#     4  10  20  35  50  68  98 138 178 211 251 305
#     4  10  18  31  48  74 100 127 168 211 256 299
#     4  10  20  32  48  78 109 129 160 210 264 311
#     4  10  18  31  51  68  98 135 166 208 251 300
#     4  10  18  31  49  73 101 133 167 213 260 297
#
# _framework density 17.249828000000001
#
# number of rings (size 3 to 8) (size 9 to 14) (size 15 to 20)
#    0.000    2.000    4.286    0.857    0.000    1.143 
#    0.000    0.000    0.000    0.857    0.000    4.000 
#    0.000    4.000    0.000    0.000    0.000    0.000 
#
# Total GULP energy -346990.504037 kJ/mol
# GULP energy per Si atom -12392.518001 kJ/mol
# Density = 1.721057 g / cm^3
# Si number density = 17.249828 Si / 1000 Ang^3
#
#
#
# Elastic Constant Matrix: (Units=GPa)
#
#
# Indices 1 2 3 4 5 6 
#
# 1 60.6660 42.1871 33.1134 0.0000 32.9485 0.0000
# 2 42.1871 124.1709 33.6961 0.0000 30.2420 0.0000
# 3 33.1134 33.6961 71.1469 0.0000 23.7970 0.0000
# 4 0.0000 0.0000 0.0000 26.7615 0.0000 3.0671
# 5 32.9485 30.2420 23.7970 0.0000 27.3657 0.0000
# 6 0.0000 0.0000 0.0000 3.0671 0.0000 25.6538
#
#
#
# Elastic Compliance Matrix: (Units=1/GPa)
#
#
# Indices 1 2 3 4 5 6 
#
# 1 0.049240 -0.002812 -0.003942 0.000000 -0.052750 0.000000
# 2 -0.002812 0.011313 -0.001410 0.000000 -0.007890 0.000000
# 3 -0.003942 -0.001410 0.020376 0.000000 -0.011414 0.000000
# 4 0.000000 0.000000 0.000000 0.037886 0.000000 -0.004530
# 5 -0.052750 -0.007890 -0.011414 0.000000 0.118698 0.000000
# 6 0.000000 0.000000 0.000000 -0.004530 0.000000 0.039522
#
#
# Mechanical properties :
#
#
# Convention : Reuss Voigt Hill
#
# Bulk Modulus (GPa) = 15.47987 52.66412 34.07200
# Shear Modulus (GPa) = 15.87819 25.75535 20.81677
#
# Velocity S-wave (km/s) = 3.03724 3.86823 3.47764
# Velocity P-wave (km/s) = 4.61445 7.10967 5.99336
#
# Compressibility (1/GPa) = 0.06460003
#
# Stress axis : x y z
#
# Youngs Moduli (GPa) = 20.30866 88.39241 49.07806
#
# Poissons Ratio (x) = 0.24859 0.19346
# Poissons Ratio (y) = 0.05712 0.06921
# Poissons Ratio (z) = 0.08006 0.12464
#
# Static dielectric constant tensor:
#      x y z
#    x 3.610800 0.000000 0.515500 
#    y 0.000000 3.359670 0.000000 
#    z 0.515500 0.000000 3.613650 
# 
# 
# High freq. dielectric constant tensor:
#      x y z
#    x 1.622650 0.000000 0.007610 
#    y 0.000000 1.668450 0.000000 
#    z 0.007610 0.000000 1.671490 
# 
# From -- ./inp_files/54296.got.cif
#   From: 2010.06.25/outbox.cif.g09.slc.cpg/sg12_28_cif.got.tgz:54296.got - 2010.06.28 00:19:55.
