data_PCOD8079621
_publ_section_title
;
Structure prediction by ZEFSAII (Michael W. Deem and Ramdas Pophale) SiO2 
 PCOD8079621
Probable space group: C 2/M
;
_chemical_formula_sum "Si O2"
_cell_formula_units_Z 40
_cell_length_a 21.768846
_cell_length_b 16.607006
_cell_length_c 16.692969
_cell_angle_alpha 90.000000
_cell_angle_beta 157.866337
_cell_angle_gamma 90.000000
_cell_volume 2273.709591
_symmetry_space_group_name_H-M "C 2/M"
_symmetry_group_IT_number 12
_symmetry_cell_setting 'monoclinic'
loop_
_space_group_symop_operation_xyz
x,y,z
-x,y,-z
-x,-y,-z
x,-y,z
1/2+x,1/2+y,z
1/2-x,1/2+y,-z
1/2-x,1/2-y,-z
1/2+x,1/2-y,z
loop_
_atom_site_type_symbol
_atom_site_label
_atom_site_fract_x
_atom_site_fract_y
_atom_site_fract_z
Si Si1 0.500000 0.809602 0.000000
Si Si2 0.531288 0.906168 0.727229
Si Si3 0.000000 0.820301 0.500000
Si Si4 0.202609 0.704576 0.643007
Si Si5 0.329631 0.094707 0.933607
Si Si6 0.815208 0.587608 0.246738
O O1 0.353302 0.754279 0.789349
O O2 0.440612 0.864641 0.000636
O O3 0.369381 0.854366 0.511769
O O4 0.675224 0.889300 0.835848
O O5 0.480822 0.000000 0.663914
O O6 0.597931 0.879960 0.893432
O O7 0.939934 0.764697 0.500484
O O8 0.855980 0.876381 0.293799
O O9 0.273364 0.654808 0.806010
O O10 0.334722 0.000000 0.926096
O O11 0.730106 0.500000 0.154856
O O12 0.000000 0.582821 0.500000
#
# Coordination Sequence:
#
# PCOD8079621 Si02
#       6
#     4   8   4   8   8   8
#     4  10  23  34  49  72 104 142 166 204 255 292
#     4   9  17  31  56  79 100 131 169 205 246 298
#     4  10  19  32  53  78  98 128 164 216 257 286
#     4  10  17  33  50  80 107 131 163 200 254 304
#     4  10  21  37  54  72  96 135 176 210 249 298
#     4   8  13  26  50  76 101 128 155 197 246 298
#
# _framework density 17.592396000000001
#
# number of rings (size 3 to 8) (size 9 to 14) (size 15 to 20)
#    0.000    2.600    3.000    2.400    0.000    1.600 
#    0.000    2.000    0.000    0.000    0.000    0.000 
#    0.000    0.000    0.000    0.000    0.000    0.000 
#
# Total GULP energy -247906.085024 kJ/mol
# GULP energy per Si atom -12395.304251 kJ/mol
# Density = 1.755236 g / cm^3
# Si number density = 17.592396 Si / 1000 Ang^3
#
#
#
# Elastic Constant Matrix: (Units=GPa)
#
#
# Indices 1 2 3 4 5 6 
#
# 1 106.8398 55.9890 65.4328 0.0069 -13.9211 0.0043
# 2 55.9890 105.3851 60.5280 0.0036 -5.0258 0.0015
# 3 65.4328 60.5280 98.5869 0.0063 -6.2301 0.0043
# 4 0.0069 0.0036 0.0063 21.8453 0.0050 -5.3472
# 5 -13.9211 -5.0258 -6.2301 0.0050 30.5818 0.0034
# 6 0.0043 0.0015 0.0043 -5.3472 0.0034 11.7108
#
#
#
# Elastic Compliance Matrix: (Units=1/GPa)
#
#
# Indices 1 2 3 4 5 6 
#
# 1 0.017622 -0.003987 -0.008897 -0.000005 0.005554 -0.000007
# 2 -0.003987 0.015570 -0.006955 0.000002 -0.000673 0.000003
# 3 -0.008897 -0.006955 0.020251 -0.000003 -0.001067 -0.000004
# 4 -0.000005 0.000002 -0.000003 0.051536 -0.000014 0.023532
# 5 0.005554 -0.000673 -0.001067 -0.000014 0.034899 -0.000018
# 6 -0.000007 0.000003 -0.000004 0.023532 -0.000018 0.096136
#
#
# Mechanical properties :
#
#
# Convention : Reuss Voigt Hill
#
# Bulk Modulus (GPa) = 72.65380 74.96791 73.81085
# Shear Modulus (GPa) = 17.83924 21.41840 19.62882
#
# Velocity S-wave (km/s) = 3.18784 3.49303 3.34392
# Velocity P-wave (km/s) = 7.41201 7.67949 7.54694
#
# Compressibility (1/GPa) = 0.01376390
#
# Stress axis : x y z
#
# Youngs Moduli (GPa) = 56.74847 64.22510 49.38044
#
# Poissons Ratio (x) = 0.25609 0.43931
# Poissons Ratio (y) = 0.22628 0.34347
# Poissons Ratio (z) = 0.50486 0.44672
#
# Static dielectric constant tensor:
#      x y z
#    x 3.384280 0.000000 -0.140960 
#    y 0.000000 3.556900 -0.000010 
#    z -0.140960 -0.000010 2.981080 
# 
# 
# High freq. dielectric constant tensor:
#      x y z
#    x 1.670150 0.000000 -0.008780 
#    y 0.000000 1.699960 0.000000 
#    z -0.008780 0.000000 1.642980 
# 
# From -- ./inp_files/226411.got.cif
#   From: 2010.06.25/outbox.cif.g09.slc.cpg/sg12_114_cif.got.tgz:226411.got - 2010.06.28 00:19:55.
