data_PCOD8079082
_publ_section_title
;
Structure prediction by ZEFSAII (Michael W. Deem and Ramdas Pophale) SiO2 
 PCOD8079082
Probable space group: C 2/M
;
_chemical_formula_sum "Si O2"
_cell_formula_units_Z 28
_cell_length_a 22.568986
_cell_length_b 16.365212
_cell_length_c 5.257815
_cell_angle_alpha 90.000000
_cell_angle_beta 44.521774
_cell_angle_gamma 90.000000
_cell_volume 1361.659970
_symmetry_space_group_name_H-M "C 2/M"
_symmetry_group_IT_number 12
_symmetry_cell_setting 'monoclinic'
loop_
_space_group_symop_operation_xyz
x,y,z
-x,y,-z
-x,-y,-z
x,-y,z
1/2+x,1/2+y,z
1/2-x,1/2+y,-z
1/2-x,1/2-y,-z
1/2+x,1/2-y,z
loop_
_atom_site_type_symbol
_atom_site_label
_atom_site_fract_x
_atom_site_fract_y
_atom_site_fract_z
Si Si1 0.444063 0.500000 0.922016
Si Si2 0.844768 0.406243 0.516154
Si Si3 0.843493 0.318823 0.027664
Si Si4 0.318555 0.357006 0.216808
O O1 0.500000 0.500000 0.500000
O O2 0.500000 0.500000 0.000000
O O3 0.387485 0.419432 0.105671
O O4 0.872988 0.500000 0.446387
O O5 0.886952 0.364135 0.137524
O O6 0.742302 0.399346 0.808125
O O7 0.877310 0.359927 0.667330
O O8 0.740921 0.328542 0.363716
O O9 0.865727 0.222578 0.956990
#
# Coordination Sequence:
#
# PCOD8079082 Si02
#       4
#     4   8   8   8
#     4  12  28  36  52  76 114 164 178 203 248 327
#     4  10  17  28  49  78 103 126 158 221 286 316
#     4   9  19  29  55  73  92 145 166 234 272 286
#     4   9  20  35  50  69 105 135 193 210 256 311
#
# _framework density 20.563137000000001
#
# number of rings (size 3 to 8) (size 9 to 14) (size 15 to 20)
#    1.714    0.571    1.429    1.714    6.000    0.000 
#    0.000    0.000    0.000    0.000    0.000    0.000 
#    0.000   22.857    0.000    0.000    0.000    0.000 
#
# Total GULP energy -173483.994376 kJ/mol
# GULP energy per Si atom -12391.713884 kJ/mol
# Density = 2.051633 g / cm^3
# Si number density = 20.563137 Si / 1000 Ang^3
#
#
#
# Elastic Constant Matrix: (Units=GPa)
#
#
# Indices 1 2 3 4 5 6 
#
# 1 63.4696 47.6139 44.5681 0.0000 30.6426 0.0000
# 2 47.6139 171.9935 20.4810 0.0000 12.8593 0.0000
# 3 44.5681 20.4810 53.0003 0.0000 29.7975 0.0000
# 4 0.0000 0.0000 0.0000 22.9933 0.0000 9.7437
# 5 30.6426 12.8593 29.7975 0.0000 39.4733 0.0000
# 6 0.0000 0.0000 0.0000 9.7437 0.0000 11.2655
#
#
#
# Elastic Compliance Matrix: (Units=1/GPa)
#
#
# Indices 1 2 3 4 5 6 
#
# 1 0.052332 -0.009592 -0.033385 0.000000 -0.012298 0.000000
# 2 -0.009592 0.007856 0.003966 0.000000 0.001893 0.000000
# 3 -0.033385 0.003966 0.054838 0.000000 -0.016772 0.000000
# 4 0.000000 0.000000 0.000000 0.068654 0.000000 -0.059379
# 5 -0.012298 0.001893 -0.016772 0.000000 0.046924 0.000000
# 6 0.000000 0.000000 0.000000 -0.059379 0.000000 0.140124
#
#
# Mechanical properties :
#
#
# Convention : Reuss Voigt Hill
#
# Bulk Modulus (GPa) = 27.02494 57.08772 42.05633
# Shear Modulus (GPa) = 10.84399 26.46645 18.65522
#
# Velocity S-wave (km/s) = 2.29890 3.59149 3.01527
# Velocity P-wave (km/s) = 4.49639 6.70975 5.71132
#
# Compressibility (1/GPa) = 0.03700286
#
# Stress axis : x y z
#
# Youngs Moduli (GPa) = 19.10879 127.29378 18.23549
#
# Poissons Ratio (x) = 1.22105 0.60880
# Poissons Ratio (y) = 0.18330 -0.07232
# Poissons Ratio (z) = 0.63795 -0.50485
#
# Static dielectric constant tensor:
#      x y z
#    x 3.225840 0.000000 0.241960 
#    y 0.000000 3.727700 0.000000 
#    z 0.241960 0.000000 3.279460 
# 
# 
# High freq. dielectric constant tensor:
#      x y z
#    x 1.766900 0.000000 0.032100 
#    y 0.000000 1.822470 0.000000 
#    z 0.032100 0.000000 1.767350 
# 
# From -- ./inp_files/19535.got.cif
#   From: 2010.06.25/outbox.cif.g09.slc.cpg/sg12_10_cif.got.tgz:19535.got - 2010.06.28 00:19:55.
