data_PCOD8079004
_publ_section_title
;
Structure prediction by ZEFSAII (Michael W. Deem and Ramdas Pophale) SiO2 
 PCOD8079004
Probable space group: C 2/M
;
_chemical_formula_sum "Si O2"
_cell_formula_units_Z 56
_cell_length_a 23.930776
_cell_length_b 14.190243
_cell_length_c 14.131822
_cell_angle_alpha 90.000000
_cell_angle_beta 128.556622
_cell_angle_gamma 90.000000
_cell_volume 3752.730746
_symmetry_space_group_name_H-M "C 2/M"
_symmetry_group_IT_number 12
_symmetry_cell_setting 'monoclinic'
loop_
_space_group_symop_operation_xyz
x,y,z
-x,y,-z
-x,-y,-z
x,-y,z
1/2+x,1/2+y,z
1/2-x,1/2+y,-z
1/2-x,1/2-y,-z
1/2+x,1/2-y,z
loop_
_atom_site_type_symbol
_atom_site_label
_atom_site_fract_x
_atom_site_fract_y
_atom_site_fract_z
Si Si1 0.437442 0.231875 0.856694
Si Si2 0.519899 0.397197 0.911487
Si Si3 0.036360 0.609227 0.282891
Si Si4 0.655519 0.722200 0.077147
Si Si5 0.299153 0.891299 0.212295
Si Si6 0.629109 0.107921 0.913157
Si Si7 0.070128 0.387761 0.522801
O O1 0.461059 0.321173 0.814753
O O2 0.425310 0.148000 0.770631
O O3 0.364371 0.250942 0.835689
O O4 0.500000 0.208766 0.000000
O O5 0.515023 0.500000 0.855936
O O6 0.500000 0.409628 0.000000
O O7 0.598570 0.353908 0.977138
O O8 0.050741 0.500000 0.294696
O O9 0.071420 0.650166 0.416110
O O10 0.952617 0.632889 0.195081
O O11 0.731921 0.674559 0.158024
O O12 0.658559 0.818722 0.020899
O O13 0.325599 0.879400 0.133615
O O14 0.359450 0.853956 0.348044
O O15 0.279436 0.000000 0.212461
O O16 0.636090 0.000000 0.958319
O O17 0.065257 0.500000 0.520012
O O18 0.000000 0.345853 0.500000
#
# Coordination Sequence:
#
# PCOD8079004 Si02
#       7
#     8   8   8   8   8   8   8
#     4   9  17  28  41  64  91 120 150 179 215 267
#     4   8  14  25  40  58  83 115 147 178 209 247
#     4  10  17  28  46  68  93 116 146 188 220 262
#     4  10  18  29  42  65  95 120 147 176 220 273
#     4  10  19  30  46  68  91 118 147 183 229 268
#     4  10  18  28  45  68  95 119 143 182 226 267
#     4   9  16  28  46  66  88 115 148 183 223 263
#
# _framework density 14.922466999999999
#
# number of rings (size 3 to 8) (size 9 to 14) (size 15 to 20)
#    0.000    2.857    4.286    0.857    0.000    1.429 
#    0.000    0.714    0.000    0.000    0.000    1.000 
#    0.000    2.286    0.000    0.000    0.000    0.000 
#
# Total GULP energy -346926.424247 kJ/mol
# GULP energy per Si atom -12390.229437 kJ/mol
# Density = 1.488850 g / cm^3
# Si number density = 14.922467 Si / 1000 Ang^3
#
#
#
# Elastic Constant Matrix: (Units=GPa)
#
#
# Indices 1 2 3 4 5 6 
#
# 1 94.2042 43.7799 48.3072 0.0000 5.1835 0.0000
# 2 43.7799 60.2307 51.3034 0.0000 2.6947 0.0000
# 3 48.3072 51.3034 75.2535 0.0000 3.1290 0.0000
# 4 0.0000 0.0000 0.0000 6.7836 0.0000 4.1366
# 5 5.1835 2.6947 3.1290 0.0000 19.5593 0.0000
# 6 0.0000 0.0000 0.0000 4.1366 0.0000 14.8217
#
#
#
# Elastic Compliance Matrix: (Units=1/GPa)
#
#
# Indices 1 2 3 4 5 6 
#
# 1 0.017214 -0.007335 -0.005941 0.000000 -0.002601 0.000000
# 2 -0.007335 0.042747 -0.024432 0.000000 -0.000037 0.000000
# 3 -0.005941 -0.024432 0.033778 0.000000 -0.000463 0.000000
# 4 0.000000 0.000000 0.000000 0.177650 0.000000 -0.049581
# 5 -0.002601 -0.000037 -0.000463 0.000000 0.051895 0.000000
# 6 0.000000 0.000000 0.000000 -0.049581 0.000000 0.081306
#
#
# Mechanical properties :
#
#
# Convention : Reuss Voigt Hill
#
# Bulk Modulus (GPa) = 54.58039 57.38550 55.98295
# Shear Modulus (GPa) = 10.28564 13.98611 12.13587
#
# Velocity S-wave (km/s) = 2.62825 3.06478 2.85487
# Velocity P-wave (km/s) = 6.77242 7.14584 6.96163
#
# Compressibility (1/GPa) = 0.01832160
#
# Stress axis : x y z
#
# Youngs Moduli (GPa) = 58.09262 23.39328 29.60509
#
# Poissons Ratio (x) = 0.17160 0.17589
# Poissons Ratio (y) = 0.42613 0.72332
# Poissons Ratio (z) = 0.34513 0.57155
#
# Static dielectric constant tensor:
#      x y z
#    x 2.928600 0.000000 -0.070570 
#    y 0.000000 3.174220 0.000000 
#    z -0.070570 0.000000 2.720650 
# 
# 
# High freq. dielectric constant tensor:
#      x y z
#    x 1.573590 0.000000 0.000670 
#    y 0.000000 1.560780 0.000000 
#    z 0.000670 0.000000 1.534000 
# 
# From -- ./inp_files/240452.got.cif
#   From: 2010.06.25/outbox.cif.g09.slc.cpg/sg12_121_cif.got.tgz:240452.got - 2010.06.28 00:19:55.
