data_PCOD8079740
_publ_section_title
;
Structure prediction by ZEFSAII (Michael W. Deem and Ramdas Pophale) SiO2 
 PCOD8079740
Probable space group: C 2/M
;
_chemical_formula_sum "Si O2"
_cell_formula_units_Z 48
_cell_length_a 17.450386
_cell_length_b 14.736086
_cell_length_c 18.172544
_cell_angle_alpha 90.000000
_cell_angle_beta 148.571473
_cell_angle_gamma 90.000000
_cell_volume 2436.703636
_symmetry_space_group_name_H-M "C 2/M"
_symmetry_group_IT_number 12
_symmetry_cell_setting 'monoclinic'
loop_
_space_group_symop_operation_xyz
x,y,z
-x,y,-z
-x,-y,-z
x,-y,z
1/2+x,1/2+y,z
1/2-x,1/2+y,-z
1/2-x,1/2-y,-z
1/2+x,1/2-y,z
loop_
_atom_site_type_symbol
_atom_site_label
_atom_site_fract_x
_atom_site_fract_y
_atom_site_fract_z
Si Si1 0.682950 0.728579 0.780283
Si Si2 0.809236 0.281813 0.725661
Si Si3 0.643879 0.318444 0.453914
Si Si4 0.739631 0.345550 0.032052
Si Si5 0.594998 0.101601 0.960824
Si Si6 0.586445 0.400927 0.261251
O O1 0.711641 0.731091 0.717461
O O2 0.510361 0.726698 0.652760
O O3 0.735947 0.823633 0.861539
O O4 0.763043 0.640027 0.879787
O O5 0.723262 0.345146 0.595865
O O6 0.831887 0.180409 0.713207
O O7 0.961418 0.330919 0.869746
O O8 0.750000 0.250000 0.500000
O O9 0.616338 0.399972 0.373988
O O10 0.868328 0.403344 0.097078
O O11 0.750000 0.250000 0.000000
O O12 0.586385 0.394935 0.895427
O O13 0.558446 0.000000 0.958776
O O14 0.640014 0.500000 0.276661
#
# Coordination Sequence:
#
# PCOD8079740 Si02
#       6
#     8   8   8   8   8   8
#     4  11  21  38  63  88 125 161 200 249 316 363
#     4  11  23  39  60  92 128 160 198 252 310 372
#     4  10  21  39  62  86 114 162 206 248 296 358
#     4  10  17  35  60  86 115 157 206 246 292 352
#     4  11  22  38  62  90 123 163 207 255 302 358
#     4  11  21  38  62  89 120 161 206 249 298 359
#
# _framework density 19.698744000000001
#
# number of rings (size 3 to 8) (size 9 to 14) (size 15 to 20)
#    0.000    1.333    6.667    2.500    0.000    2.000 
#    0.000    2.500    0.000   12.000    0.000    0.000 
#    0.000    0.000    0.000    0.000    0.000    0.000 
#
# Total GULP energy -297379.549946 kJ/mol
# GULP energy per Si atom -12390.814581 kJ/mol
# Density = 1.965391 g / cm^3
# Si number density = 19.698744 Si / 1000 Ang^3
#
#
#
# Elastic Constant Matrix: (Units=GPa)
#
#
# Indices 1 2 3 4 5 6 
#
# 1 124.2722 33.7652 44.3742 0.0019 -5.4400 0.0021
# 2 33.7652 106.2447 25.2319 0.0008 2.6689 0.0007
# 3 44.3742 25.2319 92.4708 0.0006 9.5539 0.0006
# 4 0.0019 0.0008 0.0006 9.9045 0.0011 -1.1706
# 5 -5.4400 2.6689 9.5539 0.0011 30.5667 0.0017
# 6 0.0021 0.0007 0.0006 -1.1706 0.0017 9.7766
#
#
#
# Elastic Compliance Matrix: (Units=1/GPa)
#
#
# Indices 1 2 3 4 5 6 
#
# 1 0.010543 -0.002300 -0.004801 -0.000002 0.003578 -0.000003
# 2 -0.002300 0.010566 -0.001697 0.000000 -0.000802 0.000000
# 3 -0.004801 -0.001697 0.014110 0.000001 -0.005117 0.000001
# 4 -0.000002 0.000000 0.000001 0.102414 -0.000005 0.012262
# 5 0.003578 -0.000802 -0.005117 -0.000005 0.035021 -0.000007
# 6 -0.000003 0.000000 0.000001 0.012262 -0.000007 0.103753
#
#
# Mechanical properties :
#
#
# Convention : Reuss Voigt Hill
#
# Bulk Modulus (GPa) = 56.74415 58.85893 57.80154
# Shear Modulus (GPa) = 16.67349 24.69065 20.68207
#
# Velocity S-wave (km/s) = 2.91249 3.54420 3.24376
# Velocity P-wave (km/s) = 6.33866 6.83322 6.59058
#
# Compressibility (1/GPa) = 0.01762296
#
# Stress axis : x y z
#
# Youngs Moduli (GPa) = 94.85109 94.64047 70.87293
#
# Poissons Ratio (x) = 0.21769 0.34028
# Poissons Ratio (y) = 0.21818 0.12024
# Poissons Ratio (z) = 0.45540 0.16056
#
# Static dielectric constant tensor:
#      x y z
#    x 3.870320 0.000000 -0.290860 
#    y 0.000000 3.599850 0.000000 
#    z -0.290860 0.000000 3.958780 
# 
# 
# High freq. dielectric constant tensor:
#      x y z
#    x 1.771030 0.000000 0.001440 
#    y 0.000000 1.739550 0.000000 
#    z 0.001440 0.000000 1.768490 
# 
# From -- ./inp_files/278223.got.cif
#   From: 2010.06.25/outbox.cif.g09.slc.cpg/sg12_140_cif.got.tgz:278223.got - 2010.06.28 00:19:55.
