data_PCOD8079343
_publ_section_title
;
Structure prediction by ZEFSAII (Michael W. Deem and Ramdas Pophale) SiO2 
 PCOD8079343
Probable space group: C 2/M
;
_chemical_formula_sum "Si O2"
_cell_formula_units_Z 64
_cell_length_a 21.785600
_cell_length_b 22.820874
_cell_length_c 9.165127
_cell_angle_alpha 90.000000
_cell_angle_beta 54.756486
_cell_angle_gamma 90.000000
_cell_volume 3721.401275
_symmetry_space_group_name_H-M "C 2/M"
_symmetry_group_IT_number 12
_symmetry_cell_setting 'monoclinic'
loop_
_space_group_symop_operation_xyz
x,y,z
-x,y,-z
-x,-y,-z
x,-y,z
1/2+x,1/2+y,z
1/2-x,1/2+y,-z
1/2-x,1/2-y,-z
1/2+x,1/2-y,z
loop_
_atom_site_type_symbol
_atom_site_label
_atom_site_fract_x
_atom_site_fract_y
_atom_site_fract_z
Si Si1 0.718731 0.225898 0.301139
Si Si2 0.777210 0.345654 0.220349
Si Si3 0.229584 0.434067 0.184540
Si Si4 0.421610 0.255248 0.671562
Si Si5 0.809626 0.385649 0.473867
Si Si6 0.102397 0.370399 0.171124
Si Si7 0.311817 0.660587 0.940502
Si Si8 0.528713 0.931908 0.798407
O O1 0.773780 0.277940 0.279658
O O2 0.636720 0.252075 0.381577
O O3 0.712292 0.177492 0.432835
O O4 0.749321 0.201801 0.103480
O O5 0.769349 0.389094 0.370635
O O6 0.711567 0.355446 0.192872
O O7 0.856883 0.359446 0.038039
O O8 0.232291 0.500000 0.121544
O O9 0.221487 0.434479 0.371502
O O10 0.158316 0.399612 0.213076
O O11 0.308223 0.401275 0.033319
O O12 0.500000 0.277691 0.500000
O O13 0.431025 0.191312 0.729432
O O14 0.391528 0.305135 0.828359
O O15 0.898601 0.392485 0.332439
O O16 0.033717 0.414430 0.235581
O O17 0.549145 0.000000 0.749662
O O18 0.500000 0.919105 0.000000
#
# Coordination Sequence:
#
# PCOD8079343 Si02
#       8
#     8   8   8   8   8   8   8   8
#     4  10  17  33  49  73 102 130 165 210 257 309
#     4  10  17  30  51  70  94 132 166 210 253 300
#     4  10  21  35  52  71  96 131 180 220 249 302
#     4  11  18  30  54  80 103 129 166 210 257 312
#     4  11  20  32  46  71  96 133 173 211 252 295
#     4  11  19  34  51  71  97 139 175 203 253 307
#     4   9  18  34  54  74 102 131 171 212 263 307
#     4  11  23  34  44  65 104 141 174 210 245 290
#
# _framework density 17.197823
#
# number of rings (size 3 to 8) (size 9 to 14) (size 15 to 20)
#    0.000    1.625    6.250    2.625    0.000    0.000 
#    0.000    1.875    0.000    0.375    0.000    0.000 
#    0.000    4.000    0.000    0.000    0.000    0.000 
#
# Total GULP energy -396508.286977 kJ/mol
# GULP energy per Si atom -12390.883968 kJ/mol
# Density = 1.715868 g / cm^3
# Si number density = 17.197823 Si / 1000 Ang^3
#
#
#
# Elastic Constant Matrix: (Units=GPa)
#
#
# Indices 1 2 3 4 5 6 
#
# 1 48.7999 20.7426 34.5047 0.0000 5.6028 0.0000
# 2 20.7426 86.7671 44.6673 0.0000 -5.6726 0.0000
# 3 34.5047 44.6673 103.6314 0.0000 -2.0333 0.0000
# 4 0.0000 0.0000 0.0000 20.2216 0.0000 3.0481
# 5 5.6028 -5.6726 -2.0333 0.0000 26.1090 0.0000
# 6 0.0000 0.0000 0.0000 3.0481 0.0000 17.5426
#
#
#
# Elastic Compliance Matrix: (Units=1/GPa)
#
#
# Indices 1 2 3 4 5 6 
#
# 1 0.028524 -0.003008 -0.008347 0.000000 -0.007425 0.000000
# 2 -0.003008 0.015325 -0.005534 0.000000 0.003544 0.000000
# 3 -0.008347 -0.005534 0.014848 0.000000 0.001745 0.000000
# 4 0.000000 0.000000 0.000000 0.050782 0.000000 -0.008824
# 5 -0.007425 0.003544 0.001745 0.000000 0.040800 0.000000
# 6 0.000000 0.000000 0.000000 -0.008824 0.000000 0.058537
#
#
# Mechanical properties :
#
#
# Convention : Reuss Voigt Hill
#
# Bulk Modulus (GPa) = 40.12816 48.78085 44.45451
# Shear Modulus (GPa) = 19.92816 22.06022 20.99419
#
# Velocity S-wave (km/s) = 3.40775 3.58541 3.49771
# Velocity P-wave (km/s) = 6.23439 6.75029 6.49746
#
# Compressibility (1/GPa) = 0.02492015
#
# Stress axis : x y z
#
# Youngs Moduli (GPa) = 35.05777 65.25327 67.34752
#
# Poissons Ratio (x) = 0.19626 0.56213
# Poissons Ratio (y) = 0.10544 0.37273
# Poissons Ratio (z) = 0.29262 0.36114
#
# Static dielectric constant tensor:
#      x y z
#    x 2.897920 0.000000 0.049610 
#    y 0.000000 3.299130 0.000000 
#    z 0.049610 0.000000 3.367160 
# 
# 
# High freq. dielectric constant tensor:
#      x y z
#    x 1.623770 0.000000 0.014090 
#    y 0.000000 1.657720 0.000000 
#    z 0.014090 0.000000 1.669650 
# 
# From -- ./inp_files/99647.got.cif
#   From: 2010.06.25/outbox.cif.g09.slc.cpg/sg12_50_cif.got.tgz:99647.got - 2010.06.28 00:19:55.
