data_PCOD8079034
_publ_section_title
;
Structure prediction by ZEFSAII (Michael W. Deem and Ramdas Pophale) SiO2 
 PCOD8079034
Probable space group: C 2/M
;
_chemical_formula_sum "Si O2"
_cell_formula_units_Z 64
_cell_length_a 17.618662
_cell_length_b 13.382313
_cell_length_c 20.209122
_cell_angle_alpha 90.000000
_cell_angle_beta 52.749876
_cell_angle_gamma 90.000000
_cell_volume 3792.844159
_symmetry_space_group_name_H-M "C 2/M"
_symmetry_group_IT_number 12
_symmetry_cell_setting 'monoclinic'
loop_
_space_group_symop_operation_xyz
x,y,z
-x,y,-z
-x,-y,-z
x,-y,z
1/2+x,1/2+y,z
1/2-x,1/2+y,-z
1/2-x,1/2-y,-z
1/2+x,1/2-y,z
loop_
_atom_site_type_symbol
_atom_site_label
_atom_site_fract_x
_atom_site_fract_y
_atom_site_fract_z
Si Si1 0.385125 0.882473 0.403804
Si Si2 0.353075 0.797443 0.199723
Si Si3 0.389291 0.200522 0.543936
Si Si4 0.269053 0.386036 0.625517
Si Si5 0.556490 0.882278 0.117867
Si Si6 0.913101 0.382678 0.752897
Si Si7 0.732421 0.884851 0.278498
Si Si8 0.612728 0.110432 0.950501
O O1 0.362248 0.826508 0.483616
O O2 0.303145 0.856710 0.394899
O O3 0.484327 0.839133 0.322529
O O4 0.391626 0.000000 0.413860
O O5 0.282870 0.870399 0.276915
O O6 0.460762 0.817446 0.164737
O O7 0.327938 0.682149 0.229437
O O8 0.338892 0.816580 0.128408
O O9 0.500000 0.183377 0.500000
O O10 0.361631 0.315704 0.571807
O O11 0.328609 0.127036 0.622671
O O12 0.303656 0.500000 0.601620
O O13 0.608923 0.855680 0.158962
O O14 0.528222 0.000000 0.129747
O O15 0.627664 0.854937 0.019299
O O16 0.917248 0.500000 0.740005
O O17 0.829786 0.341338 0.749989
O O18 0.762686 0.000000 0.253833
O O19 0.656076 0.000000 0.916856
O O20 0.500000 0.107272 0.000000
#
# Coordination Sequence:
#
# PCOD8079034 Si02
#       8
#     8   8   8   8   8   8   8   8
#     4  10  18  30  49  68  90 117 149 193 230 262
#     4  10  17  28  47  70  94 119 149 183 227 272
#     4  11  21  32  48  68  91 121 154 188 229 269
#     4  10  20  32  47  69  95 121 149 183 227 276
#     4   9  15  27  50  77  96 114 145 187 231 268
#     4   9  16  28  47  68  91 117 148 188 231 266
#     4  10  21  33  45  65  92 122 154 190 227 266
#     4   8  14  24  44  73  99 116 140 184 229 268
#
# _framework density 16.87388
#
# number of rings (size 3 to 8) (size 9 to 14) (size 15 to 20)
#    0.000    2.375    2.500    2.625    0.000    0.750 
#    0.000    0.625    0.000    3.375    0.000    5.250 
#    0.000    0.000    0.000    0.000    0.000    0.000 
#
# Total GULP energy -396674.683540 kJ/mol
# GULP energy per Si atom -12396.083861 kJ/mol
# Density = 1.683547 g / cm^3
# Si number density = 16.873880 Si / 1000 Ang^3
#
#
#
# Elastic Constant Matrix: (Units=GPa)
#
#
# Indices 1 2 3 4 5 6 
#
# 1 46.0603 18.6339 30.2284 0.0000 16.0198 0.0000
# 2 18.6339 66.4518 28.9206 0.0000 -0.7478 0.0000
# 3 30.2284 28.9206 102.9784 0.0000 27.6770 0.0000
# 4 0.0000 0.0000 0.0000 12.0194 0.0000 2.2613
# 5 16.0198 -0.7478 27.6770 0.0000 30.9834 0.0000
# 6 0.0000 0.0000 0.0000 2.2613 0.0000 17.9846
#
#
#
# Elastic Compliance Matrix: (Units=1/GPa)
#
#
# Indices 1 2 3 4 5 6 
#
# 1 0.031767 -0.007476 -0.003635 0.000000 -0.013358 0.000000
# 2 -0.007476 0.019860 -0.005989 0.000000 0.009694 0.000000
# 3 -0.003635 -0.005989 0.015782 0.000000 -0.012363 0.000000
# 4 0.000000 0.000000 0.000000 0.085215 0.000000 -0.010715
# 5 -0.013358 0.009694 -0.012363 0.000000 0.050460 0.000000
# 6 0.000000 0.000000 0.000000 -0.010715 0.000000 0.056950
#
#
# Mechanical properties :
#
#
# Convention : Reuss Voigt Hill
#
# Bulk Modulus (GPa) = 30.11132 41.22849 35.66991
# Shear Modulus (GPa) = 16.37712 21.37799 18.87755
#
# Velocity S-wave (km/s) = 3.11876 3.56325 3.34839
# Velocity P-wave (km/s) = 5.55451 6.43548 6.01116
#
# Compressibility (1/GPa) = 0.03321010
#
# Stress axis : x y z
#
# Youngs Moduli (GPa) = 31.47947 50.35173 63.36153
#
# Poissons Ratio (x) = 0.37644 0.23032
# Poissons Ratio (y) = 0.23534 0.37944
# Poissons Ratio (z) = 0.11443 0.30153
#
# Static dielectric constant tensor:
#      x y z
#    x 3.115140 0.000000 0.352890 
#    y 0.000000 2.898120 0.000000 
#    z 0.352890 0.000000 3.353600 
# 
# 
# High freq. dielectric constant tensor:
#      x y z
#    x 1.632820 0.000000 0.028510 
#    y 0.000000 1.622940 0.000000 
#    z 0.028510 0.000000 1.656780 
# 
# From -- ./inp_files/315700.got.cif
#   From: 2010.06.25/outbox.cif.g09.slc.cpg/sg12_158_cif.got.tgz:315700.got - 2010.06.28 00:19:55.
