data_PCOD8079631
_publ_section_title
;
Structure prediction by ZEFSAII (Michael W. Deem and Ramdas Pophale) SiO2 
 PCOD8079631
Probable space group: C 2/M
;
_chemical_formula_sum "Si O2"
_cell_formula_units_Z 64
_cell_length_a 17.927072
_cell_length_b 21.842446
_cell_length_c 23.822610
_cell_angle_alpha 90.000000
_cell_angle_beta 22.561250
_cell_angle_gamma 90.000000
_cell_volume 3578.975974
_symmetry_space_group_name_H-M "C 2/M"
_symmetry_group_IT_number 12
_symmetry_cell_setting 'monoclinic'
loop_
_space_group_symop_operation_xyz
x,y,z
-x,y,-z
-x,-y,-z
x,-y,z
1/2+x,1/2+y,z
1/2-x,1/2+y,-z
1/2-x,1/2-y,-z
1/2+x,1/2-y,z
loop_
_atom_site_type_symbol
_atom_site_label
_atom_site_fract_x
_atom_site_fract_y
_atom_site_fract_z
Si Si1 0.546437 0.929905 0.719257
Si Si2 0.326096 0.568971 0.946349
Si Si3 0.183341 0.358313 0.208628
Si Si4 0.464341 0.265512 0.372807
Si Si5 0.457646 0.754766 0.176366
Si Si6 0.675824 0.312304 0.121374
Si Si7 0.951646 0.135045 0.119125
Si Si8 0.145676 0.840823 0.445145
O O1 0.471341 0.904243 0.711676
O O2 0.739007 0.895065 0.604631
O O3 0.602175 0.000000 0.671097
O O4 0.383942 0.921525 0.879728
O O5 0.349796 0.500000 0.906627
O O6 0.348440 0.617194 0.880686
O O7 0.494514 0.580407 0.875682
O O8 0.077808 0.297529 0.302568
O O9 0.287973 0.389649 0.189866
O O10 0.350656 0.341589 0.047955
O O11 0.582226 0.308108 0.247627
O O12 0.464407 0.301291 0.431287
O O13 0.250000 0.250000 0.500000
O O14 0.567201 0.736090 0.157126
O O15 0.371193 0.694434 0.207098
O O16 0.281384 0.796992 0.315167
O O17 0.598052 0.792959 0.036984
O O18 0.000000 0.869352 0.500000
#
# Coordination Sequence:
#
# PCOD8079631 Si02
#       8
#     8   8   8   8   8   8   8   8
#     4  10  20  36  56  76 105 150 193 227 269 320
#     4   9  18  33  56  82 107 145 191 227 262 318
#     4  10  18  33  51  83 113 143 174 224 276 332
#     4  12  21  35  57  84 114 142 179 226 283 332
#     4  10  17  33  53  82 109 146 183 217 280 331
#     4  10  18  32  59  78 108 148 182 225 269 331
#     4   9  18  29  54  83 115 140 176 219 276 331
#     4  12  24  37  55  83 112 143 186 231 278 329
#
# _framework density 17.882210000000001
#
# number of rings (size 3 to 8) (size 9 to 14) (size 15 to 20)
#    0.000    1.750    5.000    0.750    0.000    0.750 
#    0.000    3.125    0.000    0.000    0.000    2.625 
#    0.000    0.000    0.000    0.000    0.000    0.000 
#
# Total GULP energy -396768.089464 kJ/mol
# GULP energy per Si atom -12399.002796 kJ/mol
# Density = 1.784151 g / cm^3
# Si number density = 17.882210 Si / 1000 Ang^3
#
#
#
# Elastic Constant Matrix: (Units=GPa)
#
#
# Indices 1 2 3 4 5 6 
#
# 1 84.9993 32.5238 39.5224 -0.0244 -8.3578 -0.0035
# 2 32.5238 101.2204 39.9575 0.0136 -4.9608 -0.0304
# 3 39.5224 39.9575 77.1734 -0.0170 4.9358 -0.0176
# 4 -0.0244 0.0136 -0.0170 19.5653 -0.0167 -0.2485
# 5 -8.3578 -4.9608 4.9358 -0.0167 26.2001 0.0044
# 6 -0.0035 -0.0304 -0.0176 -0.2485 0.0044 12.0571
#
#
#
# Elastic Compliance Matrix: (Units=1/GPa)
#
#
# Indices 1 2 3 4 5 6 
#
# 1 0.016900 -0.001920 -0.008080 0.000021 0.006550 -0.000014
# 2 -0.001920 0.012981 -0.005928 -0.000014 0.002962 0.000022
# 3 -0.008080 -0.005928 0.020650 0.000006 -0.007590 0.000016
# 4 0.000021 -0.000014 0.000006 0.051124 0.000035 0.001054
# 5 0.006550 0.002962 -0.007590 0.000035 0.042248 -0.000016
# 6 -0.000014 0.000022 0.000016 0.001054 -0.000016 0.082961
#
#
# Mechanical properties :
#
#
# Convention : Reuss Voigt Hill
#
# Bulk Modulus (GPa) = 53.54060 54.15562 53.84811
# Shear Modulus (GPa) = 18.87177 21.65711 20.26444
#
# Velocity S-wave (km/s) = 3.25212 3.48386 3.36998
# Velocity P-wave (km/s) = 6.64134 6.82154 6.73204
#
# Compressibility (1/GPa) = 0.01867741
#
# Stress axis : x y z
#
# Youngs Moduli (GPa) = 59.17008 77.03313 48.42524
#
# Poissons Ratio (x) = 0.14788 0.39128
# Poissons Ratio (y) = 0.11359 0.28705
# Poissons Ratio (z) = 0.47810 0.45662
#
# Static dielectric constant tensor:
#      x y z
#    x 3.328000 0.000010 -0.062210 
#    y 0.000010 3.163470 0.000240 
#    z -0.062210 0.000240 3.277620 
# 
# 
# High freq. dielectric constant tensor:
#      x y z
#    x 1.687100 0.000000 -0.005490 
#    y 0.000000 1.677850 0.000020 
#    z -0.005490 0.000020 1.679970 
# 
# From -- ./inp_files/285774.got.cif
#   From: 2010.06.25/outbox.cif.g09.slc.cpg/sg12_143_cif.got.tgz:285774.got - 2010.06.28 00:19:55.
