data_PCOD8079395
_publ_section_title
;
Structure prediction by ZEFSAII (Michael W. Deem and Ramdas Pophale) SiO2 
 PCOD8079395
Probable space group: C 2/M
;
_chemical_formula_sum "Si O2"
_cell_formula_units_Z 40
_cell_length_a 23.069682
_cell_length_b 21.853879
_cell_length_c 14.507657
_cell_angle_alpha 90.000000
_cell_angle_beta 165.783561
_cell_angle_gamma 90.000000
_cell_volume 1796.264078
_symmetry_space_group_name_H-M "C 2/M"
_symmetry_group_IT_number 12
_symmetry_cell_setting 'monoclinic'
loop_
_space_group_symop_operation_xyz
x,y,z
-x,y,-z
-x,-y,-z
x,-y,z
1/2+x,1/2+y,z
1/2-x,1/2+y,-z
1/2-x,1/2-y,-z
1/2+x,1/2-y,z
loop_
_atom_site_type_symbol
_atom_site_label
_atom_site_fract_x
_atom_site_fract_y
_atom_site_fract_z
Si Si1 0.832455 0.932133 0.608546
Si Si2 0.331225 0.274980 0.828904
Si Si3 0.153199 0.599935 0.524835
Si Si4 0.791389 0.568266 0.107490
Si Si5 0.434583 0.664115 0.635547
O O1 0.668678 0.921082 0.443733
O O2 0.761462 0.883993 0.420007
O O3 0.790405 0.000000 0.506138
O O4 0.112095 0.923342 0.060013
O O5 0.136426 0.326810 0.507554
O O6 0.211495 0.208499 0.657057
O O7 0.500000 0.274552 0.000000
O O8 0.455540 0.291366 0.116846
O O9 0.911918 0.571878 0.192620
O O10 0.677238 0.500000 0.942786
O O11 0.000000 0.578871 0.500000
O O12 0.610676 0.623828 0.844414
#
# Coordination Sequence:
#
# PCOD8079395 Si02
#       5
#     8   8   8   8   8
#     4  10  17  30  53  83 109 143 191 238 283 330
#     4  11  21  38  58  85 119 149 193 234 282 342
#     4  10  18  31  53  84 113 143 182 242 292 320
#     4  11  20  34  55  87 118 145 190 247 289 327
#     4  11  23  36  59  86 116 154 188 235 287 340
#
# _framework density 22.268442
#
# number of rings (size 3 to 8) (size 9 to 14) (size 15 to 20)
#    0.000    1.400    8.000    3.600    0.000    0.800 
#    0.000    0.000    0.000    2.400    0.000    1.400 
#    0.000    0.000    0.000    0.000    0.000    0.000 
#
# Total GULP energy -247860.945230 kJ/mol
# GULP energy per Si atom -12393.047262 kJ/mol
# Density = 2.221776 g / cm^3
# Si number density = 22.268442 Si / 1000 Ang^3
#
#
#
# Elastic Constant Matrix: (Units=GPa)
#
#
# Indices 1 2 3 4 5 6 
#
# 1 77.8223 36.8123 36.3022 0.0000 31.9252 0.0005
# 2 36.8123 181.1161 29.3750 0.0000 3.6443 0.0005
# 3 36.3022 29.3750 31.7060 0.0000 21.4481 -0.0006
# 4 0.0000 0.0000 0.0000 37.0908 0.0004 9.7024
# 5 31.9252 3.6443 21.4481 0.0004 28.2089 0.0003
# 6 0.0005 0.0005 -0.0006 9.7024 0.0003 11.5317
#
#
#
# Elastic Compliance Matrix: (Units=1/GPa)
#
#
# Indices 1 2 3 4 5 6 
#
# 1 0.032008 -0.002830 -0.020114 0.000001 -0.020565 -0.000003
# 2 -0.002830 0.007675 -0.011050 0.000000 0.010613 -0.000001
# 3 -0.020114 -0.011050 0.099746 -0.000002 -0.051648 0.000010
# 4 0.000001 0.000000 -0.000002 0.034569 0.000000 -0.029086
# 5 -0.020565 0.010613 -0.051648 0.000000 0.096623 -0.000005
# 6 -0.000003 -0.000001 0.000010 -0.029086 -0.000005 0.111190
#
#
# Mechanical properties :
#
#
# Convention : Reuss Voigt Hill
#
# Bulk Modulus (GPa) = 13.99759 55.06926 34.53343
# Shear Modulus (GPa) = 10.55716 27.90993 19.23354
#
# Velocity S-wave (km/s) = 2.17971 3.54409 2.94209
# Velocity P-wave (km/s) = 3.55448 6.44445 5.20410
#
# Compressibility (1/GPa) = 0.07144086
#
# Stress axis : x y z
#
# Youngs Moduli (GPa) = 31.24255 130.29148 10.02545
#
# Poissons Ratio (x) = 0.36866 0.20166
# Poissons Ratio (y) = 0.08840 0.11078
# Poissons Ratio (z) = 0.62842 1.43974
#
# Static dielectric constant tensor:
#      x y z
#    x 4.088460 0.000000 0.419850 
#    y 0.000000 4.557860 0.000000 
#    z 0.419850 0.000000 3.493540 
# 
# 
# High freq. dielectric constant tensor:
#      x y z
#    x 1.864610 0.000000 0.031290 
#    y 0.000000 1.903050 0.000000 
#    z 0.031290 0.000000 1.819880 
# 
# From -- ./inp_files/294311.got.cif
#   From: 2010.06.25/outbox.cif.g09.slc.cpg/sg12_148_cif.got.tgz:294311.got - 2010.06.28 00:19:55.
