data_PCOD8079701
_publ_section_title
;
Structure prediction by ZEFSAII (Michael W. Deem and Ramdas Pophale) SiO2 
 PCOD8079701
Probable space group: C 2/M
;
_chemical_formula_sum "Si O2"
_cell_formula_units_Z 64
_cell_length_a 29.964758
_cell_length_b 22.358878
_cell_length_c 15.604633
_cell_angle_alpha 90.000000
_cell_angle_beta 161.470386
_cell_angle_gamma 90.000000
_cell_volume 3322.470094
_symmetry_space_group_name_H-M "C 2/M"
_symmetry_group_IT_number 12
_symmetry_cell_setting 'monoclinic'
loop_
_space_group_symop_operation_xyz
x,y,z
-x,y,-z
-x,-y,-z
x,-y,z
1/2+x,1/2+y,z
1/2-x,1/2+y,-z
1/2-x,1/2-y,-z
1/2+x,1/2-y,z
loop_
_atom_site_type_symbol
_atom_site_label
_atom_site_fract_x
_atom_site_fract_y
_atom_site_fract_z
Si Si1 0.323472 0.189238 0.554045
Si Si2 0.598821 0.346091 0.930444
Si Si3 0.645454 0.432113 0.485309
Si Si4 0.096194 0.743258 0.063595
Si Si5 0.189565 0.351641 0.100826
Si Si6 0.053561 0.210508 0.502421
Si Si7 0.596053 0.169447 0.488014
Si Si8 0.658424 0.932022 0.319891
O O1 0.181571 0.229143 0.300771
O O2 0.365853 0.199766 0.532433
O O3 0.303427 0.118921 0.540425
O O4 0.449470 0.219381 0.836916
O O5 0.572255 0.292573 0.947434
O O6 0.763944 0.366435 0.226708
O O7 0.504538 0.399967 0.793566
O O8 0.551863 0.325395 0.751072
O O9 0.607769 0.500000 0.431297
O O10 0.736128 0.412108 0.732812
O O11 0.733983 0.421565 0.560774
O O12 0.171809 0.686929 0.155805
O O13 0.288801 0.315328 0.216506
O O14 0.044978 0.369285 0.787806
O O15 0.057213 0.280393 0.486415
O O16 0.000000 0.201581 0.500000
O O17 0.674945 0.000000 0.387530
O O18 0.500000 0.922581 0.000000
#
# Coordination Sequence:
#
# PCOD8079701 Si02
#       8
#     8   8   8   8   8   8   8   8
#     4  10  18  33  57  77 108 147 182 229 281 328
#     4  10  19  36  56  80 118 150 187 227 285 336
#     4  10  22  40  60  78 106 153 200 239 280 331
#     4  10  17  34  56  79 110 151 178 224 276 351
#     4  10  18  35  56  80 117 152 190 224 280 339
#     4  11  19  31  56  89 123 153 180 218 275 345
#     4  10  18  33  52  81 115 152 180 228 277 343
#     4  10  21  38  57  81 108 142 197 248 281 323
#
# _framework density 19.262777
#
# number of rings (size 3 to 8) (size 9 to 14) (size 15 to 20)
#    0.000    1.875    5.000    2.250    0.000    2.000 
#    0.000   12.500    0.000   12.000    0.000    1.750 
#    0.000   11.500    0.000    0.000    0.000    0.000 
#
# Total GULP energy -396532.637675 kJ/mol
# GULP energy per Si atom -12391.644927 kJ/mol
# Density = 1.921893 g / cm^3
# Si number density = 19.262777 Si / 1000 Ang^3
#
#
#
# Elastic Constant Matrix: (Units=GPa)
#
#
# Indices 1 2 3 4 5 6 
#
# 1 56.4800 31.3250 33.8122 0.0000 -0.7157 0.0000
# 2 31.3250 84.1945 44.7301 0.0000 1.3932 0.0000
# 3 33.8122 44.7301 159.8072 0.0000 10.0863 0.0000
# 4 0.0000 0.0000 0.0000 1.0584 0.0000 19.8359
# 5 -0.7157 1.3932 10.0863 0.0000 13.3116 0.0000
# 6 0.0000 0.0000 0.0000 19.8359 0.0000 7.9944
#
#
#
# Elastic Compliance Matrix: (Units=1/GPa)
#
#
# Indices 1 2 3 4 5 6 
#
# 1 0.023698 -0.007138 -0.003302 0.000000 0.004523 0.000000
# 2 -0.007138 0.016133 -0.003019 0.000000 0.000215 0.000000
# 3 -0.003302 -0.003019 0.008184 0.000000 -0.006062 0.000000
# 4 0.000000 0.000000 0.000000 -0.020765 0.000000 0.051522
# 5 0.004523 0.000215 -0.006062 0.000000 0.079937 0.000000
# 6 0.000000 0.000000 0.000000 0.051522 0.000000 -0.002749
#
#
# Mechanical properties :
#
#
# Convention : Reuss Voigt Hill
#
# Bulk Modulus (GPa) = 47.39761 57.80181 52.59971
# Shear Modulus (GPa) = 36.13030 17.18049 26.65539
#
# Velocity S-wave (km/s) = 4.33558 2.98971 3.72395
# Velocity P-wave (km/s) = 7.05140 6.47997 6.77171
#
# Compressibility (1/GPa) = 0.02109811
#
# Stress axis : x y z
#
# Youngs Moduli (GPa) = 42.19766 61.98362 122.19269
#
# Poissons Ratio (x) = 0.44242 0.40344
# Poissons Ratio (y) = 0.30120 0.36891
# Poissons Ratio (z) = 0.13932 0.18713
#
# Static dielectric constant tensor:
#      x y z
#    x 3.238500 0.000000 0.179970 
#    y 0.000000 3.382590 0.000000 
#    z 0.179970 0.000000 4.472990 
# 
# 
# High freq. dielectric constant tensor:
#      x y z
#    x 1.728410 0.000000 0.013920 
#    y 0.000000 1.718370 0.000000 
#    z 0.013920 0.000000 1.769530 
# 
# From -- ./inp_files/251961.got.cif
#   From: 2010.06.25/outbox.cif.g09.slc.cpg/sg12_126_cif.got.tgz:251961.got - 2010.06.28 00:19:55.
