data_PCOD8079336
_publ_section_title
;
Structure prediction by ZEFSAII (Michael W. Deem and Ramdas Pophale) SiO2 
 PCOD8079336
Probable space group: C 2/M
;
_chemical_formula_sum "Si O2"
_cell_formula_units_Z 44
_cell_length_a 14.726258
_cell_length_b 13.366543
_cell_length_c 24.466467
_cell_angle_alpha 90.000000
_cell_angle_beta 149.463618
_cell_angle_gamma 90.000000
_cell_volume 2446.918286
_symmetry_space_group_name_H-M "C 2/M"
_symmetry_group_IT_number 12
_symmetry_cell_setting 'monoclinic'
loop_
_space_group_symop_operation_xyz
x,y,z
-x,y,-z
-x,-y,-z
x,-y,z
1/2+x,1/2+y,z
1/2-x,1/2+y,-z
1/2-x,1/2-y,-z
1/2+x,1/2-y,z
loop_
_atom_site_type_symbol
_atom_site_label
_atom_site_fract_x
_atom_site_fract_y
_atom_site_fract_z
Si Si1 0.000000 0.741592 0.500000
Si Si2 0.342972 0.616394 0.335412
Si Si3 0.328700 0.389446 0.206714
Si Si4 0.842577 0.887269 0.696103
Si Si5 0.134618 0.243746 0.027515
Si Si6 0.510247 0.786239 0.844734
O O1 0.987510 0.815785 0.441680
O O2 0.831078 0.669322 0.415732
O O3 0.395562 0.500000 0.368380
O O4 0.343031 0.658932 0.273967
O O5 0.140578 0.634830 0.252735
O O6 0.248195 0.500000 0.171281
O O7 0.529780 0.392521 0.289515
O O8 0.196344 0.333794 0.097773
O O9 0.943050 0.826453 0.796395
O O10 0.797915 0.000000 0.694118
O O11 0.308808 0.183792 0.095208
O O12 0.000000 0.182805 0.000000
O O13 0.037524 0.290375 0.924178
#
# Coordination Sequence:
#
# PCOD8079336 Si02
#       6
#     4   8   8   8   8   8
#     4  10  20  32  52  76  94 134 164 200 262 306
#     4  10  19  33  50  74 104 130 164 208 252 300
#     4   9  18  30  49  76 101 129 167 210 248 288
#     4   9  18  34  52  73  99 128 171 212 246 294
#     4  10  17  30  50  74 104 133 167 204 239 296
#     4   9  19  31  49  78 102 137 163 199 258 288
#
# _framework density 17.981801999999998
#
# number of rings (size 3 to 8) (size 9 to 14) (size 15 to 20)
#    0.000    2.545    1.818    0.545    0.000    1.818 
#    0.000    2.727    0.000    2.182    0.000    0.000 
#    0.000    0.000    0.000    0.000    0.000    0.000 
#
# Total GULP energy -272562.771879 kJ/mol
# GULP energy per Si atom -12389.216904 kJ/mol
# Density = 1.794087 g / cm^3
# Si number density = 17.981802 Si / 1000 Ang^3
#
#
#
# Elastic Constant Matrix: (Units=GPa)
#
#
# Indices 1 2 3 4 5 6 
#
# 1 102.2720 25.6201 39.4527 -0.0001 -11.7312 0.0000
# 2 25.6201 81.9335 42.6245 -0.0001 -8.7180 0.0000
# 3 39.4527 42.6245 104.4666 0.0000 -12.5844 -0.0001
# 4 -0.0001 -0.0001 0.0000 20.8203 0.0000 -4.0944
# 5 -11.7312 -8.7180 -12.5844 0.0000 28.8594 0.0000
# 6 0.0000 0.0000 -0.0001 -4.0944 0.0000 16.8450
#
#
#
# Elastic Compliance Matrix: (Units=1/GPa)
#
#
# Indices 1 2 3 4 5 6 
#
# 1 0.011843 -0.001591 -0.003485 0.000000 0.002814 0.000000
# 2 -0.001591 0.015821 -0.005654 0.000000 0.001667 0.000000
# 3 -0.003485 -0.005654 0.013530 0.000000 0.002775 0.000000
# 4 0.000000 0.000000 0.000000 0.050441 0.000000 0.012260
# 5 0.002814 0.001667 0.002775 0.000000 0.037509 0.000000
# 6 0.000000 0.000000 0.000000 0.012260 0.000000 0.062345
#
#
# Mechanical properties :
#
#
# Convention : Reuss Voigt Hill
#
# Bulk Modulus (GPa) = 50.67012 56.00741 53.33876
# Shear Modulus (GPa) = 22.77638 25.36992 24.07315
#
# Velocity S-wave (km/s) = 3.56284 3.76022 3.66286
# Velocity P-wave (km/s) = 6.72048 7.07578 6.90042
#
# Compressibility (1/GPa) = 0.01973550
#
# Stress axis : x y z
#
# Youngs Moduli (GPa) = 84.43478 63.20654 73.91245
#
# Poissons Ratio (x) = 0.10057 0.25755
# Poissons Ratio (y) = 0.13435 0.41787
# Poissons Ratio (z) = 0.29422 0.35734
#
# Static dielectric constant tensor:
#      x y z
#    x 3.567750 0.000000 0.102690 
#    y 0.000000 3.184710 0.000000 
#    z 0.102690 0.000000 3.416650 
# 
# 
# High freq. dielectric constant tensor:
#      x y z
#    x 1.697390 0.000000 0.003390 
#    y 0.000000 1.666190 0.000000 
#    z 0.003390 0.000000 1.708170 
# 
# From -- ./inp_files/240485.got.cif
#   From: 2010.06.25/outbox.cif.g09.slc.cpg/sg12_121_cif.got.tgz:240485.got - 2010.06.28 00:19:55.
