data_PCOD8079718
_publ_section_title
;
Structure prediction by ZEFSAII (Michael W. Deem and Ramdas Pophale) SiO2 
 PCOD8079718
Probable space group: C 2/M
;
_chemical_formula_sum "Si O2"
_cell_formula_units_Z 44
_cell_length_a 27.797280
_cell_length_b 11.772667
_cell_length_c 7.304762
_cell_angle_alpha 90.000000
_cell_angle_beta 119.353575
_cell_angle_gamma 90.000000
_cell_volume 2083.560323
_symmetry_space_group_name_H-M "C 2/M"
_symmetry_group_IT_number 12
_symmetry_cell_setting 'monoclinic'
loop_
_space_group_symop_operation_xyz
x,y,z
-x,y,-z
-x,-y,-z
x,-y,z
1/2+x,1/2+y,z
1/2-x,1/2+y,-z
1/2-x,1/2-y,-z
1/2+x,1/2-y,z
loop_
_atom_site_type_symbol
_atom_site_label
_atom_site_fract_x
_atom_site_fract_y
_atom_site_fract_z
Si Si1 0.034131 0.000000 0.372285
Si Si2 0.877153 0.750046 0.114828
Si Si3 0.502531 0.741681 0.719421
Si Si4 0.606643 0.134007 0.472506
Si Si5 0.685634 0.740150 0.352006
Si Si6 0.631618 0.500000 0.296144
Si Si7 0.899647 0.000000 0.159972
O O1 0.006090 0.888155 0.236288
O O2 0.097280 0.000000 0.419469
O O3 0.041828 0.000000 0.615559
O O4 0.875608 0.673128 0.291326
O O5 0.934682 0.727267 0.108226
O O6 0.870105 0.882632 0.164110
O O7 0.828262 0.721731 0.882701
O O8 0.500000 0.756612 0.500000
O O9 0.453136 0.818415 0.708647
O O10 0.654448 0.174155 0.427713
O O11 0.602307 0.000000 0.462725
O O12 0.750000 0.750000 0.500000
O O13 0.669733 0.610644 0.362154
O O14 0.591764 0.500000 0.043196
#
# Coordination Sequence:
#
# PCOD8079718 Si02
#       7
#     4   8   8   8   8   4   4
#     4  12  16  36  62  94 136 158 187 251 314 378
#     4  10  22  40  64  97 126 161 203 253 312 369
#     4  10  19  34  63  93 129 160 198 245 313 374
#     4  11  24  42  63  93 125 167 209 251 303 369
#     4  11  25  45  67  88 124 163 213 263 306 358
#     4  10  22  39  63  98 118 161 206 255 312 365
#     4  10  17  34  61  96 128 154 195 244 310 370
#
# _framework density 21.117699000000002
#
# number of rings (size 3 to 8) (size 9 to 14) (size 15 to 20)
#    0.000    1.455    5.455    0.818    1.273    5.455 
#    0.000    2.727    0.000    0.000    0.000    0.000 
#    0.000    0.000    0.000    0.000    0.000    0.000 
#
# Total GULP energy -272673.306397 kJ/mol
# GULP energy per Si atom -12394.241200 kJ/mol
# Density = 2.106963 g / cm^3
# Si number density = 21.117699 Si / 1000 Ang^3
#
#
#
# Elastic Constant Matrix: (Units=GPa)
#
#
# Indices 1 2 3 4 5 6 
#
# 1 64.0067 39.4849 21.2305 0.0000 10.9054 0.0000
# 2 39.4849 149.1299 33.7613 0.0000 -2.8070 0.0000
# 3 21.2305 33.7613 107.8026 0.0000 19.3992 0.0000
# 4 0.0000 0.0000 0.0000 21.2704 0.0000 2.9192
# 5 10.9054 -2.8070 19.3992 0.0000 31.3033 0.0000
# 6 0.0000 0.0000 0.0000 2.9192 0.0000 14.2478
#
#
#
# Elastic Compliance Matrix: (Units=1/GPa)
#
#
# Indices 1 2 3 4 5 6 
#
# 1 0.020432 -0.005284 -0.001129 0.000000 -0.006892 0.000000
# 2 -0.005284 0.008735 -0.002439 0.000000 0.004136 0.000000
# 3 -0.001129 -0.002439 0.011515 0.000000 -0.006962 0.000000
# 4 0.000000 0.000000 0.000000 0.048374 0.000000 -0.009911
# 5 -0.006892 0.004136 -0.006962 0.000000 0.039032 0.000000
# 6 0.000000 0.000000 0.000000 -0.009911 0.000000 0.072217
#
#
# Mechanical properties :
#
#
# Convention : Reuss Voigt Hill
#
# Bulk Modulus (GPa) = 43.51988 56.65472 50.08730
# Shear Modulus (GPa) = 22.15659 28.46180 25.30920
#
# Velocity S-wave (km/s) = 3.24264 3.67518 3.46567
# Velocity P-wave (km/s) = 5.88835 6.70042 6.30746
#
# Compressibility (1/GPa) = 0.02297800
#
# Stress axis : x y z
#
# Youngs Moduli (GPa) = 48.94387 114.48752 86.84230
#
# Poissons Ratio (x) = 0.60493 0.09802
# Poissons Ratio (y) = 0.25861 0.21181
# Poissons Ratio (z) = 0.05524 0.27924
#
# Static dielectric constant tensor:
#      x y z
#    x 3.789080 0.000000 0.070800 
#    y 0.000000 3.825020 0.000000 
#    z 0.070800 0.000000 3.996670 
# 
# 
# High freq. dielectric constant tensor:
#      x y z
#    x 1.813470 0.000000 -0.006170 
#    y 0.000000 1.823450 0.000000 
#    z -0.006170 0.000000 1.828830 
# 
# From -- ./inp_files/110191.got.cif
#   From: 2010.06.25/outbox.cif.g09.slc.cpg/sg12_56_cif.got.tgz:110191.got - 2010.06.28 00:19:55.
