data_PCOD8079985
_publ_section_title
;
Structure prediction by ZEFSAII (Michael W. Deem and Ramdas Pophale) SiO2 
 PCOD8079985
Probable space group: C 2/M
;
_chemical_formula_sum "Si O2"
_cell_formula_units_Z 48
_cell_length_a 24.029647
_cell_length_b 9.345004
_cell_length_c 14.034994
_cell_angle_alpha 90.000000
_cell_angle_beta 109.733958
_cell_angle_gamma 90.000000
_cell_volume 2966.563189
_symmetry_space_group_name_H-M "C 2/M"
_symmetry_group_IT_number 12
_symmetry_cell_setting 'monoclinic'
loop_
_space_group_symop_operation_xyz
x,y,z
-x,y,-z
-x,-y,-z
x,-y,z
1/2+x,1/2+y,z
1/2-x,1/2+y,-z
1/2-x,1/2-y,-z
1/2+x,1/2-y,z
loop_
_atom_site_type_symbol
_atom_site_label
_atom_site_fract_x
_atom_site_fract_y
_atom_site_fract_z
Si Si1 0.452509 0.835494 0.551294
Si Si2 0.446739 0.341643 0.043933
Si Si3 0.979770 0.665655 0.781492
Si Si4 0.271644 0.663574 0.646523
Si Si5 0.120532 0.166330 0.170385
Si Si6 0.166906 0.166449 0.516300
O O1 0.500000 0.791620 0.500000
O O2 0.483042 0.809269 0.670788
O O3 0.396093 0.736831 0.502915
O O4 0.432416 0.000000 0.529165
O O5 0.438326 0.500000 0.083063
O O6 0.460645 0.232467 0.137486
O O7 0.500000 0.340569 0.000000
O O8 0.389136 0.296699 0.947620
O O9 0.977481 0.500000 0.807857
O O10 0.920944 0.739328 0.786556
O O11 0.249644 0.500000 0.630919
O O12 0.311238 0.695514 0.762956
O O13 0.214664 0.765065 0.616165
O O14 0.312834 0.697136 0.579563
O O15 0.104096 0.000000 0.179976
O O16 0.162111 0.000000 0.536787
#
# Coordination Sequence:
#
# PCOD8079985 Si02
#       6
#     8   8   8   8   8   8
#     4  10  21  35  48  63  88 124 160 190 225 269
#     4   8  15  26  41  60  87 119 147 175 215 270
#     4  10  18  27  42  63  88 116 149 189 226 260
#     4   9  17  29  46  66  93 123 148 178 221 274
#     4   9  16  28  44  64  90 122 150 173 214 272
#     4  10  19  30  46  68  91 117 152 190 226 265
#
# _framework density 16.180339
#
# number of rings (size 3 to 8) (size 9 to 14) (size 15 to 20)
#    0.000    2.667    1.667    2.000    0.000    5.333 
#    0.000    0.000    0.000    0.000    0.000    1.167 
#    0.000    0.000    0.000    0.000    0.000    0.000 
#
# Total GULP energy -297525.238572 kJ/mol
# GULP energy per Si atom -12396.884941 kJ/mol
# Density = 1.614351 g / cm^3
# Si number density = 16.180339 Si / 1000 Ang^3
#
#
#
# Elastic Constant Matrix: (Units=GPa)
#
#
# Indices 1 2 3 4 5 6 
#
# 1 69.1103 54.9404 53.8053 0.0000 15.6856 0.0000
# 2 54.9404 102.5997 64.9553 0.0000 14.4250 0.0000
# 3 53.8053 64.9553 117.0260 0.0000 29.3244 0.0000
# 4 0.0000 0.0000 0.0000 26.0519 0.0000 8.0663
# 5 15.6856 14.4250 29.3244 0.0000 26.6611 0.0000
# 6 0.0000 0.0000 0.0000 8.0663 0.0000 20.9433
#
#
#
# Elastic Compliance Matrix: (Units=1/GPa)
#
#
# Indices 1 2 3 4 5 6 
#
# 1 0.028997 -0.011048 -0.006106 0.000000 -0.004367 0.000000
# 2 -0.011048 0.019277 -0.006399 0.000000 0.003108 0.000000
# 3 -0.006106 -0.006399 0.018134 0.000000 -0.012892 0.000000
# 4 0.000000 0.000000 0.000000 0.043582 0.000000 -0.016786
# 5 -0.004367 0.003108 -0.012892 0.000000 0.052575 0.000000
# 6 0.000000 0.000000 0.000000 -0.016786 0.000000 0.054213
#
#
# Mechanical properties :
#
#
# Convention : Reuss Voigt Hill
#
# Bulk Modulus (GPa) = 51.80483 70.68199 61.24341
# Shear Modulus (GPa) = 18.49677 22.40025 20.44851
#
# Velocity S-wave (km/s) = 3.38474 3.72480 3.55884
# Velocity P-wave (km/s) = 6.88200 7.89162 7.40404
#
# Compressibility (1/GPa) = 0.01930322
#
# Stress axis : x y z
#
# Youngs Moduli (GPa) = 34.48624 51.87597 55.14395
#
# Poissons Ratio (x) = 0.57313 0.33668
# Poissons Ratio (y) = 0.38101 0.35286
# Poissons Ratio (z) = 0.21056 0.33195
#
# Static dielectric constant tensor:
#      x y z
#    x 2.670380 0.000000 0.352480 
#    y 0.000000 3.140360 0.000000 
#    z 0.352480 0.000000 3.427440 
# 
# 
# High freq. dielectric constant tensor:
#      x y z
#    x 1.569760 0.000000 0.033570 
#    y 0.000000 1.629520 0.000000 
#    z 0.033570 0.000000 1.626260 
# 
# From -- ./inp_files/236850.got.cif
#   From: 2010.06.25/outbox.cif.g09.slc.cpg/sg12_119_cif.got.tgz:236850.got - 2010.06.28 00:19:55.
