data_PCOD8079271
_publ_section_title
;
Structure prediction by ZEFSAII (Michael W. Deem and Ramdas Pophale) SiO2 
 PCOD8079271
Probable space group: C 2/M
;
_chemical_formula_sum "Si O2"
_cell_formula_units_Z 64
_cell_length_a 33.449639
_cell_length_b 9.041532
_cell_length_c 15.180726
_cell_angle_alpha 90.000000
_cell_angle_beta 135.115931
_cell_angle_gamma 90.000000
_cell_volume 3239.891604
_symmetry_space_group_name_H-M "C 2/M"
_symmetry_group_IT_number 12
_symmetry_cell_setting 'monoclinic'
loop_
_space_group_symop_operation_xyz
x,y,z
-x,y,-z
-x,-y,-z
x,-y,z
1/2+x,1/2+y,z
1/2-x,1/2+y,-z
1/2-x,1/2-y,-z
1/2+x,1/2-y,z
loop_
_atom_site_type_symbol
_atom_site_label
_atom_site_fract_x
_atom_site_fract_y
_atom_site_fract_z
Si Si1 0.876170 0.675753 0.993346
Si Si2 0.605122 0.825933 0.783697
Si Si3 0.482628 0.166312 0.607861
Si Si4 0.996704 0.334631 0.834191
Si Si5 0.807678 0.175730 0.738848
Si Si6 0.308262 0.674864 0.425625
Si Si7 0.865225 0.325093 0.358658
Si Si8 0.611121 0.672877 0.290687
O O1 0.867338 0.500000 0.969143
O O2 0.867560 0.728389 0.081780
O O3 0.938821 0.723747 0.057497
O O4 0.829649 0.764747 0.866570
O O5 0.541861 0.756189 0.671221
O O6 0.644712 0.790695 0.761097
O O7 0.594737 0.000000 0.778894
O O8 0.476794 0.171185 0.703029
O O9 0.427173 0.241900 0.479362
O O10 0.482130 0.000000 0.570631
O O11 0.993679 0.500000 0.866857
O O12 0.951679 0.239669 0.819150
O O13 0.747762 0.249512 0.623459
O O14 0.850348 0.229172 0.729457
O O15 0.800833 0.000000 0.731316
O O16 0.299057 0.500000 0.406184
O O17 0.319445 0.738215 0.345174
O O18 0.359474 0.718158 0.571105
O O19 0.859952 0.500000 0.370391
O O20 0.603433 0.500000 0.273303
#
# Coordination Sequence:
#
# PCOD8079271 Si02
#       8
#     8   8   8   8   8   8   8   8
#     4   9  19  37  57  82 115 147 183 224 265 312
#     4   8  15  28  51  82 113 144 179 218 261 312
#     4   8  13  24  46  80 114 142 174 213 256 309
#     4   9  17  31  55  85 115 146 178 216 264 322
#     4  11  24  41  59  78 101 141 191 232 272 324
#     4  11  23  39  57  80 111 142 175 226 283 328
#     4  10  17  29  54  84 111 142 180 220 263 319
#     4  10  22  38  57  82 111 139 175 225 281 331
#
# _framework density 19.753747000000001
#
# number of rings (size 3 to 8) (size 9 to 14) (size 15 to 20)
#    0.000    2.500    1.250    3.000    0.000    4.000 
#    0.000    3.750    0.000    2.250    0.000    0.000 
#    0.000    0.000    0.000    0.000    0.000    0.000 
#
# Total GULP energy -396629.771940 kJ/mol
# GULP energy per Si atom -12394.680373 kJ/mol
# Density = 1.970879 g / cm^3
# Si number density = 19.753747 Si / 1000 Ang^3
#
#
#
# Elastic Constant Matrix: (Units=GPa)
#
#
# Indices 1 2 3 4 5 6 
#
# 1 73.3121 20.3913 7.6938 0.0000 -14.2801 0.0000
# 2 20.3913 44.0972 17.5186 0.0000 -1.9890 0.0000
# 3 7.6938 17.5186 42.1795 0.0000 -2.5452 0.0000
# 4 0.0000 0.0000 0.0000 23.3845 0.0000 1.9191
# 5 -14.2801 -1.9890 -2.5452 0.0000 22.6941 0.0000
# 6 0.0000 0.0000 0.0000 1.9191 0.0000 26.2476
#
#
#
# Elastic Compliance Matrix: (Units=1/GPa)
#
#
# Indices 1 2 3 4 5 6 
#
# 1 0.017881 -0.008082 0.000736 0.000000 0.010626 0.000000
# 2 -0.008082 0.030839 -0.011557 0.000000 -0.003679 0.000000
# 3 0.000736 -0.011557 0.028534 0.000000 0.002651 0.000000
# 4 0.000000 0.000000 0.000000 0.043021 0.000000 -0.003145
# 5 0.010626 -0.003679 0.002651 0.000000 0.050725 0.000000
# 6 0.000000 0.000000 0.000000 -0.003145 0.000000 0.038329
#
#
# Mechanical properties :
#
#
# Convention : Reuss Voigt Hill
#
# Bulk Modulus (GPa) = 25.34857 27.86624 26.60741
# Shear Modulus (GPa) = 19.20988 22.06425 20.63706
#
# Velocity S-wave (km/s) = 3.12182 3.34573 3.23571
# Velocity P-wave (km/s) = 5.08473 5.39098 5.24009
#
# Compressibility (1/GPa) = 0.03944996
#
# Stress axis : x y z
#
# Youngs Moduli (GPa) = 55.92653 32.42606 35.04633
#
# Poissons Ratio (x) = 0.26205 -0.02580
# Poissons Ratio (y) = 0.45197 0.40501
# Poissons Ratio (z) = -0.04117 0.37473
#
# Static dielectric constant tensor:
#      x y z
#    x 3.662370 0.000000 -0.070460 
#    y 0.000000 3.185740 0.000000 
#    z -0.070460 0.000000 3.516640 
# 
# 
# High freq. dielectric constant tensor:
#      x y z
#    x 1.775300 0.000000 -0.006730 
#    y 0.000000 1.728630 0.000000 
#    z -0.006730 0.000000 1.763130 
# 
# From -- ./inp_files/250013.got.cif
#   From: 2010.06.25/outbox.cif.g09.slc.cpg/sg12_126_cif.got.tgz:250013.got - 2010.06.28 00:19:55.
