data_PCOD8079563
_publ_section_title
;
Structure prediction by ZEFSAII (Michael W. Deem and Ramdas Pophale) SiO2 
 PCOD8079563
Probable space group: C 2/M
;
_chemical_formula_sum "Si O2"
_cell_formula_units_Z 64
_cell_length_a 21.092747
_cell_length_b 17.589417
_cell_length_c 11.563049
_cell_angle_alpha 90.000000
_cell_angle_beta 56.250986
_cell_angle_gamma 90.000000
_cell_volume 3567.042879
_symmetry_space_group_name_H-M "C 2/M"
_symmetry_group_IT_number 12
_symmetry_cell_setting 'monoclinic'
loop_
_space_group_symop_operation_xyz
x,y,z
-x,y,-z
-x,-y,-z
x,-y,z
1/2+x,1/2+y,z
1/2-x,1/2+y,-z
1/2-x,1/2-y,-z
1/2+x,1/2-y,z
loop_
_atom_site_type_symbol
_atom_site_label
_atom_site_fract_x
_atom_site_fract_y
_atom_site_fract_z
Si Si1 0.294393 0.723250 0.340882
Si Si2 0.832126 0.382779 0.291950
Si Si3 0.078306 0.584276 0.571188
Si Si4 0.844885 0.696462 0.653907
Si Si5 0.544669 0.315950 0.568375
Si Si6 0.666419 0.587655 0.559159
Si Si7 0.570959 0.084472 0.009515
Si Si8 0.445825 0.809216 0.760557
O O1 0.250000 0.750000 0.500000
O O2 0.352454 0.792505 0.260505
O O3 0.243562 0.715899 0.276171
O O4 0.332545 0.641680 0.328121
O O5 0.886271 0.416362 0.336077
O O6 0.742821 0.400044 0.405030
O O7 0.853597 0.418711 0.146692
O O8 0.055819 0.500000 0.558323
O O9 0.141058 0.613836 0.416939
O O10 0.001700 0.633303 0.637273
O O11 0.891848 0.755210 0.529051
O O12 0.867903 0.698331 0.765034
O O13 0.500000 0.343152 0.500000
O O14 0.588427 0.389835 0.572125
O O15 0.487437 0.274152 0.719401
O O16 0.660647 0.500000 0.603248
O O17 0.576127 0.154086 0.094675
O O18 0.562489 0.000000 0.076878
O O19 0.500000 0.102557 0.000000
#
# Coordination Sequence:
#
# PCOD8079563 Si02
#       8
#     8   8   8   8   8   8   8   8
#     4  10  17  32  54  73 103 135 172 216 259 313
#     4  11  20  33  54  76 106 143 177 212 255 309
#     4  11  18  28  46  74 105 134 166 206 262 317
#     4  10  18  32  49  74 100 136 173 212 261 311
#     4   9  18  34  54  74 102 133 172 222 267 310
#     4  11  20  31  52  82 107 132 168 218 272 311
#     4  11  22  35  51  76 111 146 180 214 247 309
#     4  10  21  33  50  73 106 141 173 213 259 307
#
# _framework density 17.942032999999999
#
# number of rings (size 3 to 8) (size 9 to 14) (size 15 to 20)
#    0.000    1.625    6.250    3.375    0.000    1.750 
#    0.000    0.625    0.000    0.000    0.000    1.750 
#    0.000    0.000    0.000    0.000    0.000    0.000 
#
# Total GULP energy -396479.349680 kJ/mol
# GULP energy per Si atom -12389.979677 kJ/mol
# Density = 1.790120 g / cm^3
# Si number density = 17.942033 Si / 1000 Ang^3
#
#
#
# Elastic Constant Matrix: (Units=GPa)
#
#
# Indices 1 2 3 4 5 6 
#
# 1 98.2575 31.0615 5.4143 0.0000 10.7151 0.0000
# 2 31.0615 114.5197 9.8951 0.0000 3.1001 0.0000
# 3 5.4143 9.8951 39.4869 0.0000 8.9923 0.0000
# 4 0.0000 0.0000 0.0000 13.3907 0.0000 -3.1320
# 5 10.7151 3.1001 8.9923 0.0000 17.0196 0.0000
# 6 0.0000 0.0000 0.0000 -3.1320 0.0000 14.8471
#
#
#
# Elastic Compliance Matrix: (Units=1/GPa)
#
#
# Indices 1 2 3 4 5 6 
#
# 1 0.011917 -0.003104 0.000823 0.000000 -0.007372 0.000000
# 2 -0.003104 0.009738 -0.002337 0.000000 0.001415 0.000000
# 3 0.000823 -0.002337 0.029350 0.000000 -0.015599 0.000000
# 4 0.000000 0.000000 0.000000 0.078554 0.000000 0.016571
# 5 -0.007372 0.001415 -0.015599 0.000000 0.071381 0.000000
# 6 0.000000 0.000000 0.000000 0.016571 0.000000 0.070849
#
#
# Mechanical properties :
#
#
# Convention : Reuss Voigt Hill
#
# Bulk Modulus (GPa) = 23.94141 38.33399 31.13770
# Shear Modulus (GPa) = 16.95212 22.77771 19.86492
#
# Velocity S-wave (km/s) = 3.07714 3.56689 3.33103
# Velocity P-wave (km/s) = 5.09880 6.19479 5.67333
#
# Compressibility (1/GPa) = 0.04176863
#
# Stress axis : x y z
#
# Youngs Moduli (GPa) = 83.91289 102.69485 34.07146
#
# Poissons Ratio (x) = 0.31875 -0.02803
# Poissons Ratio (y) = 0.26045 0.07962
# Poissons Ratio (z) = -0.06903 0.23998
#
# Static dielectric constant tensor:
#      x y z
#    x 3.487890 0.000000 -0.027220 
#    y 0.000000 3.678120 0.000000 
#    z -0.027220 0.000000 2.992550 
# 
# 
# High freq. dielectric constant tensor:
#      x y z
#    x 1.696200 0.000000 0.008220 
#    y 0.000000 1.693720 0.000000 
#    z 0.008220 0.000000 1.635950 
# 
# From -- ./inp_files/168435.got.cif
#   From: 2010.06.25/outbox.cif.g09.slc.cpg/sg12_85_cif.got.tgz:168435.got - 2010.06.28 00:19:55.
