data_PCOD8079909
_publ_section_title
;
Structure prediction by ZEFSAII (Michael W. Deem and Ramdas Pophale) SiO2 
 PCOD8079909
Probable space group: C 2/M
;
_chemical_formula_sum "Si O2"
_cell_formula_units_Z 48
_cell_length_a 23.793953
_cell_length_b 9.670297
_cell_length_c 15.078031
_cell_angle_alpha 90.000000
_cell_angle_beta 119.684995
_cell_angle_gamma 90.000000
_cell_volume 3014.057129
_symmetry_space_group_name_H-M "C 2/M"
_symmetry_group_IT_number 12
_symmetry_cell_setting 'monoclinic'
loop_
_space_group_symop_operation_xyz
x,y,z
-x,y,-z
-x,-y,-z
x,-y,z
1/2+x,1/2+y,z
1/2-x,1/2+y,-z
1/2-x,1/2-y,-z
1/2+x,1/2-y,z
loop_
_atom_site_type_symbol
_atom_site_label
_atom_site_fract_x
_atom_site_fract_y
_atom_site_fract_z
Si Si1 0.180984 0.339701 0.626186
Si Si2 0.041525 0.835514 0.112842
Si Si3 0.845923 0.843905 0.559799
Si Si4 0.821571 0.161455 0.734170
Si Si5 0.449873 0.162023 0.383808
Si Si6 0.993001 0.155826 0.718501
O O1 0.173918 0.500000 0.594801
O O2 0.180145 0.254870 0.535903
O O3 0.251929 0.310635 0.726664
O O4 0.123190 0.296808 0.646093
O O5 0.116056 0.778178 0.164157
O O6 0.010259 0.791076 0.182348
O O7 0.040905 0.000000 0.105007
O O8 0.000000 0.769650 0.000000
O O9 0.819650 0.781585 0.631984
O O10 0.923170 0.841072 0.619392
O O11 0.821095 0.000000 0.522968
O O12 0.836001 0.000000 0.734961
O O13 0.500000 0.207551 0.500000
O O14 0.461310 0.243027 0.301672
O O15 0.457342 0.000000 0.370283
O O16 0.021269 0.000000 0.737010
#
# Coordination Sequence:
#
# PCOD8079909 Si02
#       6
#     8   8   8   8   8   8
#     4  10  18  27  40  58  85 118 146 170 201 245
#     4   8  14  27  48  70  87 103 133 182 228 260
#     4   9  16  26  40  60  86 111 138 173 212 251
#     4   8  15  26  40  61  85 108 137 174 215 256
#     4  10  19  29  40  58  87 123 155 174 194 240
#     4   9  17  28  44  66  87 110 142 179 217 250
#
# _framework density 15.925378
#
# number of rings (size 3 to 8) (size 9 to 14) (size 15 to 20)
#    0.000    3.000    1.667    2.500    0.000    1.000 
#    0.000    0.000    0.000    1.500    0.000    0.000 
#    0.000    0.000    0.000    0.000    0.000    0.000 
#
# Total GULP energy -297372.845252 kJ/mol
# GULP energy per Si atom -12390.535219 kJ/mol
# Density = 1.588913 g / cm^3
# Si number density = 15.925378 Si / 1000 Ang^3
#
#
#
# Elastic Constant Matrix: (Units=GPa)
#
#
# Indices 1 2 3 4 5 6 
#
# 1 133.2733 30.6644 58.6717 0.0000 7.9701 0.0000
# 2 30.6644 27.1357 24.0747 0.0000 1.0799 0.0000
# 3 58.6717 24.0747 96.4297 0.0000 7.9123 0.0000
# 4 0.0000 0.0000 0.0000 10.4025 0.0000 -1.1475
# 5 7.9701 1.0799 7.9123 0.0000 13.8057 0.0000
# 6 0.0000 0.0000 0.0000 -1.1475 0.0000 12.5479
#
#
#
# Elastic Compliance Matrix: (Units=1/GPa)
#
#
# Indices 1 2 3 4 5 6 
#
# 1 0.011861 -0.009139 -0.004650 0.000000 -0.003467 0.000000
# 2 -0.009139 0.054516 -0.008534 0.000000 0.005903 0.000000
# 3 -0.004650 -0.008534 0.015798 0.000000 -0.005702 0.000000
# 4 0.000000 0.000000 0.000000 0.097110 0.000000 0.008881
# 5 -0.003467 0.005903 -0.005702 0.000000 0.077242 0.000000
# 6 0.000000 0.000000 0.000000 0.008881 0.000000 0.080507
#
#
# Mechanical properties :
#
#
# Convention : Reuss Voigt Hill
#
# Bulk Modulus (GPa) = 26.64717 53.74002 40.19360
# Shear Modulus (GPa) = 12.68422 16.91310 14.79866
#
# Velocity S-wave (km/s) = 2.82526 3.26240 3.05167
# Velocity P-wave (km/s) = 5.23561 6.92887 6.14088
#
# Compressibility (1/GPa) = 0.03752743
#
# Stress axis : x y z
#
# Youngs Moduli (GPa) = 84.31107 18.34320 63.29840
#
# Poissons Ratio (x) = 0.16765 0.29436
# Poissons Ratio (y) = 0.77055 0.54019
# Poissons Ratio (z) = 0.39208 0.15654
#
# Static dielectric constant tensor:
#      x y z
#    x 3.195350 0.000000 0.155410 
#    y 0.000000 2.754800 0.000000 
#    z 0.155410 0.000000 2.997270 
# 
# 
# High freq. dielectric constant tensor:
#      x y z
#    x 1.619490 0.000000 0.006890 
#    y 0.000000 1.579730 0.000000 
#    z 0.006890 0.000000 1.579720 
# 
# From -- ./inp_files/173390.got.cif
#   From: 2010.06.25/outbox.cif.g09.slc.cpg/sg12_87_cif.got.tgz:173390.got - 2010.06.28 00:19:55.
