data_PCOD8079168
_publ_section_title
;
Structure prediction by ZEFSAII (Michael W. Deem and Ramdas Pophale) SiO2 
 PCOD8079168
Probable space group: C 2/M
;
_chemical_formula_sum "Si O2"
_cell_formula_units_Z 64
_cell_length_a 29.632824
_cell_length_b 9.357443
_cell_length_c 15.075235
_cell_angle_alpha 90.000000
_cell_angle_beta 100.707450
_cell_angle_gamma 90.000000
_cell_volume 4107.391164
_symmetry_space_group_name_H-M "C 2/M"
_symmetry_group_IT_number 12
_symmetry_cell_setting 'monoclinic'
loop_
_space_group_symop_operation_xyz
x,y,z
-x,y,-z
-x,-y,-z
x,-y,z
1/2+x,1/2+y,z
1/2-x,1/2+y,-z
1/2-x,1/2-y,-z
1/2+x,1/2-y,z
loop_
_atom_site_type_symbol
_atom_site_label
_atom_site_fract_x
_atom_site_fract_y
_atom_site_fract_z
Si Si1 0.061188 0.665727 0.373597
Si Si2 0.282034 0.336199 0.625116
Si Si3 0.437852 0.668185 0.915345
Si Si4 0.194637 0.833558 0.567522
Si Si5 0.959551 0.332689 0.285357
Si Si6 0.395357 0.834990 0.424767
Si Si7 0.036186 0.830719 0.886559
Si Si8 0.876201 0.833312 0.737597
O O1 0.066862 0.500000 0.352272
O O2 0.071608 0.696074 0.480139
O O3 0.097406 0.750968 0.328954
O O4 0.009761 0.719009 0.335191
O O5 0.265474 0.500000 0.624334
O O6 0.239197 0.234924 0.631008
O O7 0.303183 0.303052 0.536384
O O8 0.321837 0.302660 0.711298
O O9 0.442452 0.500000 0.922481
O O10 0.483856 0.722325 0.882973
O O11 0.393751 0.716686 0.841454
O O12 0.434629 0.721188 0.016135
O O13 0.149520 0.762220 0.590507
O O14 0.193790 0.000000 0.589807
O O15 0.959561 0.500000 0.264969
O O16 0.923343 0.293096 0.347706
O O17 0.943933 0.249210 0.191645
O O18 0.379905 0.000000 0.418352
O O19 0.039665 0.000000 0.872186
O O20 0.886504 0.000000 0.726161
#
# Coordination Sequence:
#
# PCOD8079168 Si02
#       8
#     8   8   8   8   8   8   8   8
#     4  10  19  30  44  64  92 125 159 189 219 261
#     4   9  18  30  46  67  92 120 148 183 230 276
#     4   8  15  27  46  68  91 119 151 186 228 271
#     4  10  19  31  47  68  91 116 152 193 227 267
#     4  10  20  32  45  65  92 125 160 191 225 265
#     4  10  20  33  47  62  90 128 160 189 225 268
#     4   9  16  29  47  66  89 121 155 188 226 268
#     4  10  17  29  48  69  93 121 153 187 222 268
#
# _framework density 15.581666
#
# number of rings (size 3 to 8) (size 9 to 14) (size 15 to 20)
#    0.000    2.500    2.500    1.500    0.000    3.000 
#    0.000    1.875    0.000    2.250    0.000    0.875 
#    0.000    0.000    0.000    0.000    0.000    0.000 
#
# Total GULP energy -396741.239126 kJ/mol
# GULP energy per Si atom -12398.163723 kJ/mol
# Density = 1.554620 g / cm^3
# Si number density = 15.581666 Si / 1000 Ang^3
#
#
#
# Elastic Constant Matrix: (Units=GPa)
#
#
# Indices 1 2 3 4 5 6 
#
# 1 80.2065 41.4151 49.0991 0.0000 7.5717 0.0000
# 2 41.4151 51.9901 41.2963 0.0000 -0.3031 0.0000
# 3 49.0991 41.2963 118.2141 0.0000 7.2424 0.0000
# 4 0.0000 0.0000 0.0000 20.0033 0.0000 -2.1478
# 5 7.5717 -0.3031 7.2424 0.0000 23.4884 0.0000
# 6 0.0000 0.0000 0.0000 -2.1478 0.0000 24.8751
#
#
#
# Elastic Compliance Matrix: (Units=1/GPa)
#
#
# Indices 1 2 3 4 5 6 
#
# 1 0.023612 -0.015750 -0.003900 0.000000 -0.006612 0.000000
# 2 -0.015750 0.037376 -0.006988 0.000000 0.007714 0.000000
# 3 -0.003900 -0.006988 0.012688 0.000000 -0.002745 0.000000
# 4 0.000000 0.000000 0.000000 0.050460 0.000000 0.004357
# 5 -0.006612 0.007714 -0.002745 0.000000 0.045652 0.000000
# 6 0.000000 0.000000 0.000000 0.004357 0.000000 0.040577
#
#
# Mechanical properties :
#
#
# Convention : Reuss Voigt Hill
#
# Bulk Modulus (GPa) = 49.01697 57.11465 53.06581
# Shear Modulus (GPa) = 18.48831 21.58002 20.03417
#
# Velocity S-wave (km/s) = 3.44836 3.72555 3.58963
# Velocity P-wave (km/s) = 6.88341 7.43242 7.16318
#
# Compressibility (1/GPa) = 0.02040110
#
# Stress axis : x y z
#
# Youngs Moduli (GPa) = 42.35128 26.75488 78.81280
#
# Poissons Ratio (x) = 0.42139 0.30736
# Poissons Ratio (y) = 0.66704 0.55073
# Poissons Ratio (z) = 0.16516 0.18696
#
# Static dielectric constant tensor:
#      x y z
#    x 2.869610 0.000000 0.211820 
#    y 0.000000 2.868340 0.000000 
#    z 0.211820 0.000000 3.143580 
# 
# 
# High freq. dielectric constant tensor:
#      x y z
#    x 1.579350 0.000000 0.014700 
#    y 0.000000 1.589280 0.000000 
#    z 0.014700 0.000000 1.589350 
# 
# From -- ./inp_files/248342.got.cif
#   From: 2010.06.25/outbox.cif.g09.slc.cpg/sg12_125_cif.got.tgz:248342.got - 2010.06.28 00:19:55.
