data_PCOD8079467
_publ_section_title
;
Structure prediction by ZEFSAII (Michael W. Deem and Ramdas Pophale) SiO2 
 PCOD8079467
Probable space group: C 2/M
;
_chemical_formula_sum "Si O2"
_cell_formula_units_Z 48
_cell_length_a 25.302786
_cell_length_b 8.917121
_cell_length_c 20.526521
_cell_angle_alpha 90.000000
_cell_angle_beta 35.375923
_cell_angle_gamma 90.000000
_cell_volume 2681.271834
_symmetry_space_group_name_H-M "C 2/M"
_symmetry_group_IT_number 12
_symmetry_cell_setting 'monoclinic'
loop_
_space_group_symop_operation_xyz
x,y,z
-x,y,-z
-x,-y,-z
x,-y,z
1/2+x,1/2+y,z
1/2-x,1/2+y,-z
1/2-x,1/2-y,-z
1/2+x,1/2-y,z
loop_
_atom_site_type_symbol
_atom_site_label
_atom_site_fract_x
_atom_site_fract_y
_atom_site_fract_z
Si Si1 0.948339 0.676410 0.986037
Si Si2 0.939621 0.823304 0.382693
Si Si3 0.559042 0.321182 0.379541
Si Si4 0.754393 0.321521 0.372988
Si Si5 0.934770 0.823401 0.241354
Si Si6 0.747057 0.177635 0.773076
O O1 0.959406 0.500000 0.962835
O O2 0.842950 0.727402 0.097152
O O3 0.000000 0.723468 0.000000
O O4 0.989701 0.762645 0.883608
O O5 0.839063 0.761809 0.501041
O O6 0.967330 0.779802 0.281507
O O7 0.014718 0.757027 0.357461
O O8 0.936190 0.000000 0.396038
O O9 0.500000 0.263117 0.500000
O O10 0.559995 0.500000 0.378323
O O11 0.662587 0.259052 0.281856
O O12 0.764267 0.500000 0.366321
O O13 0.836836 0.249917 0.329539
O O14 0.758063 0.261483 0.295328
O O15 0.925126 0.000000 0.242395
O O16 0.751926 0.000000 0.764342
#
# Coordination Sequence:
#
# PCOD8079467 Si02
#       6
#     8   8   8   8   8   8
#     4  10  19  34  53  72  97 130 171 212 243 283
#     4   9  18  30  47  74 107 133 159 202 252 299
#     4   9  14  25  48  76 101 124 158 206 252 288
#     4  10  17  31  53  76 101 129 163 206 249 292
#     4  11  22  33  46  73 108 138 163 196 251 304
#     4   9  16  27  49  78  98 119 162 213 250 280
#
# _framework density 17.901952000000001
#
# number of rings (size 3 to 8) (size 9 to 14) (size 15 to 20)
#    0.000    2.333    3.333    1.000    0.000    0.333 
#    0.000    1.667    0.000    0.000    0.000    7.000 
#    0.000    0.000    0.000    0.000    0.000    0.000 
#
# Total GULP energy -297542.518718 kJ/mol
# GULP energy per Si atom -12397.604947 kJ/mol
# Density = 1.786121 g / cm^3
# Si number density = 17.901952 Si / 1000 Ang^3
#
#
#
# Elastic Constant Matrix: (Units=GPa)
#
#
# Indices 1 2 3 4 5 6 
#
# 1 161.2817 28.9165 83.7203 -0.0004 -3.9793 -0.0002
# 2 28.9165 25.9613 25.8300 -0.0086 3.8083 0.0048
# 3 83.7203 25.8300 132.5239 -0.0028 -4.0968 0.0025
# 4 -0.0004 -0.0086 -0.0028 16.6736 0.0050 2.8903
# 5 -3.9793 3.8083 -4.0968 0.0050 37.0283 -0.0035
# 6 -0.0002 0.0048 0.0025 2.8903 -0.0035 13.4466
#
#
#
# Elastic Compliance Matrix: (Units=1/GPa)
#
#
# Indices 1 2 3 4 5 6 
#
# 1 0.009968 -0.006256 -0.005042 -0.000005 0.001157 0.000005
# 2 -0.006256 0.053062 -0.006602 0.000033 -0.006860 -0.000027
# 3 -0.005042 -0.006602 0.012063 -0.000002 0.001472 0.000001
# 4 -0.000005 0.000033 -0.000002 0.062296 -0.000014 -0.013390
# 5 0.001157 -0.006860 0.001472 -0.000014 0.027999 0.000013
# 6 0.000005 -0.000027 0.000001 -0.013390 0.000013 0.077246
#
#
# Mechanical properties :
#
#
# Convention : Reuss Voigt Hill
#
# Bulk Modulus (GPa) = 25.44980 66.30006 45.87493
# Shear Modulus (GPa) = 17.15078 25.51637 21.33357
#
# Velocity S-wave (km/s) = 3.09858 3.77946 3.45583
# Velocity P-wave (km/s) = 5.20083 7.49408 6.45019
#
# Compressibility (1/GPa) = 0.03929304
#
# Stress axis : x y z
#
# Youngs Moduli (GPa) = 100.32425 18.84596 82.89571
#
# Poissons Ratio (x) = 0.11789 0.41795
# Poissons Ratio (y) = 0.62758 0.54731
# Poissons Ratio (z) = 0.50583 0.12443
#
# Static dielectric constant tensor:
#      x y z
#    x 3.593330 -0.000010 -0.118120 
#    y -0.000010 2.801750 0.000010 
#    z -0.118120 0.000010 3.475940 
# 
# 
# High freq. dielectric constant tensor:
#      x y z
#    x 1.699150 0.000000 -0.003310 
#    y 0.000000 1.638570 0.000000 
#    z -0.003310 0.000000 1.699180 
# 
# From -- ./inp_files/327161.got.cif
#   From: 2010.06.25/outbox.cif.g09.slc.cpg/sg12_164_cif.got.tgz:327161.got - 2010.06.28 00:19:55.
