data_PCOD8079771
_publ_section_title
;
Structure prediction by ZEFSAII (Michael W. Deem and Ramdas Pophale) SiO2 
 PCOD8079771
Probable space group: C 2/M
;
_chemical_formula_sum "Si O2"
_cell_formula_units_Z 56
_cell_length_a 9.911394
_cell_length_b 29.442922
_cell_length_c 11.725453
_cell_angle_alpha 90.000000
_cell_angle_beta 125.877334
_cell_angle_gamma 90.000000
_cell_volume 2772.534368
_symmetry_space_group_name_H-M "C 2/M"
_symmetry_group_IT_number 12
_symmetry_cell_setting 'monoclinic'
loop_
_space_group_symop_operation_xyz
x,y,z
-x,y,-z
-x,-y,-z
x,-y,z
1/2+x,1/2+y,z
1/2-x,1/2+y,-z
1/2-x,1/2-y,-z
1/2+x,1/2-y,z
loop_
_atom_site_type_symbol
_atom_site_label
_atom_site_fract_x
_atom_site_fract_y
_atom_site_fract_z
Si Si1 0.603613 0.710547 0.709701
Si Si2 0.353295 0.186943 0.000526
Si Si3 0.226176 0.585026 0.104009
Si Si4 0.100161 0.384446 0.434899
Si Si5 0.913054 0.291892 0.693388
Si Si6 0.013186 0.551442 0.817483
Si Si7 0.969935 0.889513 0.612867
O O1 0.678789 0.710483 0.877047
O O2 0.756008 0.719374 0.697197
O O3 0.460418 0.749136 0.635944
O O4 0.511740 0.663947 0.635049
O O5 0.339401 0.134971 0.955564
O O6 0.500000 0.209897 0.000000
O O7 0.411023 0.193663 0.158836
O O8 0.418258 0.584652 0.237268
O O9 0.127152 0.564846 0.161705
O O10 0.192034 0.556188 0.971554
O O11 0.136493 0.334305 0.407077
O O12 0.283200 0.403318 0.553674
O O13 0.000000 0.381959 0.500000
O O14 0.999176 0.415773 0.297042
O O15 0.990132 0.500000 0.763795
O O16 0.000000 0.907971 0.500000
#
# Coordination Sequence:
#
# PCOD8079771 Si02
#       7
#     8   8   8   8   8   8   8
#     4  10  22  33  59  87 123 163 214 259 304 356
#     4   9  15  32  57  83 122 160 200 252 309 356
#     4  10  17  36  68  96 124 156 203 259 312 361
#     4  12  26  43  63  88 131 175 205 252 324 381
#     4  11  21  38  57  86 124 169 212 260 303 361
#     4  11  21  39  69 102 125 156 209 257 312 381
#     4  11  21  41  62  91 129 167 208 258 311 368
#
# _framework density 20.198126999999999
#
# number of rings (size 3 to 8) (size 9 to 14) (size 15 to 20)
#    0.000    1.429    5.714    2.143    2.000    1.429 
#    0.000    2.857    0.000    0.857    0.000    0.000 
#    0.000    0.000    0.000    0.000    0.000    0.000 
#
# Total GULP energy -346960.783279 kJ/mol
# GULP energy per Si atom -12391.456546 kJ/mol
# Density = 2.015215 g / cm^3
# Si number density = 20.198127 Si / 1000 Ang^3
#
#
#
# Elastic Constant Matrix: (Units=GPa)
#
#
# Indices 1 2 3 4 5 6 
#
# 1 92.9442 18.5290 33.4989 0.0000 0.0663 0.0000
# 2 18.5290 72.9163 11.1306 0.0000 0.1134 0.0000
# 3 33.4989 11.1306 87.9419 0.0000 1.5443 0.0000
# 4 0.0000 0.0000 0.0000 15.6018 0.0000 10.7011
# 5 0.0663 0.1134 1.5443 0.0000 21.1035 0.0000
# 6 0.0000 0.0000 0.0000 10.7011 0.0000 43.7140
#
#
#
# Elastic Compliance Matrix: (Units=1/GPa)
#
#
# Indices 1 2 3 4 5 6 
#
# 1 0.012934 -0.002584 -0.004605 0.000000 0.000310 0.000000
# 2 -0.002584 0.014501 -0.000851 0.000000 -0.000008 0.000000
# 3 -0.004605 -0.000851 0.013250 0.000000 -0.000951 0.000000
# 4 0.000000 0.000000 0.000000 0.077029 0.000000 -0.018857
# 5 0.000310 -0.000008 -0.000951 0.000000 0.047454 0.000000
# 6 0.000000 0.000000 0.000000 -0.018857 0.000000 0.027492
#
#
# Mechanical properties :
#
#
# Convention : Reuss Voigt Hill
#
# Bulk Modulus (GPa) = 40.64355 42.23550 41.43952
# Shear Modulus (GPa) = 23.04771 28.79346 25.92058
#
# Velocity S-wave (km/s) = 3.38165 3.77974 3.58623
# Velocity P-wave (km/s) = 5.95093 6.32492 6.14077
#
# Compressibility (1/GPa) = 0.02460415
#
# Stress axis : x y z
#
# Youngs Moduli (GPa) = 77.31628 68.96112 75.47332
#
# Poissons Ratio (x) = 0.17821 0.34757
# Poissons Ratio (y) = 0.19980 0.06422
# Poissons Ratio (z) = 0.35605 0.05868
#
# Static dielectric constant tensor:
#      x y z
#    x 3.330000 0.000000 0.228890 
#    y 0.000000 3.534330 0.000000 
#    z 0.228890 0.000000 4.297650 
# 
# 
# High freq. dielectric constant tensor:
#      x y z
#    x 1.748220 0.000000 0.016450 
#    y 0.000000 1.770370 0.000000 
#    z 0.016450 0.000000 1.814370 
# 
# From -- ./inp_files/125816.got.cif
#   From: 2010.06.25/outbox.cif.g09.slc.cpg/sg12_63_cif.got.tgz:125816.got - 2010.06.28 00:19:55.
