data_PCOD8079131
_publ_section_title
;
Structure prediction by ZEFSAII (Michael W. Deem and Ramdas Pophale) SiO2 
 PCOD8079131
Probable space group: C 2/M
;
_chemical_formula_sum "Si O2"
_cell_formula_units_Z 56
_cell_length_a 27.314378
_cell_length_b 8.953963
_cell_length_c 14.366523
_cell_angle_alpha 90.000000
_cell_angle_beta 75.257635
_cell_angle_gamma 90.000000
_cell_volume 3397.978456
_symmetry_space_group_name_H-M "C 2/M"
_symmetry_group_IT_number 12
_symmetry_cell_setting 'monoclinic'
loop_
_space_group_symop_operation_xyz
x,y,z
-x,y,-z
-x,-y,-z
x,-y,z
1/2+x,1/2+y,z
1/2-x,1/2+y,-z
1/2-x,1/2-y,-z
1/2+x,1/2-y,z
loop_
_atom_site_type_symbol
_atom_site_label
_atom_site_fract_x
_atom_site_fract_y
_atom_site_fract_z
Si Si1 0.713651 0.171945 0.896890
Si Si2 0.682752 0.172482 0.113616
Si Si3 0.210287 0.828791 0.396660
Si Si4 0.870059 0.822090 0.420755
Si Si5 0.125331 0.828318 0.290655
Si Si6 0.559492 0.172883 0.471936
Si Si7 0.181741 0.675619 0.711800
O O1 0.763125 0.273542 0.875103
O O2 0.679661 0.210665 0.823008
O O3 0.732262 0.000000 0.883130
O O4 0.679127 0.200219 0.004400
O O5 0.635712 0.259272 0.183677
O O6 0.677395 0.000000 0.142070
O O7 0.179009 0.760301 0.498231
O O8 0.178110 0.808994 0.318808
O O9 0.265300 0.756450 0.354051
O O10 0.219410 0.000000 0.414574
O O11 0.919578 0.755515 0.446206
O O12 0.863985 0.761613 0.318330
O O13 0.874670 0.000000 0.420802
O O14 0.081123 0.742276 0.366234
O O15 0.108837 0.000000 0.289444
O O16 0.500000 0.196776 0.500000
O O17 0.574822 0.000000 0.469152
O O18 0.176164 0.500000 0.696058
#
# Coordination Sequence:
#
# PCOD8079131 Si02
#       7
#     8   8   8   8   8   8   8
#     4   9  18  30  44  63  94 134 172 206 238 275
#     4  10  18  28  44  68  95 128 169 207 241 278
#     4   8  15  27  42  61  89 126 160 191 224 269
#     4  10  20  31  45  69  96 124 159 194 236 286
#     4  10  18  31  50  71  97 128 161 196 240 288
#     4  10  21  37  55  75  96 119 153 196 240 288
#     4  10  17  29  45  62  92 133 168 197 232 271
#
# _framework density 16.480387
#
# number of rings (size 3 to 8) (size 9 to 14) (size 15 to 20)
#    0.000    2.429    1.429    3.000    0.000    2.286 
#    0.000    0.714    0.000    0.000    0.000    1.000 
#    0.000    8.000    0.000    0.000    0.000    0.000 
#
# Total GULP energy -347091.748831 kJ/mol
# GULP energy per Si atom -12396.133887 kJ/mol
# Density = 1.644288 g / cm^3
# Si number density = 16.480387 Si / 1000 Ang^3
#
#
#
# Elastic Constant Matrix: (Units=GPa)
#
#
# Indices 1 2 3 4 5 6 
#
# 1 64.7695 43.6072 48.9066 0.0000 6.1355 0.0000
# 2 43.6072 93.6071 54.6798 0.0000 3.3701 0.0000
# 3 48.9066 54.6798 104.7019 0.0000 15.2989 0.0000
# 4 0.0000 0.0000 0.0000 25.4231 0.0000 1.3111
# 5 6.1355 3.3701 15.2989 0.0000 20.0004 0.0000
# 6 0.0000 0.0000 0.0000 1.3111 0.0000 21.6056
#
#
#
# Elastic Compliance Matrix: (Units=1/GPa)
#
#
# Indices 1 2 3 4 5 6 
#
# 1 0.027098 -0.007556 -0.008650 0.000000 -0.000423 0.000000
# 2 -0.007556 0.017769 -0.006363 0.000000 0.004191 0.000000
# 3 -0.008650 -0.006363 0.018430 0.000000 -0.010372 0.000000
# 4 0.000000 0.000000 0.000000 0.039458 0.000000 -0.002394
# 5 -0.000423 0.004191 -0.010372 0.000000 0.057356 0.000000
# 6 0.000000 0.000000 0.000000 -0.002394 0.000000 0.046430
#
#
# Mechanical properties :
#
#
# Convention : Reuss Voigt Hill
#
# Bulk Modulus (GPa) = 55.06629 61.94061 58.50345
# Shear Modulus (GPa) = 19.40025 21.13149 20.26587
#
# Velocity S-wave (km/s) = 3.43472 3.58470 3.51051
# Velocity P-wave (km/s) = 7.01537 7.40266 7.21162
#
# Compressibility (1/GPa) = 0.01815993
#
# Stress axis : x y z
#
# Youngs Moduli (GPa) = 36.90349 56.27919 54.26067
#
# Poissons Ratio (x) = 0.42523 0.46934
# Poissons Ratio (y) = 0.27883 0.34524
# Poissons Ratio (z) = 0.31920 0.35808
#
# Static dielectric constant tensor:
#      x y z
#    x 2.789300 0.000000 0.114950 
#    y 0.000000 3.082160 0.000000 
#    z 0.114950 0.000000 3.298800 
# 
# 
# High freq. dielectric constant tensor:
#      x y z
#    x 1.589480 0.000000 0.012090 
#    y 0.000000 1.636200 0.000000 
#    z 0.012090 0.000000 1.635030 
# 
# From -- ./inp_files/242998.got.cif
#   From: 2010.06.25/outbox.cif.g09.slc.cpg/sg12_122_cif.got.tgz:242998.got - 2010.06.28 00:19:55.
