data_PCOD8079088
_publ_section_title
;
Structure prediction by ZEFSAII (Michael W. Deem and Ramdas Pophale) SiO2 
 PCOD8079088
Probable space group: C 2/M
;
_chemical_formula_sum "Si O2"
_cell_formula_units_Z 40
_cell_length_a 9.102413
_cell_length_b 27.962281
_cell_length_c 8.392232
_cell_angle_alpha 90.000000
_cell_angle_beta 96.408596
_cell_angle_gamma 90.000000
_cell_volume 2122.678754
_symmetry_space_group_name_H-M "C 2/M"
_symmetry_group_IT_number 12
_symmetry_cell_setting 'monoclinic'
loop_
_space_group_symop_operation_xyz
x,y,z
-x,y,-z
-x,-y,-z
x,-y,z
1/2+x,1/2+y,z
1/2-x,1/2+y,-z
1/2-x,1/2-y,-z
1/2+x,1/2-y,z
loop_
_atom_site_type_symbol
_atom_site_label
_atom_site_fract_x
_atom_site_fract_y
_atom_site_fract_z
Si Si1 0.720524 0.640839 0.416334
Si Si2 0.238939 0.800695 0.734416
Si Si3 0.943262 0.290670 0.321686
Si Si4 0.659623 0.552540 0.595272
Si Si5 0.442419 0.379819 0.165393
O O1 0.695747 0.679452 0.553987
O O2 0.858526 0.658251 0.326011
O O3 0.756534 0.588852 0.498249
O O4 0.573497 0.638688 0.294320
O O5 0.169304 0.748803 0.758342
O O6 0.416277 0.797148 0.777512
O O7 0.175643 0.836598 0.861103
O O8 0.000000 0.273148 0.500000
O O9 0.500000 0.547227 0.500000
O O10 0.735792 0.500000 0.613823
O O11 0.639132 0.573953 0.770156
O O12 0.500000 0.394731 0.000000
#
# Coordination Sequence:
#
# PCOD8079088 Si02
#       5
#     8   8   8   8   8
#     4   9  17  30  48  69  94 120 152 194 234 274
#     4  10  18  30  48  69  93 122 159 195 231 273
#     4  10  17  28  50  72  91 120 160 196 232 274
#     4   8  15  29  50  73  93 116 151 196 238 275
#     4  10  19  31  46  67  97 128 158 190 227 273
#
# _framework density 18.844114000000001
#
# number of rings (size 3 to 8) (size 9 to 14) (size 15 to 20)
#    0.000    2.600    0.000    6.600    0.000    0.400 
#    0.000    5.000    0.000   15.000    0.000    0.000 
#    0.000   32.000    0.000    0.000    0.000    0.000 
#
# Total GULP energy -247894.634568 kJ/mol
# GULP energy per Si atom -12394.731728 kJ/mol
# Density = 1.880122 g / cm^3
# Si number density = 18.844114 Si / 1000 Ang^3
#
#
#
# Elastic Constant Matrix: (Units=GPa)
#
#
# Indices 1 2 3 4 5 6 
#
# 1 100.8293 66.7601 16.9517 0.0000 -20.8722 0.0000
# 2 66.7601 167.7832 33.5439 0.0000 -23.3439 0.0000
# 3 16.9517 33.5439 47.2739 0.0000 -16.6589 0.0000
# 4 0.0000 0.0000 0.0000 10.3392 0.0000 -1.7276
# 5 -20.8722 -23.3439 -16.6589 0.0000 17.8350 0.0000
# 6 0.0000 0.0000 0.0000 -1.7276 0.0000 18.9398
#
#
#
# Elastic Compliance Matrix: (Units=1/GPa)
#
#
# Indices 1 2 3 4 5 6 
#
# 1 0.015643 -0.004754 0.003015 0.000000 0.014901 0.000000
# 2 -0.004754 0.008970 -0.003702 0.000000 0.002720 0.000000
# 3 0.003015 -0.003702 0.033144 0.000000 0.029642 0.000000
# 4 0.000000 0.000000 0.000000 0.098217 0.000000 0.008959
# 5 0.014901 0.002720 0.029642 0.000000 0.104755 0.000000
# 6 0.000000 0.000000 0.000000 0.008959 0.000000 0.053616
#
#
# Mechanical properties :
#
#
# Convention : Reuss Voigt Hill
#
# Bulk Modulus (GPa) = 21.33307 61.15531 41.24419
# Shear Modulus (GPa) = 14.66912 22.66483 18.66697
#
# Velocity S-wave (km/s) = 2.79309 3.47184 3.15079
# Velocity P-wave (km/s) = 4.66339 6.97103 5.93053
#
# Compressibility (1/GPa) = 0.04687559
#
# Stress axis : x y z
#
# Youngs Moduli (GPa) = 63.92641 111.48199 30.17094
#
# Poissons Ratio (x) = 0.52997 -0.09095
# Poissons Ratio (y) = 0.30389 0.11169
# Poissons Ratio (z) = -0.19272 0.41268
#
# Static dielectric constant tensor:
#      x y z
#    x 3.556260 0.000000 -0.257640 
#    y 0.000000 3.764150 0.000000 
#    z -0.257640 0.000000 3.058220 
# 
# 
# High freq. dielectric constant tensor:
#      x y z
#    x 1.717720 0.000000 -0.015160 
#    y 0.000000 1.728450 0.000000 
#    z -0.015160 0.000000 1.691010 
# 
# From -- ./inp_files/40334.got.cif
#   From: 2010.06.25/outbox.cif.g09.slc.cpg/sg12_21_cif.got.tgz:40334.got - 2010.06.28 00:19:55.
