data_PCOD8079278
_publ_section_title
;
Structure prediction by ZEFSAII (Michael W. Deem and Ramdas Pophale) SiO2 
 PCOD8079278
Probable space group: C 2/M
;
_chemical_formula_sum "Si O2"
_cell_formula_units_Z 64
_cell_length_a 19.858953
_cell_length_b 19.683593
_cell_length_c 19.524317
_cell_angle_alpha 90.000000
_cell_angle_beta 149.701605
_cell_angle_gamma 90.000000
_cell_volume 3850.354394
_symmetry_space_group_name_H-M "C 2/M"
_symmetry_group_IT_number 12
_symmetry_cell_setting 'monoclinic'
loop_
_space_group_symop_operation_xyz
x,y,z
-x,y,-z
-x,-y,-z
x,-y,z
1/2+x,1/2+y,z
1/2-x,1/2+y,-z
1/2-x,1/2-y,-z
1/2+x,1/2-y,z
loop_
_atom_site_type_symbol
_atom_site_label
_atom_site_fract_x
_atom_site_fract_y
_atom_site_fract_z
Si Si1 0.618803 0.792478 0.155250
Si Si2 0.359296 0.286029 0.687756
Si Si3 0.407863 0.290787 0.356867
Si Si4 0.413047 0.073520 0.649080
Si Si5 0.439670 0.214001 0.621707
Si Si6 0.673129 0.923243 0.278485
Si Si7 0.971216 0.922930 0.583967
Si Si8 0.608565 0.573796 0.337015
O O1 0.596036 0.747415 0.202602
O O2 0.755887 0.772494 0.238664
O O3 0.617908 0.872277 0.172891
O O4 0.500000 0.775485 0.000000
O O5 0.430692 0.248314 0.687872
O O6 0.200229 0.279849 0.540732
O O7 0.409144 0.364721 0.732083
O O8 0.500000 0.265487 0.500000
O O9 0.447397 0.250518 0.323091
O O10 0.424307 0.372002 0.359659
O O11 0.483844 0.135169 0.671122
O O12 0.421842 0.083596 0.738523
O O13 0.258139 0.073376 0.495396
O O14 0.476553 0.000000 0.684225
O O15 0.823823 0.901213 0.429681
O O16 0.668943 0.000000 0.246182
O O17 0.983256 0.915272 0.676609
O O18 0.005188 0.000000 0.591204
O O19 0.574978 0.500000 0.273539
#
# Coordination Sequence:
#
# PCOD8079278 Si02
#       8
#     8   8   8   8   8   8   8   8
#     4  12  25  37  48  73 111 144 172 209 259 311
#     4  10  17  31  54  77 102 137 172 214 257 297
#     4  12  21  33  51  79 105 136 174 214 260 299
#     4   8  14  25  48  79 105 127 164 215 260 297
#     4  10  17  29  56  80  99 131 178 216 252 301
#     4   9  16  30  51  75 103 140 175 200 242 307
#     4   9  16  28  50  81 107 129 164 213 259 297
#     4   8  14  25  48  80 105 124 164 219 262 297
#
# _framework density 16.621846999999999
#
# number of rings (size 3 to 8) (size 9 to 14) (size 15 to 20)
#    0.000    2.250    5.000    1.500    0.000    1.000 
#    0.000    0.625    0.000    1.500    0.000    0.000 
#    0.000    0.000    0.000    0.000    0.000    0.000 
#
# Total GULP energy -396662.058470 kJ/mol
# GULP energy per Si atom -12395.689327 kJ/mol
# Density = 1.658401 g / cm^3
# Si number density = 16.621847 Si / 1000 Ang^3
#
#
#
# Elastic Constant Matrix: (Units=GPa)
#
#
# Indices 1 2 3 4 5 6 
#
# 1 85.6064 48.8496 40.3034 -0.0025 -6.7226 -0.0009
# 2 48.8496 116.5086 32.2286 -0.0098 -9.5580 -0.0028
# 3 40.3034 32.2286 67.0128 -0.0127 -6.9283 -0.0050
# 4 -0.0025 -0.0098 -0.0127 10.9011 -0.0062 -5.6809
# 5 -6.7226 -9.5580 -6.9283 -0.0062 15.8745 -0.0015
# 6 -0.0009 -0.0028 -0.0050 -5.6809 -0.0015 27.2003
#
#
#
# Elastic Compliance Matrix: (Units=1/GPa)
#
#
# Indices 1 2 3 4 5 6 
#
# 1 0.018963 -0.005473 -0.008674 -0.000012 0.000949 -0.000004
# 2 -0.005473 0.011737 -0.001950 0.000011 0.003898 0.000003
# 3 -0.008674 -0.001950 0.021549 0.000029 0.004557 0.000010
# 4 -0.000012 0.000011 0.000029 0.102938 0.000057 0.021499
# 5 0.000949 0.003898 0.004557 0.000057 0.067732 0.000017
# 6 -0.000004 0.000003 0.000010 0.021499 0.000017 0.041254
#
#
# Mechanical properties :
#
#
# Convention : Reuss Voigt Hill
#
# Bulk Modulus (GPa) = 49.86744 56.87678 53.37211
# Shear Modulus (GPa) = 16.49876 20.64492 18.57184
#
# Velocity S-wave (km/s) = 3.15397 3.52808 3.34625
# Velocity P-wave (km/s) = 6.58252 7.13364 6.86361
#
# Compressibility (1/GPa) = 0.02005317
#
# Stress axis : x y z
#
# Youngs Moduli (GPa) = 52.73383 85.19978 46.40694
#
# Poissons Ratio (x) = 0.46634 0.40256
# Poissons Ratio (y) = 0.28864 0.09049
# Poissons Ratio (z) = 0.45744 0.16613
#
# Static dielectric constant tensor:
#      x y z
#    x 3.027780 0.000000 -0.065790 
#    y 0.000000 3.639310 0.000000 
#    z -0.065790 0.000000 2.542180 
# 
# 
# High freq. dielectric constant tensor:
#      x y z
#    x 1.629560 0.000000 -0.007890 
#    y 0.000000 1.654570 0.000000 
#    z -0.007890 0.000000 1.571520 
# 
# From -- ./inp_files/279118.got.cif
#   From: 2010.06.25/outbox.cif.g09.slc.cpg/sg12_140_cif.got.tgz:279118.got - 2010.06.28 00:19:55.
