data_PCOD8079883
_publ_section_title
;
Structure prediction by ZEFSAII (Michael W. Deem and Ramdas Pophale) SiO2 
 PCOD8079883
Probable space group: C 2/M
;
_chemical_formula_sum "Si O2"
_cell_formula_units_Z 64
_cell_length_a 26.878523
_cell_length_b 9.255257
_cell_length_c 17.115701
_cell_angle_alpha 90.000000
_cell_angle_beta 79.177076
_cell_angle_gamma 90.000000
_cell_volume 4182.095044
_symmetry_space_group_name_H-M "C 2/M"
_symmetry_group_IT_number 12
_symmetry_cell_setting 'monoclinic'
loop_
_space_group_symop_operation_xyz
x,y,z
-x,y,-z
-x,-y,-z
x,-y,z
1/2+x,1/2+y,z
1/2-x,1/2+y,-z
1/2-x,1/2-y,-z
1/2+x,1/2-y,z
loop_
_atom_site_type_symbol
_atom_site_label
_atom_site_fract_x
_atom_site_fract_y
_atom_site_fract_z
Si Si1 0.968211 0.829126 0.339057
Si Si2 0.119040 0.665869 0.170866
Si Si3 0.547365 0.333960 0.084751
Si Si4 0.070791 0.666765 0.339424
Si Si5 0.064554 0.164023 0.821556
Si Si6 0.893605 0.330252 0.058284
Si Si7 0.557916 0.839371 0.509837
Si Si8 0.198614 0.334028 0.024765
O O1 0.940725 0.785310 0.266601
O O2 0.933635 0.769897 0.420747
O O3 0.023884 0.761501 0.324064
O O4 0.974112 0.000000 0.344831
O O5 0.105958 0.500000 0.151167
O O6 0.076030 0.770203 0.150921
O O7 0.118000 0.686141 0.265371
O O8 0.173228 0.705152 0.116414
O O9 0.563581 0.500000 0.067454
O O10 0.488259 0.321298 0.117948
O O11 0.561357 0.243790 0.003817
O O12 0.052297 0.500000 0.346228
O O13 0.088832 0.709497 0.422276
O O14 0.105240 0.265154 0.854290
O O15 0.084290 0.000000 0.818738
O O16 0.903420 0.500000 0.058523
O O17 0.840109 0.293146 0.033307
O O18 0.500000 0.836726 0.500000
O O19 0.574250 0.000000 0.532004
O O20 0.213335 0.500000 0.016369
O O21 0.250000 0.250000 0.000000
#
# Coordination Sequence:
#
# PCOD8079883 Si02
#       8
#     8   8   8   8   8   8   8   8
#     4  10  18  27  38  57  85 116 148 179 209 244
#     4   9  17  29  45  65  86 111 146 181 211 250
#     4  10  18  29  42  59  86 115 143 176 211 248
#     4   9  16  27  42  58  82 113 146 182 212 243
#     4  10  20  30  40  59  87 116 146 177 209 248
#     4  10  21  33  45  63  82 106 144 179 209 252
#     4   8  15  26  38  55  78 111 150 179 209 246
#     4   9  19  34  49  66  85 106 136 173 216 262
#
# _framework density 15.303335000000001
#
# number of rings (size 3 to 8) (size 9 to 14) (size 15 to 20)
#    0.000    2.625    1.250    3.000    0.000    8.250 
#    0.000    0.000    0.000    0.000    0.000    0.000 
#    0.000    1.000    0.000    2.250    0.000    3.500 
#
# Total GULP energy -396575.346183 kJ/mol
# GULP energy per Si atom -12392.979568 kJ/mol
# Density = 1.526850 g / cm^3
# Si number density = 15.303335 Si / 1000 Ang^3
#
#
#
# Elastic Constant Matrix: (Units=GPa)
#
#
# Indices 1 2 3 4 5 6 
#
# 1 49.9649 32.5753 45.6517 0.0000 -4.0415 0.0000
# 2 32.5753 75.9011 57.7448 0.0000 3.6912 0.0000
# 3 45.6517 57.7448 143.7664 0.0000 -0.2274 0.0000
# 4 0.0000 0.0000 0.0000 26.3948 0.0000 1.8431
# 5 -4.0415 3.6912 -0.2274 0.0000 12.6011 0.0000
# 6 0.0000 0.0000 0.0000 1.8431 0.0000 19.9892
#
#
#
# Elastic Compliance Matrix: (Units=1/GPa)
#
#
# Indices 1 2 3 4 5 6 
#
# 1 0.033782 -0.010108 -0.006646 0.000000 0.013676 0.000000
# 2 -0.010108 0.022415 -0.005809 0.000000 -0.009912 0.000000
# 3 -0.006646 -0.005809 0.011399 0.000000 -0.000224 0.000000
# 4 0.000000 0.000000 0.000000 0.038132 0.000000 -0.003516
# 5 0.013676 -0.009912 -0.000224 0.000000 0.086644 0.000000
# 6 0.000000 0.000000 0.000000 -0.003516 0.000000 0.050351
#
#
# Mechanical properties :
#
#
# Convention : Reuss Voigt Hill
#
# Bulk Modulus (GPa) = 44.50249 60.17511 52.33880
# Shear Modulus (GPa) = 16.92980 20.70776 18.81878
#
# Velocity S-wave (km/s) = 3.32969 3.68251 3.51054
# Velocity P-wave (km/s) = 6.62766 7.58209 7.12088
#
# Compressibility (1/GPa) = 0.02247065
#
# Stress axis : x y z
#
# Youngs Moduli (GPa) = 29.60146 44.61381 87.72755
#
# Poissons Ratio (x) = 0.45094 0.58302
# Poissons Ratio (y) = 0.29920 0.50961
# Poissons Ratio (z) = 0.19672 0.25916
#
# Static dielectric constant tensor:
#      x y z
#    x 2.454460 0.000000 -0.045930 
#    y 0.000000 3.020530 0.000000 
#    z -0.045930 0.000000 3.450520 
# 
# 
# High freq. dielectric constant tensor:
#      x y z
#    x 1.519410 0.000000 -0.002480 
#    y 0.000000 1.595360 0.000000 
#    z -0.002480 0.000000 1.600220 
# 
# From -- ./inp_files/291621.got.cif
#   From: 2010.06.25/outbox.cif.g09.slc.cpg/sg12_146_cif.got.tgz:291621.got - 2010.06.28 00:19:55.
