data_PCOD8079062
_publ_section_title
;
Structure prediction by ZEFSAII (Michael W. Deem and Ramdas Pophale) SiO2 
 PCOD8079062
Probable space group: C 2/M
;
_chemical_formula_sum "Si O2"
_cell_formula_units_Z 44
_cell_length_a 7.894004
_cell_length_b 21.482876
_cell_length_c 13.617140
_cell_angle_alpha 90.000000
_cell_angle_beta 85.420526
_cell_angle_gamma 90.000000
_cell_volume 2301.902810
_symmetry_space_group_name_H-M "C 2/M"
_symmetry_group_IT_number 12
_symmetry_cell_setting 'monoclinic'
loop_
_space_group_symop_operation_xyz
x,y,z
-x,y,-z
-x,-y,-z
x,-y,z
1/2+x,1/2+y,z
1/2-x,1/2+y,-z
1/2-x,1/2-y,-z
1/2+x,1/2-y,z
loop_
_atom_site_type_symbol
_atom_site_label
_atom_site_fract_x
_atom_site_fract_y
_atom_site_fract_z
Si Si1 0.027029 0.326869 0.604501
Si Si2 0.647743 0.431339 0.071465
Si Si3 0.495539 0.675264 0.197792
Si Si4 0.613146 0.183435 0.184445
Si Si5 0.000000 0.615811 0.000000
Si Si6 0.420717 0.312829 0.599435
O O1 0.223725 0.326468 0.620948
O O2 0.000000 0.363561 0.500000
O O3 0.938922 0.351213 0.710093
O O4 0.940609 0.260800 0.589414
O O5 0.635488 0.500000 0.121552
O O6 0.623694 0.376087 0.149969
O O7 0.500000 0.423858 0.000000
O O8 0.832084 0.426434 0.012369
O O9 0.312789 0.672664 0.154413
O O10 0.474366 0.659887 0.313945
O O11 0.581712 0.742818 0.187527
O O12 0.507631 0.157159 0.098014
O O13 0.500000 0.345866 0.500000
#
# Coordination Sequence:
#
# PCOD8079062 Si02
#       6
#     8   8   8   8   4   8
#     4  10  17  29  45  73 110 146 184 215 267 334
#     4  11  24  42  60  80 108 147 192 233 274 329
#     4  11  21  37  54  83 116 146 189 225 280 334
#     4  11  22  33  56  85 116 151 178 230 285 336
#     4  12  23  40  60  86 115 144 186 230 288 336
#     4  10  17  28  48  73 106 145 180 224 271 324
#
# _framework density 19.114621
#
# number of rings (size 3 to 8) (size 9 to 14) (size 15 to 20)
#    0.000    1.273    1.818   10.091    1.273    1.455 
#    0.000    0.000    0.000    0.545    0.000    0.000 
#    0.000    7.273    0.000    0.000    0.000    0.000 
#
# Total GULP energy -272611.291148 kJ/mol
# GULP energy per Si atom -12391.422325 kJ/mol
# Density = 1.907111 g / cm^3
# Si number density = 19.114621 Si / 1000 Ang^3
#
#
#
# Elastic Constant Matrix: (Units=GPa)
#
#
# Indices 1 2 3 4 5 6 
#
# 1 117.5689 18.0179 22.7391 0.0000 -6.8552 0.0000
# 2 18.0179 57.7898 35.6794 0.0000 -1.7957 0.0000
# 3 22.7391 35.6794 125.7133 0.0000 8.1296 0.0000
# 4 0.0000 0.0000 0.0000 0.6710 0.0000 -0.4865
# 5 -6.8552 -1.7957 8.1296 0.0000 38.4873 0.0000
# 6 0.0000 0.0000 0.0000 -0.4865 0.0000 -1.5200
#
#
#
# Elastic Compliance Matrix: (Units=1/GPa)
#
#
# Indices 1 2 3 4 5 6 
#
# 1 0.009156 -0.002068 -0.001185 0.000000 0.001785 0.000000
# 2 -0.002068 0.021644 -0.005891 0.000000 0.001886 0.000000
# 3 -0.001185 -0.005891 0.010009 0.000000 -0.002600 0.000000
# 4 0.000000 0.000000 0.000000 1.209522 0.000000 -0.387166
# 5 0.001785 0.001886 -0.002600 0.000000 0.026938 0.000000
# 6 0.000000 0.000000 0.000000 -0.387166 0.000000 -0.533977
#
#
# Mechanical properties :
#
#
# Convention : Reuss Voigt Hill
#
# Bulk Modulus (GPa) = 44.40016 50.43828 47.41922
# Shear Modulus (GPa) = 6.50122 22.50339 14.50230
#
# Velocity S-wave (km/s) = 1.84623 3.43488 2.75744
# Velocity P-wave (km/s) = 5.27480 6.49429 5.91605
#
# Compressibility (1/GPa) = 0.02252244
#
# Stress axis : x y z
#
# Youngs Moduli (GPa) = 109.22142 46.20117 99.91033
#
# Poissons Ratio (x) = 0.09553 0.11836
# Poissons Ratio (y) = 0.22584 0.58857
# Poissons Ratio (z) = 0.12939 0.27217
#
# Static dielectric constant tensor:
#      x y z
#    x 3.600400 0.000000 0.010430 
#    y 0.000000 3.039010 0.000000 
#    z 0.010430 0.000000 4.188390 
# 
# 
# High freq. dielectric constant tensor:
#      x y z
#    x 1.768920 0.000000 0.001120 
#    y 0.000000 1.667820 0.000000 
#    z 0.001120 0.000000 1.761710 
# 
# From -- ./inp_files/122986.got.cif
#   From: 2010.06.25/outbox.cif.g09.slc.cpg/sg12_62_cif.got.tgz:122986.got - 2010.06.28 00:19:55.
