data_PCOD8079473
_publ_section_title
;
Structure prediction by ZEFSAII (Michael W. Deem and Ramdas Pophale) SiO2 
 PCOD8079473
Probable space group: C 2/M
;
_chemical_formula_sum "Si O2"
_cell_formula_units_Z 64
_cell_length_a 20.234575
_cell_length_b 17.619361
_cell_length_c 26.646174
_cell_angle_alpha 90.000000
_cell_angle_beta 23.346571
_cell_angle_gamma 90.000000
_cell_volume 3764.734007
_symmetry_space_group_name_H-M "C 2/M"
_symmetry_group_IT_number 12
_symmetry_cell_setting 'monoclinic'
loop_
_space_group_symop_operation_xyz
x,y,z
-x,y,-z
-x,-y,-z
x,-y,z
1/2+x,1/2+y,z
1/2-x,1/2+y,-z
1/2-x,1/2-y,-z
1/2+x,1/2-y,z
loop_
_atom_site_type_symbol
_atom_site_label
_atom_site_fract_x
_atom_site_fract_y
_atom_site_fract_z
Si Si1 0.391535 0.642124 0.414616
Si Si2 0.094530 0.718101 0.981159
Si Si3 0.762481 0.914377 0.807216
Si Si4 0.222821 0.689060 0.742076
Si Si5 0.771738 0.300186 0.375228
Si Si6 0.502835 0.181986 0.442506
Si Si7 0.941134 0.588222 0.393778
Si Si8 0.947825 0.716569 0.749852
O O1 0.548702 0.586299 0.304081
O O2 0.312431 0.643784 0.525597
O O3 0.255674 0.608305 0.471133
O O4 0.450153 0.726900 0.358159
O O5 0.146514 0.634241 0.925452
O O6 0.254357 0.763288 0.889337
O O7 0.000000 0.758970 0.000000
O O8 0.968029 0.714690 0.115891
O O9 0.763330 0.881013 0.750233
O O10 0.695033 0.000000 0.853714
O O11 0.238878 0.663029 0.672961
O O12 0.348402 0.757200 0.668256
O O13 0.674568 0.221240 0.443011
O O14 0.963723 0.283148 0.257229
O O15 0.500000 0.146661 0.500000
O O16 0.519921 0.112804 0.392091
O O17 0.972738 0.500000 0.363461
O O18 0.040487 0.632680 0.281239
#
# Coordination Sequence:
#
# PCOD8079473 Si02
#       8
#     8   8   8   8   8   8   8   8
#     4  10  17  32  51  75  99 131 165 200 245 298
#     4   9  19  33  51  72  98 127 174 208 237 285
#     4  10  19  32  50  72 102 135 167 203 247 294
#     4  10  20  32  50  75  98 132 170 207 239 291
#     4  10  17  31  54  73  98 126 168 202 250 287
#     4  10  18  32  52  70  98 131 158 202 250 294
#     4  11  19  29  48  77 101 122 160 206 252 295
#     4  10  18  33  55  71  99 134 164 203 243 293
#
# _framework density 16.999873000000001
#
# number of rings (size 3 to 8) (size 9 to 14) (size 15 to 20)
#    0.000    2.000    3.750    2.625    0.000    3.000 
#    0.000    3.750    0.000    3.375    0.000    0.000 
#    0.000    0.000    0.000    0.000    0.000    0.000 
#
# Total GULP energy -396673.759417 kJ/mol
# GULP energy per Si atom -12396.054982 kJ/mol
# Density = 1.696118 g / cm^3
# Si number density = 16.999873 Si / 1000 Ang^3
#
#
#
# Elastic Constant Matrix: (Units=GPa)
#
#
# Indices 1 2 3 4 5 6 
#
# 1 98.2344 37.0857 37.9880 0.0062 -6.2699 0.0000
# 2 37.0857 95.6936 23.5587 0.0155 -3.9914 0.0003
# 3 37.9880 23.5587 73.3345 0.0442 -14.5723 0.0005
# 4 0.0062 0.0155 0.0442 9.8011 0.0017 0.0479
# 5 -6.2699 -3.9914 -14.5723 0.0017 34.3044 -0.0026
# 6 0.0000 0.0003 0.0005 0.0479 -0.0026 15.0693
#
#
#
# Elastic Compliance Matrix: (Units=1/GPa)
#
#
# Indices 1 2 3 4 5 6 
#
# 1 0.013987 -0.003946 -0.006074 0.000025 -0.000483 0.000000
# 2 -0.003946 0.012462 -0.001982 -0.000008 -0.000113 0.000000
# 3 -0.006074 -0.001982 0.018734 -0.000079 0.006617 0.000001
# 4 0.000025 -0.000008 -0.000079 0.102032 -0.000035 -0.000324
# 5 -0.000483 -0.000113 0.006617 -0.000035 0.031860 0.000005
# 6 0.000000 0.000000 0.000001 -0.000324 0.000005 0.066361
#
#
# Mechanical properties :
#
#
# Convention : Reuss Voigt Hill
#
# Bulk Modulus (GPa) = 47.21312 51.61414 49.41363
# Shear Modulus (GPa) = 18.08314 23.07696 20.58005
#
# Velocity S-wave (km/s) = 3.26501 3.68839 3.48314
# Velocity P-wave (km/s) = 6.48434 6.96896 6.73101
#
# Compressibility (1/GPa) = 0.02118055
#
# Stress axis : x y z
#
# Youngs Moduli (GPa) = 71.49346 80.24155 53.37799
#
# Poissons Ratio (x) = 0.31659 0.32422
# Poissons Ratio (y) = 0.28208 0.10581
# Poissons Ratio (z) = 0.43425 0.15906
#
# Static dielectric constant tensor:
#      x y z
#    x 3.407210 -0.000010 -0.189280 
#    y -0.000010 2.824730 0.000040 
#    z -0.189280 0.000040 3.195290 
# 
# 
# High freq. dielectric constant tensor:
#      x y z
#    x 1.665330 0.000000 -0.016360 
#    y 0.000000 1.617140 0.000010 
#    z -0.016360 0.000010 1.650230 
# 
# From -- ./inp_files/383151.got.cif
#   From: 2010.06.25/outbox.cif.g09.slc.cpg/sg12_192_cif.got.tgz:383151.got - 2010.06.28 00:19:55.
