data_PCOD8079638
_publ_section_title
;
Structure prediction by ZEFSAII (Michael W. Deem and Ramdas Pophale) SiO2 
 PCOD8079638
Probable space group: C 2/M
;
_chemical_formula_sum "Si O2"
_cell_formula_units_Z 64
_cell_length_a 16.681088
_cell_length_b 20.353195
_cell_length_c 12.098818
_cell_angle_alpha 90.000000
_cell_angle_beta 123.298611
_cell_angle_gamma 90.000000
_cell_volume 3433.309999
_symmetry_space_group_name_H-M "C 2/M"
_symmetry_group_IT_number 12
_symmetry_cell_setting 'monoclinic'
loop_
_space_group_symop_operation_xyz
x,y,z
-x,y,-z
-x,-y,-z
x,-y,z
1/2+x,1/2+y,z
1/2-x,1/2+y,-z
1/2-x,1/2-y,-z
1/2+x,1/2-y,z
loop_
_atom_site_type_symbol
_atom_site_label
_atom_site_fract_x
_atom_site_fract_y
_atom_site_fract_z
Si Si1 0.517358 0.767657 0.193700
Si Si2 0.665962 0.339333 0.750012
Si Si3 0.068168 0.697657 0.655420
Si Si4 0.112863 0.076333 0.914099
Si Si5 0.914103 0.877873 0.736906
Si Si6 0.898079 0.074377 0.478735
Si Si7 0.731237 0.360761 0.195059
Si Si8 0.644434 0.777352 0.094292
O O1 0.498953 0.813087 0.286916
O O2 0.566276 0.699408 0.265140
O O3 0.581145 0.804669 0.149206
O O4 0.413892 0.756161 0.058422
O O5 0.608425 0.271520 0.693316
O O6 0.614434 0.386013 0.798564
O O7 0.673508 0.375461 0.637057
O O8 0.774632 0.329947 0.875543
O O9 0.152491 0.642384 0.714318
O O10 0.000000 0.687651 0.500000
O O11 0.003739 0.089838 0.872535
O O12 0.131268 0.000000 0.906833
O O13 0.194278 0.101923 0.058529
O O14 0.899526 0.911935 0.609060
O O15 0.817376 0.893739 0.733622
O O16 0.000000 0.087536 0.500000
O O17 0.863786 0.000000 0.433338
O O18 0.696857 0.286817 0.175675
#
# Coordination Sequence:
#
# PCOD8079638 Si02
#       8
#     8   8   8   8   8   8   8   8
#     4  10  17  33  54  79 109 139 177 219 276 327
#     4  11  20  34  53  82 113 142 180 222 267 325
#     4  11  21  35  57  79 109 147 179 224 277 316
#     4  12  22  34  57  82 112 150 177 214 271 327
#     4  11  20  34  54  77 115 146 176 217 266 322
#     4  11  21  34  50  73 108 149 181 208 252 320
#     4  10  22  36  52  81 111 141 187 224 263 324
#     4   9  19  32  55  80 108 144 173 227 280 313
#
# _framework density 18.640903999999999
#
# number of rings (size 3 to 8) (size 9 to 14) (size 15 to 20)
#    0.000    1.375    3.750    3.000    0.000    4.500 
#    0.000    3.750    0.000    0.375    0.000   20.125 
#    0.000    0.000    0.000    0.000    0.000    0.000 
#
# Total GULP energy -396673.347717 kJ/mol
# GULP energy per Si atom -12396.042116 kJ/mol
# Density = 1.859848 g / cm^3
# Si number density = 18.640904 Si / 1000 Ang^3
#
#
#
# Elastic Constant Matrix: (Units=GPa)
#
#
# Indices 1 2 3 4 5 6 
#
# 1 63.7901 16.0863 25.2753 0.0000 -6.9592 0.0000
# 2 16.0863 53.4468 13.8993 0.0000 2.6587 0.0000
# 3 25.2753 13.8993 77.4740 0.0000 -10.7121 0.0000
# 4 0.0000 0.0000 0.0000 14.5001 0.0000 3.7567
# 5 -6.9592 2.6587 -10.7121 0.0000 29.7257 0.0000
# 6 0.0000 0.0000 0.0000 3.7567 0.0000 10.3360
#
#
#
# Elastic Compliance Matrix: (Units=1/GPa)
#
#
# Indices 1 2 3 4 5 6 
#
# 1 0.019158 -0.004622 -0.004992 0.000000 0.003100 0.000000
# 2 -0.004622 0.021031 -0.002815 0.000000 -0.003978 0.000000
# 3 -0.004992 -0.002815 0.015697 0.000000 0.004740 0.000000
# 4 0.000000 0.000000 0.000000 0.076134 0.000000 -0.027672
# 5 0.003100 -0.003978 0.004740 0.000000 0.036430 0.000000
# 6 0.000000 0.000000 0.000000 -0.027672 0.000000 0.106807
#
#
# Mechanical properties :
#
#
# Convention : Reuss Voigt Hill
#
# Bulk Modulus (GPa) = 32.23017 33.91474 33.07246
# Shear Modulus (GPa) = 16.10514 20.20901 18.15708
#
# Velocity S-wave (km/s) = 2.94252 3.29617 3.12436
# Velocity P-wave (km/s) = 5.37328 5.72010 5.54940
#
# Compressibility (1/GPa) = 0.03102683
#
# Stress axis : x y z
#
# Youngs Moduli (GPa) = 52.19675 47.54813 63.70766
#
# Poissons Ratio (x) = 0.21977 0.31806
# Poissons Ratio (y) = 0.24126 0.17935
# Poissons Ratio (z) = 0.26059 0.13386
#
# Static dielectric constant tensor:
#      x y z
#    x 3.828310 0.000000 0.034480 
#    y 0.000000 3.192630 0.000000 
#    z 0.034480 0.000000 3.439410 
# 
# 
# High freq. dielectric constant tensor:
#      x y z
#    x 1.724730 0.000000 -0.014250 
#    y 0.000000 1.682610 0.000000 
#    z -0.014250 0.000000 1.724860 
# 
# From -- ./inp_files/159578.got.cif
#   From: 2010.06.25/outbox.cif.g09.slc.cpg/sg12_80_cif.got.tgz:159578.got - 2010.06.28 00:19:55.
