data_PCOD8079893
_publ_section_title
;
Structure prediction by ZEFSAII (Michael W. Deem and Ramdas Pophale) SiO2 
 PCOD8079893
Probable space group: C 2/M
;
_chemical_formula_sum "Si O2"
_cell_formula_units_Z 56
_cell_length_a 29.149847
_cell_length_b 9.441516
_cell_length_c 29.298411
_cell_angle_alpha 90.000000
_cell_angle_beta 26.642438
_cell_angle_gamma 90.000000
_cell_volume 3615.832173
_symmetry_space_group_name_H-M "C 2/M"
_symmetry_group_IT_number 12
_symmetry_cell_setting 'monoclinic'
loop_
_space_group_symop_operation_xyz
x,y,z
-x,y,-z
-x,-y,-z
x,-y,z
1/2+x,1/2+y,z
1/2-x,1/2+y,-z
1/2-x,1/2-y,-z
1/2+x,1/2-y,z
loop_
_atom_site_type_symbol
_atom_site_label
_atom_site_fract_x
_atom_site_fract_y
_atom_site_fract_z
Si Si1 0.821187 0.165513 0.374702
Si Si2 0.130205 0.338848 0.422825
Si Si3 0.315649 0.337792 0.708430
Si Si4 0.089515 0.666371 0.887610
Si Si5 0.874197 0.837517 0.426060
Si Si6 0.506634 0.339250 0.389128
Si Si7 0.134288 0.840340 0.762800
O O1 0.888467 0.202644 0.359926
O O2 0.713985 0.246437 0.471930
O O3 0.885822 0.208454 0.271893
O O4 0.793984 0.000000 0.395721
O O5 0.095443 0.500000 0.445948
O O6 0.120047 0.256680 0.384069
O O7 0.058555 0.268998 0.523732
O O8 0.245082 0.329132 0.338105
O O9 0.320750 0.500000 0.687143
O O10 0.196935 0.290780 0.816234
O O11 0.372119 0.318517 0.707432
O O12 0.079889 0.500000 0.888056
O O13 0.076513 0.739113 0.849776
O O14 0.000000 0.722612 0.000000
O O15 0.981049 0.811488 0.358278
O O16 0.839064 0.000000 0.461089
O O17 0.474492 0.500000 0.430609
O O18 0.095042 0.000000 0.806195
#
# Coordination Sequence:
#
# PCOD8079893 Si02
#       7
#     8   8   8   8   8   8   8
#     4   9  16  28  41  58  84 112 142 173 202 232
#     4  10  18  27  39  58  84 113 143 169 195 235
#     4   9  18  30  42  57  81 108 135 170 209 248
#     4   9  18  32  48  64  80 101 134 176 216 252
#     4   9  17  26  40  59  82 113 146 173 196 232
#     4  10  18  27  39  58  83 113 142 166 199 240
#     4   9  17  28  43  62  85 111 136 167 207 246
#
# _framework density 15.487443000000001
#
# number of rings (size 3 to 8) (size 9 to 14) (size 15 to 20)
#    0.000    2.714    1.429    0.857    0.000    3.714 
#    0.000    0.000    0.000    0.000    0.000    1.000 
#    0.000    0.000    0.000    0.000    0.000    0.000 
#
# Total GULP energy -346989.632219 kJ/mol
# GULP energy per Si atom -12392.486865 kJ/mol
# Density = 1.545219 g / cm^3
# Si number density = 15.487443 Si / 1000 Ang^3
#
#
#
# Elastic Constant Matrix: (Units=GPa)
#
#
# Indices 1 2 3 4 5 6 
#
# 1 128.7960 34.4650 50.0458 -0.0144 12.7631 0.0064
# 2 34.4650 52.0338 30.4766 -0.0150 7.9214 0.0111
# 3 50.0458 30.4766 69.3960 -0.0063 16.5866 0.0064
# 4 -0.0144 -0.0150 -0.0063 15.8322 0.0002 4.0229
# 5 12.7631 7.9214 16.5866 0.0002 17.4847 -0.0019
# 6 0.0064 0.0111 0.0064 4.0229 -0.0019 17.5032
#
#
#
# Elastic Compliance Matrix: (Units=1/GPa)
#
#
# Indices 1 2 3 4 5 6 
#
# 1 0.011281 -0.003636 -0.006420 0.000004 -0.000497 -0.000001
# 2 -0.003636 0.027066 -0.009011 0.000023 -0.001060 -0.000018
# 3 -0.006420 -0.009011 0.027030 -0.000003 -0.016873 -0.000003
# 4 0.000004 0.000023 -0.000003 0.067080 -0.000014 -0.015417
# 5 -0.000497 -0.001060 -0.016873 -0.000014 0.074043 0.000018
# 6 -0.000001 -0.000018 -0.000003 -0.015417 0.000018 0.060676
#
#
# Mechanical properties :
#
#
# Convention : Reuss Voigt Hill
#
# Bulk Modulus (GPa) = 36.70641 53.35564 45.03102
# Shear Modulus (GPa) = 15.90383 19.17990 17.54187
#
# Velocity S-wave (km/s) = 3.20798 3.52293 3.36914
# Velocity P-wave (km/s) = 6.12158 7.14659 6.65385
#
# Compressibility (1/GPa) = 0.02724320
#
# Stress axis : x y z
#
# Youngs Moduli (GPa) = 88.64453 36.94687 36.99618
#
# Poissons Ratio (x) = 0.13435 0.23750
# Poissons Ratio (y) = 0.32234 0.33337
# Poissons Ratio (z) = 0.56906 0.33292
#
# Static dielectric constant tensor:
#      x y z
#    x 3.376300 -0.000010 0.038450 
#    y -0.000010 3.060660 0.000020 
#    z 0.038450 0.000020 2.661000 
# 
# 
# High freq. dielectric constant tensor:
#      x y z
#    x 1.603660 0.000000 0.003740 
#    y 0.000000 1.599250 0.000000 
#    z 0.003740 0.000000 1.539940 
# 
# From -- ./inp_files/247726.got.cif
#   From: 2010.06.25/outbox.cif.g09.slc.cpg/sg12_124_cif.got.tgz:247726.got - 2010.06.28 00:19:55.
