data_PCOD8079330
_publ_section_title
;
Structure prediction by ZEFSAII (Michael W. Deem and Ramdas Pophale) SiO2 
 PCOD8079330
Probable space group: C 2/M
;
_chemical_formula_sum "Si O2"
_cell_formula_units_Z 64
_cell_length_a 18.422817
_cell_length_b 22.325321
_cell_length_c 12.455654
_cell_angle_alpha 90.000000
_cell_angle_beta 46.572282
_cell_angle_gamma 90.000000
_cell_volume 3720.503889
_symmetry_space_group_name_H-M "C 2/M"
_symmetry_group_IT_number 12
_symmetry_cell_setting 'monoclinic'
loop_
_space_group_symop_operation_xyz
x,y,z
-x,y,-z
-x,-y,-z
x,-y,z
1/2+x,1/2+y,z
1/2-x,1/2+y,-z
1/2-x,1/2-y,-z
1/2+x,1/2-y,z
loop_
_atom_site_type_symbol
_atom_site_label
_atom_site_fract_x
_atom_site_fract_y
_atom_site_fract_z
Si Si1 0.267585 0.777226 0.639160
Si Si2 0.035396 0.195970 0.346511
Si Si3 0.211289 0.567422 0.648208
Si Si4 0.898798 0.628491 0.050025
Si Si5 0.998454 0.564835 0.767736
Si Si6 0.156566 0.832478 0.569382
Si Si7 0.021697 0.670069 0.593139
Si Si8 0.749637 0.279333 0.117032
O O1 0.173451 0.808345 0.674373
O O2 0.287271 0.711259 0.571555
O O3 0.360169 0.819744 0.513816
O O4 0.252424 0.769846 0.782938
O O5 0.151252 0.177618 0.217951
O O6 0.000000 0.176349 0.500000
O O7 0.962888 0.166104 0.331507
O O8 0.036034 0.267741 0.331928
O O9 0.248015 0.500000 0.638490
O O10 0.182359 0.603514 0.784591
O O11 0.299836 0.601342 0.494602
O O12 0.116128 0.564530 0.668405
O O13 0.848143 0.680709 0.031593
O O14 0.934663 0.572916 0.940921
O O15 0.000000 0.656149 0.000000
O O16 0.968307 0.500000 0.748579
O O17 0.973989 0.621243 0.719348
O O18 0.000000 0.642562 0.500000
O O19 0.750000 0.250000 0.000000
#
# Coordination Sequence:
#
# PCOD8079330 Si02
#       8
#     8   8   8   8   8   8   8   8
#     4  10  19  32  51  78 102 137 171 211 270 312
#     4  10  18  33  52  78 108 138 169 214 279 322
#     4  10  18  32  52  77 103 136 179 226 267 314
#     4  10  21  34  51  72 107 143 181 218 265 322
#     4  10  20  32  48  74 105 141 179 219 264 312
#     4  10  18  32  57  75 104 133 175 217 263 323
#     4  10  17  30  50  70 106 136 170 210 267 319
#     4  12  22  34  52  80 109 142 177 218 272 331
#
# _framework density 17.201971
#
# number of rings (size 3 to 8) (size 9 to 14) (size 15 to 20)
#    0.000    1.750    6.250    1.125    0.000    2.750 
#    0.000    0.000    0.000    4.125    0.000    0.000 
#    0.000    1.000    0.000    0.000    0.000    0.000 
#
# Total GULP energy -396596.316526 kJ/mol
# GULP energy per Si atom -12393.634891 kJ/mol
# Density = 1.716282 g / cm^3
# Si number density = 17.201971 Si / 1000 Ang^3
#
#
#
# Elastic Constant Matrix: (Units=GPa)
#
#
# Indices 1 2 3 4 5 6 
#
# 1 105.0651 28.2186 31.0460 0.0000 -2.3920 0.0000
# 2 28.2186 66.7103 23.8290 0.0000 0.8204 0.0000
# 3 31.0460 23.8290 59.7149 0.0000 3.0927 0.0000
# 4 0.0000 0.0000 0.0000 10.5936 0.0000 1.5407
# 5 -2.3920 0.8204 3.0927 0.0000 29.2748 0.0000
# 6 0.0000 0.0000 0.0000 1.5407 0.0000 14.1446
#
#
#
# Elastic Compliance Matrix: (Units=1/GPa)
#
#
# Indices 1 2 3 4 5 6 
#
# 1 0.011901 -0.003282 -0.004960 0.000000 0.001588 0.000000
# 2 -0.003282 0.018389 -0.005622 0.000000 -0.000190 0.000000
# 3 -0.004960 -0.005622 0.021700 0.000000 -0.002540 0.000000
# 4 0.000000 0.000000 0.000000 0.095916 0.000000 -0.010448
# 5 0.001588 -0.000190 -0.002540 0.000000 0.034563 0.000000
# 6 0.000000 0.000000 0.000000 -0.010448 0.000000 0.071836
#
#
# Mechanical properties :
#
#
# Convention : Reuss Voigt Hill
#
# Bulk Modulus (GPa) = 41.21645 44.18640 42.70142
# Shear Modulus (GPa) = 17.23421 20.69571 18.96496
#
# Velocity S-wave (km/s) = 3.16867 3.47234 3.32397
# Velocity P-wave (km/s) = 6.11552 6.46674 6.29358
#
# Compressibility (1/GPa) = 0.02426216
#
# Stress axis : x y z
#
# Youngs Moduli (GPa) = 84.02491 54.38042 46.08303
#
# Poissons Ratio (x) = 0.17848 0.22858
# Poissons Ratio (y) = 0.27577 0.25907
# Poissons Ratio (z) = 0.41677 0.30572
#
# Static dielectric constant tensor:
#      x y z
#    x 3.426810 0.000000 -0.012020 
#    y 0.000000 3.015870 0.000000 
#    z -0.012020 0.000000 3.069990 
# 
# 
# High freq. dielectric constant tensor:
#      x y z
#    x 1.670690 0.000000 0.004560 
#    y 0.000000 1.632540 0.000000 
#    z 0.004560 0.000000 1.642540 
# 
# From -- ./inp_files/159524.got.cif
#   From: 2010.06.25/outbox.cif.g09.slc.cpg/sg12_80_cif.got.tgz:159524.got - 2010.06.28 00:19:55.
