data_PCOD8079389
_publ_section_title
;
Structure prediction by ZEFSAII (Michael W. Deem and Ramdas Pophale) SiO2 
 PCOD8079389
Probable space group: C 2/M
;
_chemical_formula_sum "Si O2"
_cell_formula_units_Z 48
_cell_length_a 22.631757
_cell_length_b 17.720793
_cell_length_c 11.974851
_cell_angle_alpha 90.000000
_cell_angle_beta 155.979730
_cell_angle_gamma 90.000000
_cell_volume 1954.923503
_symmetry_space_group_name_H-M "C 2/M"
_symmetry_group_IT_number 12
_symmetry_cell_setting 'monoclinic'
loop_
_space_group_symop_operation_xyz
x,y,z
-x,y,-z
-x,-y,-z
x,-y,z
1/2+x,1/2+y,z
1/2-x,1/2+y,-z
1/2-x,1/2-y,-z
1/2+x,1/2-y,z
loop_
_atom_site_type_symbol
_atom_site_label
_atom_site_fract_x
_atom_site_fract_y
_atom_site_fract_z
Si Si1 0.846452 0.654949 0.226475
Si Si2 0.494399 0.281658 0.858811
Si Si3 0.866584 0.632435 0.621773
Si Si4 0.303929 0.912173 0.756910
Si Si5 0.748376 0.705722 0.822776
Si Si6 0.147415 0.914967 0.054925
O O1 0.870231 0.735588 0.333549
O O2 0.714498 0.607470 0.050853
O O3 0.000000 0.611302 0.500000
O O4 0.821695 0.665212 0.053705
O O5 0.369575 0.223701 0.600752
O O6 0.500000 0.273152 0.000000
O O7 0.644533 0.256468 0.064021
O O8 0.497514 0.369839 0.827524
O O9 0.784683 0.618180 0.597609
O O10 0.774682 0.593205 0.367089
O O11 0.030129 0.600225 0.912985
O O12 0.195291 0.861874 0.647989
O O13 0.264501 0.000000 0.697380
O O14 0.093513 0.000000 0.956229
#
# Coordination Sequence:
#
# PCOD8079389 Si02
#       6
#     8   8   8   8   8   8
#     4  10  20  36  56  75 110 149 191 242 286 331
#     4  10  19  38  58  85 117 155 189 232 288 351
#     4  10  18  35  54  84 117 148 187 235 280 343
#     4  10  17  30  53  79 114 149 182 236 293 333
#     4   9  19  35  52  82 107 144 197 234 280 345
#     4  11  24  37  58  91 121 150 191 242 296 345
#
# _framework density 24.553391000000001
#
# number of rings (size 3 to 8) (size 9 to 14) (size 15 to 20)
#    0.000    2.000    3.333    4.000    0.000    2.000 
#    3.000    0.000    0.000    0.500    0.000    0.000 
#    0.000    0.000    0.000    0.000    0.000    0.000 
#
# Total GULP energy -297321.854769 kJ/mol
# GULP energy per Si atom -12388.410615 kJ/mol
# Density = 2.449751 g / cm^3
# Si number density = 24.553391 Si / 1000 Ang^3
#
#
#
# Elastic Constant Matrix: (Units=GPa)
#
#
# Indices 1 2 3 4 5 6 
#
# 1 113.7805 15.0150 8.7154 0.0000 -15.7442 0.0000
# 2 15.0150 170.6395 -7.5310 0.0000 3.6789 0.0000
# 3 8.7154 -7.5310 36.2908 0.0000 -12.0819 0.0000
# 4 0.0000 0.0000 0.0000 28.2895 0.0000 29.9641
# 5 -15.7442 3.6789 -12.0819 0.0000 18.6905 0.0000
# 6 0.0000 0.0000 0.0000 29.9641 0.0000 82.0461
#
#
#
# Elastic Compliance Matrix: (Units=1/GPa)
#
#
# Indices 1 2 3 4 5 6 
#
# 1 0.010146 -0.001072 0.000327 0.000000 0.008969 0.000000
# 2 -0.001072 0.006031 0.001036 0.000000 -0.001420 0.000000
# 3 0.000327 0.001036 0.035316 0.000000 0.022900 0.000000
# 4 0.000000 0.000000 0.000000 0.057649 0.000000 -0.021054
# 5 0.008969 -0.001420 0.022900 0.000000 0.076141 0.000000
# 6 0.000000 0.000000 0.000000 -0.021054 0.000000 0.019877
#
#
# Mechanical properties :
#
#
# Convention : Reuss Voigt Hill
#
# Bulk Modulus (GPa) = 19.20285 39.23439 29.21862
# Shear Modulus (GPa) = 22.52894 46.10599 34.31746
#
# Velocity S-wave (km/s) = 3.03239 4.33804 3.74259
# Velocity P-wave (km/s) = 4.48312 6.41135 5.53190
#
# Compressibility (1/GPa) = 0.05207559
#
# Stress axis : x y z
#
# Youngs Moduli (GPa) = 98.55768 165.81108 28.31610
#
# Poissons Ratio (x) = 0.17771 -0.00926
# Poissons Ratio (y) = 0.10563 -0.02934
# Poissons Ratio (z) = -0.03222 -0.17180
#
# Static dielectric constant tensor:
#      x y z
#    x 5.048490 0.000000 0.052340 
#    y 0.000000 4.871060 0.000000 
#    z 0.052340 0.000000 4.022790 
# 
# 
# High freq. dielectric constant tensor:
#      x y z
#    x 1.991880 0.000000 -0.009780 
#    y 0.000000 1.969340 0.000000 
#    z -0.009780 0.000000 1.957680 
# 
# From -- ./inp_files/177402.got.cif
#   From: 2010.06.25/outbox.cif.g09.slc.cpg/sg12_89_cif.got.tgz:177402.got - 2010.06.28 00:19:55.
