data_PCOD8079290
_publ_section_title
;
Structure prediction by ZEFSAII (Michael W. Deem and Ramdas Pophale) SiO2 
 PCOD8079290
Probable space group: C 2/M
;
_chemical_formula_sum "Si O2"
_cell_formula_units_Z 40
_cell_length_a 18.207859
_cell_length_b 19.794390
_cell_length_c 8.071224
_cell_angle_alpha 90.000000
_cell_angle_beta 122.768192
_cell_angle_gamma 90.000000
_cell_volume 2446.064022
_symmetry_space_group_name_H-M "C 2/M"
_symmetry_group_IT_number 12
_symmetry_cell_setting 'monoclinic'
loop_
_space_group_symop_operation_xyz
x,y,z
-x,y,-z
-x,-y,-z
x,-y,z
1/2+x,1/2+y,z
1/2-x,1/2+y,-z
1/2-x,1/2-y,-z
1/2+x,1/2-y,z
loop_
_atom_site_type_symbol
_atom_site_label
_atom_site_fract_x
_atom_site_fract_y
_atom_site_fract_z
Si Si1 0.234577 0.693427 0.614533
Si Si2 0.889010 0.626787 0.758858
Si Si3 0.091731 0.293775 0.700706
Si Si4 0.410437 0.271451 0.949068
Si Si5 0.072612 0.423884 0.859721
O O1 0.250000 0.750000 0.500000
O O2 0.192171 0.627833 0.470163
O O3 0.169783 0.725139 0.672502
O O4 0.329100 0.678280 0.811686
O O5 0.908281 0.703261 0.837451
O O6 0.972378 0.596656 0.767417
O O7 0.871327 0.581919 0.900884
O O8 0.109497 0.372336 0.769154
O O9 0.000000 0.283585 0.500000
O O10 0.093066 0.245126 0.860806
O O11 0.500000 0.308512 0.000000
O O12 0.079366 0.500000 0.799880
#
# Coordination Sequence:
#
# PCOD8079290 Si02
#       5
#     8   8   8   8   8
#     4  10  19  29  44  65  87 128 164 189 231 276
#     4   9  15  30  44  63  95 122 155 190 223 280
#     4  11  18  30  44  65  98 125 156 195 226 278
#     4  10  17  30  46  64  91 125 160 193 231 270
#     4  10  18  29  47  67  96 130 155 183 232 280
#
# _framework density 16.352802000000001
#
# number of rings (size 3 to 8) (size 9 to 14) (size 15 to 20)
#    0.000    2.000    6.000    3.000    0.000    0.400 
#    0.000    0.000    0.000    0.000    0.000    0.000 
#    0.000    8.800    0.000    0.200    0.000    0.400 
#
# Total GULP energy -247814.780812 kJ/mol
# GULP energy per Si atom -12390.739041 kJ/mol
# Density = 1.631558 g / cm^3
# Si number density = 16.352802 Si / 1000 Ang^3
#
#
#
# Elastic Constant Matrix: (Units=GPa)
#
#
# Indices 1 2 3 4 5 6 
#
# 1 117.5259 16.0679 54.4487 0.0000 2.5743 0.0000
# 2 16.0679 36.3673 29.7403 0.0000 1.6752 0.0000
# 3 54.4487 29.7403 130.8603 0.0000 13.9211 0.0000
# 4 0.0000 0.0000 0.0000 13.8787 0.0000 2.2647
# 5 2.5743 1.6752 13.9211 0.0000 30.1375 0.0000
# 6 0.0000 0.0000 0.0000 2.2647 0.0000 9.3883
#
#
#
# Elastic Compliance Matrix: (Units=1/GPa)
#
#
# Indices 1 2 3 4 5 6 
#
# 1 0.010628 -0.001269 -0.004254 0.000000 0.001128 0.000000
# 2 -0.001269 0.034014 -0.007375 0.000000 0.001624 0.000000
# 3 -0.004254 -0.007375 0.011574 0.000000 -0.004573 0.000000
# 4 0.000000 0.000000 0.000000 0.075005 0.000000 -0.018093
# 5 0.001128 0.001624 -0.004573 0.000000 0.035107 0.000000
# 6 0.000000 0.000000 0.000000 -0.018093 0.000000 0.110880
#
#
# Mechanical properties :
#
#
# Convention : Reuss Voigt Hill
#
# Bulk Modulus (GPa) = 32.87213 53.91855 43.39534
# Shear Modulus (GPa) = 15.96703 22.98068 19.47386
#
# Velocity S-wave (km/s) = 3.12815 3.75281 3.45462
# Velocity P-wave (km/s) = 5.76130 7.19873 6.51975
#
# Compressibility (1/GPa) = 0.03042091
#
# Stress axis : x y z
#
# Youngs Moduli (GPa) = 94.08828 29.39937 86.39857
#
# Poissons Ratio (x) = 0.03731 0.36752
# Poissons Ratio (y) = 0.11941 0.63720
# Poissons Ratio (z) = 0.40023 0.21682
#
# Static dielectric constant tensor:
#      x y z
#    x 3.239420 0.000000 0.152550 
#    y 0.000000 2.740400 0.000000 
#    z 0.152550 0.000000 4.019290 
# 
# 
# High freq. dielectric constant tensor:
#      x y z
#    x 1.626010 0.000000 -0.013760 
#    y 0.000000 1.562250 0.000000 
#    z -0.013760 0.000000 1.647860 
# 
# From -- ./inp_files/62578.got.cif
#   From: 2010.06.25/outbox.cif.g09.slc.cpg/sg12_32_cif.got.tgz:62578.got - 2010.06.28 00:19:55.
