data_PCOD8079800
_publ_section_title
;
Structure prediction by ZEFSAII (Michael W. Deem and Ramdas Pophale) SiO2 
 PCOD8079800
Probable space group: C 2/M
;
_chemical_formula_sum "Si O2"
_cell_formula_units_Z 64
_cell_length_a 26.920158
_cell_length_b 9.372421
_cell_length_c 19.322069
_cell_angle_alpha 90.000000
_cell_angle_beta 59.405450
_cell_angle_gamma 90.000000
_cell_volume 4196.434592
_symmetry_space_group_name_H-M "C 2/M"
_symmetry_group_IT_number 12
_symmetry_cell_setting 'monoclinic'
loop_
_space_group_symop_operation_xyz
x,y,z
-x,y,-z
-x,-y,-z
x,-y,z
1/2+x,1/2+y,z
1/2-x,1/2+y,-z
1/2-x,1/2-y,-z
1/2+x,1/2-y,z
loop_
_atom_site_type_symbol
_atom_site_label
_atom_site_fract_x
_atom_site_fract_y
_atom_site_fract_z
Si Si1 0.666734 0.658893 0.089760
Si Si2 0.490096 0.332774 0.666526
Si Si3 0.660671 0.334730 0.937279
Si Si4 0.391131 0.168586 0.657824
Si Si5 0.965739 0.160391 0.832360
Si Si6 0.561800 0.342314 0.492435
Si Si7 0.451976 0.834867 0.976653
Si Si8 0.284549 0.834964 0.822418
O O1 0.689260 0.500000 0.088441
O O2 0.598730 0.669449 0.151129
O O3 0.700148 0.761338 0.116834
O O4 0.679296 0.703958 0.002110
O O5 0.473525 0.500000 0.668590
O O6 0.437112 0.237967 0.676983
O O7 0.503844 0.298795 0.737601
O O8 0.548656 0.297672 0.581529
O O9 0.641273 0.500000 0.946229
O O10 0.717394 0.302069 0.850083
O O11 0.606312 0.239188 0.953738
O O12 0.396610 0.230800 0.576001
O O13 0.326881 0.209377 0.729883
O O14 0.401609 0.000000 0.647933
O O15 0.975909 0.267345 0.888497
O O16 0.979728 0.000000 0.848610
O O17 0.500000 0.343805 0.500000
O O18 0.590060 0.500000 0.468694
O O19 0.438855 0.000000 0.972229
O O20 0.500000 0.811907 0.000000
O O21 0.291886 0.000000 0.833692
#
# Coordination Sequence:
#
# PCOD8079800 Si02
#       8
#     8   8   8   8   8   8   8   8
#     4   9  16  26  41  59  81 110 143 177 208 241
#     4   9  16  28  42  57  81 111 146 182 209 240
#     4   9  19  33  45  60  81 109 145 177 206 248
#     4  10  18  25  36  57  85 116 146 177 211 244
#     4   9  17  29  46  66  85 110 145 178 209 251
#     4   8  15  26  39  53  75 112 149 179 209 240
#     4  10  21  35  49  66  87 107 132 172 219 262
#     4  10  19  28  39  58  86 115 144 177 209 242
#
# _framework density 15.251042999999999
#
# number of rings (size 3 to 8) (size 9 to 14) (size 15 to 20)
#    0.000    2.750    1.250    2.625    0.000    6.750 
#    0.000    0.000    0.000    0.000    0.000    0.000 
#    0.000    1.000    0.000    2.250    0.000    4.000 
#
# Total GULP energy -396568.344789 kJ/mol
# GULP energy per Si atom -12392.760775 kJ/mol
# Density = 1.521633 g / cm^3
# Si number density = 15.251043 Si / 1000 Ang^3
#
#
#
# Elastic Constant Matrix: (Units=GPa)
#
#
# Indices 1 2 3 4 5 6 
#
# 1 48.4636 40.3111 41.7091 0.0002 -2.7150 0.0005
# 2 40.3111 82.3528 56.6567 0.0002 -5.0559 0.0005
# 3 41.7091 56.6567 112.3395 0.0001 -7.8645 0.0001
# 4 0.0002 0.0002 0.0001 21.1260 -0.0001 2.4020
# 5 -2.7150 -5.0559 -7.8645 -0.0001 12.6771 0.0000
# 6 0.0005 0.0005 0.0001 2.4020 0.0000 18.1457
#
#
#
# Elastic Compliance Matrix: (Units=1/GPa)
#
#
# Indices 1 2 3 4 5 6 
#
# 1 0.038403 -0.013803 -0.007429 0.000000 -0.001889 -0.000001
# 2 -0.013803 0.023590 -0.006608 0.000000 0.002353 0.000000
# 3 -0.007429 -0.006608 0.015364 0.000000 0.005305 0.000000
# 4 0.000000 0.000000 0.000000 0.048058 0.000000 -0.006362
# 5 -0.001889 0.002353 0.005305 0.000000 0.082707 0.000000
# 6 -0.000001 0.000000 0.000000 -0.006362 0.000000 0.055951
#
#
# Mechanical properties :
#
#
# Convention : Reuss Voigt Hill
#
# Bulk Modulus (GPa) = 46.13203 57.83441 51.98322
# Shear Modulus (GPa) = 15.29155 17.35503 16.32329
#
# Velocity S-wave (km/s) = 3.16991 3.37702 3.27510
# Velocity P-wave (km/s) = 6.61150 7.29449 6.96138
#
# Compressibility (1/GPa) = 0.02167691
#
# Stress axis : x y z
#
# Youngs Moduli (GPa) = 26.03978 42.39151 65.08852
#
# Poissons Ratio (x) = 0.58512 0.48355
# Poissons Ratio (y) = 0.35942 0.43008
# Poissons Ratio (z) = 0.19345 0.28011
#
# Static dielectric constant tensor:
#      x y z
#    x 2.469290 0.000000 -0.126790 
#    y 0.000000 2.977240 0.000000 
#    z -0.126790 0.000000 3.492680 
# 
# 
# High freq. dielectric constant tensor:
#      x y z
#    x 1.520400 0.000000 -0.006570 
#    y 0.000000 1.590200 0.000000 
#    z -0.006570 0.000000 1.595170 
# 
# From -- ./inp_files/323659.got.cif
#   From: 2010.06.25/outbox.cif.g09.slc.cpg/sg12_162_cif.got.tgz:323659.got - 2010.06.28 00:19:55.
