data_PCOD8079774
_publ_section_title
;
Structure prediction by ZEFSAII (Michael W. Deem and Ramdas Pophale) SiO2 
 PCOD8079774
Probable space group: C 2/M
;
_chemical_formula_sum "Si O2"
_cell_formula_units_Z 60
_cell_length_a 18.170835
_cell_length_b 20.619208
_cell_length_c 9.710069
_cell_angle_alpha 90.000000
_cell_angle_beta 119.853756
_cell_angle_gamma 90.000000
_cell_volume 3155.280159
_symmetry_space_group_name_H-M "C 2/M"
_symmetry_group_IT_number 12
_symmetry_cell_setting 'monoclinic'
loop_
_space_group_symop_operation_xyz
x,y,z
-x,y,-z
-x,-y,-z
x,-y,z
1/2+x,1/2+y,z
1/2-x,1/2+y,-z
1/2-x,1/2-y,-z
1/2+x,1/2-y,z
loop_
_atom_site_type_symbol
_atom_site_label
_atom_site_fract_x
_atom_site_fract_y
_atom_site_fract_z
Si Si1 0.839904 0.368134 0.300618
Si Si2 0.872818 0.197445 0.533538
Si Si3 0.646824 0.072866 0.388810
Si Si4 0.321484 0.073334 0.994857
Si Si5 0.500000 0.782790 0.500000
Si Si6 0.711327 0.274729 0.280940
Si Si7 0.690676 0.572447 0.647138
Si Si8 0.409663 0.164777 0.888527
O O1 0.847378 0.409918 0.445872
O O2 0.823343 0.416093 0.159113
O O3 0.926006 0.326057 0.361196
O O4 0.753011 0.326469 0.217036
O O5 0.958818 0.236749 0.579596
O O6 0.792588 0.242186 0.426409
O O7 0.857662 0.189329 0.683376
O O8 0.876471 0.128625 0.455482
O O9 0.739047 0.075041 0.406622
O O10 0.591876 0.128710 0.261959
O O11 0.608119 0.000000 0.338077
O O12 0.343361 0.000000 0.981786
O O13 0.231815 0.089539 0.834638
O O14 0.397239 0.112687 0.996673
O O15 0.661572 0.218893 0.154669
O O16 0.648934 0.500000 0.611014
O O17 0.500000 0.197728 0.000000
#
# Coordination Sequence:
#
# PCOD8079774 Si02
#       8
#     8   8   8   8   4   8   8   8
#     4  11  22  38  53  84 112 145 181 227 274 325
#     4  10  17  37  56  82 105 146 182 230 270 319
#     4  10  19  35  58  80 106 148 189 219 260 322
#     4  10  22  37  53  79 114 147 180 224 271 320
#     4  10  24  32  54  80 116 140 180 228 274 316
#     4  10  19  35  59  74 108 149 185 220 271 326
#     4   9  17  35  61  83 103 141 191 227 264 322
#     4  11  22  36  55  81 110 147 189 222 262 325
#
# _framework density 19.015743000000001
#
# number of rings (size 3 to 8) (size 9 to 14) (size 15 to 20)
#    0.000    1.867    4.000    3.200    3.733    1.600 
#    0.000    1.000    0.000    0.000    0.000    0.000 
#    0.000    3.733    0.000    0.000    0.000    0.000 
#
# Total GULP energy -371712.313250 kJ/mol
# GULP energy per Si atom -12390.410442 kJ/mol
# Density = 1.897246 g / cm^3
# Si number density = 19.015743 Si / 1000 Ang^3
#
#
#
# Elastic Constant Matrix: (Units=GPa)
#
#
# Indices 1 2 3 4 5 6 
#
# 1 69.7829 25.5835 26.4300 0.0000 5.0905 0.0000
# 2 25.5835 66.1162 25.5124 0.0000 9.3795 0.0000
# 3 26.4300 25.5124 75.7535 0.0000 -16.4248 0.0000
# 4 0.0000 0.0000 0.0000 19.4276 0.0000 -7.8000
# 5 5.0905 9.3795 -16.4248 0.0000 24.2423 0.0000
# 6 0.0000 0.0000 0.0000 -7.8000 0.0000 20.3094
#
#
#
# Elastic Compliance Matrix: (Units=1/GPa)
#
#
# Indices 1 2 3 4 5 6 
#
# 1 0.018792 -0.003568 -0.006929 0.000000 -0.007260 0.000000
# 2 -0.003568 0.022057 -0.009227 0.000000 -0.014036 0.000000
# 3 -0.006929 -0.009227 0.023227 0.000000 0.020762 0.000000
# 4 0.000000 0.000000 0.000000 0.060857 0.000000 0.023373
# 5 -0.007260 -0.014036 0.020762 0.000000 0.062273 0.000000
# 6 0.000000 0.000000 0.000000 0.023373 0.000000 0.058215
#
#
# Mechanical properties :
#
#
# Convention : Reuss Voigt Hill
#
# Bulk Modulus (GPa) = 40.60287 40.74493 40.67390
# Shear Modulus (GPa) = 17.06026 21.73763 19.39895
#
# Velocity S-wave (km/s) = 2.99852 3.38470 3.19745
# Velocity P-wave (km/s) = 5.77813 6.06205 5.92179
#
# Compressibility (1/GPa) = 0.02462880
#
# Stress axis : x y z
#
# Youngs Moduli (GPa) = 53.21373 45.33672 43.05266
#
# Poissons Ratio (x) = 0.16176 0.29831
# Poissons Ratio (y) = 0.18986 0.39725
# Poissons Ratio (z) = 0.36872 0.41832
#
# Static dielectric constant tensor:
#      x y z
#    x 3.460100 0.000000 -0.198960 
#    y 0.000000 3.678820 0.000000 
#    z -0.198960 0.000000 3.317050 
# 
# 
# High freq. dielectric constant tensor:
#      x y z
#    x 1.716560 0.000000 -0.017570 
#    y 0.000000 1.744590 0.000000 
#    z -0.017570 0.000000 1.715010 
# 
# From -- ./inp_files/79136.got.cif
#   From: 2010.06.25/outbox.cif.g09.slc.cpg/sg12_40_cif.got.tgz:79136.got - 2010.06.28 00:19:55.
