data_PCOD8079961
_publ_section_title
;
Structure prediction by ZEFSAII (Michael W. Deem and Ramdas Pophale) SiO2 
 PCOD8079961
Probable space group: C 2/M
;
_chemical_formula_sum "Si O2"
_cell_formula_units_Z 64
_cell_length_a 24.012200
_cell_length_b 8.911961
_cell_length_c 23.870096
_cell_angle_alpha 90.000000
_cell_angle_beta 50.085762
_cell_angle_gamma 90.000000
_cell_volume 3917.941996
_symmetry_space_group_name_H-M "C 2/M"
_symmetry_group_IT_number 12
_symmetry_cell_setting 'monoclinic'
loop_
_space_group_symop_operation_xyz
x,y,z
-x,y,-z
-x,-y,-z
x,-y,z
1/2+x,1/2+y,z
1/2-x,1/2+y,-z
1/2-x,1/2-y,-z
1/2+x,1/2-y,z
loop_
_atom_site_type_symbol
_atom_site_label
_atom_site_fract_x
_atom_site_fract_y
_atom_site_fract_z
Si Si1 0.953762 0.667656 0.973298
Si Si2 0.712310 0.176305 0.264011
Si Si3 0.697470 0.178307 0.696576
Si Si4 0.425254 0.672216 0.617911
Si Si5 0.087912 0.826716 0.504239
Si Si6 0.836580 0.165859 0.107854
Si Si7 0.271677 0.178065 0.544212
Si Si8 0.572761 0.331980 0.837029
O O1 0.946922 0.500000 0.954811
O O2 0.992746 0.764703 0.899904
O O3 0.872323 0.726733 0.038334
O O4 0.000000 0.674331 0.000000
O O5 0.744641 0.269751 0.294650
O O6 0.628307 0.223061 0.310874
O O7 0.755426 0.216838 0.178608
O O8 0.720703 0.000000 0.271774
O O9 0.718190 0.252371 0.624646
O O10 0.616013 0.230468 0.764603
O O11 0.700052 0.000000 0.689911
O O12 0.406996 0.500000 0.642675
O O13 0.412911 0.708086 0.560886
O O14 0.508282 0.707680 0.581112
O O15 0.144738 0.718124 0.497298
O O16 0.109435 0.000000 0.500759
O O17 0.883606 0.165988 0.133621
O O18 0.835230 0.000000 0.082365
O O19 0.250000 0.250000 0.500000
O O20 0.262301 0.000000 0.548689
O O21 0.564251 0.500000 0.818573
#
# Coordination Sequence:
#
# PCOD8079961 Si02
#       8
#     8   8   8   8   8   8   8   8
#     4   9  15  22  33  51  73 102 141 178 212 254
#     4  10  18  27  41  63  88 115 149 185 222 263
#     4  11  20  31  45  62  85 111 145 186 224 266
#     4   9  17  29  48  68  92 119 146 183 228 269
#     4   9  18  33  49  69  91 116 147 184 227 272
#     4   8  15  24  33  49  77 110 141 176 214 254
#     4  12  24  37  52  69  89 117 150 188 231 275
#     4   9  16  26  39  54  75 105 140 178 218 258
#
# _framework density 16.335107000000001
#
# number of rings (size 3 to 8) (size 9 to 14) (size 15 to 20)
#    0.000    2.375    1.250    4.875    0.000    5.500 
#    0.000    1.250    0.000    0.000    0.000    0.000 
#    0.000    0.000    0.000    1.125    0.000   15.375 
#
# Total GULP energy -396687.685228 kJ/mol
# GULP energy per Si atom -12396.490163 kJ/mol
# Density = 1.629793 g / cm^3
# Si number density = 16.335107 Si / 1000 Ang^3
#
#
#
# Elastic Constant Matrix: (Units=GPa)
#
#
# Indices 1 2 3 4 5 6 
#
# 1 37.7256 30.6320 35.7321 0.0001 -6.7955 0.0019
# 2 30.6320 126.3520 63.3462 -0.0002 -13.1693 0.0025
# 3 35.7321 63.3462 125.4404 0.0006 -32.3894 -0.0001
# 4 0.0001 -0.0002 0.0006 32.5679 -0.0004 -6.6645
# 5 -6.7955 -13.1693 -32.3894 -0.0004 20.3898 -0.0004
# 6 0.0019 0.0025 -0.0001 -6.6645 -0.0004 17.7601
#
#
#
# Elastic Compliance Matrix: (Units=1/GPa)
#
#
# Indices 1 2 3 4 5 6 
#
# 1 0.039169 -0.005002 -0.010333 -0.000001 -0.006591 -0.000004
# 2 -0.005002 0.011332 -0.004812 0.000000 -0.001992 -0.000001
# 3 -0.010333 -0.004812 0.019757 0.000000 0.024833 0.000003
# 4 -0.000001 0.000000 0.000000 0.033259 0.000001 0.012481
# 5 -0.006591 -0.001992 0.024833 0.000001 0.085009 0.000004
# 6 -0.000004 -0.000001 0.000003 0.012481 0.000004 0.060989
#
#
# Mechanical properties :
#
#
# Convention : Reuss Voigt Hill
#
# Bulk Modulus (GPa) = 33.37404 60.99319 47.18361
# Shear Modulus (GPa) = 16.67794 24.79741 20.73768
#
# Velocity S-wave (km/s) = 3.19876 3.90044 3.56689
# Velocity P-wave (km/s) = 5.84106 7.59633 6.77577
#
# Compressibility (1/GPa) = 0.02996341
#
# Stress axis : x y z
#
# Youngs Moduli (GPa) = 25.53058 88.24586 50.61426
#
# Poissons Ratio (x) = 0.44144 0.52300
# Poissons Ratio (y) = 0.12771 0.24355
# Poissons Ratio (z) = 0.26381 0.42463
#
# Static dielectric constant tensor:
#      x y z
#    x 2.681420 0.000000 -0.371860 
#    y 0.000000 3.192620 0.000000 
#    z -0.371860 0.000000 3.361330 
# 
# 
# High freq. dielectric constant tensor:
#      x y z
#    x 1.553840 0.000000 -0.037740 
#    y 0.000000 1.640820 0.000000 
#    z -0.037740 0.000000 1.636950 
# 
# From -- ./inp_files/348534.got.cif
#   From: 2010.06.25/outbox.cif.g09.slc.cpg/sg12_175_cif.got.tgz:348534.got - 2010.06.28 00:19:55.
