data_PCOD8079036
_publ_section_title
;
Structure prediction by ZEFSAII (Michael W. Deem and Ramdas Pophale) SiO2 
 PCOD8079036
Probable space group: C 2/M
;
_chemical_formula_sum "Si O2"
_cell_formula_units_Z 64
_cell_length_a 19.242289
_cell_length_b 8.827756
_cell_length_c 20.431053
_cell_angle_alpha 90.000000
_cell_angle_beta 95.360788
_cell_angle_gamma 90.000000
_cell_volume 3455.366300
_symmetry_space_group_name_H-M "C 2/M"
_symmetry_group_IT_number 12
_symmetry_cell_setting 'monoclinic'
loop_
_space_group_symop_operation_xyz
x,y,z
-x,y,-z
-x,-y,-z
x,-y,z
1/2+x,1/2+y,z
1/2-x,1/2+y,-z
1/2-x,1/2-y,-z
1/2+x,1/2-y,z
loop_
_atom_site_type_symbol
_atom_site_label
_atom_site_fract_x
_atom_site_fract_y
_atom_site_fract_z
Si Si1 0.923433 0.323853 0.681954
Si Si2 0.975628 0.322732 0.426813
Si Si3 0.359781 0.677272 0.337549
Si Si4 0.771681 0.179188 0.854400
Si Si5 0.961651 0.174419 0.231356
Si Si6 0.868181 0.177091 0.105310
Si Si7 0.216300 0.822394 0.293933
Si Si8 0.178011 0.319457 0.019940
O O1 0.907847 0.500000 0.686715
O O2 0.850667 0.236657 0.673181
O O3 0.963718 0.281085 0.619102
O O4 0.969851 0.273199 0.748387
O O5 0.958975 0.500000 0.424224
O O6 0.904663 0.235602 0.402932
O O7 0.000000 0.267378 0.500000
O O8 0.349196 0.500000 0.342658
O O9 0.398651 0.723328 0.273759
O O10 0.284417 0.752650 0.332910
O O11 0.695635 0.244434 0.863015
O O12 0.791186 0.224786 0.782559
O O13 0.830253 0.256311 0.906882
O O14 0.771300 0.000000 0.865758
O O15 0.937633 0.202170 0.154579
O O16 0.981383 0.000000 0.245381
O O17 0.850926 0.000000 0.095479
O O18 0.880844 0.254689 0.035137
O O19 0.221847 0.000000 0.302251
O O20 0.178057 0.500000 0.019190
O O21 0.250000 0.250000 0.000000
#
# Coordination Sequence:
#
# PCOD8079036 Si02
#       8
#     8   8   8   8   8   8   8   8
#     4  10  21  35  55  80 107 139 174 214 259 311
#     4   9  19  38  61  84 111 142 175 211 255 307
#     4  10  19  33  55  83 110 137 177 219 258 307
#     4  10  19  30  46  69  98 135 174 214 263 314
#     4   9  18  32  51  75 104 137 172 217 266 312
#     4  10  17  28  47  71 100 133 171 217 265 312
#     4  11  22  35  53  77 109 143 176 218 265 314
#     4  10  18  27  41  65  98 133 170 217 265 311
#
# _framework density 18.521915
#
# number of rings (size 3 to 8) (size 9 to 14) (size 15 to 20)
#    0.000    2.125    1.250    4.500    0.000    3.750 
#    0.000    0.625    0.000    0.750    0.000    5.250 
#    0.000    0.000    0.000    0.000    0.000    0.000 
#
# Total GULP energy -396800.052351 kJ/mol
# GULP energy per Si atom -12400.001636 kJ/mol
# Density = 1.847976 g / cm^3
# Si number density = 18.521915 Si / 1000 Ang^3
#
#
#
# Elastic Constant Matrix: (Units=GPa)
#
#
# Indices 1 2 3 4 5 6 
#
# 1 101.3728 40.6998 51.7341 0.0000 17.0767 0.0000
# 2 40.6998 86.9545 55.0232 0.0000 10.9286 0.0000
# 3 51.7341 55.0232 122.0922 0.0000 26.1472 0.0000
# 4 0.0000 0.0000 0.0000 27.9305 0.0000 6.2926
# 5 17.0767 10.9286 26.1472 0.0000 21.2549 0.0000
# 6 0.0000 0.0000 0.0000 6.2926 0.0000 30.4125
#
#
#
# Elastic Compliance Matrix: (Units=1/GPa)
#
#
# Indices 1 2 3 4 5 6 
#
# 1 0.013869 -0.003955 -0.002910 0.000000 -0.005529 0.000000
# 2 -0.003955 0.017228 -0.006614 0.000000 0.002456 0.000000
# 3 -0.002910 -0.006614 0.015173 0.000000 -0.012926 0.000000
# 4 0.000000 0.000000 0.000000 0.037554 0.000000 -0.007770
# 5 -0.005529 0.002456 -0.012926 0.000000 0.066129 0.000000
# 6 0.000000 0.000000 0.000000 -0.007770 0.000000 0.034489
#
#
# Mechanical properties :
#
#
# Convention : Reuss Voigt Hill
#
# Bulk Modulus (GPa) = 51.78447 67.25932 59.52190
# Shear Modulus (GPa) = 22.95288 26.78376 24.86832
#
# Velocity S-wave (km/s) = 3.52409 3.80683 3.66818
# Velocity P-wave (km/s) = 6.67668 7.46424 7.08142
#
# Compressibility (1/GPa) = 0.01931081
#
# Stress axis : x y z
#
# Youngs Moduli (GPa) = 72.10289 58.04419 65.90741
#
# Poissons Ratio (x) = 0.22957 0.19180
# Poissons Ratio (y) = 0.28518 0.43594
# Poissons Ratio (z) = 0.20983 0.38393
#
# Static dielectric constant tensor:
#      x y z
#    x 3.112050 0.000000 0.201050 
#    y 0.000000 3.448170 0.000000 
#    z 0.201050 0.000000 3.807240 
# 
# 
# High freq. dielectric constant tensor:
#      x y z
#    x 1.685090 0.000000 0.021260 
#    y 0.000000 1.730840 0.000000 
#    z 0.021260 0.000000 1.718200 
# 
# From -- ./inp_files/319242.got.cif
#   From: 2010.06.25/outbox.cif.g09.slc.cpg/sg12_160_cif.got.tgz:319242.got - 2010.06.28 00:19:55.
