data_PCOD8079047
_publ_section_title
;
Structure prediction by ZEFSAII (Michael W. Deem and Ramdas Pophale) SiO2 
 PCOD8079047
Probable space group: C 2/M
;
_chemical_formula_sum "Si O2"
_cell_formula_units_Z 56
_cell_length_a 26.744292
_cell_length_b 9.107684
_cell_length_c 14.035180
_cell_angle_alpha 90.000000
_cell_angle_beta 58.356764
_cell_angle_gamma 90.000000
_cell_volume 2910.419825
_symmetry_space_group_name_H-M "C 2/M"
_symmetry_group_IT_number 12
_symmetry_cell_setting 'monoclinic'
loop_
_space_group_symop_operation_xyz
x,y,z
-x,y,-z
-x,-y,-z
x,-y,z
1/2+x,1/2+y,z
1/2-x,1/2+y,-z
1/2-x,1/2-y,-z
1/2+x,1/2-y,z
loop_
_atom_site_type_symbol
_atom_site_label
_atom_site_fract_x
_atom_site_fract_y
_atom_site_fract_z
Si Si1 0.285503 0.332964 0.741681
Si Si2 0.990379 0.166327 0.776445
Si Si3 0.415379 0.668438 0.040929
Si Si4 0.277129 0.825338 0.381746
Si Si5 0.625352 0.325702 0.203467
Si Si6 0.321804 0.168428 0.024846
Si Si7 0.086728 0.327371 0.771127
O O1 0.290996 0.500000 0.704678
O O2 0.258259 0.256967 0.674589
O O3 0.349951 0.278780 0.715793
O O4 0.245486 0.317209 0.875897
O O5 0.943078 0.219319 0.743159
O O6 0.048064 0.270156 0.719233
O O7 0.010458 0.000000 0.735441
O O8 0.959561 0.179445 0.909312
O O9 0.400675 0.500000 0.079153
O O10 0.356663 0.757097 0.076293
O O11 0.441167 0.744699 0.109626
O O12 0.250000 0.750000 0.500000
O O13 0.345560 0.781789 0.308682
O O14 0.271063 0.000000 0.395283
O O15 0.631425 0.500000 0.180893
O O16 0.667187 0.249592 0.084677
O O17 0.341788 0.000000 0.995269
O O18 0.078535 0.500000 0.790702
#
# Coordination Sequence:
#
# PCOD8079047 Si02
#       7
#     8   8   8   8   8   8   8
#     4   9  17  33  54  73 103 138 171 216 266 307
#     4   9  19  32  47  74 108 140 177 209 243 303
#     4  10  19  31  48  73 107 143 180 215 251 304
#     4  10  22  40  58  80 103 129 172 223 273 318
#     4   9  18  32  50  74 106 144 176 208 249 305
#     4  10  17  28  47  74 109 142 174 213 255 307
#     4  11  21  34  53  75 103 136 172 216 267 314
#
# _framework density 19.241209000000001
#
# number of rings (size 3 to 8) (size 9 to 14) (size 15 to 20)
#    0.000    2.286    1.429    3.000    0.000    5.714 
#    0.000    1.429    0.000    0.857    0.000    6.000 
#    0.000    0.000    0.000    0.000    0.000    0.000 
#
# Total GULP energy -346918.243666 kJ/mol
# GULP energy per Si atom -12389.937274 kJ/mol
# Density = 1.919742 g / cm^3
# Si number density = 19.241209 Si / 1000 Ang^3
#
#
#
# Elastic Constant Matrix: (Units=GPa)
#
#
# Indices 1 2 3 4 5 6 
#
# 1 192.5025 49.5224 42.1947 0.0000 14.3349 0.0000
# 2 49.5224 64.1107 16.8380 0.0000 1.0242 0.0000
# 3 42.1947 16.8380 41.2773 0.0000 8.8489 0.0000
# 4 0.0000 0.0000 0.0000 21.5853 0.0000 -3.2208
# 5 14.3349 1.0242 8.8489 0.0000 15.6408 0.0000
# 6 0.0000 0.0000 0.0000 -3.2208 0.0000 27.4051
#
#
#
# Elastic Compliance Matrix: (Units=1/GPa)
#
#
# Indices 1 2 3 4 5 6 
#
# 1 0.007825 -0.004592 -0.005295 0.000000 -0.003875 0.000000
# 2 -0.004592 0.020314 -0.004791 0.000000 0.005589 0.000000
# 3 -0.005295 -0.004791 0.034694 0.000000 -0.014461 0.000000
# 4 0.000000 0.000000 0.000000 0.047155 0.000000 0.005542
# 5 -0.003875 0.005589 -0.014461 0.000000 0.075303 0.000000
# 6 0.000000 0.000000 0.000000 0.005542 0.000000 0.037141
#
#
# Mechanical properties :
#
#
# Convention : Reuss Voigt Hill
#
# Bulk Modulus (GPa) = 29.87094 57.22228 43.54661
# Shear Modulus (GPa) = 19.01527 25.54859 22.28193
#
# Velocity S-wave (km/s) = 3.14707 3.64786 3.40668
# Velocity P-wave (km/s) = 5.36316 6.89540 6.17698
#
# Compressibility (1/GPa) = 0.03347736
#
# Stress axis : x y z
#
# Youngs Moduli (GPa) = 127.79023 49.22700 28.82365
#
# Poissons Ratio (x) = 0.22605 0.15263
# Poissons Ratio (y) = 0.58682 0.13808
# Poissons Ratio (z) = 0.67668 0.23583
#
# Static dielectric constant tensor:
#      x y z
#    x 4.441710 0.000000 0.138520 
#    y 0.000000 3.399690 0.000000 
#    z 0.138520 0.000000 3.006050 
# 
# 
# High freq. dielectric constant tensor:
#      x y z
#    x 1.778740 0.000000 0.005840 
#    y 0.000000 1.733200 0.000000 
#    z 0.005840 0.000000 1.689630 
# 
# From -- ./inp_files/243650.got.cif
#   From: 2010.06.25/outbox.cif.g09.slc.cpg/sg12_122_cif.got.tgz:243650.got - 2010.06.28 00:19:55.
