data_PCOD8079478
_publ_section_title
;
Structure prediction by ZEFSAII (Michael W. Deem and Ramdas Pophale) SiO2 
 PCOD8079478
Probable space group: C 2/M
;
_chemical_formula_sum "Si O2"
_cell_formula_units_Z 64
_cell_length_a 20.139080
_cell_length_b 9.189368
_cell_length_c 25.539078
_cell_angle_alpha 90.000000
_cell_angle_beta 128.961279
_cell_angle_gamma 90.000000
_cell_volume 3675.112072
_symmetry_space_group_name_H-M "C 2/M"
_symmetry_group_IT_number 12
_symmetry_cell_setting 'monoclinic'
loop_
_space_group_symop_operation_xyz
x,y,z
-x,y,-z
-x,-y,-z
x,-y,z
1/2+x,1/2+y,z
1/2-x,1/2+y,-z
1/2-x,1/2-y,-z
1/2+x,1/2-y,z
loop_
_atom_site_type_symbol
_atom_site_label
_atom_site_fract_x
_atom_site_fract_y
_atom_site_fract_z
Si Si1 0.748589 0.168328 0.825617
Si Si2 0.803917 0.669385 0.680142
Si Si3 0.037649 0.326937 0.173951
Si Si4 0.583509 0.168922 0.798160
Si Si5 0.316835 0.829076 0.569497
Si Si6 0.942335 0.830066 0.923559
Si Si7 0.337759 0.330006 0.311144
Si Si8 0.490301 0.829680 0.347050
O O1 0.685028 0.201009 0.843251
O O2 0.844450 0.205574 0.890227
O O3 0.722433 0.266905 0.763985
O O4 0.738907 0.000000 0.803724
O O5 0.823897 0.500000 0.684664
O O6 0.877335 0.732574 0.754678
O O7 0.808656 0.736340 0.624220
O O8 0.710404 0.699665 0.657859
O O9 0.039584 0.500000 0.166994
O O10 0.028671 0.254804 0.113279
O O11 0.956560 0.269340 0.168055
O O12 0.535094 0.231349 0.722964
O O13 0.562260 0.000000 0.788586
O O14 0.250000 0.750000 0.500000
O O15 0.410877 0.795743 0.593315
O O16 0.297244 0.000000 0.559389
O O17 0.955998 0.000000 0.919811
O O18 0.000000 0.774756 0.000000
O O19 0.350057 0.500000 0.306971
O O20 0.430530 0.253504 0.359438
O O21 0.470134 0.000000 0.341805
#
# Coordination Sequence:
#
# PCOD8079478 Si02
#       8
#     8   8   8   8   8   8   8   8
#     4   9  17  31  50  71  97 133 170 200 243 303
#     4   9  17  31  52  76 101 130 165 209 254 296
#     4  10  17  31  54  76  96 124 170 215 247 290
#     4   8  14  27  51  75  92 121 167 208 242 289
#     4  10  20  36  55  75 103 138 173 207 249 300
#     4  10  21  35  49  70 105 141 166 199 253 307
#     4  10  18  29  50  78 102 124 160 212 256 291
#     4   9  17  32  52  73 101 136 167 199 248 305
#
# _framework density 17.414434
#
# number of rings (size 3 to 8) (size 9 to 14) (size 15 to 20)
#    0.000    2.625    2.500    1.125    0.000    0.750 
#    0.000    5.625    0.000    3.750    0.000    0.000 
#    0.000    0.000    0.000    0.000    0.000    0.000 
#
# Total GULP energy -396647.011097 kJ/mol
# GULP energy per Si atom -12395.219097 kJ/mol
# Density = 1.737480 g / cm^3
# Si number density = 17.414434 Si / 1000 Ang^3
#
#
#
# Elastic Constant Matrix: (Units=GPa)
#
#
# Indices 1 2 3 4 5 6 
#
# 1 137.4947 42.8480 53.7955 0.0000 6.1252 0.0000
# 2 42.8480 44.8928 30.3736 0.0000 2.8986 0.0000
# 3 53.7955 30.3736 94.8900 0.0000 4.0198 0.0000
# 4 0.0000 0.0000 0.0000 24.3189 0.0000 -0.2494
# 5 6.1252 2.8986 4.0198 0.0000 27.3523 0.0000
# 6 0.0000 0.0000 0.0000 -0.2494 0.0000 24.9325
#
#
#
# Elastic Compliance Matrix: (Units=1/GPa)
#
#
# Indices 1 2 3 4 5 6 
#
# 1 0.011356 -0.008224 -0.003758 0.000000 -0.001119 0.000000
# 2 -0.008224 0.034466 -0.006333 0.000000 -0.000880 0.000000
# 3 -0.003758 -0.006333 0.014724 0.000000 -0.000651 0.000000
# 4 0.000000 0.000000 0.000000 0.041125 0.000000 0.000411
# 5 -0.001119 -0.000880 -0.000651 0.000000 0.037000 0.000000
# 6 0.000000 0.000000 0.000000 0.000411 0.000000 0.040112
#
#
# Mechanical properties :
#
#
# Convention : Reuss Voigt Hill
#
# Bulk Modulus (GPa) = 41.81257 59.03462 50.42360
# Shear Modulus (GPa) = 22.38295 25.33808 23.86051
#
# Velocity S-wave (km/s) = 3.58901 3.81859 3.70558
# Velocity P-wave (km/s) = 6.42161 7.30860 6.87941
#
# Compressibility (1/GPa) = 0.02391625
#
# Stress axis : x y z
#
# Youngs Moduli (GPa) = 88.05808 29.01417 67.91714
#
# Poissons Ratio (x) = 0.23861 0.25525
# Poissons Ratio (y) = 0.72418 0.43010
# Poissons Ratio (z) = 0.33095 0.18374
#
# Static dielectric constant tensor:
#      x y z
#    x 3.616920 0.000000 0.041070 
#    y 0.000000 2.984220 0.000000 
#    z 0.041070 0.000000 3.045280 
# 
# 
# High freq. dielectric constant tensor:
#      x y z
#    x 1.693720 0.000000 0.006810 
#    y 0.000000 1.645010 0.000000 
#    z 0.006810 0.000000 1.642700 
# 
# From -- ./inp_files/346227.got.cif
#   From: 2010.06.25/outbox.cif.g09.slc.cpg/sg12_174_cif.got.tgz:346227.got - 2010.06.28 00:19:55.
