data_PCOD8079325
_publ_section_title
;
Structure prediction by ZEFSAII (Michael W. Deem and Ramdas Pophale) SiO2 
 PCOD8079325
Probable space group: C 2/M
;
_chemical_formula_sum "Si O2"
_cell_formula_units_Z 56
_cell_length_a 16.385916
_cell_length_b 19.563603
_cell_length_c 28.245449
_cell_angle_alpha 90.000000
_cell_angle_beta 158.457180
_cell_angle_gamma 90.000000
_cell_volume 3324.807824
_symmetry_space_group_name_H-M "C 2/M"
_symmetry_group_IT_number 12
_symmetry_cell_setting 'monoclinic'
loop_
_space_group_symop_operation_xyz
x,y,z
-x,y,-z
-x,-y,-z
x,-y,z
1/2+x,1/2+y,z
1/2-x,1/2+y,-z
1/2-x,1/2-y,-z
1/2+x,1/2-y,z
loop_
_atom_site_type_symbol
_atom_site_label
_atom_site_fract_x
_atom_site_fract_y
_atom_site_fract_z
Si Si1 0.593125 0.577131 0.340431
Si Si2 0.683749 0.170206 0.139427
Si Si3 0.985386 0.419086 0.372949
Si Si4 0.822561 0.658927 0.009639
Si Si5 0.717040 0.819546 0.806844
Si Si6 0.793781 0.811714 0.953654
Si Si7 0.886057 0.922684 0.753446
O O1 0.518157 0.500000 0.309964
O O2 0.371202 0.621081 0.221292
O O3 0.707182 0.582962 0.350312
O O4 0.773224 0.599902 0.476368
O O5 0.802485 0.240546 0.220538
O O6 0.500000 0.189407 0.000000
O O7 0.554574 0.131238 0.112746
O O8 0.967439 0.500000 0.351133
O O9 0.955451 0.371561 0.310648
O O10 0.801927 0.396054 0.312330
O O11 0.812048 0.735166 0.982920
O O12 0.607665 0.620940 0.875107
O O13 0.832795 0.649383 0.072051
O O14 0.660820 0.820003 0.832789
O O15 0.964171 0.844584 0.925811
O O16 0.949326 0.000000 0.800592
#
# Coordination Sequence:
#
# PCOD8079325 Si02
#       7
#     8   8   8   8   8   8   8
#     4  10  21  35  51  73 105 141 171 206 253 304
#     4  11  19  32  52  79 104 132 167 207 256 306
#     4  10  21  35  51  73 104 140 174 210 252 298
#     4  10  17  30  49  75 105 130 160 201 261 302
#     4  10  17  33  53  76 102 130 174 211 254 298
#     4   9  17  29  51  74  99 136 160 209 256 298
#     4  10  18  30  50  75 102 132 167 207 255 307
#
# _framework density 16.843078999999999
#
# number of rings (size 3 to 8) (size 9 to 14) (size 15 to 20)
#    0.000    2.000    5.714    0.429    0.000    3.143 
#    0.000    2.143    0.000    0.857    0.000    2.000 
#    0.000    0.000    0.000    0.000    0.000    0.000 
#
# Total GULP energy -346944.535881 kJ/mol
# GULP energy per Si atom -12390.876281 kJ/mol
# Density = 1.680474 g / cm^3
# Si number density = 16.843079 Si / 1000 Ang^3
#
#
#
# Elastic Constant Matrix: (Units=GPa)
#
#
# Indices 1 2 3 4 5 6 
#
# 1 115.3200 20.3541 29.6810 0.0045 -10.9765 -0.0036
# 2 20.3541 49.2208 38.4969 0.0788 -5.8434 0.0614
# 3 29.6810 38.4969 69.4291 0.1612 -9.3023 0.1112
# 4 0.0045 0.0788 0.1612 39.4947 -0.0050 10.2357
# 5 -10.9765 -5.8434 -9.3023 -0.0050 22.9772 -0.0060
# 6 -0.0036 0.0614 0.1112 10.2357 -0.0060 34.5780
#
#
#
# Elastic Compliance Matrix: (Units=1/GPa)
#
#
# Indices 1 2 3 4 5 6 
#
# 1 0.010011 -0.001321 -0.003121 0.000012 0.003183 0.000010
# 2 -0.001321 0.036076 -0.019343 0.000008 0.000712 -0.000004
# 3 -0.003121 -0.019343 0.027073 -0.000062 0.004550 -0.000034
# 4 0.000012 0.000008 -0.000062 0.027424 -0.000014 -0.008118
# 5 0.003183 0.000712 0.004550 -0.000014 0.047065 -0.000003
# 6 0.000010 -0.000004 -0.000034 -0.008118 -0.000003 0.031323
#
#
# Mechanical properties :
#
#
# Convention : Reuss Voigt Hill
#
# Bulk Modulus (GPa) = 39.07845 45.67041 42.37443
# Shear Modulus (GPa) = 21.27004 29.10587 25.18795
#
# Velocity S-wave (km/s) = 3.55749 4.16151 3.87130
# Velocity P-wave (km/s) = 6.33453 7.08978 6.72277
#
# Compressibility (1/GPa) = 0.02558955
#
# Stress axis : x y z
#
# Youngs Moduli (GPa) = 99.89152 27.71891 36.93777
#
# Poissons Ratio (x) = 0.03662 0.11527
# Poissons Ratio (y) = 0.13197 0.71450
# Poissons Ratio (z) = 0.31173 0.53618
#
# Static dielectric constant tensor:
#      x y z
#    x 3.708400 -0.000010 0.025630 
#    y -0.000010 2.976450 -0.000070 
#    z 0.025630 -0.000070 2.918160 
# 
# 
# High freq. dielectric constant tensor:
#      x y z
#    x 1.660210 0.000000 -0.001200 
#    y 0.000000 1.631920 -0.000010 
#    z -0.001200 -0.000010 1.620440 
# 
# From -- ./inp_files/169405.got.cif
#   From: 2010.06.25/outbox.cif.g09.slc.cpg/sg12_85_cif.got.tgz:169405.got - 2010.06.28 00:19:55.
