data_PCOD8079245
_publ_section_title
;
Structure prediction by ZEFSAII (Michael W. Deem and Ramdas Pophale) SiO2 
 PCOD8079245
Probable space group: C 2/M
;
_chemical_formula_sum "Si O2"
_cell_formula_units_Z 56
_cell_length_a 28.645469
_cell_length_b 8.753262
_cell_length_c 14.407801
_cell_angle_alpha 90.000000
_cell_angle_beta 119.421817
_cell_angle_gamma 90.000000
_cell_volume 3146.698226
_symmetry_space_group_name_H-M "C 2/M"
_symmetry_group_IT_number 12
_symmetry_cell_setting 'monoclinic'
loop_
_space_group_symop_operation_xyz
x,y,z
-x,y,-z
-x,-y,-z
x,-y,z
1/2+x,1/2+y,z
1/2-x,1/2+y,-z
1/2-x,1/2-y,-z
1/2+x,1/2-y,z
loop_
_atom_site_type_symbol
_atom_site_label
_atom_site_fract_x
_atom_site_fract_y
_atom_site_fract_z
Si Si1 0.448118 0.182340 0.505463
Si Si2 0.649242 0.678153 0.063374
Si Si3 0.911072 0.329031 0.149711
Si Si4 0.057435 0.320129 0.097189
Si Si5 0.856207 0.671068 0.286169
Si Si6 0.246678 0.820773 0.893973
Si Si7 0.529400 0.819606 0.270057
O O1 0.500000 0.246508 0.500000
O O2 0.391422 0.236908 0.406057
O O3 0.447400 0.246927 0.610713
O O4 0.449935 0.000000 0.504237
O O5 0.657515 0.500000 0.085331
O O6 0.606467 0.737812 0.095506
O O7 0.706729 0.759548 0.128730
O O8 0.629663 0.715282 0.940363
O O9 0.906888 0.500000 0.101236
O O10 0.898906 0.337556 0.245558
O O11 0.969713 0.257671 0.193919
O O12 0.063118 0.500000 0.087710
O O13 0.063404 0.275063 0.212036
O O14 0.000000 0.265424 0.000000
O O15 0.833761 0.500000 0.284371
O O16 0.808053 0.782700 0.212989
O O17 0.252568 0.000000 0.912709
O O18 0.250000 0.750000 0.000000
O O19 0.525108 0.000000 0.277114
#
# Coordination Sequence:
#
# PCOD8079245 Si02
#       7
#     8   8   8   8   8   8   8
#     4   9  15  26  49  83 114 141 177 218 258 310
#     4  12  24  36  52  77 109 143 180 224 272 320
#     4  10  17  29  51  78 110 146 179 214 255 316
#     4  10  19  33  54  78 108 147 184 222 266 317
#     4  10  19  31  53  82 113 144 177 217 262 313
#     4  12  24  38  56  78 107 141 179 220 269 325
#     4   9  16  28  49  79 112 147 183 216 259 313
#
# _framework density 17.796431999999999
#
# number of rings (size 3 to 8) (size 9 to 14) (size 15 to 20)
#    0.000    1.714    4.286    2.571    0.000    0.286 
#    0.000    0.000    0.000    3.000    0.000    0.000 
#    0.000    0.000    0.000    0.000    0.000    0.000 
#
# Total GULP energy -347070.892556 kJ/mol
# GULP energy per Si atom -12395.389020 kJ/mol
# Density = 1.775593 g / cm^3
# Si number density = 17.796432 Si / 1000 Ang^3
#
#
#
# Elastic Constant Matrix: (Units=GPa)
#
#
# Indices 1 2 3 4 5 6 
#
# 1 107.4186 43.3358 49.2597 0.0000 5.0880 0.0000
# 2 43.3358 77.7448 28.0035 0.0000 4.2212 0.0000
# 3 49.2597 28.0035 117.2186 0.0000 -1.9761 0.0000
# 4 0.0000 0.0000 0.0000 15.6781 0.0000 3.7038
# 5 5.0880 4.2212 -1.9761 0.0000 28.4495 0.0000
# 6 0.0000 0.0000 0.0000 3.7038 0.0000 22.6240
#
#
#
# Elastic Compliance Matrix: (Units=1/GPa)
#
#
# Indices 1 2 3 4 5 6 
#
# 1 0.013856 -0.006031 -0.004414 0.000000 -0.001890 0.000000
# 2 -0.006031 0.016854 -0.001518 0.000000 -0.001527 0.000000
# 3 -0.004414 -0.001518 0.010778 0.000000 0.001763 0.000000
# 4 0.000000 0.000000 0.000000 0.066349 0.000000 -0.010862
# 5 -0.001890 -0.001527 0.001763 0.000000 0.035837 0.000000
# 6 0.000000 0.000000 0.000000 -0.010862 0.000000 0.045979
#
#
# Mechanical properties :
#
#
# Convention : Reuss Voigt Hill
#
# Bulk Modulus (GPa) = 56.93769 60.39778 58.66773
# Shear Modulus (GPa) = 22.78594 25.46919 24.12756
#
# Velocity S-wave (km/s) = 3.58210 3.78715 3.68605
# Velocity P-wave (km/s) = 7.01227 7.28938 7.15217
#
# Compressibility (1/GPa) = 0.01756306
#
# Stress axis : x y z
#
# Youngs Moduli (GPa) = 72.17032 59.33312 92.77937
#
# Poissons Ratio (x) = 0.35784 0.40952
# Poissons Ratio (y) = 0.43526 0.14081
# Poissons Ratio (z) = 0.31855 0.09005
#
# Static dielectric constant tensor:
#      x y z
#    x 3.333450 0.000000 -0.043990 
#    y 0.000000 2.968140 0.000000 
#    z -0.043990 0.000000 3.443840 
# 
# 
# High freq. dielectric constant tensor:
#      x y z
#    x 1.683650 0.000000 0.000800 
#    y 0.000000 1.654090 0.000000 
#    z 0.000800 0.000000 1.681430 
# 
# From -- ./inp_files/244290.got.cif
#   From: 2010.06.25/outbox.cif.g09.slc.cpg/sg12_123_cif.got.tgz:244290.got - 2010.06.28 00:19:55.
