data_PCOD8079838
_publ_section_title
;
Structure prediction by ZEFSAII (Michael W. Deem and Ramdas Pophale) SiO2 
 PCOD8079838
Probable space group: C 2/M
;
_chemical_formula_sum "Si O2"
_cell_formula_units_Z 56
_cell_length_a 24.247787
_cell_length_b 9.279464
_cell_length_c 25.320099
_cell_angle_alpha 90.000000
_cell_angle_beta 141.800421
_cell_angle_gamma 90.000000
_cell_volume 3523.154760
_symmetry_space_group_name_H-M "C 2/M"
_symmetry_group_IT_number 12
_symmetry_cell_setting 'monoclinic'
loop_
_space_group_symop_operation_xyz
x,y,z
-x,y,-z
-x,-y,-z
x,-y,z
1/2+x,1/2+y,z
1/2-x,1/2+y,-z
1/2-x,1/2-y,-z
1/2+x,1/2-y,z
loop_
_atom_site_type_symbol
_atom_site_label
_atom_site_fract_x
_atom_site_fract_y
_atom_site_fract_z
Si Si1 0.576177 0.668067 0.221628
Si Si2 0.138127 0.667662 0.366832
Si Si3 0.356487 0.838394 0.882928
Si Si4 0.845522 0.165365 0.518326
Si Si5 0.473875 0.162026 0.064482
Si Si6 0.098535 0.833360 0.555154
Si Si7 0.256332 0.667554 0.726701
O O1 0.562064 0.500000 0.221320
O O2 0.579192 0.750467 0.279298
O O3 0.490593 0.728053 0.125155
O O4 0.666828 0.699809 0.258041
O O5 0.113390 0.500000 0.347549
O O6 0.114712 0.732264 0.406503
O O7 0.241225 0.695558 0.431103
O O8 0.441884 0.835253 0.910122
O O9 0.282110 0.731800 0.803459
O O10 0.316877 0.000000 0.854943
O O11 0.386907 0.790102 0.964899
O O12 0.895844 0.205525 0.502398
O O13 0.861281 0.000000 0.546939
O O14 0.460506 0.000000 0.076584
O O15 0.165455 0.738484 0.639387
O O16 0.000000 0.796384 0.500000
O O17 0.123677 0.000000 0.583041
O O18 0.239860 0.500000 0.721928
#
# Coordination Sequence:
#
# PCOD8079838 Si02
#       7
#     8   8   8   8   8   8   8
#     4  10  18  26  39  61  89 118 146 178 215 260
#     4  10  18  28  45  64  85 115 146 180 218 262
#     4   8  14  25  40  56  79 112 147 179 212 255
#     4   9  18  31  45  63  85 110 143 184 223 260
#     4   8  14  24  38  57  81 112 146 178 212 253
#     4  10  20  34  50  65  84 114 151 187 223 262
#     4  10  19  28  41  61  86 115 147 182 221 261
#
# _framework density 15.894845
#
# number of rings (size 3 to 8) (size 9 to 14) (size 15 to 20)
#    0.000    2.714    1.429    2.143    0.000    3.143 
#    0.000    2.857    0.000    0.000    0.000    0.000 
#    0.000    1.143    0.000    3.429    0.000    4.571 
#
# Total GULP energy -347141.359235 kJ/mol
# GULP energy per Si atom -12397.905687 kJ/mol
# Density = 1.585867 g / cm^3
# Si number density = 15.894845 Si / 1000 Ang^3
#
#
#
# Elastic Constant Matrix: (Units=GPa)
#
#
# Indices 1 2 3 4 5 6 
#
# 1 58.0098 34.4793 42.4431 0.0000 -10.6597 0.0000
# 2 34.4793 107.4454 86.6683 0.0000 -16.5515 0.0000
# 3 42.4431 86.6683 131.5199 0.0000 -28.1275 0.0000
# 4 0.0000 0.0000 0.0000 31.5652 0.0000 -6.8925
# 5 -10.6597 -16.5515 -28.1275 0.0000 18.4692 0.0000
# 6 0.0000 0.0000 0.0000 -6.8925 0.0000 15.3330
#
#
#
# Elastic Compliance Matrix: (Units=1/GPa)
#
#
# Indices 1 2 3 4 5 6 
#
# 1 0.023150 -0.003130 -0.004672 0.000000 0.003440 0.000000
# 2 -0.003130 0.020416 -0.013224 0.000000 -0.003650 0.000000
# 3 -0.004672 -0.013224 0.021822 0.000000 0.018686 0.000000
# 4 0.000000 0.000000 0.000000 0.035129 0.000000 0.015791
# 5 0.003440 -0.003650 0.018686 0.000000 0.081316 0.000000
# 6 0.000000 0.000000 0.000000 0.015791 0.000000 0.072317
#
#
# Mechanical properties :
#
#
# Convention : Reuss Voigt Hill
#
# Bulk Modulus (GPa) = 42.85476 69.35068 56.10272
# Shear Modulus (GPa) = 16.44839 21.96576 19.20707
#
# Velocity S-wave (km/s) = 3.22036 3.72148 3.47995
# Velocity P-wave (km/s) = 6.39121 7.88616 7.17771
#
# Compressibility (1/GPa) = 0.02333463
#
# Stress axis : x y z
#
# Youngs Moduli (GPa) = 43.19743 48.98047 45.82546
#
# Poissons Ratio (x) = 0.15330 0.21411
# Poissons Ratio (y) = 0.13520 0.60601
# Poissons Ratio (z) = 0.20183 0.64774
#
# Static dielectric constant tensor:
#      x y z
#    x 2.589620 0.000000 -0.249660 
#    y 0.000000 3.088020 0.000000 
#    z -0.249660 0.000000 3.191660 
# 
# 
# High freq. dielectric constant tensor:
#      x y z
#    x 1.549120 0.000000 -0.028240 
#    y 0.000000 1.618010 0.000000 
#    z -0.028240 0.000000 1.614020 
# 
# From -- ./inp_files/242978.got.cif
#   From: 2010.06.25/outbox.cif.g09.slc.cpg/sg12_122_cif.got.tgz:242978.got - 2010.06.28 00:19:55.
