data_PCOD8079962
_publ_section_title
;
Structure prediction by ZEFSAII (Michael W. Deem and Ramdas Pophale) SiO2 
 PCOD8079962
Probable space group: C 2/M
;
_chemical_formula_sum "Si O2"
_cell_formula_units_Z 48
_cell_length_a 25.612672
_cell_length_b 9.716728
_cell_length_c 11.627154
_cell_angle_alpha 90.000000
_cell_angle_beta 89.075863
_cell_angle_gamma 90.000000
_cell_volume 2893.289324
_symmetry_space_group_name_H-M "C 2/M"
_symmetry_group_IT_number 12
_symmetry_cell_setting 'monoclinic'
loop_
_space_group_symop_operation_xyz
x,y,z
-x,y,-z
-x,-y,-z
x,-y,z
1/2+x,1/2+y,z
1/2-x,1/2+y,-z
1/2-x,1/2-y,-z
1/2+x,1/2-y,z
loop_
_atom_site_type_symbol
_atom_site_label
_atom_site_fract_x
_atom_site_fract_y
_atom_site_fract_z
Si Si1 0.186455 0.654561 0.586478
Si Si2 0.707039 0.349135 0.954793
Si Si3 0.141500 0.654557 0.821148
Si Si4 0.804821 0.839899 0.625033
Si Si5 0.941187 0.340560 0.984803
Si Si6 0.872527 0.151404 0.839193
O O1 0.188945 0.500000 0.535817
O O2 0.139425 0.664085 0.682297
O O3 0.172757 0.758114 0.484969
O O4 0.242924 0.690193 0.642596
O O5 0.728930 0.500000 0.917398
O O6 0.683026 0.272132 0.847191
O O7 0.750000 0.250000 0.000000
O O8 0.664282 0.369657 0.052185
O O9 0.161232 0.500000 0.854618
O O10 0.087777 0.684243 0.891340
O O11 0.837826 0.789772 0.734899
O O12 0.815031 0.000000 0.603229
O O13 0.939305 0.500000 0.949502
O O14 0.917261 0.257869 0.877134
O O15 0.000000 0.288475 0.000000
O O16 0.896386 0.000000 0.807550
#
# Coordination Sequence:
#
# PCOD8079962 Si02
#       6
#     8   8   8   8   8   8
#     4   9  17  29  45  65  91 123 153 180 215 259
#     4  10  18  27  41  63  91 119 147 179 218 266
#     4   9  17  30  46  64  89 118 147 182 225 270
#     4   9  17  29  44  64  92 122 152 184 214 252
#     4   9  18  32  50  71  91 112 144 189 236 277
#     4   9  18  31  46  65  90 120 151 184 224 269
#
# _framework density 16.590114
#
# number of rings (size 3 to 8) (size 9 to 14) (size 15 to 20)
#    0.000    2.833    0.000    1.500    0.000    5.000 
#    0.000    3.333    0.000    1.000    0.000    7.000 
#    0.000    0.000    0.000    0.000    0.000    0.000 
#
# Total GULP energy -297334.988511 kJ/mol
# GULP energy per Si atom -12388.957855 kJ/mol
# Density = 1.655235 g / cm^3
# Si number density = 16.590114 Si / 1000 Ang^3
#
#
#
# Elastic Constant Matrix: (Units=GPa)
#
#
# Indices 1 2 3 4 5 6 
#
# 1 53.9030 29.9463 23.7213 0.0000 6.5916 0.0000
# 2 29.9463 79.3000 29.8633 0.0000 5.1867 0.0000
# 3 23.7213 29.8633 88.0665 0.0000 4.3845 0.0000
# 4 0.0000 0.0000 0.0000 19.5931 0.0000 3.9101
# 5 6.5916 5.1867 4.3845 0.0000 21.8858 0.0000
# 6 0.0000 0.0000 0.0000 3.9101 0.0000 21.4231
#
#
#
# Elastic Compliance Matrix: (Units=1/GPa)
#
#
# Indices 1 2 3 4 5 6 
#
# 1 0.025163 -0.007702 -0.003919 0.000000 -0.004968 0.000000
# 2 -0.007702 0.016947 -0.003624 0.000000 -0.000971 0.000000
# 3 -0.003919 -0.003624 0.013674 0.000000 -0.000700 0.000000
# 4 0.000000 0.000000 0.000000 0.052968 0.000000 -0.009668
# 5 -0.004968 -0.000971 -0.000700 0.000000 0.047558 0.000000
# 6 0.000000 0.000000 0.000000 -0.009668 0.000000 0.048443
#
#
# Mechanical properties :
#
#
# Convention : Reuss Voigt Hill
#
# Bulk Modulus (GPa) = 39.53283 43.14793 41.34038
# Shear Modulus (GPa) = 20.51930 21.76300 21.14115
#
# Velocity S-wave (km/s) = 3.52069 3.62581 3.57364
# Velocity P-wave (km/s) = 6.35672 6.60253 6.48079
#
# Compressibility (1/GPa) = 0.02529543
#
# Stress axis : x y z
#
# Youngs Moduli (GPa) = 39.74156 59.00792 73.12972
#
# Poissons Ratio (x) = 0.45445 0.28658
# Poissons Ratio (y) = 0.30607 0.26502
# Poissons Ratio (z) = 0.15574 0.21384
#
# Static dielectric constant tensor:
#      x y z
#    x 3.004450 0.000000 -0.011800 
#    y 0.000000 3.576520 0.000000 
#    z -0.011800 0.000000 3.052490 
# 
# 
# High freq. dielectric constant tensor:
#      x y z
#    x 1.600060 0.000000 -0.003160 
#    y 0.000000 1.651330 0.000000 
#    z -0.003160 0.000000 1.627900 
# 
# From -- ./inp_files/172331.got.cif
#   From: 2010.06.25/outbox.cif.g09.slc.cpg/sg12_87_cif.got.tgz:172331.got - 2010.06.28 00:19:55.
