data_PCOD8079657
_publ_section_title
;
Structure prediction by ZEFSAII (Michael W. Deem and Ramdas Pophale) SiO2 
 PCOD8079657
Probable space group: C 2/M
;
_chemical_formula_sum "Si O2"
_cell_formula_units_Z 56
_cell_length_a 15.516118
_cell_length_b 16.777260
_cell_length_c 18.239960
_cell_angle_alpha 90.000000
_cell_angle_beta 38.466767
_cell_angle_gamma 90.000000
_cell_volume 2953.661246
_symmetry_space_group_name_H-M "C 2/M"
_symmetry_group_IT_number 12
_symmetry_cell_setting 'monoclinic'
loop_
_space_group_symop_operation_xyz
x,y,z
-x,y,-z
-x,-y,-z
x,-y,z
1/2+x,1/2+y,z
1/2-x,1/2+y,-z
1/2-x,1/2-y,-z
1/2+x,1/2-y,z
loop_
_atom_site_type_symbol
_atom_site_label
_atom_site_fract_x
_atom_site_fract_y
_atom_site_fract_z
Si Si1 0.640832 0.911265 0.861516
Si Si2 0.813238 0.814337 0.403254
Si Si3 0.453708 0.093617 0.451077
Si Si4 0.341330 0.317749 0.974520
Si Si5 0.682818 0.180158 0.214348
Si Si6 0.627769 0.250307 0.793367
Si Si7 0.111086 0.854987 0.211607
O O1 0.654390 0.843640 0.790495
O O2 0.780606 0.910861 0.817975
O O3 0.632722 0.000000 0.831686
O O4 0.500000 0.894130 0.000000
O O5 0.750000 0.750000 0.500000
O O6 0.704129 0.882897 0.457435
O O7 0.854255 0.763846 0.304546
O O8 0.949090 0.861175 0.344274
O O9 0.500000 0.125596 0.500000
O O10 0.546203 0.131516 0.325181
O O11 0.471568 0.000000 0.434317
O O12 0.474778 0.274584 0.920445
O O13 0.379363 0.377142 0.881856
O O14 0.250000 0.250000 0.000000
O O15 0.267130 0.364016 0.092046
O O16 0.769633 0.192167 0.230473
O O17 0.649231 0.264234 0.201193
#
# Coordination Sequence:
#
# PCOD8079657 Si02
#       7
#     8   8   8   8   8   8   8
#     4  10  20  36  57  85 122 155 182 225 289 352
#     4  11  21  37  60  84 112 148 195 242 280 333
#     4  11  23  39  57  81 111 148 189 237 292 341
#     4   9  17  29  53  84 111 136 182 236 281 321
#     4  10  17  33  56  80 107 143 188 232 271 336
#     4  10  19  33  57  84 108 147 195 235 278 334
#     4   9  19  33  57  85 112 146 187 231 275 334
#
# _framework density 18.959520000000001
#
# number of rings (size 3 to 8) (size 9 to 14) (size 15 to 20)
#    0.000    2.000    2.857    3.000    0.000    0.571 
#    0.000    1.429    0.000    3.429    0.000    0.000 
#    0.000    0.000    0.000    0.000    0.000    0.000 
#
# Total GULP energy -346991.120267 kJ/mol
# GULP energy per Si atom -12392.540010 kJ/mol
# Density = 1.891637 g / cm^3
# Si number density = 18.959520 Si / 1000 Ang^3
#
#
#
# Elastic Constant Matrix: (Units=GPa)
#
#
# Indices 1 2 3 4 5 6 
#
# 1 85.4996 7.8021 35.2836 0.0002 -20.2215 0.0000
# 2 7.8021 43.6226 15.3306 -0.0005 0.1293 0.0001
# 3 35.2836 15.3306 115.2982 -0.0001 -7.9800 -0.0001
# 4 0.0002 -0.0005 -0.0001 11.0006 0.0004 -8.9793
# 5 -20.2215 0.1293 -7.9800 0.0004 40.8889 -0.0001
# 6 0.0000 0.0001 -0.0001 -8.9793 -0.0001 14.8669
#
#
#
# Elastic Compliance Matrix: (Units=1/GPa)
#
#
# Indices 1 2 3 4 5 6 
#
# 1 0.015027 -0.001315 -0.003963 -0.000001 0.006662 0.000000
# 2 -0.001315 0.024183 -0.002903 0.000002 -0.001293 0.000001
# 3 -0.003963 -0.002903 0.010276 0.000000 0.000055 0.000000
# 4 -0.000001 0.000002 0.000000 0.179299 -0.000002 0.108293
# 5 0.006662 -0.001293 0.000055 -0.000002 0.027766 -0.000001
# 6 0.000000 0.000001 0.000000 0.108293 -0.000001 0.132670
#
#
# Mechanical properties :
#
#
# Convention : Reuss Voigt Hill
#
# Bulk Modulus (GPa) = 30.18833 40.13923 35.16378
# Shear Modulus (GPa) = 12.00128 25.75156 18.87642
#
# Velocity S-wave (km/s) = 2.51867 3.68943 3.15876
# Velocity P-wave (km/s) = 4.94119 6.27424 5.64719
#
# Compressibility (1/GPa) = 0.03312539
#
# Stress axis : x y z
#
# Youngs Moduli (GPa) = 66.54727 41.35137 97.31841
#
# Poissons Ratio (x) = 0.05437 0.38563
# Poissons Ratio (y) = 0.08749 0.28248
# Poissons Ratio (z) = 0.26370 0.12003
#
# Static dielectric constant tensor:
#      x y z
#    x 3.672380 0.000000 -0.273230 
#    y 0.000000 3.055260 0.000000 
#    z -0.273230 0.000000 3.972390 
# 
# 
# High freq. dielectric constant tensor:
#      x y z
#    x 1.747950 0.000000 -0.012430 
#    y 0.000000 1.694190 0.000000 
#    z -0.012430 0.000000 1.746510 
# 
# From -- ./inp_files/271363.got.cif
#   From: 2010.06.25/outbox.cif.g09.slc.cpg/sg12_136_cif.got.tgz:271363.got - 2010.06.28 00:19:55.
