data_PCOD8079543
_publ_section_title
;
Structure prediction by ZEFSAII (Michael W. Deem and Ramdas Pophale) SiO2 
 PCOD8079543
Probable space group: C 2/M
;
_chemical_formula_sum "Si O2"
_cell_formula_units_Z 56
_cell_length_a 16.159768
_cell_length_b 25.369745
_cell_length_c 17.400136
_cell_angle_alpha 90.000000
_cell_angle_beta 154.758115
_cell_angle_gamma 90.000000
_cell_volume 3042.022676
_symmetry_space_group_name_H-M "C 2/M"
_symmetry_group_IT_number 12
_symmetry_cell_setting 'monoclinic'
loop_
_space_group_symop_operation_xyz
x,y,z
-x,y,-z
-x,-y,-z
x,-y,z
1/2+x,1/2+y,z
1/2-x,1/2+y,-z
1/2-x,1/2-y,-z
1/2+x,1/2-y,z
loop_
_atom_site_type_symbol
_atom_site_label
_atom_site_fract_x
_atom_site_fract_y
_atom_site_fract_z
Si Si1 0.366095 0.684944 0.448011
Si Si2 0.059058 0.200708 0.771108
Si Si3 0.815825 0.772731 0.805679
Si Si4 0.098693 0.353270 0.716975
Si Si5 0.281864 0.941913 0.288245
Si Si6 0.663369 0.359316 0.296020
Si Si7 0.034875 0.687115 0.822369
O O1 0.500000 0.650097 0.500000
O O2 0.499189 0.698491 0.632522
O O3 0.319636 0.736023 0.358258
O O4 0.156911 0.661790 0.298346
O O5 0.980026 0.255376 0.741398
O O6 0.966589 0.150196 0.737678
O O7 0.292145 0.195187 0.971426
O O8 0.691554 0.798210 0.769503
O O9 0.903955 0.817710 0.824501
O O10 0.000000 0.743423 0.000000
O O11 0.219897 0.403782 0.788164
O O12 0.098281 0.353710 0.809245
O O13 0.886259 0.351853 0.503788
O O14 0.500000 0.947030 0.500000
O O15 0.146339 0.917296 0.242471
O O16 0.200725 0.000000 0.198754
#
# Coordination Sequence:
#
# PCOD8079543 Si02
#       7
#     8   8   8   8   8   8   8
#     4  12  24  34  48  67  98 131 179 223 260 308
#     4  11  22  35  50  70 101 136 180 223 258 310
#     4  11  21  30  45  69  98 135 180 214 255 310
#     4  10  19  33  51  72 104 142 178 218 260 311
#     4   8  16  30  53  83 111 141 176 213 261 318
#     4  10  17  32  51  71 102 141 175 219 259 307
#     4  11  22  34  50  71  98 138 180 220 262 308
#
# _framework density 18.408804
#
# number of rings (size 3 to 8) (size 9 to 14) (size 15 to 20)
#    0.000    1.571    2.857    5.143    4.000    0.000 
#    0.000    0.000    0.000   15.429    0.000    0.000 
#    0.000    2.286    0.000    2.571    0.000    0.714 
#
# Total GULP energy -346926.533635 kJ/mol
# GULP energy per Si atom -12390.233344 kJ/mol
# Density = 1.836691 g / cm^3
# Si number density = 18.408804 Si / 1000 Ang^3
#
#
#
# Elastic Constant Matrix: (Units=GPa)
#
#
# Indices 1 2 3 4 5 6 
#
# 1 133.1429 35.3458 39.1650 0.0001 -4.6790 0.0001
# 2 35.3458 63.0622 10.8214 0.0000 -4.7103 0.0000
# 3 39.1650 10.8214 108.5854 0.0002 -8.9131 0.0001
# 4 0.0001 0.0000 0.0002 5.0936 0.0002 -1.0554
# 5 -4.6790 -4.7103 -8.9131 0.0002 11.8822 0.0001
# 6 0.0001 0.0000 0.0001 -1.0554 0.0001 16.0041
#
#
#
# Elastic Compliance Matrix: (Units=1/GPa)
#
#
# Indices 1 2 3 4 5 6 
#
# 1 0.009704 -0.004949 -0.003042 0.000000 -0.000422 0.000000
# 2 -0.004949 0.019005 0.000372 0.000000 0.005865 0.000000
# 3 -0.003042 0.000372 0.010851 -0.000001 0.007090 0.000000
# 4 0.000000 0.000000 -0.000001 0.199044 -0.000003 0.013125
# 5 -0.000422 0.005865 0.007090 -0.000003 0.091636 -0.000001
# 6 0.000000 0.000000 0.000000 0.013125 -0.000001 0.063349
#
#
# Mechanical properties :
#
#
# Convention : Reuss Voigt Hill
#
# Bulk Modulus (GPa) = 41.11063 52.82833 46.96948
# Shear Modulus (GPa) = 11.99227 21.22654 16.60940
#
# Velocity S-wave (km/s) = 2.55510 3.39936 3.00701
# Velocity P-wave (km/s) = 5.57542 6.64584 6.13402
#
# Compressibility (1/GPa) = 0.02432461
#
# Stress axis : x y z
#
# Youngs Moduli (GPa) = 103.04609 52.61701 92.15519
#
# Poissons Ratio (x) = 0.26039 0.28031
# Poissons Ratio (y) = 0.50995 -0.03431
# Poissons Ratio (z) = 0.31343 -0.01959
#
# Static dielectric constant tensor:
#      x y z
#    x 3.778430 0.000000 0.010370 
#    y 0.000000 3.217330 0.000000 
#    z 0.010370 0.000000 3.461510 
# 
# 
# High freq. dielectric constant tensor:
#      x y z
#    x 1.720730 0.000000 0.003920 
#    y 0.000000 1.629570 0.000000 
#    z 0.003920 0.000000 1.735990 
# 
# From -- ./inp_files/219369.got.cif
#   From: 2010.06.25/outbox.cif.g09.slc.cpg/sg12_110_cif.got.tgz:219369.got - 2010.06.28 00:19:55.
