data_PCOD8079207
_publ_section_title
;
Structure prediction by ZEFSAII (Michael W. Deem and Ramdas Pophale) SiO2 
 PCOD8079207
Probable space group: C 2/M
;
_chemical_formula_sum "Si O2"
_cell_formula_units_Z 56
_cell_length_a 12.603236
_cell_length_b 25.034813
_cell_length_c 13.282288
_cell_angle_alpha 90.000000
_cell_angle_beta 137.942343
_cell_angle_gamma 90.000000
_cell_volume 2807.340502
_symmetry_space_group_name_H-M "C 2/M"
_symmetry_group_IT_number 12
_symmetry_cell_setting 'monoclinic'
loop_
_space_group_symop_operation_xyz
x,y,z
-x,y,-z
-x,-y,-z
x,-y,z
1/2+x,1/2+y,z
1/2-x,1/2+y,-z
1/2-x,1/2-y,-z
1/2+x,1/2-y,z
loop_
_atom_site_type_symbol
_atom_site_label
_atom_site_fract_x
_atom_site_fract_y
_atom_site_fract_z
Si Si1 0.337434 0.372386 0.200658
Si Si2 0.102400 0.711212 0.307518
Si Si3 0.321417 0.771436 0.853003
Si Si4 0.174590 0.150512 0.155942
Si Si5 0.151713 0.829707 0.371404
Si Si6 0.380558 0.880086 0.132629
Si Si7 0.620392 0.939664 0.177047
O O1 0.294384 0.309908 0.169049
O O2 0.528924 0.373716 0.329962
O O3 0.273766 0.404094 0.254444
O O4 0.259454 0.395406 0.043736
O O5 0.215946 0.718849 0.291292
O O6 0.066939 0.771492 0.318951
O O7 0.187938 0.673959 0.451275
O O8 0.940100 0.681266 0.163681
O O9 0.296247 0.710179 0.866824
O O10 0.500000 0.789917 0.000000
O O11 0.196622 0.150334 0.291179
O O12 0.305397 0.112934 0.192106
O O13 0.000000 0.131269 0.000000
O O14 0.532944 0.917859 0.216264
O O15 0.676734 0.000000 0.236807
O O16 0.500000 0.935734 0.000000
#
# Coordination Sequence:
#
# PCOD8079207 Si02
#       7
#     8   8   8   8   8   8   8
#     4  11  18  32  55  78 103 138 181 225 272 319
#     4  10  20  34  48  77 112 148 183 214 262 318
#     4  10  17  29  49  77 105 138 182 218 256 314
#     4  10  20  31  49  78 108 141 181 218 256 319
#     4  10  22  33  48  78 115 147 177 219 265 315
#     4  11  19  33  56  74 103 141 182 221 266 326
#     4   9  19  35  57  84 106 132 180 240 290 324
#
# _framework density 19.947706
#
# number of rings (size 3 to 8) (size 9 to 14) (size 15 to 20)
#    0.000    1.857    4.286    1.286    0.000    2.286 
#    0.000    4.286    0.000    3.000    0.000    1.000 
#    0.000    0.000    0.000    0.000    0.000    0.000 
#
# Total GULP energy -346928.159924 kJ/mol
# GULP energy per Si atom -12390.291426 kJ/mol
# Density = 1.990230 g / cm^3
# Si number density = 19.947706 Si / 1000 Ang^3
#
#
#
# Elastic Constant Matrix: (Units=GPa)
#
#
# Indices 1 2 3 4 5 6 
#
# 1 146.6372 48.8898 32.3126 0.0000 -5.8578 0.0000
# 2 48.8898 58.3382 8.5428 0.0000 5.2367 0.0000
# 3 32.3126 8.5428 63.5191 0.0000 -15.6536 0.0000
# 4 0.0000 0.0000 0.0000 12.7551 0.0000 -1.0429
# 5 -5.8578 5.2367 -15.6536 0.0000 14.3505 0.0000
# 6 0.0000 0.0000 0.0000 -1.0429 0.0000 17.9375
#
#
#
# Elastic Compliance Matrix: (Units=1/GPa)
#
#
# Indices 1 2 3 4 5 6 
#
# 1 0.010623 -0.008790 -0.003231 0.000000 0.004019 0.000000
# 2 -0.008790 0.026485 -0.003223 0.000000 -0.016768 0.000000
# 3 -0.003231 -0.003223 0.024324 0.000000 0.026390 0.000000
# 4 0.000000 0.000000 0.000000 0.078774 0.000000 0.004580
# 5 0.004019 -0.016768 0.026390 0.000000 0.106230 0.000000
# 6 0.000000 0.000000 0.000000 0.004580 0.000000 0.056016
#
#
# Mechanical properties :
#
#
# Convention : Reuss Voigt Hill
#
# Bulk Modulus (GPa) = 32.31685 49.77609 41.04647
# Shear Modulus (GPa) = 14.56648 20.92522 17.74585
#
# Velocity S-wave (km/s) = 2.70521 3.24235 2.98588
# Velocity P-wave (km/s) = 5.09839 6.24696 5.70167
#
# Compressibility (1/GPa) = 0.03094361
#
# Stress axis : x y z
#
# Youngs Moduli (GPa) = 94.13768 37.75742 41.11168
#
# Poissons Ratio (x) = 0.33188 0.13284
# Poissons Ratio (y) = 0.82746 0.13250
# Poissons Ratio (z) = 0.30418 0.12169
#
# Static dielectric constant tensor:
#      x y z
#    x 3.687860 0.000000 -0.116580 
#    y 0.000000 3.269440 0.000000 
#    z -0.116580 0.000000 3.405090 
# 
# 
# High freq. dielectric constant tensor:
#      x y z
#    x 1.784850 0.000000 -0.006870 
#    y 0.000000 1.719920 0.000000 
#    z -0.006870 0.000000 1.752000 
# 
# From -- ./inp_files/137011.got.cif
#   From: 2010.06.25/outbox.cif.g09.slc.cpg/sg12_69_cif.got.tgz:137011.got - 2010.06.28 00:19:55.
