data_PCOD8079342
_publ_section_title
;
Structure prediction by ZEFSAII (Michael W. Deem and Ramdas Pophale) SiO2 
 PCOD8079342
Probable space group: C 2/M
;
_chemical_formula_sum "Si O2"
_cell_formula_units_Z 64
_cell_length_a 25.335655
_cell_length_b 9.042888
_cell_length_c 23.937482
_cell_angle_alpha 90.000000
_cell_angle_beta 134.420229
_cell_angle_gamma 90.000000
_cell_volume 3916.996396
_symmetry_space_group_name_H-M "C 2/M"
_symmetry_group_IT_number 12
_symmetry_cell_setting 'monoclinic'
loop_
_space_group_symop_operation_xyz
x,y,z
-x,y,-z
-x,-y,-z
x,-y,z
1/2+x,1/2+y,z
1/2-x,1/2+y,-z
1/2-x,1/2-y,-z
1/2+x,1/2-y,z
loop_
_atom_site_type_symbol
_atom_site_label
_atom_site_fract_x
_atom_site_fract_y
_atom_site_fract_z
Si Si1 0.225667 0.175430 0.089317
Si Si2 0.914494 0.175573 0.083109
Si Si3 0.886724 0.327171 0.175027
Si Si4 0.468092 0.675124 0.918695
Si Si5 0.835973 0.825320 0.341846
Si Si6 0.443731 0.827479 0.336409
Si Si7 0.066334 0.336688 0.505448
Si Si8 0.801322 0.175185 0.805067
O O1 0.303958 0.233925 0.124496
O O2 0.212507 0.233158 0.142272
O O3 0.224433 0.000000 0.090160
O O4 0.161078 0.234788 0.001139
O O5 0.923475 0.242652 0.150976
O O6 0.983357 0.232922 0.097236
O O7 0.913819 0.000000 0.087216
O O8 0.884622 0.500000 0.159929
O O9 0.937277 0.292369 0.266246
O O10 0.474754 0.500000 0.927501
O O11 0.383441 0.722715 0.847366
O O12 0.500000 0.742979 0.000000
O O13 0.883574 0.766881 0.325194
O O14 0.871326 0.776975 0.427614
O O15 0.754191 0.757661 0.277822
O O16 0.832276 0.000000 0.336957
O O17 0.527648 0.787969 0.418221
O O18 0.426041 0.000000 0.335531
O O19 0.102083 0.500000 0.526481
O O20 0.000000 0.340835 0.500000
O O21 0.789067 0.000000 0.791510
#
# Coordination Sequence:
#
# PCOD8079342 Si02
#       8
#     8   8   8   8   8   8   8   8
#     4   9  16  28  48  67  90 122 159 195 227 268
#     4  10  19  31  47  71  94 118 158 204 239 271
#     4  10  19  31  46  67  95 130 160 184 225 281
#     4   9  16  29  52  73  87 114 162 208 241 270
#     4  11  20  28  42  69 101 125 149 188 238 286
#     4   9  17  31  49  66  90 126 165 192 219 273
#     4   8  15  28  46  66  89 122 158 190 223 272
#     4  10  17  30  51  69  89 124 163 198 231 272
#
# _framework density 16.33905
#
# number of rings (size 3 to 8) (size 9 to 14) (size 15 to 20)
#    0.000    2.500    2.500    2.250    0.000    2.750 
#    0.000    1.250    0.000    0.750    0.000    0.875 
#    0.000    0.000    0.000    0.000    0.000    0.000 
#
# Total GULP energy -396708.263726 kJ/mol
# GULP energy per Si atom -12397.133241 kJ/mol
# Density = 1.630186 g / cm^3
# Si number density = 16.339050 Si / 1000 Ang^3
#
#
#
# Elastic Constant Matrix: (Units=GPa)
#
#
# Indices 1 2 3 4 5 6 
#
# 1 106.3303 29.6222 64.8247 0.0000 -2.3953 0.0000
# 2 29.6222 53.4606 47.1797 0.0000 4.6878 0.0000
# 3 64.8247 47.1797 150.6667 0.0000 2.8023 0.0000
# 4 0.0000 0.0000 0.0000 13.7248 0.0000 -5.6059
# 5 -2.3953 4.6878 2.8023 0.0000 17.0270 0.0000
# 6 0.0000 0.0000 0.0000 -5.6059 0.0000 16.2568
#
#
#
# Elastic Compliance Matrix: (Units=1/GPa)
#
#
# Indices 1 2 3 4 5 6 
#
# 1 0.013340 -0.003573 -0.004688 0.000000 0.003632 0.000000
# 2 -0.003573 0.027390 -0.006911 0.000000 -0.006906 0.000000
# 3 -0.004688 -0.006911 0.010829 0.000000 -0.000539 0.000000
# 4 0.000000 0.000000 0.000000 0.084805 0.000000 0.029244
# 5 0.003632 -0.006906 -0.000539 0.000000 0.061231 0.000000
# 6 0.000000 0.000000 0.000000 0.029244 0.000000 0.071597
#
#
# Mechanical properties :
#
#
# Convention : Reuss Voigt Hill
#
# Bulk Modulus (GPa) = 47.13885 65.96786 56.55335
# Shear Modulus (GPa) = 16.30750 20.65713 18.48232
#
# Velocity S-wave (km/s) = 3.16265 3.55953 3.36694
# Velocity P-wave (km/s) = 6.49996 7.57335 7.05710
#
# Compressibility (1/GPa) = 0.02121393
#
# Stress axis : x y z
#
# Youngs Moduli (GPa) = 74.96216 36.51006 92.34802
#
# Poissons Ratio (x) = 0.13043 0.43297
# Poissons Ratio (y) = 0.26780 0.63824
# Poissons Ratio (z) = 0.35146 0.25233
#
# Static dielectric constant tensor:
#      x y z
#    x 2.909000 0.000000 0.056810 
#    y 0.000000 2.751730 0.000000 
#    z 0.056810 0.000000 3.478180 
# 
# 
# High freq. dielectric constant tensor:
#      x y z
#    x 1.592410 0.000000 0.003250 
#    y 0.000000 1.598550 0.000000 
#    z 0.003250 0.000000 1.640960 
# 
# From -- ./inp_files/323779.got.cif
#   From: 2010.06.25/outbox.cif.g09.slc.cpg/sg12_162_cif.got.tgz:323779.got - 2010.06.28 00:19:55.
