data_PCOD8079559
_publ_section_title
;
Structure prediction by ZEFSAII (Michael W. Deem and Ramdas Pophale) SiO2 
 PCOD8079559
Probable space group: C 2/M
;
_chemical_formula_sum "Si O2"
_cell_formula_units_Z 56
_cell_length_a 25.376788
_cell_length_b 19.830709
_cell_length_c 8.988739
_cell_angle_alpha 90.000000
_cell_angle_beta 136.261472
_cell_angle_gamma 90.000000
_cell_volume 3127.398285
_symmetry_space_group_name_H-M "C 2/M"
_symmetry_group_IT_number 12
_symmetry_cell_setting 'monoclinic'
loop_
_space_group_symop_operation_xyz
x,y,z
-x,y,-z
-x,-y,-z
x,-y,z
1/2+x,1/2+y,z
1/2-x,1/2+y,-z
1/2-x,1/2-y,-z
1/2+x,1/2-y,z
loop_
_atom_site_type_symbol
_atom_site_label
_atom_site_fract_x
_atom_site_fract_y
_atom_site_fract_z
Si Si1 0.715914 0.644906 0.392491
Si Si2 0.689357 0.214171 0.183660
Si Si3 0.469582 0.605567 0.278094
Si Si4 0.691567 0.327836 0.806497
Si Si5 0.432502 0.751426 0.271173
Si Si6 0.614404 0.423216 0.418686
Si Si7 0.794295 0.924859 0.915232
O O1 0.688267 0.714070 0.261673
O O2 0.787824 0.656545 0.650768
O O3 0.642793 0.615254 0.329547
O O4 0.743073 0.593470 0.320579
O O5 0.750864 0.214575 0.176381
O O6 0.606368 0.202100 0.937238
O O7 0.500000 0.579460 0.500000
O O8 0.471495 0.686736 0.274283
O O9 0.522699 0.578622 0.251560
O O10 0.385415 0.577453 0.081229
O O11 0.633100 0.273294 0.750729
O O12 0.647353 0.386270 0.630097
O O13 0.734551 0.369233 0.025218
O O14 0.500000 0.790545 0.500000
O O15 0.643930 0.500000 0.473214
O O16 0.767980 0.000000 0.907105
#
# Coordination Sequence:
#
# PCOD8079559 Si02
#       7
#     8   8   8   8   8   8   8
#     4  10  22  34  48  68 102 145 182 210 262 304
#     4  10  20  37  52  69 100 142 181 223 262 304
#     4  10  18  31  46  72 106 144 178 210 250 284
#     4  10  19  31  54  76  97 141 181 221 261 296
#     4  10  17  32  53  77  98 127 180 225 257 298
#     4  11  20  32  48  72 108 148 182 210 250 307
#     4  11  20  32  49  76 107 137 179 219 252 311
#
# _framework density 17.906258000000001
#
# number of rings (size 3 to 8) (size 9 to 14) (size 15 to 20)
#    0.000    1.714    7.143    1.714    0.000    1.143 
#    0.000    1.429    0.000    0.000    0.000    0.000 
#    0.000   21.714    0.000    0.000    0.000    0.000 
#
# Total GULP energy -347004.935890 kJ/mol
# GULP energy per Si atom -12393.033425 kJ/mol
# Density = 1.786550 g / cm^3
# Si number density = 17.906258 Si / 1000 Ang^3
#
#
#
# Elastic Constant Matrix: (Units=GPa)
#
#
# Indices 1 2 3 4 5 6 
#
# 1 60.6109 29.0323 20.1220 0.0000 -18.6303 0.0000
# 2 29.0323 50.4482 25.4912 0.0000 -0.4008 0.0000
# 3 20.1220 25.4912 118.8084 0.0000 -4.8732 0.0000
# 4 0.0000 0.0000 0.0000 18.2156 0.0000 -3.4134
# 5 -18.6303 -0.4008 -4.8732 0.0000 23.0488 0.0000
# 6 0.0000 0.0000 0.0000 -3.4134 0.0000 19.8733
#
#
#
# Elastic Compliance Matrix: (Units=1/GPa)
#
#
# Indices 1 2 3 4 5 6 
#
# 1 0.034265 -0.019218 -0.000562 0.000000 0.027243 0.000000
# 2 -0.019218 0.033021 -0.004482 0.000000 -0.015908 0.000000
# 3 -0.000562 -0.004482 0.009535 0.000000 0.001483 0.000000
# 4 0.000000 0.000000 0.000000 0.056724 0.000000 0.009743
# 5 0.027243 -0.015908 0.001483 0.000000 0.065444 0.000000
# 6 0.000000 0.000000 0.000000 0.009743 0.000000 0.051992
#
#
# Mechanical properties :
#
#
# Convention : Reuss Voigt Hill
#
# Bulk Modulus (GPa) = 35.34324 42.12873 38.73598
# Shear Modulus (GPa) = 16.18455 22.57568 19.38011
#
# Velocity S-wave (km/s) = 3.00967 3.55459 3.29342
# Velocity P-wave (km/s) = 5.64431 6.35808 6.01180
#
# Compressibility (1/GPa) = 0.02829396
#
# Stress axis : x y z
#
# Youngs Moduli (GPa) = 29.18467 30.28402 104.87952
#
# Poissons Ratio (x) = 0.58200 0.05898
# Poissons Ratio (y) = 0.56088 0.47011
# Poissons Ratio (z) = 0.01641 0.13575
#
# Static dielectric constant tensor:
#      x y z
#    x 3.259860 0.000000 -0.197410 
#    y 0.000000 3.188520 0.000000 
#    z -0.197410 0.000000 3.682660 
# 
# 
# High freq. dielectric constant tensor:
#      x y z
#    x 1.672520 0.000000 -0.027180 
#    y 0.000000 1.664870 0.000000 
#    z -0.027180 0.000000 1.692110 
# 
# From -- ./inp_files/98915.got.cif
#   From: 2010.06.25/outbox.cif.g09.slc.cpg/sg12_50_cif.got.tgz:98915.got - 2010.06.28 00:19:55.
