data_PCOD8079829
_publ_section_title
;
Structure prediction by ZEFSAII (Michael W. Deem and Ramdas Pophale) SiO2 
 PCOD8079829
Probable space group: C 2/M
;
_chemical_formula_sum "Si O2"
_cell_formula_units_Z 56
_cell_length_a 22.744982
_cell_length_b 9.388596
_cell_length_c 21.513995
_cell_angle_alpha 90.000000
_cell_angle_beta 48.765795
_cell_angle_gamma 90.000000
_cell_volume 3454.916810
_symmetry_space_group_name_H-M "C 2/M"
_symmetry_group_IT_number 12
_symmetry_cell_setting 'monoclinic'
loop_
_space_group_symop_operation_xyz
x,y,z
-x,y,-z
-x,-y,-z
x,-y,z
1/2+x,1/2+y,z
1/2-x,1/2+y,-z
1/2-x,1/2-y,-z
1/2+x,1/2-y,z
loop_
_atom_site_type_symbol
_atom_site_label
_atom_site_fract_x
_atom_site_fract_y
_atom_site_fract_z
Si Si1 0.327981 0.669043 0.928349
Si Si2 0.879758 0.834788 0.756177
Si Si3 0.939769 0.832222 0.958830
Si Si4 0.625844 0.839299 0.424949
Si Si5 0.889614 0.830966 0.127572
Si Si6 0.761039 0.832601 0.729392
Si Si7 0.993802 0.340670 0.604579
O O1 0.313837 0.500000 0.942321
O O2 0.353358 0.717481 0.842182
O O3 0.395109 0.722227 0.928900
O O4 0.250000 0.750000 0.000000
O O5 0.810685 0.796760 0.756473
O O6 0.961541 0.759417 0.681733
O O7 0.898942 0.000000 0.742401
O O8 0.030204 0.784716 0.893788
O O9 0.938660 0.000000 0.963533
O O10 0.895932 0.778391 0.051596
O O11 0.695865 0.729868 0.361805
O O12 0.579319 0.791232 0.519923
O O13 0.565718 0.835949 0.410591
O O14 0.658795 0.000000 0.409916
O O15 0.821579 0.744546 0.208272
O O16 0.873497 0.000000 0.143832
O O17 0.749021 0.000000 0.728642
O O18 0.999925 0.500000 0.627073
#
# Coordination Sequence:
#
# PCOD8079829 Si02
#       7
#     8   8   8   8   8   8   8
#     4  10  19  31  45  63  87 114 142 173 206 246
#     4   9  18  28  39  59  89 118 140 164 205 256
#     4   8  16  30  47  63  80 107 145 180 210 243
#     4   8  14  25  40  59  82 110 141 173 205 242
#     4   9  16  29  47  63  79 106 144 182 212 242
#     4  10  18  26  38  62  91 115 137 166 207 254
#     4   8  14  25  41  59  81 109 143 175 203 240
#
# _framework density 16.208784000000001
#
# number of rings (size 3 to 8) (size 9 to 14) (size 15 to 20)
#    0.000    3.143    0.000    3.000    0.000    1.714 
#    0.000    5.000    0.000    0.000    0.000    1.000 
#    0.000    0.000    0.000    0.000    0.000    0.000 
#
# Total GULP energy -347036.425604 kJ/mol
# GULP energy per Si atom -12394.158057 kJ/mol
# Density = 1.617189 g / cm^3
# Si number density = 16.208784 Si / 1000 Ang^3
#
#
#
# Elastic Constant Matrix: (Units=GPa)
#
#
# Indices 1 2 3 4 5 6 
#
# 1 66.8665 32.4839 54.8888 -0.0001 -9.2176 0.0002
# 2 32.4839 62.5916 64.8317 -0.0003 -13.3202 0.0008
# 3 54.8888 64.8317 156.1110 -0.0001 -20.9138 0.0001
# 4 -0.0001 -0.0003 -0.0001 29.4393 0.0000 -5.8262
# 5 -9.2176 -13.3202 -20.9138 0.0000 23.2314 0.0000
# 6 0.0002 0.0008 0.0001 -5.8262 0.0000 14.1265
#
#
#
# Elastic Compliance Matrix: (Units=1/GPa)
#
#
# Indices 1 2 3 4 5 6 
#
# 1 0.022263 -0.005959 -0.005262 0.000000 0.000680 0.000000
# 2 -0.005959 0.030484 -0.009711 0.000000 0.006372 -0.000002
# 3 -0.005262 -0.009711 0.012808 0.000000 0.003874 0.000001
# 4 0.000000 0.000000 0.000000 0.036987 0.000000 0.015255
# 5 0.000680 0.006372 0.003874 0.000000 0.050456 0.000000
# 6 0.000000 -0.000002 0.000001 0.015255 0.000000 0.077081
#
#
# Mechanical properties :
#
#
# Convention : Reuss Voigt Hill
#
# Bulk Modulus (GPa) = 42.21078 65.55309 53.88194
# Shear Modulus (GPa) = 17.86740 22.25041 20.05891
#
# Velocity S-wave (km/s) = 3.32374 3.70907 3.52168
# Velocity P-wave (km/s) = 6.38968 7.67292 7.06051
#
# Compressibility (1/GPa) = 0.02369063
#
# Stress axis : x y z
#
# Youngs Moduli (GPa) = 44.91706 32.80448 78.07902
#
# Poissons Ratio (x) = 0.19550 0.41084
# Poissons Ratio (y) = 0.26768 0.75820
# Poissons Ratio (z) = 0.23635 0.31855
#
# Static dielectric constant tensor:
#      x y z
#    x 3.156220 0.000000 0.021930 
#    y 0.000000 2.958010 0.000000 
#    z 0.021930 0.000000 3.373810 
# 
# 
# High freq. dielectric constant tensor:
#      x y z
#    x 1.582270 0.000000 -0.014440 
#    y 0.000000 1.610310 0.000000 
#    z -0.014440 0.000000 1.632190 
# 
# From -- ./inp_files/280180.got.cif
#   From: 2010.06.25/outbox.cif.g09.slc.cpg/sg12_141_cif.got.tgz:280180.got - 2010.06.28 00:19:55.
