data_PCOD8079611
_publ_section_title
;
Structure prediction by ZEFSAII (Michael W. Deem and Ramdas Pophale) SiO2 
 PCOD8079611
Probable space group: C 2/M
;
_chemical_formula_sum "Si O2"
_cell_formula_units_Z 56
_cell_length_a 19.317591
_cell_length_b 18.832144
_cell_length_c 11.681985
_cell_angle_alpha 90.000000
_cell_angle_beta 138.876265
_cell_angle_gamma 90.000000
_cell_volume 2795.045422
_symmetry_space_group_name_H-M "C 2/M"
_symmetry_group_IT_number 12
_symmetry_cell_setting 'monoclinic'
loop_
_space_group_symop_operation_xyz
x,y,z
-x,y,-z
-x,-y,-z
x,-y,z
1/2+x,1/2+y,z
1/2-x,1/2+y,-z
1/2-x,1/2-y,-z
1/2+x,1/2-y,z
loop_
_atom_site_type_symbol
_atom_site_label
_atom_site_fract_x
_atom_site_fract_y
_atom_site_fract_z
Si Si1 0.051874 0.294182 0.442931
Si Si2 0.220474 0.080749 0.511752
Si Si3 0.971488 0.129144 0.593655
Si Si4 0.858219 0.679306 0.073178
Si Si5 0.290948 0.329455 0.720165
Si Si6 0.875276 0.675364 0.837805
Si Si7 0.667332 0.655084 0.973026
O O1 0.063462 0.210567 0.436415
O O2 0.166171 0.327330 0.578495
O O3 0.000000 0.309443 0.500000
O O4 0.980141 0.334601 0.258752
O O5 0.126933 0.082560 0.487927
O O6 0.178748 0.117383 0.343537
O O7 0.325481 0.119141 0.688843
O O8 0.251321 0.000000 0.523982
O O9 0.000000 0.108725 0.500000
O O10 0.072964 0.111004 0.798084
O O11 0.779997 0.633982 0.057381
O O12 0.830642 0.659334 0.908777
O O13 0.845754 0.763068 0.077108
O O14 0.341914 0.253474 0.753548
O O15 0.337538 0.358755 0.897474
O O16 0.000000 0.668595 0.000000
#
# Coordination Sequence:
#
# PCOD8079611 Si02
#       7
#     8   8   8   8   8   8   8
#     4  10  17  32  60  97 127 151 191 258 323 364
#     4  12  27  43  60  86 128 175 210 251 311 376
#     4  10  21  37  60  88 124 162 205 253 309 371
#     4   9  17  30  54  91 121 151 191 252 316 357
#     4  11  22  37  61  94 125 160 207 258 311 371
#     4  11  23  38  64  93 120 158 211 266 314 360
#     4   9  18  31  55  87 124 152 194 250 303 367
#
# _framework density 20.035453
#
# number of rings (size 3 to 8) (size 9 to 14) (size 15 to 20)
#    0.000    1.714    2.857    2.143   10.000    0.571 
#    0.000    1.429    0.000    1.286    0.000    0.000 
#    0.000    0.000    0.000    0.000    0.000    0.000 
#
# Total GULP energy -347217.157484 kJ/mol
# GULP energy per Si atom -12400.612767 kJ/mol
# Density = 1.998985 g / cm^3
# Si number density = 20.035453 Si / 1000 Ang^3
#
#
#
# Elastic Constant Matrix: (Units=GPa)
#
#
# Indices 1 2 3 4 5 6 
#
# 1 84.0907 39.3691 35.5986 0.0000 4.5198 0.0000
# 2 39.3691 72.2776 47.0956 0.0000 -13.1505 0.0000
# 3 35.5986 47.0956 143.8613 0.0000 1.4288 0.0000
# 4 0.0000 0.0000 0.0000 4.8097 0.0000 1.6011
# 5 4.5198 -13.1505 1.4288 0.0000 40.9965 0.0000
# 6 0.0000 0.0000 0.0000 1.6011 0.0000 13.0770
#
#
#
# Elastic Compliance Matrix: (Units=1/GPa)
#
#
# Indices 1 2 3 4 5 6 
#
# 1 0.017042 -0.009476 -0.001066 0.000000 -0.004881 0.000000
# 2 -0.009476 0.024377 -0.005725 0.000000 0.009064 0.000000
# 3 -0.001066 -0.005725 0.009110 0.000000 -0.002036 0.000000
# 4 0.000000 0.000000 0.000000 0.216746 0.000000 -0.026538
# 5 -0.004881 0.009064 -0.002036 0.000000 0.027909 0.000000
# 6 0.000000 0.000000 0.000000 -0.026538 0.000000 0.079719
#
#
# Mechanical properties :
#
#
# Convention : Reuss Voigt Hill
#
# Bulk Modulus (GPa) = 55.57766 60.48403 58.03084
# Shear Modulus (GPa) = 12.09378 23.65440 17.87409
#
# Velocity S-wave (km/s) = 2.45953 3.43975 2.99008
# Velocity P-wave (km/s) = 5.98879 6.78453 6.39904
#
# Compressibility (1/GPa) = 0.01799284
#
# Stress axis : x y z
#
# Youngs Moduli (GPa) = 58.67788 41.02278 109.77477
#
# Poissons Ratio (x) = 0.38873 0.11707
# Poissons Ratio (y) = 0.55603 0.62850
# Poissons Ratio (z) = 0.06258 0.23487
#
# Static dielectric constant tensor:
#      x y z
#    x 3.742040 0.000000 -0.048160 
#    y 0.000000 2.989100 0.000000 
#    z -0.048160 0.000000 3.965790 
# 
# 
# High freq. dielectric constant tensor:
#      x y z
#    x 1.796130 0.000000 -0.000820 
#    y 0.000000 1.704970 0.000000 
#    z -0.000820 0.000000 1.805260 
# 
# From -- ./inp_files/169481.got.cif
#   From: 2010.06.25/outbox.cif.g09.slc.cpg/sg12_85_cif.got.tgz:169481.got - 2010.06.28 00:19:55.
