data_PCOD8079312
_publ_section_title
;
Structure prediction by ZEFSAII (Michael W. Deem and Ramdas Pophale) SiO2 
 PCOD8079312
Probable space group: C 2/M
;
_chemical_formula_sum "Si O2"
_cell_formula_units_Z 56
_cell_length_a 9.494153
_cell_length_b 27.689914
_cell_length_c 14.028033
_cell_angle_alpha 90.000000
_cell_angle_beta 123.448680
_cell_angle_gamma 90.000000
_cell_volume 3077.077426
_symmetry_space_group_name_H-M "C 2/M"
_symmetry_group_IT_number 12
_symmetry_cell_setting 'monoclinic'
loop_
_space_group_symop_operation_xyz
x,y,z
-x,y,-z
-x,-y,-z
x,-y,z
1/2+x,1/2+y,z
1/2-x,1/2+y,-z
1/2-x,1/2-y,-z
1/2+x,1/2-y,z
loop_
_atom_site_type_symbol
_atom_site_label
_atom_site_fract_x
_atom_site_fract_y
_atom_site_fract_z
Si Si1 0.927959 0.876737 0.573149
Si Si2 0.895746 0.696900 0.364100
Si Si3 0.453712 0.901438 0.584298
Si Si4 0.338362 0.443172 0.996120
Si Si5 0.846684 0.942998 0.221499
Si Si6 0.015714 0.444495 0.205866
Si Si7 0.613462 0.726141 0.380012
O O1 0.726895 0.877062 0.496730
O O2 0.978573 0.821197 0.610717
O O3 0.000000 0.894814 0.500000
O O4 0.996042 0.913869 0.677269
O O5 0.914812 0.641289 0.338723
O O6 0.700382 0.710474 0.312416
O O7 0.000000 0.704161 0.500000
O O8 0.967408 0.733604 0.310231
O O9 0.500000 0.926431 0.500000
O O10 0.454782 0.939838 0.669701
O O11 0.336416 0.500000 0.976649
O O12 0.347251 0.430974 0.110476
O O13 0.500000 0.420881 0.000000
O O14 0.162777 0.420392 0.890745
O O15 0.673548 0.922881 0.205203
O O16 0.872160 0.000000 0.250676
O O17 0.007775 0.500000 0.174695
O O18 0.750000 0.750000 0.500000
#
# Coordination Sequence:
#
# PCOD8079312 Si02
#       7
#     8   8   8   8   8   8   8
#     4  12  21  32  51  77 109 143 175 210 258 323
#     4   9  17  29  45  67  99 133 169 210 251 299
#     4  11  21  34  47  75 112 140 171 213 266 315
#     4   9  19  36  57  77  95 127 181 233 267 300
#     4  10  22  37  53  75 104 141 180 221 262 308
#     4  10  21  37  55  73 102 144 183 218 261 310
#     4  10  17  30  48  70  99 139 174 211 250 302
#
# _framework density 18.199086999999999
#
# number of rings (size 3 to 8) (size 9 to 14) (size 15 to 20)
#    0.000    1.857    5.714    1.714    2.000    2.857 
#    0.000    0.000    0.000    0.000    0.000    1.000 
#    0.000    0.286    0.000    0.000    0.000    0.000 
#
# Total GULP energy -347035.612008 kJ/mol
# GULP energy per Si atom -12394.129000 kJ/mol
# Density = 1.815767 g / cm^3
# Si number density = 18.199087 Si / 1000 Ang^3
#
#
#
# Elastic Constant Matrix: (Units=GPa)
#
#
# Indices 1 2 3 4 5 6 
#
# 1 123.4608 14.8043 32.1306 0.0000 -9.6916 0.0000
# 2 14.8043 44.4533 24.5046 0.0000 0.3691 0.0000
# 3 32.1306 24.5046 63.5731 0.0000 -7.9516 0.0000
# 4 0.0000 0.0000 0.0000 3.7094 0.0000 3.0108
# 5 -9.6916 0.3691 -7.9516 0.0000 22.4827 0.0000
# 6 0.0000 0.0000 0.0000 3.0108 0.0000 21.8888
#
#
#
# Elastic Compliance Matrix: (Units=1/GPa)
#
#
# Indices 1 2 3 4 5 6 
#
# 1 0.009487 -0.000916 -0.004111 0.000000 0.002651 0.000000
# 2 -0.000916 0.029108 -0.011369 0.000000 -0.004894 0.000000
# 3 -0.004111 -0.011369 0.023009 0.000000 0.006553 0.000000
# 4 0.000000 0.000000 0.000000 0.303468 0.000000 -0.041742
# 5 0.002651 -0.004894 0.006553 0.000000 0.048019 0.000000
# 6 0.000000 0.000000 0.000000 -0.041742 0.000000 0.051427
#
#
# Mechanical properties :
#
#
# Convention : Reuss Voigt Hill
#
# Bulk Modulus (GPa) = 34.70515 41.59624 38.15069
# Shear Modulus (GPa) = 9.86359 20.28602 15.07480
#
# Velocity S-wave (km/s) = 2.33058 3.34229 2.88119
# Velocity P-wave (km/s) = 5.13354 6.14820 5.66364
#
# Compressibility (1/GPa) = 0.02881417
#
# Stress axis : x y z
#
# Youngs Moduli (GPa) = 105.40296 34.35443 43.46064
#
# Poissons Ratio (x) = 0.03146 0.17864
# Poissons Ratio (y) = 0.09652 0.49411
# Poissons Ratio (z) = 0.43326 0.39058
#
# Static dielectric constant tensor:
#      x y z
#    x 4.258480 0.000000 0.131610 
#    y 0.000000 3.223070 0.000000 
#    z 0.131610 0.000000 2.979310 
# 
# 
# High freq. dielectric constant tensor:
#      x y z
#    x 1.734270 0.000000 0.005220 
#    y 0.000000 1.678860 0.000000 
#    z 0.005220 0.000000 1.651330 
# 
# From -- ./inp_files/201005.got.cif
#   From: 2010.06.25/outbox.cif.g09.slc.cpg/sg12_101_cif.got.tgz:201005.got - 2010.06.28 00:19:55.
