data_PCOD8079255
_publ_section_title
;
Structure prediction by ZEFSAII (Michael W. Deem and Ramdas Pophale) SiO2 
 PCOD8079255
Probable space group: C 2/M
;
_chemical_formula_sum "Si O2"
_cell_formula_units_Z 56
_cell_length_a 17.697229
_cell_length_b 17.623960
_cell_length_c 15.026605
_cell_angle_alpha 90.000000
_cell_angle_beta 39.072069
_cell_angle_gamma 90.000000
_cell_volume 2954.031815
_symmetry_space_group_name_H-M "C 2/M"
_symmetry_group_IT_number 12
_symmetry_cell_setting 'monoclinic'
loop_
_space_group_symop_operation_xyz
x,y,z
-x,y,-z
-x,-y,-z
x,-y,z
1/2+x,1/2+y,z
1/2-x,1/2+y,-z
1/2-x,1/2-y,-z
1/2+x,1/2-y,z
loop_
_atom_site_type_symbol
_atom_site_label
_atom_site_fract_x
_atom_site_fract_y
_atom_site_fract_z
Si Si1 0.250322 0.415081 0.091699
Si Si2 0.578258 0.225547 0.629030
Si Si3 0.864260 0.209724 0.092324
Si Si4 0.875624 0.318418 0.920747
Si Si5 0.564600 0.086961 0.847367
Si Si6 0.513238 0.915663 0.588428
Si Si7 0.737639 0.788094 0.652795
O O1 0.298650 0.500000 0.026346
O O2 0.341018 0.375398 0.078510
O O3 0.240287 0.363227 0.011306
O O4 0.118895 0.418767 0.251291
O O5 0.438008 0.234492 0.786062
O O6 0.596710 0.141808 0.568205
O O7 0.653666 0.239187 0.649183
O O8 0.625409 0.286158 0.510907
O O9 0.775949 0.227831 0.254707
O O10 0.833882 0.268717 0.041527
O O11 0.000000 0.219950 0.000000
O O12 0.977544 0.380240 0.851683
O O13 0.693435 0.129590 0.727997
O O14 0.590835 0.000000 0.802677
O O15 0.500000 0.099728 0.000000
O O16 0.500000 0.886265 0.500000
O O17 0.571759 0.000000 0.538060
#
# Coordination Sequence:
#
# PCOD8079255 Si02
#       7
#     8   8   8   8   8   8   8
#     4  10  22  34  52  78 108 142 180 223 270 325
#     4   9  18  29  51  72 103 141 173 218 269 313
#     4  12  20  35  55  77 111 143 181 222 269 324
#     4  10  18  36  53  81 105 139 179 233 275 314
#     4  10  17  29  52  78 107 138 174 225 281 319
#     4   9  17  32  50  74 104 134 174 221 270 318
#     4  10  18  32  47  76 106 140 175 216 268 325
#
# _framework density 18.957142000000001
#
# number of rings (size 3 to 8) (size 9 to 14) (size 15 to 20)
#    0.000    2.000    4.286    1.714    0.000    3.714 
#    0.000    0.000    0.000    1.714    0.000    0.000 
#    0.000    6.286    0.000    0.000    0.000    0.000 
#
# Total GULP energy -346925.578086 kJ/mol
# GULP energy per Si atom -12390.199217 kJ/mol
# Density = 1.891399 g / cm^3
# Si number density = 18.957142 Si / 1000 Ang^3
#
#
#
# Elastic Constant Matrix: (Units=GPa)
#
#
# Indices 1 2 3 4 5 6 
#
# 1 69.6566 43.4468 19.2599 0.0002 19.4617 -0.0001
# 2 43.4468 101.2206 37.0513 0.0001 6.8649 -0.0001
# 3 19.2599 37.0513 77.8307 0.0002 25.3371 -0.0002
# 4 0.0002 0.0001 0.0002 22.2624 -0.0002 -1.0885
# 5 19.4617 6.8649 25.3371 -0.0002 19.2022 0.0002
# 6 -0.0001 -0.0001 -0.0002 -1.0885 0.0002 30.7373
#
#
#
# Elastic Compliance Matrix: (Units=1/GPa)
#
#
# Indices 1 2 3 4 5 6 
#
# 1 0.034787 -0.017384 0.015991 -0.000001 -0.050142 0.000000
# 2 -0.017384 0.021015 -0.015764 0.000000 0.030906 0.000000
# 3 0.015991 -0.015764 0.034774 -0.000001 -0.056456 0.000001
# 4 -0.000001 0.000000 -0.000001 0.044997 0.000002 0.001593
# 5 -0.050142 0.030906 -0.056456 0.000002 0.166340 -0.000001
# 6 0.000000 0.000000 0.000001 0.001593 -0.000001 0.032590
#
#
# Mechanical properties :
#
#
# Convention : Reuss Voigt Hill
#
# Bulk Modulus (GPa) = 17.77394 49.80267 33.78830
# Shear Modulus (GPa) = 12.90079 24.37038 18.63558
#
# Velocity S-wave (km/s) = 2.61152 3.58935 3.13874
# Velocity P-wave (km/s) = 4.29995 6.59592 5.56757
#
# Compressibility (1/GPa) = 0.05626216
#
# Stress axis : x y z
#
# Youngs Moduli (GPa) = 28.74615 47.58403 28.75682
#
# Poissons Ratio (x) = 0.82722 -0.45984
# Poissons Ratio (y) = 0.49973 0.45332
# Poissons Ratio (z) = -0.45967 0.75010
#
# Static dielectric constant tensor:
#      x y z
#    x 3.493390 0.000000 0.296760 
#    y 0.000000 3.702680 0.000000 
#    z 0.296760 0.000000 3.729460 
# 
# 
# High freq. dielectric constant tensor:
#      x y z
#    x 1.725280 0.000000 0.032630 
#    y 0.000000 1.721260 0.000000 
#    z 0.032630 0.000000 1.728570 
# 
# From -- ./inp_files/226538.got.cif
#   From: 2010.06.25/outbox.cif.g09.slc.cpg/sg12_114_cif.got.tgz:226538.got - 2010.06.28 00:19:55.
