data_PCOD8079982
_publ_section_title
;
Structure prediction by ZEFSAII (Michael W. Deem and Ramdas Pophale) SiO2 
 PCOD8079982
Probable space group: C 2/M
;
_chemical_formula_sum "Si O2"
_cell_formula_units_Z 56
_cell_length_a 25.487902
_cell_length_b 8.873414
_cell_length_c 14.191975
_cell_angle_alpha 90.000000
_cell_angle_beta 75.742241
_cell_angle_gamma 90.000000
_cell_volume 3110.856555
_symmetry_space_group_name_H-M "C 2/M"
_symmetry_group_IT_number 12
_symmetry_cell_setting 'monoclinic'
loop_
_space_group_symop_operation_xyz
x,y,z
-x,y,-z
-x,-y,-z
x,-y,z
1/2+x,1/2+y,z
1/2-x,1/2+y,-z
1/2-x,1/2-y,-z
1/2+x,1/2-y,z
loop_
_atom_site_type_symbol
_atom_site_label
_atom_site_fract_x
_atom_site_fract_y
_atom_site_fract_z
Si Si1 0.617448 0.679144 0.739896
Si Si2 0.934205 0.820948 0.625291
Si Si3 0.054760 0.179449 0.589510
Si Si4 0.160757 0.821381 0.009721
Si Si5 0.277567 0.321328 0.201010
Si Si6 0.669251 0.679439 0.216299
Si Si7 0.557750 0.320519 0.948557
O O1 0.616393 0.500000 0.738612
O O2 0.596325 0.745299 0.649470
O O3 0.678526 0.730816 0.739481
O O4 0.576262 0.738145 0.838045
O O5 0.926187 0.762814 0.521477
O O6 0.885651 0.757174 0.711383
O O7 0.992929 0.766167 0.637447
O O8 0.932544 0.000000 0.627076
O O9 0.055717 0.000000 0.591684
O O10 0.203134 0.765596 0.911579
O O11 0.100765 0.766700 0.007679
O O12 0.162150 0.000000 0.011951
O O13 0.173278 0.756314 0.107750
O O14 0.270361 0.500000 0.205985
O O15 0.220865 0.242098 0.250527
O O16 0.670000 0.500000 0.218603
O O17 0.554347 0.500000 0.948752
O O18 0.500000 0.248344 0.000000
#
# Coordination Sequence:
#
# PCOD8079982 Si02
#       7
#     8   8   8   8   8   8   8
#     4   8  14  23  38  55  76 108 139 165 202 245
#     4   8  15  24  37  60  86 106 130 167 208 250
#     4   8  13  24  39  57  83 110 131 161 212 258
#     4   8  15  25  37  56  84 111 135 165 203 242
#     4   9  17  30  42  58  84 113 142 169 197 241
#     4  10  18  27  42  63  85 109 138 172 205 237
#     4   8  13  19  30  53  82 106 129 163 204 245
#
# _framework density 18.001473000000001
#
# number of rings (size 3 to 8) (size 9 to 14) (size 15 to 20)
#    0.000    3.571    0.000    3.000    2.000    0.000 
#    0.000    0.714    0.000    0.000    0.000    3.000 
#    0.000    3.429    0.000    0.000    0.000    0.000 
#
# Total GULP energy -346908.592803 kJ/mol
# GULP energy per Si atom -12389.592600 kJ/mol
# Density = 1.796050 g / cm^3
# Si number density = 18.001473 Si / 1000 Ang^3
#
#
#
# Elastic Constant Matrix: (Units=GPa)
#
#
# Indices 1 2 3 4 5 6 
#
# 1 142.8306 11.6638 73.9320 0.0000 5.0537 0.0000
# 2 11.6638 5.2173 8.9810 0.0000 -1.2681 0.0000
# 3 73.9320 8.9810 91.7285 0.0000 9.2132 0.0000
# 4 0.0000 0.0000 0.0000 5.5811 0.0000 -2.3861
# 5 5.0537 -1.2681 9.2132 0.0000 34.9660 0.0000
# 6 0.0000 0.0000 0.0000 -2.3861 0.0000 18.4399
#
#
#
# Elastic Compliance Matrix: (Units=1/GPa)
#
#
# Indices 1 2 3 4 5 6 
#
# 1 0.012702 -0.012927 -0.008978 0.000000 0.000061 0.000000
# 2 -0.012927 0.251275 -0.015701 0.000000 0.015119 0.000000
# 3 -0.008978 -0.015701 0.020135 0.000000 -0.004577 0.000000
# 4 0.000000 0.000000 0.000000 0.189670 0.000000 0.024543
# 5 0.000061 0.015119 -0.004577 0.000000 0.030345 0.000000
# 6 0.000000 0.000000 0.000000 0.024543 0.000000 0.057406
#
#
# Mechanical properties :
#
#
# Convention : Reuss Voigt Hill
#
# Bulk Modulus (GPa) = 4.78701 47.65887 26.22294
# Shear Modulus (GPa) = 7.07835 21.47736 14.27785
#
# Velocity S-wave (km/s) = 1.98510 3.45786 2.81935
# Velocity P-wave (km/s) = 2.81410 6.51727 5.01966
#
# Compressibility (1/GPa) = 0.20889888
#
# Stress axis : x y z
#
# Youngs Moduli (GPa) = 78.72737 3.97970 49.66474
#
# Poissons Ratio (x) = 0.05145 0.44590
# Poissons Ratio (y) = 1.01772 0.77980
# Poissons Ratio (z) = 0.70682 0.06249
#
# Static dielectric constant tensor:
#      x y z
#    x 3.675730 0.000000 0.101660 
#    y 0.000000 2.522910 0.000000 
#    z 0.101660 0.000000 3.601330 
# 
# 
# High freq. dielectric constant tensor:
#      x y z
#    x 1.711470 0.000000 0.002850 
#    y 0.000000 1.614290 0.000000 
#    z 0.002850 0.000000 1.688610 
# 
# From -- ./inp_files/231801.got.cif
#   From: 2010.06.25/outbox.cif.g09.slc.cpg/sg12_116_cif.got.tgz:231801.got - 2010.06.28 00:19:55.
