data_PCOD8079451
_publ_section_title
;
Structure prediction by ZEFSAII (Michael W. Deem and Ramdas Pophale) SiO2 
 PCOD8079451
Probable space group: C 2/M
;
_chemical_formula_sum "Si O2"
_cell_formula_units_Z 48
_cell_length_a 21.463390
_cell_length_b 17.330617
_cell_length_c 9.118523
_cell_angle_alpha 90.000000
_cell_angle_beta 56.356454
_cell_angle_gamma 90.000000
_cell_volume 2823.717829
_symmetry_space_group_name_H-M "C 2/M"
_symmetry_group_IT_number 12
_symmetry_cell_setting 'monoclinic'
loop_
_space_group_symop_operation_xyz
x,y,z
-x,y,-z
-x,-y,-z
x,-y,z
1/2+x,1/2+y,z
1/2-x,1/2+y,-z
1/2-x,1/2-y,-z
1/2+x,1/2-y,z
loop_
_atom_site_type_symbol
_atom_site_label
_atom_site_fract_x
_atom_site_fract_y
_atom_site_fract_z
Si Si1 0.535956 0.910938 0.611803
Si Si2 0.077470 0.086130 0.817995
Si Si3 0.340361 0.788841 0.530652
Si Si4 0.539860 0.670236 0.593011
Si Si5 0.041598 0.710209 0.099244
Si Si6 0.673866 0.728093 0.774550
O O1 0.500000 0.901302 0.500000
O O2 0.617498 0.870507 0.504596
O O3 0.479713 0.872833 0.804807
O O4 0.546849 0.000000 0.640857
O O5 0.065368 0.098830 0.659768
O O6 0.137540 0.144041 0.806629
O O7 0.108193 0.000000 0.801782
O O8 0.000000 0.099754 0.000000
O O9 0.388166 0.721331 0.545124
O O10 0.331683 0.775156 0.368825
O O11 0.259163 0.786992 0.712885
O O12 0.500000 0.637635 0.500000
O O13 0.483461 0.724583 0.755268
O O14 0.130550 0.720701 0.953942
O O15 0.000000 0.724113 0.000000
#
# Coordination Sequence:
#
# PCOD8079451 Si02
#       6
#     8   8   8   8   8   8
#     4  10  21  36  52  74 106 139 168 203 254 310
#     4  10  18  31  51  72  95 128 164 202 244 286
#     4   9  18  31  51  76 100 129 162 205 257 296
#     4  10  18  32  50  72 102 130 165 202 241 298
#     4  11  16  32  54  76  98 128 172 214 241 290
#     4  10  17  31  51  78 102 121 165 215 249 291
#
# _framework density 16.998866
#
# number of rings (size 3 to 8) (size 9 to 14) (size 15 to 20)
#    0.000    2.000    6.667    2.000    0.000    1.333 
#    0.000    3.333    0.000    1.000    0.000    0.000 
#    0.000    0.000    0.000    0.000    0.000    0.000 
#
# Total GULP energy -297515.365466 kJ/mol
# GULP energy per Si atom -12396.473561 kJ/mol
# Density = 1.696018 g / cm^3
# Si number density = 16.998866 Si / 1000 Ang^3
#
#
#
# Elastic Constant Matrix: (Units=GPa)
#
#
# Indices 1 2 3 4 5 6 
#
# 1 84.4750 38.5030 47.7879 0.0000 -24.5474 0.0000
# 2 38.5030 94.8822 35.6229 0.0000 -18.0398 0.0000
# 3 47.7879 35.6229 79.0331 0.0000 -24.3722 0.0000
# 4 0.0000 0.0000 0.0000 17.3168 0.0000 -1.2754
# 5 -24.5474 -18.0398 -24.3722 0.0000 38.0502 0.0000
# 6 0.0000 0.0000 0.0000 -1.2754 0.0000 16.0316
#
#
#
# Elastic Compliance Matrix: (Units=1/GPa)
#
#
# Indices 1 2 3 4 5 6 
#
# 1 0.020149 -0.003836 -0.008731 0.000000 0.005588 0.000000
# 2 -0.003836 0.013684 -0.003254 0.000000 0.001929 0.000000
# 3 -0.008731 -0.003254 0.021416 0.000000 0.006542 0.000000
# 4 0.000000 0.000000 0.000000 0.058088 0.000000 0.004621
# 5 0.005588 0.001929 0.006542 0.000000 0.034991 0.000000
# 6 0.000000 0.000000 0.000000 0.004621 0.000000 0.062744
#
#
# Mechanical properties :
#
#
# Convention : Reuss Voigt Hill
#
# Bulk Modulus (GPa) = 42.35822 55.80200 49.08011
# Shear Modulus (GPa) = 19.95335 23.37815 21.66575
#
# Velocity S-wave (km/s) = 3.42980 3.71250 3.57394
# Velocity P-wave (km/s) = 6.37629 7.16066 6.77983
#
# Compressibility (1/GPa) = 0.02360817
#
# Stress axis : x y z
#
# Youngs Moduli (GPa) = 49.62953 73.07604 46.69318
#
# Poissons Ratio (x) = 0.28033 0.40769
# Poissons Ratio (y) = 0.19038 0.15192
# Poissons Ratio (z) = 0.43333 0.23776
#
# Static dielectric constant tensor:
#      x y z
#    x 3.243550 0.000000 -0.285090 
#    y 0.000000 3.156900 0.000000 
#    z -0.285090 0.000000 3.586220 
# 
# 
# High freq. dielectric constant tensor:
#      x y z
#    x 1.642130 0.000000 -0.005200 
#    y 0.000000 1.644410 0.000000 
#    z -0.005200 0.000000 1.651510 
# 
# From -- ./inp_files/74604.got.cif
#   From: 2010.06.25/outbox.cif.g09.slc.cpg/sg12_38_cif.got.tgz:74604.got - 2010.06.28 00:19:55.
