data_PCOD8079115
_publ_section_title
;
Structure prediction by ZEFSAII (Michael W. Deem and Ramdas Pophale) SiO2 
 PCOD8079115
Probable space group: C 2/M
;
_chemical_formula_sum "Si O2"
_cell_formula_units_Z 56
_cell_length_a 31.084765
_cell_length_b 17.502181
_cell_length_c 9.477901
_cell_angle_alpha 90.000000
_cell_angle_beta 145.150571
_cell_angle_gamma 90.000000
_cell_volume 2946.515307
_symmetry_space_group_name_H-M "C 2/M"
_symmetry_group_IT_number 12
_symmetry_cell_setting 'monoclinic'
loop_
_space_group_symop_operation_xyz
x,y,z
-x,y,-z
-x,-y,-z
x,-y,z
1/2+x,1/2+y,z
1/2-x,1/2+y,-z
1/2-x,1/2-y,-z
1/2+x,1/2-y,z
loop_
_atom_site_type_symbol
_atom_site_label
_atom_site_fract_x
_atom_site_fract_y
_atom_site_fract_z
Si Si1 0.735170 0.588485 0.155331
Si Si2 0.898055 0.641236 0.630126
Si Si3 0.954659 0.411617 0.079789
Si Si4 0.790378 0.830633 0.634357
Si Si5 0.088473 0.186110 0.260137
Si Si6 0.187610 0.411218 0.154704
Si Si7 0.810267 0.910236 0.276218
O O1 0.722540 0.500000 0.163338
O O2 0.823209 0.604143 0.365270
O O3 0.701198 0.646827 0.179167
O O4 0.691373 0.607903 0.893330
O O5 0.886389 0.730052 0.626499
O O6 0.965721 0.632203 0.698486
O O7 0.918078 0.597499 0.827375
O O8 0.970418 0.500000 0.150955
O O9 0.896327 0.376860 0.040483
O O10 0.750000 0.750000 0.500000
O O11 0.872531 0.831912 0.784768
O O12 0.738444 0.896339 0.428624
O O13 0.116916 0.129060 0.458539
O O14 0.000000 0.177354 0.000000
O O15 0.175105 0.500000 0.103440
O O16 0.232463 0.378089 0.139504
O O17 0.816500 0.000000 0.323636
#
# Coordination Sequence:
#
# PCOD8079115 Si02
#       7
#     8   8   8   8   8   8   8
#     4  11  21  38  61  87 117 151 192 241 294 346
#     4  11  19  31  53  87 121 149 186 232 288 344
#     4  10  17  28  52  86 120 151 187 232 283 343
#     4  11  20  34  56  87 111 145 192 239 280 340
#     4  11  22  39  60  84 119 151 191 243 292 341
#     4   9  17  33  54  79 113 151 192 234 274 334
#     4   9  22  40  59  83 113 153 201 245 289 343
#
# _framework density 19.005500999999999
#
# number of rings (size 3 to 8) (size 9 to 14) (size 15 to 20)
#    0.000    1.714    4.286    2.143    0.000    1.429 
#    0.000    1.429    0.000    6.857    0.000    0.000 
#    0.000    0.000    0.000    0.000    0.000    0.000 
#
# Total GULP energy -347050.414336 kJ/mol
# GULP energy per Si atom -12394.657655 kJ/mol
# Density = 1.896224 g / cm^3
# Si number density = 19.005501 Si / 1000 Ang^3
#
#
#
# Elastic Constant Matrix: (Units=GPa)
#
#
# Indices 1 2 3 4 5 6 
#
# 1 114.7026 41.0247 45.2847 0.0000 3.5365 0.0000
# 2 41.0247 59.1939 31.1442 0.0000 -6.4410 0.0000
# 3 45.2847 31.1442 75.4037 0.0000 -0.5510 0.0000
# 4 0.0000 0.0000 0.0000 16.7772 0.0000 11.5312
# 5 3.5365 -6.4410 -0.5510 0.0000 31.7593 0.0000
# 6 0.0000 0.0000 0.0000 11.5312 0.0000 16.5941
#
#
#
# Elastic Compliance Matrix: (Units=1/GPa)
#
#
# Indices 1 2 3 4 5 6 
#
# 1 0.013292 -0.006799 -0.005196 0.000000 -0.002949 0.000000
# 2 -0.006799 0.025644 -0.006466 0.000000 0.005846 0.000000
# 3 -0.005196 -0.006466 0.019050 0.000000 -0.000402 0.000000
# 4 0.000000 0.000000 0.000000 0.114100 0.000000 -0.079288
# 5 -0.002949 0.005846 -0.000402 0.000000 0.032994 0.000000
# 6 0.000000 0.000000 0.000000 -0.079288 0.000000 0.115359
#
#
# Mechanical properties :
#
#
# Convention : Reuss Voigt Hill
#
# Bulk Modulus (GPa) = 47.47389 53.80080 50.63735
# Shear Modulus (GPa) = 13.72183 21.81590 17.76887
#
# Velocity S-wave (km/s) = 2.68991 3.39170 3.06098
# Velocity P-wave (km/s) = 5.88903 6.61118 6.26053
#
# Compressibility (1/GPa) = 0.02106421
#
# Stress axis : x y z
#
# Youngs Moduli (GPa) = 75.23054 38.99564 52.49318
#
# Poissons Ratio (x) = 0.26515 0.27276
# Poissons Ratio (y) = 0.51153 0.33940
# Poissons Ratio (z) = 0.39091 0.25213
#
# Static dielectric constant tensor:
#      x y z
#    x 5.486710 0.000000 0.104210 
#    y 0.000000 3.464350 0.000000 
#    z 0.104210 0.000000 3.231090 
# 
# 
# High freq. dielectric constant tensor:
#      x y z
#    x 1.745270 0.000000 0.015370 
#    y 0.000000 1.736200 0.000000 
#    z 0.015370 0.000000 1.706480 
# 
# From -- ./inp_files/106047.got.cif
#   From: 2010.06.25/outbox.cif.g09.slc.cpg/sg12_54_cif.got.tgz:106047.got - 2010.06.28 00:19:55.
