data_PCOD8079651
_publ_section_title
;
Structure prediction by ZEFSAII (Michael W. Deem and Ramdas Pophale) SiO2 
 PCOD8079651
Probable space group: C 2/M
;
_chemical_formula_sum "Si O2"
_cell_formula_units_Z 56
_cell_length_a 22.783640
_cell_length_b 17.974697
_cell_length_c 11.041910
_cell_angle_alpha 90.000000
_cell_angle_beta 40.907688
_cell_angle_gamma 90.000000
_cell_volume 2961.185193
_symmetry_space_group_name_H-M "C 2/M"
_symmetry_group_IT_number 12
_symmetry_cell_setting 'monoclinic'
loop_
_space_group_symop_operation_xyz
x,y,z
-x,y,-z
-x,-y,-z
x,-y,z
1/2+x,1/2+y,z
1/2-x,1/2+y,-z
1/2-x,1/2-y,-z
1/2+x,1/2-y,z
loop_
_atom_site_type_symbol
_atom_site_label
_atom_site_fract_x
_atom_site_fract_y
_atom_site_fract_z
Si Si1 0.631663 0.860046 0.865770
Si Si2 0.451165 0.916389 0.236102
Si Si3 0.630517 0.743318 0.054186
Si Si4 0.810684 0.916642 0.680623
Si Si5 0.088212 0.627028 0.437480
Si Si6 0.262974 0.137804 0.957979
Si Si7 0.951540 0.208609 0.455709
O O1 0.601371 0.860598 0.772916
O O2 0.723211 0.905684 0.734759
O O3 0.556571 0.897640 0.069180
O O4 0.643931 0.775546 0.897051
O O5 0.414203 0.910533 0.428268
O O6 0.436130 0.000000 0.211740
O O7 0.669731 0.801444 0.089973
O O8 0.524802 0.727625 0.238677
O O9 0.685969 0.668521 0.988800
O O10 0.883710 0.856486 0.521877
O O11 0.848152 0.000000 0.601757
O O12 0.784814 0.908895 0.862556
O O13 0.171953 0.591494 0.233148
O O14 0.102938 0.716145 0.429332
O O15 0.000000 0.607879 0.500000
O O16 0.000000 0.178424 0.500000
#
# Coordination Sequence:
#
# PCOD8079651 Si02
#       7
#     8   8   8   8   8   8   8
#     4  10  20  37  56  75 108 147 187 223 271 334
#     4  11  22  35  55  79 111 147 183 227 278 335
#     4  10  17  33  56  77 103 144 184 230 270 320
#     4  11  22  34  54  82 114 151 187 228 282 334
#     4  11  19  33  55  81 110 141 177 228 282 332
#     4  10  18  31  53  79 107 142 184 226 272 323
#     4  11  18  34  54  81 111 142 184 234 277 324
#
# _framework density 18.911346999999999
#
# number of rings (size 3 to 8) (size 9 to 14) (size 15 to 20)
#    0.000    1.429    5.714    4.286    0.000    1.143 
#    0.000    2.857    0.000    0.000    0.000    0.000 
#    0.000    4.571    0.000    0.000    0.000    0.000 
#
# Total GULP energy -347095.476857 kJ/mol
# GULP energy per Si atom -12396.267031 kJ/mol
# Density = 1.886830 g / cm^3
# Si number density = 18.911347 Si / 1000 Ang^3
#
#
#
# Elastic Constant Matrix: (Units=GPa)
#
#
# Indices 1 2 3 4 5 6 
#
# 1 87.2572 27.6905 20.2915 0.0000 2.3416 0.0000
# 2 27.6905 62.0959 11.4585 0.0000 -8.9438 0.0000
# 3 20.2915 11.4585 70.1883 0.0000 2.2863 0.0000
# 4 0.0000 0.0000 0.0000 16.3572 0.0000 -0.6646
# 5 2.3416 -8.9438 2.2863 0.0000 28.7122 0.0000
# 6 0.0000 0.0000 0.0000 -0.6646 0.0000 17.1471
#
#
#
# Elastic Compliance Matrix: (Units=1/GPa)
#
#
# Indices 1 2 3 4 5 6 
#
# 1 0.014198 -0.006188 -0.003002 0.000000 -0.002846 0.000000
# 2 -0.006188 0.020181 -0.001731 0.000000 0.006929 0.000000
# 3 -0.003002 -0.001731 0.015448 0.000000 -0.001525 0.000000
# 4 0.000000 0.000000 0.000000 0.061232 0.000000 0.002373
# 5 -0.002846 0.006929 -0.001525 0.000000 0.037340 0.000000
# 6 0.000000 0.000000 0.000000 0.002373 0.000000 0.058411
#
#
# Mechanical properties :
#
#
# Convention : Reuss Voigt Hill
#
# Bulk Modulus (GPa) = 35.73347 37.60248 36.66798
# Shear Modulus (GPa) = 21.01020 23.11671 22.06346
#
# Velocity S-wave (km/s) = 3.33676 3.50004 3.41937
# Velocity P-wave (km/s) = 5.81219 6.02166 5.91785
#
# Compressibility (1/GPa) = 0.02798497
#
# Stress axis : x y z
#
# Youngs Moduli (GPa) = 70.43045 49.55206 64.73505
#
# Poissons Ratio (x) = 0.30660 0.19433
# Poissons Ratio (y) = 0.43579 0.11209
# Poissons Ratio (z) = 0.21143 0.08580
#
# Static dielectric constant tensor:
#      x y z
#    x 3.341900 0.000000 -0.109090 
#    y 0.000000 3.250950 0.000000 
#    z -0.109090 0.000000 3.465660 
# 
# 
# High freq. dielectric constant tensor:
#      x y z
#    x 1.719270 0.000000 -0.009960 
#    y 0.000000 1.704590 0.000000 
#    z -0.009960 0.000000 1.729200 
# 
# From -- ./inp_files/177067.got.cif
#   From: 2010.06.25/outbox.cif.g09.slc.cpg/sg12_89_cif.got.tgz:177067.got - 2010.06.28 00:19:55.
