data_PCOD8079780
_publ_section_title
;
Structure prediction by ZEFSAII (Michael W. Deem and Ramdas Pophale) SiO2 
 PCOD8079780
Probable space group: C 2/M
;
_chemical_formula_sum "Si O2"
_cell_formula_units_Z 36
_cell_length_a 15.986942
_cell_length_b 26.862436
_cell_length_c 10.055285
_cell_angle_alpha 90.000000
_cell_angle_beta 157.353879
_cell_angle_gamma 90.000000
_cell_volume 1662.681878
_symmetry_space_group_name_H-M "C 2/M"
_symmetry_group_IT_number 12
_symmetry_cell_setting 'monoclinic'
loop_
_space_group_symop_operation_xyz
x,y,z
-x,y,-z
-x,-y,-z
x,-y,z
1/2+x,1/2+y,z
1/2-x,1/2+y,-z
1/2-x,1/2-y,-z
1/2+x,1/2-y,z
loop_
_atom_site_type_symbol
_atom_site_label
_atom_site_fract_x
_atom_site_fract_y
_atom_site_fract_z
Si Si1 0.641738 0.150223 0.341723
Si Si2 0.000000 0.101941 0.500000
Si Si3 0.065620 0.554178 0.943638
Si Si4 0.470868 0.322732 0.240298
Si Si5 0.739319 0.731213 0.288535
O O1 0.612336 0.198027 0.394134
O O2 0.894431 0.145974 0.672540
O O3 0.500000 0.156232 0.000000
O O4 0.575204 0.099687 0.324160
O O5 0.819840 0.067192 0.302538
O O6 0.884819 0.138409 0.223184
O O7 0.021180 0.500000 0.810369
O O8 0.000000 0.550222 0.000000
O O9 0.638670 0.283297 0.552361
O O10 0.273699 0.295193 0.875353
O O11 0.500000 0.739822 0.000000
#
# Coordination Sequence:
#
# PCOD8079780 Si02
#       5
#     8   4   8   8   8
#     4  10  17  37  62  84 115 156 201 241 297 346
#     4  12  23  36  62  90 126 150 203 244 294 356
#     4  10  21  39  65  89 115 153 201 251 299 350
#     4  11  21  35  55  89 124 161 196 245 288 353
#     4  10  21  34  60  85 126 162 202 238 290 353
#
# _framework density 21.651765999999999
#
# number of rings (size 3 to 8) (size 9 to 14) (size 15 to 20)
#    0.000    1.556    4.444    5.000    0.000    0.889 
#    0.000    0.000    0.000   10.000    0.000    0.000 
#    0.000    0.000    0.000    0.000    0.000    0.000 
#
# Total GULP energy -223036.509122 kJ/mol
# GULP energy per Si atom -12390.917173 kJ/mol
# Density = 2.160249 g / cm^3
# Si number density = 21.651766 Si / 1000 Ang^3
#
#
#
# Elastic Constant Matrix: (Units=GPa)
#
#
# Indices 1 2 3 4 5 6 
#
# 1 67.1438 26.7905 18.9658 0.0001 4.4422 0.0004
# 2 26.7905 155.4680 39.8933 0.0001 14.0357 0.0001
# 3 18.9658 39.8933 64.3641 0.0005 -2.1806 0.0018
# 4 0.0001 0.0001 0.0005 8.2848 0.0001 -13.4691
# 5 4.4422 14.0357 -2.1806 0.0001 29.5217 0.0006
# 6 0.0004 0.0001 0.0018 -13.4691 0.0006 -16.3832
#
#
#
# Elastic Compliance Matrix: (Units=1/GPa)
#
#
# Indices 1 2 3 4 5 6 
#
# 1 0.016827 -0.001698 -0.003975 0.000000 -0.002019 0.000000
# 2 -0.001698 0.008321 -0.004795 0.000000 -0.004055 0.000000
# 3 -0.003975 -0.004795 0.019827 0.000001 0.004342 0.000001
# 4 0.000000 0.000000 0.000001 0.051658 0.000001 -0.042470
# 5 -0.002019 -0.004055 0.004342 0.000001 0.036426 0.000001
# 6 0.000000 0.000000 0.000001 -0.042470 0.000001 -0.026123
#
#
# Mechanical properties :
#
#
# Convention : Reuss Voigt Hill
#
# Bulk Modulus (GPa) = 41.59521 50.91944 46.25733
# Shear Modulus (GPa) = 36.79639 17.70641 27.25140
#
# Velocity S-wave (km/s) = 4.12693 2.86279 3.55156
# Velocity P-wave (km/s) = 6.47776 5.87332 6.18293
#
# Compressibility (1/GPa) = 0.02404123
#
# Stress axis : x y z
#
# Youngs Moduli (GPa) = 59.42846 120.17644 50.43725
#
# Poissons Ratio (x) = 0.20400 0.20046
# Poissons Ratio (y) = 0.10088 0.24183
# Poissons Ratio (z) = 0.23620 0.57620
#
# Static dielectric constant tensor:
#      x y z
#    x 3.833200 0.000000 0.057840 
#    y 0.000000 4.829870 0.000000 
#    z 0.057840 0.000000 3.750300 
# 
# 
# High freq. dielectric constant tensor:
#      x y z
#    x 1.830610 0.000000 0.016530 
#    y 0.000000 1.856740 0.000000 
#    z 0.016530 0.000000 1.819380 
# 
# From -- ./inp_files/160883.got.cif
#   From: 2010.06.25/outbox.cif.g09.slc.cpg/sg12_81_cif.got.tgz:160883.got - 2010.06.28 00:19:55.
