data_PCOD8079649
_publ_section_title
;
Structure prediction by ZEFSAII (Michael W. Deem and Ramdas Pophale) SiO2 
 PCOD8079649
Probable space group: C 2/M
;
_chemical_formula_sum "Si O2"
_cell_formula_units_Z 64
_cell_length_a 19.378486
_cell_length_b 18.967464
_cell_length_c 9.799296
_cell_angle_alpha 90.000000
_cell_angle_beta 94.710279
_cell_angle_gamma 90.000000
_cell_volume 3589.671859
_symmetry_space_group_name_H-M "C 2/M"
_symmetry_group_IT_number 12
_symmetry_cell_setting 'monoclinic'
loop_
_space_group_symop_operation_xyz
x,y,z
-x,y,-z
-x,-y,-z
x,-y,z
1/2+x,1/2+y,z
1/2-x,1/2+y,-z
1/2-x,1/2-y,-z
1/2+x,1/2-y,z
loop_
_atom_site_type_symbol
_atom_site_label
_atom_site_fract_x
_atom_site_fract_y
_atom_site_fract_z
Si Si1 0.737261 0.419306 0.960491
Si Si2 0.520355 0.238272 0.154083
Si Si3 0.129777 0.883751 0.726888
Si Si4 0.166002 0.297815 0.109635
Si Si5 0.017722 0.864603 0.353088
Si Si6 0.661868 0.578131 0.436482
Si Si7 0.260814 0.663753 0.766884
Si Si8 0.373020 0.225324 0.196275
O O1 0.763253 0.500000 0.976746
O O2 0.666188 0.417263 0.863833
O O3 0.795537 0.373055 0.891725
O O4 0.720433 0.388943 0.107047
O O5 0.588821 0.189209 0.159379
O O6 0.539439 0.303849 0.251868
O O7 0.452601 0.196858 0.202115
O O8 0.500000 0.266612 0.000000
O O9 0.169738 0.908769 0.598738
O O10 0.128275 0.799187 0.726790
O O11 0.049209 0.908140 0.712021
O O12 0.209325 0.242463 0.206062
O O13 0.159660 0.263347 0.959133
O O14 0.082447 0.916677 0.375016
O O15 0.000000 0.832210 0.500000
O O16 0.688424 0.500000 0.406496
O O17 0.710095 0.634094 0.368734
O O18 0.177100 0.669796 0.735612
#
# Coordination Sequence:
#
# PCOD8079649 Si02
#       8
#     8   8   8   8   8   8   8   8
#     4  11  21  34  53  76 103 135 167 205 253 304
#     4   9  17  30  54  77  96 126 166 214 248 287
#     4  10  19  34  52  73  99 136 171 204 244 301
#     4  10  17  33  56  76 101 130 167 212 252 290
#     4   9  19  32  49  69 101 138 170 199 247 296
#     4  11  23  34  47  72 107 142 169 204 250 295
#     4  11  19  35  53  74 103 133 168 210 251 298
#     4   9  17  32  54  78  98 126 170 210 256 287
#
# _framework density 17.828928000000001
#
# number of rings (size 3 to 8) (size 9 to 14) (size 15 to 20)
#    0.000    2.000    3.750    1.500    0.000    3.250 
#    0.000    0.000    0.000   12.000    0.000    0.000 
#    0.000    2.500    0.000    0.000    0.000    0.000 
#
# Total GULP energy -396662.997332 kJ/mol
# GULP energy per Si atom -12395.718667 kJ/mol
# Density = 1.778835 g / cm^3
# Si number density = 17.828928 Si / 1000 Ang^3
#
#
#
# Elastic Constant Matrix: (Units=GPa)
#
#
# Indices 1 2 3 4 5 6 
#
# 1 92.5841 25.0221 15.4688 0.0000 -10.3841 0.0000
# 2 25.0221 75.4335 15.6126 0.0000 -6.5048 0.0000
# 3 15.4688 15.6126 36.7306 0.0000 -5.1269 0.0000
# 4 0.0000 0.0000 0.0000 14.0255 0.0000 -2.1679
# 5 -10.3841 -6.5048 -5.1269 0.0000 26.5455 0.0000
# 6 0.0000 0.0000 0.0000 -2.1679 0.0000 18.6112
#
#
#
# Elastic Compliance Matrix: (Units=1/GPa)
#
#
# Indices 1 2 3 4 5 6 
#
# 1 0.012631 -0.003167 -0.003486 0.000000 0.003492 0.000000
# 2 -0.003167 0.015484 -0.005027 0.000000 0.001585 0.000000
# 3 -0.003486 -0.005027 0.031312 0.000000 0.003452 0.000000
# 4 0.000000 0.000000 0.000000 0.072606 0.000000 0.008457
# 5 0.003492 0.001585 0.003452 0.000000 0.040092 0.000000
# 6 0.000000 0.000000 0.000000 0.008457 0.000000 0.054716
#
#
# Mechanical properties :
#
#
# Convention : Reuss Voigt Hill
#
# Bulk Modulus (GPa) = 27.72571 35.21725 31.47148
# Shear Modulus (GPa) = 19.06770 21.74609 20.40689
#
# Velocity S-wave (km/s) = 3.27384 3.49622 3.38686
# Velocity P-wave (km/s) = 5.46584 6.00781 5.74322
#
# Compressibility (1/GPa) = 0.03606760
#
# Stress axis : x y z
#
# Youngs Moduli (GPa) = 79.17026 64.58136 31.93685
#
# Poissons Ratio (x) = 0.20455 0.11133
# Poissons Ratio (y) = 0.25075 0.16054
# Poissons Ratio (z) = 0.27597 0.32463
#
# Static dielectric constant tensor:
#      x y z
#    x 3.672110 0.000000 -0.041920 
#    y 0.000000 2.961710 0.000000 
#    z -0.041920 0.000000 3.275410 
# 
# 
# High freq. dielectric constant tensor:
#      x y z
#    x 1.700210 0.000000 -0.003290 
#    y 0.000000 1.649880 0.000000 
#    z -0.003290 0.000000 1.683910 
# 
# From -- ./inp_files/87962.got.cif
#   From: 2010.06.25/outbox.cif.g09.slc.cpg/sg12_44_cif.got.tgz:87962.got - 2010.06.28 00:19:55.
