data_PCOD8079293
_publ_section_title
;
Structure prediction by ZEFSAII (Michael W. Deem and Ramdas Pophale) SiO2 
 PCOD8079293
Probable space group: C 2/M
;
_chemical_formula_sum "Si O2"
_cell_formula_units_Z 64
_cell_length_a 20.830446
_cell_length_b 23.621488
_cell_length_c 8.821424
_cell_angle_alpha 90.000000
_cell_angle_beta 115.054934
_cell_angle_gamma 90.000000
_cell_volume 3932.111450
_symmetry_space_group_name_H-M "C 2/M"
_symmetry_group_IT_number 12
_symmetry_cell_setting 'monoclinic'
loop_
_space_group_symop_operation_xyz
x,y,z
-x,y,-z
-x,-y,-z
x,-y,z
1/2+x,1/2+y,z
1/2-x,1/2+y,-z
1/2-x,1/2-y,-z
1/2+x,1/2-y,z
loop_
_atom_site_type_symbol
_atom_site_label
_atom_site_fract_x
_atom_site_fract_y
_atom_site_fract_z
Si Si1 0.359412 0.228116 0.683868
Si Si2 0.762588 0.165236 0.938935
Si Si3 0.500000 0.382022 0.819420
Si Si4 0.640588 0.228116 0.965045
Si Si5 0.262588 0.665236 0.586241
Si Si6 0.643977 0.562963 0.324088
Si Si7 1.000000 0.758908 0.678220
Si Si8 0.856023 0.937037 0.036134
O O1 0.323014 0.288392 0.614315
O O2 0.307400 0.177710 0.580544
O O3 0.431061 0.223614 0.659188
O O4 0.377827 0.220655 0.877827
O O5 0.692600 0.177710 0.965745
O O6 0.741959 0.165191 0.741959
O O7 0.823014 0.211608 0.031712
O O8 0.793051 0.104816 0.024741
O O9 0.431311 0.415077 0.688435
O O10 0.500000 0.318788 0.760039
O O11 0.568689 0.415077 0.825813
O O12 0.500000 0.378464 0.000000
O O13 0.568939 0.223615 0.797066
O O14 0.293052 0.604816 0.561362
O O15 0.659147 0.500000 0.403167
O O16 0.639880 0.562298 0.139880
O O17 0.000000 0.767695 0.500000
O O18 0.840853 0.000000 0.084873
#
# Coordination Sequence:
#
# PCOD8079293 Si02
#       8
#     8   8   8   8   8   8   8   8
#     4  10  19  32  49  68  93 125 159 197 241 287
#     4   9  17  30  47  70  96 123 159 200 237 277
#     4  10  17  30  46  68  98 131 169 199 228 271
#     4  10  19  32  49  68  93 125 159 197 241 287
#     4   9  17  30  47  70  96 123 159 200 237 277
#     4   9  16  27  47  72  97 128 166 202 232 269
#     4  12  22  31  47  71  97 127 160 197 244 288
#     4   9  16  27  47  72  97 128 166 202 232 269
#
# _framework density 16.276243000000001
#
# number of rings (size 3 to 8) (size 9 to 14) (size 15 to 20)
#    0.000    2.250    2.500    2.250    0.000    2.500 
#    0.000    0.000    0.000    3.750    0.000    0.875 
#    0.000    7.000    0.000    0.000    0.000    0.000 
#
# Total GULP energy -396814.693896 kJ/mol
# GULP energy per Si atom -12400.459184 kJ/mol
# Density = 1.623920 g / cm^3
# Si number density = 16.276243 Si / 1000 Ang^3
#
#
#
# Elastic Constant Matrix: (Units=GPa)
#
#
# Indices 1 2 3 4 5 6 
#
# 1 82.3429 46.2850 17.7328 0.0000 12.4138 0.0000
# 2 46.2850 100.6354 21.4353 0.0000 18.0185 0.0000
# 3 17.7328 21.4353 44.5495 0.0000 14.9900 0.0000
# 4 0.0000 0.0000 0.0000 17.4058 0.0000 3.2001
# 5 12.4138 18.0185 14.9900 0.0000 21.8769 0.0000
# 6 0.0000 0.0000 0.0000 3.2001 0.0000 21.8191
#
#
#
# Elastic Compliance Matrix: (Units=1/GPa)
#
#
# Indices 1 2 3 4 5 6 
#
# 1 0.016873 -0.006802 -0.002738 0.000000 -0.002096 0.000000
# 2 -0.006802 0.014735 -0.002076 0.000000 -0.006854 0.000000
# 3 -0.002738 -0.002076 0.030460 0.000000 -0.017608 0.000000
# 4 0.000000 0.000000 0.000000 0.059044 0.000000 -0.008660
# 5 -0.002096 -0.006854 -0.017608 0.000000 0.064609 0.000000
# 6 0.000000 0.000000 0.000000 -0.008660 0.000000 0.047101
#
#
# Mechanical properties :
#
#
# Convention : Reuss Voigt Hill
#
# Bulk Modulus (GPa) = 25.74944 44.27046 35.00995
# Shear Modulus (GPa) = 18.58724 21.69201 20.13963
#
# Velocity S-wave (km/s) = 3.38299 3.65463 3.52143
# Velocity P-wave (km/s) = 5.57800 6.71319 6.17175
#
# Compressibility (1/GPa) = 0.03883580
#
# Stress axis : x y z
#
# Youngs Moduli (GPa) = 59.26465 67.86735 32.82943
#
# Poissons Ratio (x) = 0.46164 0.08990
# Poissons Ratio (y) = 0.40312 0.06815
# Poissons Ratio (z) = 0.16229 0.14089
#
# Static dielectric constant tensor:
#      x y z
#    x 3.112010 0.000000 0.127300 
#    y 0.000000 3.102930 0.000000 
#    z 0.127300 0.000000 2.936450 
# 
# 
# High freq. dielectric constant tensor:
#      x y z
#    x 1.619970 0.000000 0.006870 
#    y 0.000000 1.602820 0.000000 
#    z 0.006870 0.000000 1.610500 
# 
# From -- ./inp_files/90435.got.cif
#   From: 2010.06.25/outbox.cif.g09.slc.cpg/sg12_46_cif.got.tgz:90435.got - 2010.06.28 00:19:55.
