data_PCOD8079573
_publ_section_title
;
Structure prediction by ZEFSAII (Michael W. Deem and Ramdas Pophale) SiO2 
 PCOD8079573
Probable space group: C 2/M
;
_chemical_formula_sum "Si O2"
_cell_formula_units_Z 64
_cell_length_a 26.469001
_cell_length_b 18.515117
_cell_length_c 20.164606
_cell_angle_alpha 90.000000
_cell_angle_beta 160.868853
_cell_angle_gamma 90.000000
_cell_volume 3238.709481
_symmetry_space_group_name_H-M "C 2/M"
_symmetry_group_IT_number 12
_symmetry_cell_setting 'monoclinic'
loop_
_space_group_symop_operation_xyz
x,y,z
-x,y,-z
-x,-y,-z
x,-y,z
1/2+x,1/2+y,z
1/2-x,1/2+y,-z
1/2-x,1/2-y,-z
1/2+x,1/2-y,z
loop_
_atom_site_type_symbol
_atom_site_label
_atom_site_fract_x
_atom_site_fract_y
_atom_site_fract_z
Si Si1 0.411924 0.163084 0.522907
Si Si2 0.046939 0.809189 0.634178
Si Si3 0.346696 0.670345 0.903108
Si Si4 0.815653 0.172454 0.652839
Si Si5 0.183243 0.659503 0.352253
Si Si6 0.868007 0.580747 0.281547
Si Si7 0.799991 0.914510 0.365593
Si Si8 0.156754 0.665647 0.065922
O O1 0.493269 0.240848 0.611373
O O2 0.258557 0.148038 0.288951
O O3 0.343985 0.147738 0.511199
O O4 0.546775 0.104366 0.680264
O O5 0.229430 0.828348 0.857054
O O6 0.000000 0.792719 0.500000
O O7 0.969164 0.879643 0.569541
O O8 0.272121 0.635020 0.876690
O O9 0.348405 0.756118 0.907221
O O10 0.523725 0.641492 0.117776
O O11 0.814552 0.257531 0.665332
O O12 0.805729 0.148125 0.563667
O O13 0.220336 0.610360 0.334973
O O14 0.011902 0.640694 0.166850
O O15 0.802483 0.500000 0.194228
O O16 0.000000 0.588186 0.500000
O O17 0.706708 0.890355 0.184859
O O18 0.815785 0.000000 0.385867
#
# Coordination Sequence:
#
# PCOD8079573 Si02
#       8
#     8   8   8   8   8   8   8   8
#     4  11  16  32  57  84 112 142 183 234 280 331
#     4  10  17  32  54  86 114 143 182 235 285 332
#     4  10  17  32  56  84 110 144 185 235 279 333
#     4  10  21  34  56  80 107 150 196 234 275 323
#     4  10  21  38  51  78 114 146 194 238 272 333
#     4   9  18  31  53  82 110 138 175 225 285 339
#     4  11  22  36  59  86 116 150 185 234 294 344
#     4  10  19  33  58  83 109 145 188 232 286 330
#
# _framework density 19.760957999999999
#
# number of rings (size 3 to 8) (size 9 to 14) (size 15 to 20)
#    0.000    1.875    5.000    1.125    0.000    5.250 
#    0.000    3.750    0.000    3.000    0.000    0.000 
#    0.000    0.000    0.000    0.000    0.000    0.000 
#
# Total GULP energy -396463.328115 kJ/mol
# GULP energy per Si atom -12389.479004 kJ/mol
# Density = 1.971598 g / cm^3
# Si number density = 19.760958 Si / 1000 Ang^3
#
#
#
# Elastic Constant Matrix: (Units=GPa)
#
#
# Indices 1 2 3 4 5 6 
#
# 1 75.9546 16.5396 27.9819 -0.0135 25.8677 -0.0082
# 2 16.5396 58.2186 11.3771 -0.0153 0.9626 -0.0122
# 3 27.9819 11.3771 55.3993 -0.0209 19.5962 -0.0161
# 4 -0.0135 -0.0153 -0.0209 3.3365 -0.0134 4.6690
# 5 25.8677 0.9626 19.5962 -0.0134 31.5132 -0.0093
# 6 -0.0082 -0.0122 -0.0161 4.6690 -0.0093 21.7004
#
#
#
# Elastic Compliance Matrix: (Units=1/GPa)
#
#
# Indices 1 2 3 4 5 6 
#
# 1 0.020618 -0.004748 -0.004491 -0.000024 -0.013986 0.000001
# 2 -0.004748 0.019111 -0.003460 0.000081 0.005465 -0.000009
# 3 -0.004491 -0.003460 0.025240 0.000089 -0.011903 -0.000009
# 4 -0.000024 0.000081 0.000089 0.428841 0.000117 -0.092269
# 5 -0.013986 0.005465 -0.011903 0.000117 0.050448 -0.000015
# 6 0.000001 -0.000009 -0.000009 -0.092269 -0.000015 0.065934
#
#
# Mechanical properties :
#
#
# Convention : Reuss Voigt Hill
#
# Bulk Modulus (GPa) = 25.27151 33.48553 29.37852
# Shear Modulus (GPa) = 7.70675 20.22161 13.96418
#
# Velocity S-wave (km/s) = 1.97698 3.20239 2.66118
# Velocity P-wave (km/s) = 4.24590 5.53677 4.93374
#
# Compressibility (1/GPa) = 0.03957025
#
# Stress axis : x y z
#
# Youngs Moduli (GPa) = 48.50223 52.32489 39.61922
#
# Poissons Ratio (x) = 0.24846 0.17795
# Poissons Ratio (y) = 0.23031 0.13707
# Poissons Ratio (z) = 0.21785 0.18102
#
# Static dielectric constant tensor:
#      x y z
#    x 3.638800 0.000000 0.519110 
#    y 0.000000 3.338850 0.000000 
#    z 0.519110 0.000000 3.838650 
# 
# 
# High freq. dielectric constant tensor:
#      x y z
#    x 1.762970 0.000000 0.034930 
#    y 0.000000 1.739310 0.000000 
#    z 0.034930 0.000000 1.759860 
# 
# From -- ./inp_files/328674.got.cif
#   From: 2010.06.25/outbox.cif.g09.slc.cpg/sg12_165_cif.got.tgz:328674.got - 2010.06.28 00:19:55.
