data_PCOD8079953
_publ_section_title
;
Structure prediction by ZEFSAII (Michael W. Deem and Ramdas Pophale) SiO2 
 PCOD8079953
Probable space group: C 2/M
;
_chemical_formula_sum "Si O2"
_cell_formula_units_Z 64
_cell_length_a 28.356249
_cell_length_b 8.828716
_cell_length_c 16.340379
_cell_angle_alpha 90.000000
_cell_angle_beta 83.188321
_cell_angle_gamma 90.000000
_cell_volume 4061.926412
_symmetry_space_group_name_H-M "C 2/M"
_symmetry_group_IT_number 12
_symmetry_cell_setting 'monoclinic'
loop_
_space_group_symop_operation_xyz
x,y,z
-x,y,-z
-x,-y,-z
x,-y,z
1/2+x,1/2+y,z
1/2-x,1/2+y,-z
1/2-x,1/2-y,-z
1/2+x,1/2-y,z
loop_
_atom_site_type_symbol
_atom_site_label
_atom_site_fract_x
_atom_site_fract_y
_atom_site_fract_z
Si Si1 0.469630 0.667299 0.424063
Si Si2 0.711783 0.678886 0.448381
Si Si3 0.231841 0.327569 0.876185
Si Si4 0.936327 0.176857 0.668241
Si Si5 0.125612 0.329422 0.197910
Si Si6 0.812754 0.325366 0.956425
Si Si7 0.276633 0.173298 0.725884
Si Si8 0.111723 0.677500 0.476738
O O1 0.500000 0.662473 0.500000
O O2 0.448975 0.500000 0.409553
O O3 0.507261 0.718107 0.345994
O O4 0.425867 0.782562 0.443379
O O5 0.712448 0.500000 0.456821
O O6 0.750000 0.750000 0.500000
O O7 0.724368 0.723263 0.353411
O O8 0.660579 0.739495 0.486298
O O9 0.234414 0.500000 0.845205
O O10 0.276212 0.293760 0.925901
O O11 0.233348 0.222211 0.795299
O O12 0.185401 0.301071 0.944824
O O13 0.915702 0.217947 0.761735
O O14 0.907180 0.272063 0.607685
O O15 0.929174 0.000000 0.650256
O O16 0.107552 0.500000 0.215195
O O17 0.136385 0.298023 0.099121
O O18 0.174038 0.300283 0.237698
O O19 0.796799 0.500000 0.940349
O O20 0.269368 0.000000 0.701209
O O21 0.120937 0.500000 0.473193
#
# Coordination Sequence:
#
# PCOD8079953 Si02
#       8
#     8   8   8   8   8   8   8   8
#     4   8  16  29  42  59  82 108 139 175 212 250
#     4  12  24  37  51  65  83 108 141 181 222 260
#     4   9  15  24  39  56  75 104 140 174 210 250
#     4  10  18  27  41  61  85 113 145 178 211 251
#     4   9  16  25  39  57  83 113 143 177 211 249
#     4   8  15  25  35  52  79 108 139 175 209 245
#     4  10  19  31  44  60  81 107 139 177 216 255
#     4  11  20  31  46  63  82 107 139 176 216 258
#
# _framework density 15.756071
#
# number of rings (size 3 to 8) (size 9 to 14) (size 15 to 20)
#    0.000    2.375    1.250    4.875    0.000    5.250 
#    0.000    0.000    0.000    0.000    0.000    0.000 
#    0.000    0.000    0.000    1.125    0.000   21.750 
#
# Total GULP energy -396531.462504 kJ/mol
# GULP energy per Si atom -12391.608203 kJ/mol
# Density = 1.572021 g / cm^3
# Si number density = 15.756071 Si / 1000 Ang^3
#
#
#
# Elastic Constant Matrix: (Units=GPa)
#
#
# Indices 1 2 3 4 5 6 
#
# 1 68.6380 40.0912 49.1266 0.0000 -24.5159 0.0000
# 2 40.0912 98.9420 35.9997 0.0000 -14.3879 0.0000
# 3 49.1266 35.9997 71.9448 0.0000 -34.5383 0.0000
# 4 0.0000 0.0000 0.0000 23.0654 0.0000 -6.5847
# 5 -24.5159 -14.3879 -34.5383 0.0000 29.0753 0.0000
# 6 0.0000 0.0000 0.0000 -6.5847 0.0000 20.6614
#
#
#
# Elastic Compliance Matrix: (Units=1/GPa)
#
#
# Indices 1 2 3 4 5 6 
#
# 1 0.031307 -0.006134 -0.016505 0.000000 0.003756 0.000000
# 2 -0.006134 0.013662 -0.004386 0.000000 -0.003622 0.000000
# 3 -0.016505 -0.004386 0.045706 0.000000 0.038207 0.000000
# 4 0.000000 0.000000 0.000000 0.047694 0.000000 0.015200
# 5 0.003756 -0.003622 0.038207 0.000000 0.081153 0.000000
# 6 0.000000 0.000000 0.000000 0.015200 0.000000 0.053244
#
#
# Mechanical properties :
#
#
# Convention : Reuss Voigt Hill
#
# Bulk Modulus (GPa) = 27.30445 54.43998 40.87222
# Shear Modulus (GPa) = 14.74819 22.18091 18.46455
#
# Velocity S-wave (km/s) = 3.06278 3.75610 3.42702
# Velocity P-wave (km/s) = 5.46577 7.31011 6.45416
#
# Compressibility (1/GPa) = 0.03662406
#
# Stress axis : x y z
#
# Youngs Moduli (GPa) = 31.94194 73.19748 21.87882
#
# Poissons Ratio (x) = 0.44900 0.36111
# Poissons Ratio (y) = 0.19593 0.09597
# Poissons Ratio (z) = 0.52720 0.32107
#
# Static dielectric constant tensor:
#      x y z
#    x 2.911330 0.000000 -0.588140 
#    y 0.000000 3.076880 0.000000 
#    z -0.588140 0.000000 3.273960 
# 
# 
# High freq. dielectric constant tensor:
#      x y z
#    x 1.556510 0.000000 -0.056960 
#    y 0.000000 1.617950 0.000000 
#    z -0.056960 0.000000 1.586060 
# 
# From -- ./inp_files/291550.got.cif
#   From: 2010.06.25/outbox.cif.g09.slc.cpg/sg12_146_cif.got.tgz:291550.got - 2010.06.28 00:19:55.
