data_PCOD8079359
_publ_section_title
;
Structure prediction by ZEFSAII (Michael W. Deem and Ramdas Pophale) SiO2 
 PCOD8079359
Probable space group: C 2/M
;
_chemical_formula_sum "Si O2"
_cell_formula_units_Z 56
_cell_length_a 23.907008
_cell_length_b 9.459525
_cell_length_c 15.448013
_cell_angle_alpha 90.000000
_cell_angle_beta 119.633700
_cell_angle_gamma 90.000000
_cell_volume 3036.610055
_symmetry_space_group_name_H-M "C 2/M"
_symmetry_group_IT_number 12
_symmetry_cell_setting 'monoclinic'
loop_
_space_group_symop_operation_xyz
x,y,z
-x,y,-z
-x,-y,-z
x,-y,z
1/2+x,1/2+y,z
1/2-x,1/2+y,-z
1/2-x,1/2-y,-z
1/2+x,1/2-y,z
loop_
_atom_site_type_symbol
_atom_site_label
_atom_site_fract_x
_atom_site_fract_y
_atom_site_fract_z
Si Si1 0.023502 0.157079 0.782154
Si Si2 0.307755 0.842485 0.509226
Si Si3 0.550135 0.331052 0.612524
Si Si4 0.561512 0.330465 0.991947
Si Si5 0.181696 0.167599 0.190893
Si Si6 0.322556 0.841632 0.318574
Si Si7 0.877308 0.842109 0.678573
O O1 0.028877 0.228535 0.691149
O O2 0.060653 0.229410 0.891696
O O3 0.951101 0.151494 0.761330
O O4 0.051193 0.000000 0.789978
O O5 0.250000 0.750000 0.500000
O O6 0.306907 0.849238 0.406793
O O7 0.371402 0.762371 0.592059
O O8 0.304733 0.000000 0.545865
O O9 0.500000 0.276937 0.500000
O O10 0.553527 0.500000 0.610477
O O11 0.621034 0.269077 0.653432
O O12 0.558917 0.500000 0.987549
O O13 0.500000 0.274363 0.000000
O O14 0.628875 0.272801 0.082909
O O15 0.255294 0.210636 0.222091
O O16 0.163439 0.222093 0.272829
O O17 0.175535 0.000000 0.188595
O O18 0.341494 0.000000 0.300345
O O19 0.852587 0.000000 0.634806
#
# Coordination Sequence:
#
# PCOD8079359 Si02
#       7
#     8   8   8   8   8   8   8
#     4   9  17  29  50  78 105 134 175 221 262 306
#     4  11  21  32  48  73 104 134 170 210 256 314
#     4  10  21  37  54  75 103 138 177 218 262 305
#     4   9  14  24  47  79 108 134 167 214 267 308
#     4   9  16  28  47  75 108 134 164 210 262 311
#     4  10  21  36  51  72 104 140 174 211 256 312
#     4  10  17  30  51  76 107 135 164 211 264 312
#
# _framework density 18.441617999999998
#
# number of rings (size 3 to 8) (size 9 to 14) (size 15 to 20)
#    0.000    2.286    2.857    1.286    0.000    2.571 
#    0.000    1.429    0.000    0.000    0.000    4.000 
#    0.000    0.000    0.000    0.000    0.000    0.000 
#
# Total GULP energy -346870.167343 kJ/mol
# GULP energy per Si atom -12388.220262 kJ/mol
# Density = 1.839964 g / cm^3
# Si number density = 18.441618 Si / 1000 Ang^3
#
#
#
# Elastic Constant Matrix: (Units=GPa)
#
#
# Indices 1 2 3 4 5 6 
#
# 1 91.7538 18.2228 50.2058 0.0000 9.2022 0.0000
# 2 18.2228 44.8155 26.0759 0.0000 2.9798 0.0000
# 3 50.2058 26.0759 143.3804 0.0000 9.9840 0.0000
# 4 0.0000 0.0000 0.0000 10.4308 0.0000 3.3092
# 5 9.2022 2.9798 9.9840 0.0000 31.8356 0.0000
# 6 0.0000 0.0000 0.0000 3.3092 0.0000 22.4812
#
#
#
# Elastic Compliance Matrix: (Units=1/GPa)
#
#
# Indices 1 2 3 4 5 6 
#
# 1 0.014053 -0.003117 -0.004183 0.000000 -0.002459 0.000000
# 2 -0.003117 0.025673 -0.003550 0.000000 -0.000389 0.000000
# 3 -0.004183 -0.003550 0.009178 0.000000 -0.001337 0.000000
# 4 0.000000 0.000000 0.000000 0.100567 0.000000 -0.014803
# 5 -0.002459 -0.000389 -0.001337 0.000000 0.032578 0.000000
# 6 0.000000 0.000000 0.000000 -0.014803 0.000000 0.046661
#
#
# Mechanical properties :
#
#
# Convention : Reuss Voigt Hill
#
# Bulk Modulus (GPa) = 36.76026 52.10653 44.43340
# Shear Modulus (GPa) = 19.26953 25.31253 22.29103
#
# Velocity S-wave (km/s) = 3.23599 3.70885 3.48046
# Velocity P-wave (km/s) = 5.82570 6.83059 6.34806
#
# Compressibility (1/GPa) = 0.02720329
#
# Stress axis : x y z
#
# Youngs Moduli (GPa) = 71.15889 38.95164 108.95786
#
# Poissons Ratio (x) = 0.12141 0.45574
# Poissons Ratio (y) = 0.22181 0.38685
# Poissons Ratio (z) = 0.29764 0.13830
#
# Static dielectric constant tensor:
#      x y z
#    x 3.369210 0.000000 0.104230 
#    y 0.000000 3.494920 0.000000 
#    z 0.104230 0.000000 3.966480 
# 
# 
# High freq. dielectric constant tensor:
#      x y z
#    x 1.703030 0.000000 0.010500 
#    y 0.000000 1.659650 0.000000 
#    z 0.010500 0.000000 1.728900 
# 
# From -- ./inp_files/287866.got.cif
#   From: 2010.06.25/outbox.cif.g09.slc.cpg/sg12_144_cif.got.tgz:287866.got - 2010.06.28 00:19:55.
