data_PCOD8079945
_publ_section_title
;
Structure prediction by ZEFSAII (Michael W. Deem and Ramdas Pophale) SiO2 
 PCOD8079945
Probable space group: C 2/M
;
_chemical_formula_sum "Si O2"
_cell_formula_units_Z 64
_cell_length_a 27.661629
_cell_length_b 9.082044
_cell_length_c 20.640810
_cell_angle_alpha 90.000000
_cell_angle_beta 52.770701
_cell_angle_gamma 90.000000
_cell_volume 4128.777918
_symmetry_space_group_name_H-M "C 2/M"
_symmetry_group_IT_number 12
_symmetry_cell_setting 'monoclinic'
loop_
_space_group_symop_operation_xyz
x,y,z
-x,y,-z
-x,-y,-z
x,-y,z
1/2+x,1/2+y,z
1/2-x,1/2+y,-z
1/2-x,1/2-y,-z
1/2+x,1/2-y,z
loop_
_atom_site_type_symbol
_atom_site_label
_atom_site_fract_x
_atom_site_fract_y
_atom_site_fract_z
Si Si1 0.509011 0.169823 0.568601
Si Si2 0.825362 0.331320 0.904954
Si Si3 0.216821 0.331517 0.929535
Si Si4 0.125130 0.827304 0.528392
Si Si5 0.111744 0.330585 0.270069
Si Si6 0.307654 0.170173 0.424537
Si Si7 0.760744 0.326273 0.777799
Si Si8 0.244095 0.832551 0.349966
O O1 0.500000 0.185171 0.500000
O O2 0.565379 0.268039 0.543035
O O3 0.449912 0.240317 0.652314
O O4 0.520556 0.000000 0.579178
O O5 0.801451 0.500000 0.913141
O O6 0.777033 0.212801 0.919719
O O7 0.884854 0.308853 0.811142
O O8 0.837462 0.307903 0.972631
O O9 0.220583 0.500000 0.904279
O O10 0.210404 0.234684 0.869705
O O11 0.133299 0.748601 0.592180
O O12 0.181963 0.787363 0.436430
O O13 0.119840 0.000000 0.544738
O O14 0.108678 0.500000 0.292775
O O15 0.172617 0.265856 0.254843
O O16 0.250000 0.250000 0.500000
O O17 0.302179 0.185450 0.350964
O O18 0.306995 0.000000 0.445743
O O19 0.757493 0.500000 0.782475
O O20 0.744412 0.272847 0.719706
O O21 0.239167 0.000000 0.329337
#
# Coordination Sequence:
#
# PCOD8079945 Si02
#       8
#     8   8   8   8   8   8   8   8
#     4  10  19  30  44  61  83 114 150 182 212 246
#     4   8  14  25  39  54  75 106 142 175 206 243
#     4   9  15  23  37  56  79 106 135 170 210 248
#     4  10  20  32  45  62  85 112 143 179 214 249
#     4   8  15  27  40  56  79 109 147 181 204 236
#     4   9  17  30  47  65  84 107 137 173 212 253
#     4  10  18  27  41  60  84 112 140 170 205 251
#     4   9  18  30  43  61  84 108 135 169 208 248
#
# _framework density 15.500954
#
# number of rings (size 3 to 8) (size 9 to 14) (size 15 to 20)
#    0.000    2.875    0.000    3.750    0.000    4.750 
#    0.000    3.125    0.000    0.000    0.000    0.000 
#    0.000    1.000    0.000   11.500    0.000    3.500 
#
# Total GULP energy -396441.062960 kJ/mol
# GULP energy per Si atom -12388.783218 kJ/mol
# Density = 1.546567 g / cm^3
# Si number density = 15.500954 Si / 1000 Ang^3
#
#
#
# Elastic Constant Matrix: (Units=GPa)
#
#
# Indices 1 2 3 4 5 6 
#
# 1 65.6343 35.1269 34.0071 0.0002 15.6552 -0.0003
# 2 35.1269 73.5040 39.2848 0.0029 15.1731 0.0004
# 3 34.0071 39.2848 104.2399 -0.0012 18.4639 0.0007
# 4 0.0002 0.0029 -0.0012 20.3038 0.0001 5.1959
# 5 15.6552 15.1731 18.4639 0.0001 17.7908 0.0001
# 6 -0.0003 0.0004 0.0007 5.1959 0.0001 22.7028
#
#
#
# Elastic Compliance Matrix: (Units=1/GPa)
#
#
# Indices 1 2 3 4 5 6 
#
# 1 0.023315 -0.007273 -0.002855 0.000001 -0.011350 0.000000
# 2 -0.007273 0.020770 -0.004228 -0.000003 -0.006926 0.000000
# 3 -0.002855 -0.004228 0.013520 0.000002 -0.007913 -0.000001
# 4 0.000001 -0.000003 0.000002 0.052316 0.000000 -0.011973
# 5 -0.011350 -0.006926 -0.007913 0.000000 0.080316 0.000000
# 6 0.000000 0.000000 -0.000001 -0.011973 0.000000 0.046788
#
#
# Mechanical properties :
#
#
# Convention : Reuss Voigt Hill
#
# Bulk Modulus (GPa) = 34.61097 51.13510 42.87304
# Shear Modulus (GPa) = 18.15761 21.15677 19.65719
#
# Velocity S-wave (km/s) = 3.42627 3.69842 3.56494
# Velocity P-wave (km/s) = 6.16678 7.16224 6.68307
#
# Compressibility (1/GPa) = 0.02889257
#
# Stress axis : x y z
#
# Youngs Moduli (GPa) = 42.89091 48.14676 73.96658
#
# Poissons Ratio (x) = 0.35019 0.21115
# Poissons Ratio (y) = 0.31196 0.31273
# Poissons Ratio (z) = 0.12244 0.20356
#
# Static dielectric constant tensor:
#      x y z
#    x 2.770100 0.000000 0.196430 
#    y 0.000000 3.003240 0.000000 
#    z 0.196430 0.000000 3.219290 
# 
# 
# High freq. dielectric constant tensor:
#      x y z
#    x 1.551540 0.000000 0.027830 
#    y 0.000000 1.597550 0.000000 
#    z 0.027830 0.000000 1.588050 
# 
# From -- ./inp_files/323657.got.cif
#   From: 2010.06.25/outbox.cif.g09.slc.cpg/sg12_162_cif.got.tgz:323657.got - 2010.06.28 00:19:55.
