data_PCOD8079230
_publ_section_title
;
Structure prediction by ZEFSAII (Michael W. Deem and Ramdas Pophale) SiO2 
 PCOD8079230
Probable space group: C 2/M
;
_chemical_formula_sum "Si O2"
_cell_formula_units_Z 48
_cell_length_a 15.244554
_cell_length_b 17.717367
_cell_length_c 19.697024
_cell_angle_alpha 90.000000
_cell_angle_beta 30.123238
_cell_angle_gamma 90.000000
_cell_volume 2669.921368
_symmetry_space_group_name_H-M "C 2/M"
_symmetry_group_IT_number 12
_symmetry_cell_setting 'monoclinic'
loop_
_space_group_symop_operation_xyz
x,y,z
-x,y,-z
-x,-y,-z
x,-y,z
1/2+x,1/2+y,z
1/2-x,1/2+y,-z
1/2-x,1/2-y,-z
1/2+x,1/2-y,z
loop_
_atom_site_type_symbol
_atom_site_label
_atom_site_fract_x
_atom_site_fract_y
_atom_site_fract_z
Si Si1 0.797691 0.817807 0.644195
Si Si2 0.742478 0.355890 0.673637
Si Si3 0.202999 0.333150 0.558469
Si Si4 0.808870 0.412068 0.154784
Si Si5 0.514527 0.412000 0.716988
Si Si6 0.029963 0.586663 0.375045
O O1 0.769223 0.730034 0.676550
O O2 0.696306 0.839012 0.643602
O O3 0.720708 0.864787 0.757594
O O4 0.000000 0.837247 0.500000
O O5 0.555205 0.370403 0.762362
O O6 0.884681 0.386512 0.525771
O O7 0.776829 0.400444 0.721728
O O8 0.250000 0.250000 0.500000
O O9 0.346991 0.390787 0.433775
O O10 0.009363 0.360361 0.663957
O O11 0.784898 0.500000 0.188973
O O12 0.675347 0.388220 0.184112
O O13 0.000000 0.393327 0.000000
O O14 0.525961 0.500000 0.724242
O O15 0.006141 0.500000 0.370886
#
# Coordination Sequence:
#
# PCOD8079230 Si02
#       6
#     8   8   8   8   8   8
#     4  12  20  33  58  84 109 144 179 226 281 326
#     4  10  17  29  50  80 108 141 173 220 273 321
#     4  11  18  30  49  82 117 143 167 225 276 322
#     4  10  24  42  56  75 110 151 189 232 277 326
#     4  10  19  32  54  76 106 144 184 218 264 327
#     4  10  18  28  45  74 119 149 170 210 275 335
#
# _framework density 17.978058999999998
#
# number of rings (size 3 to 8) (size 9 to 14) (size 15 to 20)
#    0.000    1.500    6.667    3.500    0.000    1.667 
#    0.000    0.833    0.000    0.000    0.000    0.000 
#    0.000   10.000    0.000    0.000    0.000    0.000 
#
# Total GULP energy -297414.649352 kJ/mol
# GULP energy per Si atom -12392.277056 kJ/mol
# Density = 1.793714 g / cm^3
# Si number density = 17.978059 Si / 1000 Ang^3
#
#
#
# Elastic Constant Matrix: (Units=GPa)
#
#
# Indices 1 2 3 4 5 6 
#
# 1 183.7484 61.0938 42.9113 0.0177 -3.3548 -0.0295
# 2 61.0938 79.7071 23.0237 0.0076 15.3950 -0.0008
# 3 42.9113 23.0237 50.9575 0.0005 -0.2667 -0.0109
# 4 0.0177 0.0076 0.0005 -6.8015 -0.0089 11.3703
# 5 -3.3548 15.3950 -0.2667 -0.0089 14.7494 0.0089
# 6 -0.0295 -0.0008 -0.0109 11.3703 0.0089 31.0955
#
#
#
# Elastic Compliance Matrix: (Units=1/GPa)
#
#
# Indices 1 2 3 4 5 6 
#
# 1 0.009197 -0.007811 -0.004162 0.000005 0.010170 0.000002
# 2 -0.007811 0.025509 -0.005097 0.000028 -0.028494 -0.000010
# 3 -0.004162 -0.005097 0.025457 -0.000009 0.004833 0.000007
# 4 0.000005 0.000028 -0.000009 -0.091248 -0.000103 0.033366
# 5 0.010170 -0.028494 0.004833 -0.000103 0.099941 0.000020
# 6 0.000002 -0.000010 0.000007 0.033366 0.000020 0.019959
#
#
# Mechanical properties :
#
#
# Convention : Reuss Voigt Hill
#
# Bulk Modulus (GPa) = 38.42802 63.16341 50.79571
# Shear Modulus (GPa) = 37.98521 20.30097 29.14309
#
# Velocity S-wave (km/s) = 4.60158 3.36401 4.03058
# Velocity P-wave (km/s) = 7.04656 7.09216 7.06940
#
# Compressibility (1/GPa) = 0.02602268
#
# Stress axis : x y z
#
# Youngs Moduli (GPa) = 108.72979 39.20201 39.28130
#
# Poissons Ratio (x) = 0.30622 0.16350
# Poissons Ratio (y) = 0.84933 0.20020
# Poissons Ratio (z) = 0.45257 0.19980
#
# Static dielectric constant tensor:
#      x y z
#    x 4.657030 0.000050 -0.189150 
#    y 0.000050 3.438020 0.000000 
#    z -0.189150 0.000000 2.778110 
# 
# 
# High freq. dielectric constant tensor:
#      x y z
#    x 1.733140 0.000000 -0.011670 
#    y 0.000000 1.708360 0.000000 
#    z -0.011670 0.000000 1.611360 
# 
# From -- ./inp_files/271620.got.cif
#   From: 2010.06.25/outbox.cif.g09.slc.cpg/sg12_136_cif.got.tgz:271620.got - 2010.06.28 00:19:55.
