data_PCOD8079579
_publ_section_title
;
Structure prediction by ZEFSAII (Michael W. Deem and Ramdas Pophale) SiO2 
 PCOD8079579
Probable space group: C 2/M
;
_chemical_formula_sum "Si O2"
_cell_formula_units_Z 56
_cell_length_a 18.151092
_cell_length_b 19.089998
_cell_length_c 9.255995
_cell_angle_alpha 90.000000
_cell_angle_beta 98.195571
_cell_angle_gamma 90.000000
_cell_volume 3174.487409
_symmetry_space_group_name_H-M "C 2/M"
_symmetry_group_IT_number 12
_symmetry_cell_setting 'monoclinic'
loop_
_space_group_symop_operation_xyz
x,y,z
-x,y,-z
-x,-y,-z
x,-y,z
1/2+x,1/2+y,z
1/2-x,1/2+y,-z
1/2-x,1/2-y,-z
1/2+x,1/2-y,z
loop_
_atom_site_type_symbol
_atom_site_label
_atom_site_fract_x
_atom_site_fract_y
_atom_site_fract_z
Si Si1 0.584661 0.578736 0.476617
Si Si2 0.189055 0.919495 0.767421
Si Si3 0.025685 0.663402 0.343188
Si Si4 0.072926 0.331205 0.933193
Si Si5 0.448089 0.317192 0.769721
Si Si6 0.893589 0.182315 0.065759
Si Si7 0.638909 0.080655 0.203707
O O1 0.500000 0.583743 0.500000
O O2 0.606179 0.500000 0.436490
O O3 0.638274 0.604446 0.619608
O O4 0.595232 0.629212 0.344808
O O5 0.171637 0.868643 0.897542
O O6 0.274025 0.909422 0.745552
O O7 0.172410 0.000000 0.807235
O O8 0.958360 0.634134 0.222816
O O9 0.000000 0.655093 0.500000
O O10 0.045759 0.743214 0.310520
O O11 0.098069 0.616602 0.328240
O O12 0.122453 0.264095 0.900325
O O13 0.116885 0.386354 0.042522
O O14 0.000000 0.300836 0.000000
O O15 0.529973 0.344042 0.838024
O O16 0.395041 0.317322 0.893362
O O17 0.615565 0.000000 0.190713
#
# Coordination Sequence:
#
# PCOD8079579 Si02
#       7
#     8   8   8   8   8   8   8
#     4  10  19  32  51  77 108 150 191 219 265 324
#     4  10  22  36  53  80 114 150 186 223 269 322
#     4  10  20  35  59  86 111 135 182 231 276 328
#     4   9  17  35  56  83 106 139 181 226 274 323
#     4  10  18  32  54  81 109 140 177 235 272 307
#     4  10  17  32  55  79 109 138 180 226 269 314
#     4  10  21  40  58  77 112 148 179 226 280 327
#
# _framework density 17.640644000000002
#
# number of rings (size 3 to 8) (size 9 to 14) (size 15 to 20)
#    0.000    2.143    5.714    0.429    2.000    4.000 
#    0.000    3.571    0.000    3.429    0.000    0.000 
#    0.000    0.000    0.000    0.000    0.000    0.000 
#
# Total GULP energy -347095.340123 kJ/mol
# GULP energy per Si atom -12396.262147 kJ/mol
# Density = 1.760049 g / cm^3
# Si number density = 17.640644 Si / 1000 Ang^3
#
#
#
# Elastic Constant Matrix: (Units=GPa)
#
#
# Indices 1 2 3 4 5 6 
#
# 1 73.5104 44.0918 49.0269 0.0000 -3.3199 0.0000
# 2 44.0918 85.3826 44.4997 0.0000 -5.3220 0.0000
# 3 49.0269 44.4997 123.1445 0.0000 -4.8521 0.0000
# 4 0.0000 0.0000 0.0000 23.2316 0.0000 4.4184
# 5 -3.3199 -5.3220 -4.8521 0.0000 22.1526 0.0000
# 6 0.0000 0.0000 0.0000 4.4184 0.0000 20.8604
#
#
#
# Elastic Compliance Matrix: (Units=1/GPa)
#
#
# Indices 1 2 3 4 5 6 
#
# 1 0.022751 -0.008657 -0.005928 0.000000 0.000031 0.000000
# 2 -0.008657 0.017846 -0.002909 0.000000 0.002353 0.000000
# 3 -0.005928 -0.002909 0.011569 0.000000 0.000947 0.000000
# 4 0.000000 0.000000 0.000000 0.044852 0.000000 -0.009500
# 5 0.000031 0.002353 0.000947 0.000000 0.045919 0.000000
# 6 0.000000 0.000000 0.000000 -0.009500 0.000000 0.049950
#
#
# Mechanical properties :
#
#
# Convention : Reuss Voigt Hill
#
# Bulk Modulus (GPa) = 58.21873 61.91936 60.06904
# Shear Modulus (GPa) = 21.40397 22.87686 22.14041
#
# Velocity S-wave (km/s) = 3.48707 3.60505 3.54655
# Velocity P-wave (km/s) = 7.02048 7.24604 7.13415
#
# Compressibility (1/GPa) = 0.01717660
#
# Stress axis : x y z
#
# Youngs Moduli (GPa) = 43.95341 56.03641 86.43527
#
# Poissons Ratio (x) = 0.48512 0.51241
# Poissons Ratio (y) = 0.38051 0.25147
# Poissons Ratio (z) = 0.26057 0.16303
#
# Static dielectric constant tensor:
#      x y z
#    x 3.025470 0.000000 0.099160 
#    y 0.000000 3.308720 0.000000 
#    z 0.099160 0.000000 3.366750 
# 
# 
# High freq. dielectric constant tensor:
#      x y z
#    x 1.652810 0.000000 0.007510 
#    y 0.000000 1.684100 0.000000 
#    z 0.007510 0.000000 1.681830 
# 
# From -- ./inp_files/76929.got.cif
#   From: 2010.06.25/outbox.cif.g09.slc.cpg/sg12_39_cif.got.tgz:76929.got - 2010.06.28 00:19:55.
