data_PCOD8079565
_publ_section_title
;
Structure prediction by ZEFSAII (Michael W. Deem and Ramdas Pophale) SiO2 
 PCOD8079565
Probable space group: C 2/M
;
_chemical_formula_sum "Si O2"
_cell_formula_units_Z 44
_cell_length_a 14.349923
_cell_length_b 22.246823
_cell_length_c 11.573494
_cell_angle_alpha 90.000000
_cell_angle_beta 135.400389
_cell_angle_gamma 90.000000
_cell_volume 2594.244230
_symmetry_space_group_name_H-M "C 2/M"
_symmetry_group_IT_number 12
_symmetry_cell_setting 'monoclinic'
loop_
_space_group_symop_operation_xyz
x,y,z
-x,y,-z
-x,-y,-z
x,-y,z
1/2+x,1/2+y,z
1/2-x,1/2+y,-z
1/2-x,1/2-y,-z
1/2+x,1/2-y,z
loop_
_atom_site_type_symbol
_atom_site_label
_atom_site_fract_x
_atom_site_fract_y
_atom_site_fract_z
Si Si1 0.479793 0.363894 0.117817
Si Si2 0.527854 0.878437 0.267162
Si Si3 0.773969 0.432002 0.143421
Si Si4 0.897589 0.264128 0.094088
Si Si5 0.258471 0.429306 0.619951
Si Si6 0.500000 0.841128 0.000000
O O1 0.485142 0.296350 0.170851
O O2 0.594308 0.404388 0.276311
O O3 0.500000 0.364607 0.000000
O O4 0.335050 0.391420 0.017852
O O5 0.415199 0.925548 0.205688
O O6 0.472227 0.810930 0.246784
O O7 0.662051 0.892368 0.451726
O O8 0.558290 0.882709 0.155234
O O9 0.724191 0.500000 0.088763
O O10 0.787531 0.415205 0.290332
O O11 0.890399 0.296312 0.961072
O O12 0.750000 0.250000 0.000000
O O13 0.253543 0.500000 0.587525
#
# Coordination Sequence:
#
# PCOD8079565 Si02
#       6
#     8   8   8   8   8   4
#     4  10  17  32  54  75 106 139 171 215 274 317
#     4  10  19  34  54  74 109 137 172 225 265 304
#     4  10  19  32  53  79 107 142 180 216 264 322
#     4  10  18  34  57  79 103 140 177 224 263 316
#     4  10  21  33  51  81 112 137 175 225 267 316
#     4   8  20  34  53  78 105 134 186 216 260 328
#
# _framework density 16.960623999999999
#
# number of rings (size 3 to 8) (size 9 to 14) (size 15 to 20)
#    1.091    1.091    2.727    1.636    0.000    4.364 
#    0.000    1.818    0.000    3.273    0.000    6.364 
#    0.000    0.000    0.000    0.000    0.000    0.000 
#
# Total GULP energy -272602.872081 kJ/mol
# GULP energy per Si atom -12391.039640 kJ/mol
# Density = 1.692202 g / cm^3
# Si number density = 16.960624 Si / 1000 Ang^3
#
#
#
# Elastic Constant Matrix: (Units=GPa)
#
#
# Indices 1 2 3 4 5 6 
#
# 1 72.6619 15.9107 42.9209 0.0000 0.3089 0.0000
# 2 15.9107 87.7848 60.3319 0.0000 -2.5374 0.0000
# 3 42.9209 60.3319 115.4494 0.0000 11.7315 0.0000
# 4 0.0000 0.0000 0.0000 30.5474 0.0000 2.0767
# 5 0.3089 -2.5374 11.7315 0.0000 21.3120 0.0000
# 6 0.0000 0.0000 0.0000 2.0767 0.0000 27.6847
#
#
#
# Elastic Compliance Matrix: (Units=1/GPa)
#
#
# Indices 1 2 3 4 5 6 
#
# 1 0.018319 0.002883 -0.008818 0.000000 0.004932 0.000000
# 2 0.002883 0.019493 -0.012171 0.000000 0.008979 0.000000
# 3 -0.008818 -0.012171 0.019527 0.000000 -0.012070 0.000000
# 4 0.000000 0.000000 0.000000 0.032904 0.000000 -0.002468
# 5 0.004932 0.008979 -0.012070 0.000000 0.054564 0.000000
# 6 0.000000 0.000000 0.000000 -0.002468 0.000000 0.036306
#
#
# Mechanical properties :
#
#
# Convention : Reuss Voigt Hill
#
# Bulk Modulus (GPa) = 47.33376 57.13591 52.23483
# Shear Modulus (GPa) = 22.28482 26.35765 24.32124
#
# Velocity S-wave (km/s) = 3.62873 3.94642 3.79090
# Velocity P-wave (km/s) = 6.74726 7.38418 7.07289
#
# Compressibility (1/GPa) = 0.02112657
#
# Stress axis : x y z
#
# Youngs Moduli (GPa) = 54.58820 51.29969 51.21116
#
# Poissons Ratio (x) = -0.14788 0.45158
# Poissons Ratio (y) = -0.15736 0.62329
# Poissons Ratio (z) = 0.48136 0.62437
#
# Static dielectric constant tensor:
#      x y z
#    x 3.103320 0.000000 0.072870 
#    y 0.000000 3.320050 0.000000 
#    z 0.072870 0.000000 2.964250 
# 
# 
# High freq. dielectric constant tensor:
#      x y z
#    x 1.644360 0.000000 0.013950 
#    y 0.000000 1.664900 0.000000 
#    z 0.013950 0.000000 1.625330 
# 
# From -- ./inp_files/149208.got.cif
#   From: 2010.06.25/outbox.cif.g09.slc.cpg/sg12_75_cif.got.tgz:149208.got - 2010.06.28 00:19:55.
