data_PCOD8079105
_publ_section_title
;
Structure prediction by ZEFSAII (Michael W. Deem and Ramdas Pophale) SiO2 
 PCOD8079105
Probable space group: C 2/M
;
_chemical_formula_sum "Si O2"
_cell_formula_units_Z 40
_cell_length_a 25.126966
_cell_length_b 8.056716
_cell_length_c 22.699492
_cell_angle_alpha 90.000000
_cell_angle_beta 149.351921
_cell_angle_gamma 90.000000
_cell_volume 2342.518317
_symmetry_space_group_name_H-M "C 2/M"
_symmetry_group_IT_number 12
_symmetry_cell_setting 'monoclinic'
loop_
_space_group_symop_operation_xyz
x,y,z
-x,y,-z
-x,-y,-z
x,-y,z
1/2+x,1/2+y,z
1/2-x,1/2+y,-z
1/2-x,1/2-y,-z
1/2+x,1/2-y,z
loop_
_atom_site_type_symbol
_atom_site_label
_atom_site_fract_x
_atom_site_fract_y
_atom_site_fract_z
Si Si1 0.143032 0.180167 0.117327
Si Si2 0.841998 0.500000 0.314058
Si Si3 0.637998 0.688240 0.466363
Si Si4 0.378293 0.192365 0.674668
Si Si5 0.941441 0.500000 0.536491
Si Si6 0.971440 0.310808 0.881036
O O1 0.269517 0.165474 0.234787
O O2 0.110001 0.232824 0.151055
O O3 0.092869 0.000000 0.057353
O O4 0.091641 0.295576 0.017841
O O5 0.881593 0.500000 0.418116
O O6 0.934234 0.500000 0.355032
O O7 0.611984 0.500000 0.463876
O O8 0.597562 0.702434 0.360674
O O9 0.761027 0.722242 0.585518
O O10 0.583955 0.829475 0.454110
O O11 0.454725 0.261026 0.799251
O O12 0.397405 0.000000 0.677356
O O13 0.938665 0.500000 0.845931
#
# Coordination Sequence:
#
# PCOD8079105 Si02
#       6
#     8   4   8   8   4   8
#     4   9  18  31  45  74 101 137 171 209 252 311
#     4   9  22  35  56  72  98 147 182 211 269 291
#     4  10  20  33  53  79 110 137 172 215 266 311
#     4   9  18  31  48  82 110 138 165 210 268 325
#     4  11  20  40  56  74 106 141 180 225 253 314
#     4  10  17  28  51  79 112 135 166 212 268 316
#
# _framework density 17.07564
#
# number of rings (size 3 to 8) (size 9 to 14) (size 15 to 20)
#    0.600    1.800    1.000    3.600    1.400    1.600 
#    0.000    5.000    0.000    1.200    0.000    0.000 
#    0.000    0.000    0.000    0.000    0.000    0.000 
#
# Total GULP energy -247769.665901 kJ/mol
# GULP energy per Si atom -12388.483295 kJ/mol
# Density = 1.703677 g / cm^3
# Si number density = 17.075640 Si / 1000 Ang^3
#
#
#
# Elastic Constant Matrix: (Units=GPa)
#
#
# Indices 1 2 3 4 5 6 
#
# 1 82.9981 44.4840 46.1693 0.0000 3.4929 0.0000
# 2 44.4840 81.0785 21.3704 0.0000 -1.2453 0.0000
# 3 46.1693 21.3704 97.9977 0.0000 -4.6723 0.0000
# 4 0.0000 0.0000 0.0000 8.7683 0.0000 -17.4139
# 5 3.4929 -1.2453 -4.6723 0.0000 29.5095 0.0000
# 6 0.0000 0.0000 0.0000 -17.4139 0.0000 6.2604
#
#
#
# Elastic Compliance Matrix: (Units=1/GPa)
#
#
# Indices 1 2 3 4 5 6 
#
# 1 0.022422 -0.010111 -0.008570 0.000000 -0.004438 0.000000
# 2 -0.010111 0.017646 0.001016 0.000000 0.002102 0.000000
# 3 -0.008570 0.001016 0.014178 0.000000 0.003302 0.000000
# 4 0.000000 0.000000 0.000000 -0.025208 0.000000 -0.070118
# 5 -0.004438 0.002102 0.003302 0.000000 0.035024 0.000000
# 6 0.000000 0.000000 0.000000 -0.070118 0.000000 -0.035306
#
#
# Mechanical properties :
#
#
# Convention : Reuss Voigt Hill
#
# Bulk Modulus (GPa) = 52.86926 54.01353 53.44139
# Shear Modulus (GPa) = 71.03216 18.91102 44.97159
#
# Velocity S-wave (km/s) = 6.45669 3.33150 5.13750
# Velocity P-wave (km/s) = 9.30667 6.81903 8.15822
#
# Compressibility (1/GPa) = 0.01891458
#
# Stress axis : x y z
#
# Youngs Moduli (GPa) = 44.59977 56.67101 70.53255
#
# Poissons Ratio (x) = 0.57300 0.60447
# Poissons Ratio (y) = 0.45095 -0.07165
# Poissons Ratio (z) = 0.38222 -0.05757
#
# Static dielectric constant tensor:
#      x y z
#    x 2.924990 0.000000 -0.205160 
#    y 0.000000 3.207210 0.000000 
#    z -0.205160 0.000000 3.387360 
# 
# 
# High freq. dielectric constant tensor:
#      x y z
#    x 1.619880 0.000000 -0.022870 
#    y 0.000000 1.659640 0.000000 
#    z -0.022870 0.000000 1.664680 
# 
# From -- ./inp_files/323435.got.cif
#   From: 2010.06.25/outbox.cif.g09.slc.cpg/sg12_162_cif.got.tgz:323435.got - 2010.06.28 00:19:55.
