data_PCOD8079294
_publ_section_title
;
Structure prediction by ZEFSAII (Michael W. Deem and Ramdas Pophale) SiO2 
 PCOD8079294
Probable space group: C 2/M
;
_chemical_formula_sum "Si O2"
_cell_formula_units_Z 52
_cell_length_a 20.126820
_cell_length_b 17.993271
_cell_length_c 17.168151
_cell_angle_alpha 90.000000
_cell_angle_beta 29.055749
_cell_angle_gamma 90.000000
_cell_volume 3019.544957
_symmetry_space_group_name_H-M "C 2/M"
_symmetry_group_IT_number 12
_symmetry_cell_setting 'monoclinic'
loop_
_space_group_symop_operation_xyz
x,y,z
-x,y,-z
-x,-y,-z
x,-y,z
1/2+x,1/2+y,z
1/2-x,1/2+y,-z
1/2-x,1/2-y,-z
1/2+x,1/2-y,z
loop_
_atom_site_type_symbol
_atom_site_label
_atom_site_fract_x
_atom_site_fract_y
_atom_site_fract_z
Si Si1 0.213787 0.331626 0.748169
Si Si2 0.633111 0.085203 0.689556
Si Si3 0.372992 0.829137 0.994806
Si Si4 0.110933 0.086554 0.671859
Si Si5 0.000000 0.134512 0.500000
Si Si6 0.533621 0.300035 0.879364
Si Si7 0.112055 0.084031 0.227715
O O1 0.205238 0.401793 0.699212
O O2 0.371425 0.313657 0.608214
O O3 0.153389 0.260917 0.764783
O O4 0.128295 0.354133 0.912999
O O5 0.494689 0.132080 0.822477
O O6 0.739228 0.108422 0.513254
O O7 0.592738 0.000000 0.723475
O O8 0.403350 0.739923 0.969088
O O9 0.231833 0.853713 0.098635
O O10 0.084808 0.130814 0.777550
O O11 0.998543 0.107867 0.722732
O O12 0.102897 0.000000 0.700381
O O13 0.956557 0.083191 0.616890
O O14 0.500000 0.330524 0.000000
O O15 0.167336 0.000000 0.155910
#
# Coordination Sequence:
#
# PCOD8079294 Si02
#       7
#     8   8   8   8   4   8   8
#     4   9  18  30  48  73 100 134 166 198 237 292
#     4  10  18  30  45  72 104 132 165 199 232 288
#     4   9  19  31  49  73 100 137 166 193 237 296
#     4  10  21  34  52  76  98 125 168 211 249 291
#     4  10  17  30  46  72 107 136 164 194 237 292
#     4   9  19  37  54  70  97 125 168 216 250 288
#     4  10  19  31  47  74 107 137 164 195 235 289
#
# _framework density 17.221138
#
# number of rings (size 3 to 8) (size 9 to 14) (size 15 to 20)
#    0.000    2.462    1.538    2.077    0.000    7.077 
#    0.000    0.000    0.000    0.000    0.000    0.538 
#    0.000    0.000    0.000    0.000    0.000    0.000 
#
# Total GULP energy -322216.544885 kJ/mol
# GULP energy per Si atom -12392.944034 kJ/mol
# Density = 1.718194 g / cm^3
# Si number density = 17.221138 Si / 1000 Ang^3
#
#
#
# Elastic Constant Matrix: (Units=GPa)
#
#
# Indices 1 2 3 4 5 6 
#
# 1 56.7175 29.6844 40.1815 -0.0023 0.7972 0.0017
# 2 29.6844 57.1857 50.4473 -0.0003 10.1284 0.0005
# 3 40.1815 50.4473 111.9715 0.0022 3.6770 -0.0011
# 4 -0.0023 -0.0003 0.0022 23.9478 -0.0002 9.7742
# 5 0.7972 10.1284 3.6770 -0.0002 29.4219 -0.0002
# 6 0.0017 0.0005 -0.0011 9.7742 -0.0002 19.9773
#
#
#
# Elastic Compliance Matrix: (Units=1/GPa)
#
#
# Indices 1 2 3 4 5 6 
#
# 1 0.026324 -0.009649 -0.005206 0.000005 0.003259 -0.000005
# 2 -0.009649 0.034779 -0.011871 0.000001 -0.010228 -0.000001
# 3 -0.005206 -0.011871 0.016075 -0.000003 0.002219 0.000003
# 4 0.000005 0.000001 -0.000003 0.052177 0.000000 -0.025528
# 5 0.003259 -0.010228 0.002219 0.000000 0.037144 0.000000
# 6 -0.000005 -0.000001 0.000003 -0.025528 0.000000 0.062547
#
#
# Mechanical properties :
#
#
# Convention : Reuss Voigt Hill
#
# Bulk Modulus (GPa) = 42.14878 51.83346 46.99112
# Shear Modulus (GPa) = 17.21736 21.70682 19.46209
#
# Velocity S-wave (km/s) = 3.16536 3.55417 3.36538
# Velocity P-wave (km/s) = 6.15528 6.85616 6.51515
#
# Compressibility (1/GPa) = 0.02372548
#
# Stress axis : x y z
#
# Youngs Moduli (GPa) = 37.98860 28.75302 62.21013
#
# Poissons Ratio (x) = 0.27743 0.32388
# Poissons Ratio (y) = 0.36654 0.73849
# Poissons Ratio (z) = 0.19778 0.34132
#
# Static dielectric constant tensor:
#      x y z
#    x 3.062780 0.000000 -0.146060 
#    y 0.000000 2.920750 0.000000 
#    z -0.146060 0.000000 3.371670 
# 
# 
# High freq. dielectric constant tensor:
#      x y z
#    x 1.646530 0.000000 -0.007220 
#    y 0.000000 1.636100 0.000000 
#    z -0.007220 0.000000 1.673450 
# 
# From -- ./inp_files/284259.got.cif
#   From: 2010.06.25/outbox.cif.g09.slc.cpg/sg12_143_cif.got.tgz:284259.got - 2010.06.28 00:19:55.
