data_PCOD8079723
_publ_section_title
;
Structure prediction by ZEFSAII (Michael W. Deem and Ramdas Pophale) SiO2 
 PCOD8079723
Probable space group: C 2/M
;
_chemical_formula_sum "Si O2"
_cell_formula_units_Z 44
_cell_length_a 22.649540
_cell_length_b 11.594748
_cell_length_c 9.396333
_cell_angle_alpha 90.000000
_cell_angle_beta 118.574181
_cell_angle_gamma 90.000000
_cell_volume 2167.064506
_symmetry_space_group_name_H-M "C 2/M"
_symmetry_group_IT_number 12
_symmetry_cell_setting 'monoclinic'
loop_
_space_group_symop_operation_xyz
x,y,z
-x,y,-z
-x,-y,-z
x,-y,z
1/2+x,1/2+y,z
1/2-x,1/2+y,-z
1/2-x,1/2-y,-z
1/2+x,1/2-y,z
loop_
_atom_site_type_symbol
_atom_site_label
_atom_site_fract_x
_atom_site_fract_y
_atom_site_fract_z
Si Si1 0.818512 0.741831 0.495201
Si Si2 0.384588 0.000000 0.292855
Si Si3 0.318102 0.231962 0.164424
Si Si4 0.467282 0.000000 0.133780
Si Si5 0.888178 0.500000 0.610592
Si Si6 0.930402 0.865580 0.777725
Si Si7 0.431181 0.745342 0.075163
O O1 0.750000 0.750000 0.500000
O O2 0.810455 0.773784 0.318803
O O3 0.844583 0.615662 0.572255
O O4 0.868598 0.841417 0.603651
O O5 0.333109 0.099075 0.194994
O O6 0.453170 0.000000 0.284459
O O7 0.416516 0.000000 0.484337
O O8 0.380055 0.286407 0.144823
O O9 0.250000 0.250000 0.000000
O O10 0.434049 0.118017 0.034634
O O11 0.548536 0.000000 0.205749
O O12 0.994585 0.795318 0.792108
O O13 0.947887 0.000000 0.800238
O O14 0.909209 0.825084 0.910986
#
# Coordination Sequence:
#
# PCOD8079723 Si02
#       7
#     8   4   8   4   4   8   8
#     4  11  24  41  64  92 124 166 204 253 307 369
#     4   8  19  34  61  90 121 154 187 251 311 368
#     4  10  21  42  62  91 122 157 207 252 307 367
#     4  10  17  34  64  97 122 142 203 257 304 358
#     4  10  19  37  62  90 122 158 198 245 316 360
#     4  11  24  43  61  88 127 168 209 249 310 371
#     4  10  21  39  65  93 121 162 203 256 310 365
#
# _framework density 20.303963
#
# number of rings (size 3 to 8) (size 9 to 14) (size 15 to 20)
#    0.000    1.818    1.818    2.455    1.273    2.909 
#    8.182    2.727    0.000    0.000    0.000    0.000 
#    0.000    0.000    0.000    0.000    0.000    0.000 
#
# Total GULP energy -272558.052037 kJ/mol
# GULP energy per Si atom -12389.002365 kJ/mol
# Density = 2.025775 g / cm^3
# Si number density = 20.303963 Si / 1000 Ang^3
#
#
#
# Elastic Constant Matrix: (Units=GPa)
#
#
# Indices 1 2 3 4 5 6 
#
# 1 157.6004 20.5365 54.7756 0.0000 -21.5576 0.0000
# 2 20.5365 92.4376 4.0613 0.0000 -3.9418 0.0000
# 3 54.7756 4.0613 87.7523 0.0000 0.0124 0.0000
# 4 0.0000 0.0000 0.0000 29.3585 0.0000 -2.0747
# 5 -21.5576 -3.9418 0.0124 0.0000 35.9099 0.0000
# 6 0.0000 0.0000 0.0000 -2.0747 0.0000 23.4032
#
#
#
# Elastic Compliance Matrix: (Units=1/GPa)
#
#
# Indices 1 2 3 4 5 6 
#
# 1 0.009277 -0.001580 -0.005718 0.000000 0.005398 0.000000
# 2 -0.001580 0.011160 0.000469 0.000000 0.000277 0.000000
# 3 -0.005718 0.000469 0.014944 0.000000 -0.003386 0.000000
# 4 0.000000 0.000000 0.000000 0.034276 0.000000 0.003039
# 5 0.005398 0.000277 -0.003386 0.000000 0.031119 0.000000
# 6 0.000000 0.000000 0.000000 0.003039 0.000000 0.042999
#
#
# Mechanical properties :
#
#
# Convention : Reuss Voigt Hill
#
# Bulk Modulus (GPa) = 46.03204 55.17076 50.60140
# Shear Modulus (GPa) = 30.36316 34.96212 32.66264
#
# Velocity S-wave (km/s) = 3.87127 4.15412 4.01519
# Velocity P-wave (km/s) = 6.53476 7.08804 6.81702
#
# Compressibility (1/GPa) = 0.02172400
#
# Stress axis : x y z
#
# Youngs Moduli (GPa) = 107.79631 89.60406 66.91714
#
# Poissons Ratio (x) = 0.14154 0.38265
# Poissons Ratio (y) = 0.17027 -0.03141
# Poissons Ratio (z) = 0.61641 -0.04206
#
# Static dielectric constant tensor:
#      x y z
#    x 3.829490 0.000000 -0.226600 
#    y 0.000000 3.747670 0.000000 
#    z -0.226600 0.000000 3.744710 
# 
# 
# High freq. dielectric constant tensor:
#      x y z
#    x 1.801520 0.000000 -0.006690 
#    y 0.000000 1.790640 0.000000 
#    z -0.006690 0.000000 1.793970 
# 
# From -- ./inp_files/95097.got.cif
#   From: 2010.06.25/outbox.cif.g09.slc.cpg/sg12_48_cif.got.tgz:95097.got - 2010.06.28 00:19:55.
