data_PCOD8079314
_publ_section_title
;
Structure prediction by ZEFSAII (Michael W. Deem and Ramdas Pophale) SiO2 
 PCOD8079314
Probable space group: C 2/M
;
_chemical_formula_sum "Si O2"
_cell_formula_units_Z 60
_cell_length_a 25.392682
_cell_length_b 17.670058
_cell_length_c 12.298813
_cell_angle_alpha 90.000000
_cell_angle_beta 39.010953
_cell_angle_gamma 90.000000
_cell_volume 3473.633984
_symmetry_space_group_name_H-M "C 2/M"
_symmetry_group_IT_number 12
_symmetry_cell_setting 'monoclinic'
loop_
_space_group_symop_operation_xyz
x,y,z
-x,y,-z
-x,-y,-z
x,-y,z
1/2+x,1/2+y,z
1/2-x,1/2+y,-z
1/2-x,1/2-y,-z
1/2+x,1/2-y,z
loop_
_atom_site_type_symbol
_atom_site_label
_atom_site_fract_x
_atom_site_fract_y
_atom_site_fract_z
Si Si1 0.489556 0.191124 0.278905
Si Si2 0.693384 0.834867 0.484318
Si Si3 0.671978 0.087274 0.190469
Si Si4 0.645941 0.911272 0.988227
Si Si5 0.500000 0.831371 0.500000
Si Si6 0.694669 0.587357 0.855236
Si Si7 0.800683 0.306034 0.280973
Si Si8 0.055076 0.804514 0.010494
O O1 0.400168 0.152491 0.406187
O O2 0.502711 0.216784 0.383918
O O3 0.496443 0.266292 0.195398
O O4 0.554645 0.126351 0.138608
O O5 0.752254 0.899455 0.339367
O O6 0.722583 0.751230 0.397924
O O7 0.700473 0.847259 0.601581
O O8 0.583549 0.118916 0.371647
O O9 0.750498 0.121416 0.132162
O O10 0.667397 0.000000 0.227494
O O11 0.689970 0.100964 0.034254
O O12 0.703798 0.869567 0.805969
O O13 0.636867 0.000000 0.974271
O O14 0.673037 0.500000 0.905395
O O15 0.606567 0.630388 0.988888
O O16 0.885917 0.258927 0.136181
O O17 0.000000 0.838706 0.000000
#
# Coordination Sequence:
#
# PCOD8079314 Si02
#       8
#     8   8   8   8   4   8   8   8
#     4  10  19  32  51  76  99 133 165 200 250 294
#     4  10  18  33  52  72 100 130 165 206 252 293
#     4   9  17  31  49  71 104 135 158 197 252 298
#     4   9  19  33  50  74 102 133 165 195 241 300
#     4  10  17  30  48  78 103 124 166 204 240 296
#     4  10  21  34  51  77 100 128 169 209 249 293
#     4   9  19  33  52  72  97 137 166 201 247 297
#     4  10  19  35  54  70  99 136 167 203 250 298
#
# _framework density 17.272977000000001
#
# number of rings (size 3 to 8) (size 9 to 14) (size 15 to 20)
#    0.000    2.400    2.667    0.200    0.000    1.867 
#    2.400    3.333    0.000    0.000    0.000    0.467 
#    0.000    0.000    0.000    0.000    0.000    0.000 
#
# Total GULP energy -371911.007851 kJ/mol
# GULP energy per Si atom -12397.033595 kJ/mol
# Density = 1.723366 g / cm^3
# Si number density = 17.272977 Si / 1000 Ang^3
#
#
#
# Elastic Constant Matrix: (Units=GPa)
#
#
# Indices 1 2 3 4 5 6 
#
# 1 119.2511 39.3111 33.7346 0.0000 6.1414 0.0000
# 2 39.3111 57.8083 22.7437 0.0000 6.3221 0.0000
# 3 33.7346 22.7437 63.5723 0.0000 16.3085 0.0000
# 4 0.0000 0.0000 0.0000 13.5643 0.0000 2.7780
# 5 6.1414 6.3221 16.3085 0.0000 30.0523 0.0000
# 6 0.0000 0.0000 0.0000 2.7780 0.0000 24.1273
#
#
#
# Elastic Compliance Matrix: (Units=1/GPa)
#
#
# Indices 1 2 3 4 5 6 
#
# 1 0.011613 -0.006381 -0.004200 0.000000 0.001248 0.000000
# 2 -0.006381 0.023643 -0.004799 0.000000 -0.001065 0.000000
# 3 -0.004200 -0.004799 0.022301 0.000000 -0.010234 0.000000
# 4 0.000000 0.000000 0.000000 0.075504 0.000000 -0.008693
# 5 0.001248 -0.001065 -0.010234 0.000000 0.038798 0.000000
# 6 0.000000 0.000000 0.000000 -0.008693 0.000000 0.042448
#
#
# Mechanical properties :
#
#
# Convention : Reuss Voigt Hill
#
# Bulk Modulus (GPa) = 37.31773 48.02339 42.67056
# Shear Modulus (GPa) = 19.68519 23.20493 21.44506
#
# Velocity S-wave (km/s) = 3.37954 3.66925 3.52737
# Velocity P-wave (km/s) = 6.07289 6.76862 6.43017
#
# Compressibility (1/GPa) = 0.02679691
#
# Stress axis : x y z
#
# Youngs Moduli (GPa) = 86.11008 42.29660 44.84108
#
# Poissons Ratio (x) = 0.26991 0.18832
# Poissons Ratio (y) = 0.54950 0.21518
# Poissons Ratio (z) = 0.36164 0.20297
#
# Static dielectric constant tensor:
#      x y z
#    x 3.398440 0.000000 0.138270 
#    y 0.000000 2.956250 0.000000 
#    z 0.138270 0.000000 3.273650 
# 
# 
# High freq. dielectric constant tensor:
#      x y z
#    x 1.678140 0.000000 0.009800 
#    y 0.000000 1.635500 0.000000 
#    z 0.009800 0.000000 1.663750 
# 
# From -- ./inp_files/157910.got.cif
#   From: 2010.06.25/outbox.cif.g09.slc.cpg/sg12_79_cif.got.tgz:157910.got - 2010.06.28 00:19:55.
