data_PCOD8079317
_publ_section_title
;
Structure prediction by ZEFSAII (Michael W. Deem and Ramdas Pophale) SiO2 
 PCOD8079317
Probable space group: C 2/M
;
_chemical_formula_sum "Si O2"
_cell_formula_units_Z 64
_cell_length_a 30.216849
_cell_length_b 8.985898
_cell_length_c 31.136686
_cell_angle_alpha 90.000000
_cell_angle_beta 151.324810
_cell_angle_gamma 90.000000
_cell_volume 4056.792394
_symmetry_space_group_name_H-M "C 2/M"
_symmetry_group_IT_number 12
_symmetry_cell_setting 'monoclinic'
loop_
_space_group_symop_operation_xyz
x,y,z
-x,y,-z
-x,-y,-z
x,-y,z
1/2+x,1/2+y,z
1/2-x,1/2+y,-z
1/2-x,1/2-y,-z
1/2+x,1/2-y,z
loop_
_atom_site_type_symbol
_atom_site_label
_atom_site_fract_x
_atom_site_fract_y
_atom_site_fract_z
Si Si1 0.161677 0.173910 0.374905
Si Si2 0.336870 0.173206 0.302348
Si Si3 0.479762 0.676379 0.916395
Si Si4 0.858192 0.176209 0.891327
Si Si5 0.674134 0.676433 0.616312
Si Si6 0.642176 0.323765 0.262950
Si Si7 0.630569 0.173512 0.431612
Si Si8 0.033908 0.327461 0.434809
O O1 0.121372 0.222529 0.294334
O O2 0.268060 0.226307 0.467113
O O3 0.103347 0.249733 0.363384
O O4 0.153148 0.000000 0.374512
O O5 0.248177 0.228469 0.199054
O O6 0.345048 0.268756 0.352095
O O7 0.425383 0.199856 0.348013
O O8 0.326830 0.000000 0.306869
O O9 0.480467 0.500000 0.918191
O O10 0.406038 0.735856 0.888511
O O11 0.446052 0.728852 0.840571
O O12 0.582511 0.735968 0.016896
O O13 0.862625 0.000000 0.895660
O O14 0.681325 0.500000 0.621977
O O15 0.767168 0.744301 0.676885
O O16 0.588049 0.726817 0.514478
O O17 0.660138 0.500000 0.274723
O O18 0.558917 0.220835 0.407572
O O19 0.627950 0.000000 0.420863
O O20 0.061041 0.500000 0.465720
#
# Coordination Sequence:
#
# PCOD8079317 Si02
#       8
#     8   8   8   8   8   8   8   8
#     4   9  17  28  45  65  86 112 144 181 221 265
#     4  10  19  32  50  65  86 120 157 187 215 257
#     4   8  13  22  43  69  91 110 139 184 227 256
#     4   8  13  23  42  70  90 108 142 186 225 254
#     4  12  23  31  42  64  95 124 152 185 218 256
#     4  10  17  30  49  67  90 121 152 181 217 266
#     4   9  17  30  45  63  87 111 143 185 222 260
#     4  10  20  34  49  64  84 120 159 186 216 258
#
# _framework density 15.776011
#
# number of rings (size 3 to 8) (size 9 to 14) (size 15 to 20)
#    0.000    2.500    2.500    2.250    0.000    3.000 
#    0.000    0.000    0.000    1.500    0.000    0.875 
#    0.000    0.000    0.000    0.000    0.000    0.000 
#
# Total GULP energy -396598.835685 kJ/mol
# GULP energy per Si atom -12393.713615 kJ/mol
# Density = 1.574010 g / cm^3
# Si number density = 15.776011 Si / 1000 Ang^3
#
#
#
# Elastic Constant Matrix: (Units=GPa)
#
#
# Indices 1 2 3 4 5 6 
#
# 1 98.4196 30.2904 87.3102 -0.0001 -7.3139 -0.0002
# 2 30.2904 34.9746 29.1484 0.0002 -3.3949 -0.0012
# 3 87.3102 29.1484 123.0519 0.0009 -17.6369 0.0003
# 4 -0.0001 0.0002 0.0009 6.4548 0.0003 -4.5813
# 5 -7.3139 -3.3949 -17.6369 0.0003 21.2063 0.0001
# 6 -0.0002 -0.0012 0.0003 -4.5813 0.0001 19.2666
#
#
#
# Elastic Compliance Matrix: (Units=1/GPa)
#
#
# Indices 1 2 3 4 5 6 
#
# 1 0.031371 -0.010507 -0.020959 0.000005 -0.008293 0.000001
# 2 -0.010507 0.039186 -0.001643 0.000001 0.001283 0.000003
# 3 -0.020959 -0.001643 0.025333 -0.000006 0.013577 -0.000002
# 4 0.000005 0.000001 -0.000006 0.186379 -0.000006 0.044318
# 5 -0.008293 0.001283 0.013577 -0.000006 0.055793 -0.000002
# 6 0.000001 0.000003 -0.000002 0.044318 -0.000002 0.062442
#
#
# Mechanical properties :
#
#
# Convention : Reuss Voigt Hill
#
# Bulk Modulus (GPa) = 33.70203 61.10491 47.40347
# Shear Modulus (GPa) = 10.49070 16.69866 13.59468
#
# Velocity S-wave (km/s) = 2.58151 3.25697 2.93871
# Velocity P-wave (km/s) = 5.50407 7.27741 6.45196
#
# Compressibility (1/GPa) = 0.02967180
#
# Stress axis : x y z
#
# Youngs Moduli (GPa) = 31.87662 25.51927 39.47416
#
# Poissons Ratio (x) = 0.26813 0.82733
# Poissons Ratio (y) = 0.33493 0.06487
# Poissons Ratio (z) = 0.66809 0.04194
#
# Static dielectric constant tensor:
#      x y z
#    x 3.002310 0.000000 -0.156130 
#    y 0.000000 2.754970 0.000000 
#    z -0.156130 0.000000 3.394690 
# 
# 
# High freq. dielectric constant tensor:
#      x y z
#    x 1.588000 0.000000 -0.012210 
#    y 0.000000 1.578040 0.000000 
#    z -0.012210 0.000000 1.599490 
# 
# From -- ./inp_files/384583.got.cif
#   From: 2010.06.25/outbox.cif.g09.slc.cpg/sg12_193_cif.got.tgz:384583.got - 2010.06.28 00:19:55.
