data_PCOD8079388
_publ_section_title
;
Structure prediction by ZEFSAII (Michael W. Deem and Ramdas Pophale) SiO2 
 PCOD8079388
Probable space group: C 2/M
;
_chemical_formula_sum "Si O2"
_cell_formula_units_Z 48
_cell_length_a 15.189472
_cell_length_b 18.855565
_cell_length_c 13.864865
_cell_angle_alpha 90.000000
_cell_angle_beta 38.996700
_cell_angle_gamma 90.000000
_cell_volume 2498.841939
_symmetry_space_group_name_H-M "C 2/M"
_symmetry_group_IT_number 12
_symmetry_cell_setting 'monoclinic'
loop_
_space_group_symop_operation_xyz
x,y,z
-x,y,-z
-x,-y,-z
x,-y,z
1/2+x,1/2+y,z
1/2-x,1/2+y,-z
1/2-x,1/2-y,-z
1/2+x,1/2-y,z
loop_
_atom_site_type_symbol
_atom_site_label
_atom_site_fract_x
_atom_site_fract_y
_atom_site_fract_z
Si Si1 0.221533 0.708466 0.173956
Si Si2 0.646701 0.580178 0.419978
Si Si3 0.132595 0.692565 0.817385
Si Si4 0.457281 0.270952 0.821161
Si Si5 0.843985 0.079975 0.161824
Si Si6 0.925071 0.920920 0.302391
O O1 0.249815 0.754177 0.244140
O O2 0.072885 0.727587 0.252352
O O3 0.232187 0.626285 0.197100
O O4 0.334277 0.735165 0.001659
O O5 0.500000 0.610589 0.500000
O O6 0.661141 0.500000 0.370401
O O7 0.785931 0.619200 0.265434
O O8 0.655904 0.584246 0.528164
O O9 0.090088 0.730646 0.753328
O O10 0.000000 0.679485 0.000000
O O11 0.469160 0.354988 0.789299
O O12 0.823851 0.086723 0.294762
O O13 0.822262 0.000000 0.144358
O O14 0.000000 0.107256 0.000000
O O15 0.998144 0.000000 0.233398
#
# Coordination Sequence:
#
# PCOD8079388 Si02
#       6
#     8   8   8   8   8   8
#     4  10  18  32  51  80 116 150 187 232 288 342
#     4  10  22  39  58  82 114 153 197 244 289 338
#     4  10  20  37  57  81 114 151 192 239 293 344
#     4  10  19  31  53  82 114 150 186 234 289 343
#     4  10  17  30  53  79 110 147 190 237 284 338
#     4  10  19  33  55  81 108 144 190 237 286 333
#
# _framework density 19.208898999999999
#
# number of rings (size 3 to 8) (size 9 to 14) (size 15 to 20)
#    0.000    2.000    3.333    1.500    0.000    1.000 
#    0.000    0.833    0.000    3.000    0.000    3.500 
#    0.000    0.000    0.000    0.000    0.000    0.000 
#
# Total GULP energy -297319.622197 kJ/mol
# GULP energy per Si atom -12388.317592 kJ/mol
# Density = 1.916518 g / cm^3
# Si number density = 19.208899 Si / 1000 Ang^3
#
#
#
# Elastic Constant Matrix: (Units=GPa)
#
#
# Indices 1 2 3 4 5 6 
#
# 1 152.7541 72.8138 30.6971 0.0008 6.5667 -0.0001
# 2 72.8138 128.3549 30.2708 0.0020 -6.1397 -0.0008
# 3 30.6971 30.2708 43.3244 0.0009 3.2197 0.0001
# 4 0.0008 0.0020 0.0009 24.4194 -0.0001 1.3542
# 5 6.5667 -6.1397 3.2197 -0.0001 16.1281 -0.0004
# 6 -0.0001 -0.0008 0.0001 1.3542 -0.0004 35.7296
#
#
#
# Elastic Compliance Matrix: (Units=1/GPa)
#
#
# Indices 1 2 3 4 5 6 
#
# 1 0.009817 -0.005123 -0.002979 0.000000 -0.005352 0.000000
# 2 -0.005123 0.012403 -0.005626 -0.000001 0.007930 0.000000
# 3 -0.002979 -0.005626 0.029632 -0.000001 -0.006844 0.000000
# 4 0.000000 -0.000001 -0.000001 0.041037 0.000000 -0.001555
# 5 -0.005352 0.007930 -0.006844 0.000000 0.068568 0.000001
# 6 0.000000 0.000000 0.000000 -0.001555 0.000001 0.028047
#
#
# Mechanical properties :
#
#
# Convention : Reuss Voigt Hill
#
# Bulk Modulus (GPa) = 40.98816 65.77744 53.38280
# Shear Modulus (GPa) = 22.21329 27.96554 25.08942
#
# Velocity S-wave (km/s) = 3.40429 3.81972 3.61797
# Velocity P-wave (km/s) = 6.06932 7.33289 6.73082
#
# Compressibility (1/GPa) = 0.02439729
#
# Stress axis : x y z
#
# Youngs Moduli (GPa) = 101.86465 80.62614 33.74767
#
# Poissons Ratio (x) = 0.41301 0.10053
# Poissons Ratio (y) = 0.52180 0.18986
# Poissons Ratio (z) = 0.30344 0.45359
#
# Static dielectric constant tensor:
#      x y z
#    x 4.015760 0.000000 0.245600 
#    y 0.000000 3.630460 0.000000 
#    z 0.245600 0.000000 3.058130 
# 
# 
# High freq. dielectric constant tensor:
#      x y z
#    x 1.754550 0.000000 0.030140 
#    y 0.000000 1.756960 0.000000 
#    z 0.030140 0.000000 1.696040 
# 
# From -- ./inp_files/216248.got.cif
#   From: 2010.06.25/outbox.cif.g09.slc.cpg/sg12_109_cif.got.tgz:216248.got - 2010.06.28 00:19:55.
