data_PCOD8079184
_publ_section_title
;
Structure prediction by ZEFSAII (Michael W. Deem and Ramdas Pophale) SiO2 
 PCOD8079184
Probable space group: C 2/M
;
_chemical_formula_sum "Si O2"
_cell_formula_units_Z 64
_cell_length_a 27.659492
_cell_length_b 8.925712
_cell_length_c 20.471143
_cell_angle_alpha 90.000000
_cell_angle_beta 132.552935
_cell_angle_gamma 90.000000
_cell_volume 3722.991419
_symmetry_space_group_name_H-M "C 2/M"
_symmetry_group_IT_number 12
_symmetry_cell_setting 'monoclinic'
loop_
_space_group_symop_operation_xyz
x,y,z
-x,y,-z
-x,-y,-z
x,-y,z
1/2+x,1/2+y,z
1/2-x,1/2+y,-z
1/2-x,1/2-y,-z
1/2+x,1/2-y,z
loop_
_atom_site_type_symbol
_atom_site_label
_atom_site_fract_x
_atom_site_fract_y
_atom_site_fract_z
Si Si1 0.184169 0.174385 0.250884
Si Si2 0.689784 0.676835 0.654006
Si Si3 0.536066 0.676566 0.098643
Si Si4 0.487263 0.832452 0.793060
Si Si5 0.506821 0.325000 0.329748
Si Si6 0.832149 0.334046 0.636151
Si Si7 0.856388 0.323612 0.516636
Si Si8 0.941415 0.174389 0.402407
O O1 0.239923 0.256476 0.258256
O O2 0.112011 0.228640 0.162618
O O3 0.195049 0.213352 0.337554
O O4 0.193501 0.000000 0.249519
O O5 0.693859 0.500000 0.661938
O O6 0.681104 0.730544 0.572079
O O7 0.629615 0.742058 0.642490
O O8 0.532273 0.500000 0.106720
O O9 0.498554 0.754214 0.124572
O O10 0.500000 0.727478 0.000000
O O11 0.520425 0.739106 0.763953
O O12 0.410541 0.835958 0.709876
O O13 0.516867 0.000000 0.821255
O O14 0.524008 0.500000 0.337718
O O15 0.570076 0.236559 0.411787
O O16 0.451746 0.298360 0.334882
O O17 0.805591 0.500000 0.630467
O O18 0.815205 0.292051 0.545715
O O19 0.858416 0.500000 0.502306
O O20 0.000000 0.246805 0.500000
O O21 0.939445 0.000000 0.418148
#
# Coordination Sequence:
#
# PCOD8079184 Si02
#       8
#     8   8   8   8   8   8   8   8
#     4  10  20  33  48  69  96 121 152 196 238 281
#     4  11  21  33  48  64  90 128 166 202 241 286
#     4   9  18  34  56  79 101 127 158 189 230 291
#     4   9  17  29  46  73 104 127 155 195 240 287
#     4  10  17  29  49  68  93 128 167 207 245 282
#     4   8  16  30  45  61  88 125 160 191 227 278
#     4  10  19  30  44  66  93 122 162 207 245 280
#     4   9  17  31  48  68  90 122 172 215 242 279
#
# _framework density 17.190477000000001
#
# number of rings (size 3 to 8) (size 9 to 14) (size 15 to 20)
#    0.000    2.500    1.250    2.625    0.000    4.750 
#    0.000    3.125    0.000    0.000    0.000    0.875 
#    0.000    0.000    0.000    0.000    0.000    0.000 
#
# Total GULP energy -396655.716636 kJ/mol
# GULP energy per Si atom -12395.491145 kJ/mol
# Density = 1.715135 g / cm^3
# Si number density = 17.190477 Si / 1000 Ang^3
#
#
#
# Elastic Constant Matrix: (Units=GPa)
#
#
# Indices 1 2 3 4 5 6 
#
# 1 107.2474 31.4097 46.2386 0.0000 -0.3095 0.0000
# 2 31.4097 50.4704 15.1987 0.0000 -1.7297 0.0000
# 3 46.2386 15.1987 64.8747 0.0000 -10.2117 0.0000
# 4 0.0000 0.0000 0.0000 18.5890 0.0000 0.3229
# 5 -0.3095 -1.7297 -10.2117 0.0000 21.1061 0.0000
# 6 0.0000 0.0000 0.0000 0.3229 0.0000 21.9263
#
#
#
# Elastic Compliance Matrix: (Units=1/GPa)
#
#
# Indices 1 2 3 4 5 6 
#
# 1 0.015879 -0.006888 -0.010560 0.000000 -0.005441 0.000000
# 2 -0.006888 0.024316 -0.000530 0.000000 0.001636 0.000000
# 3 -0.010560 -0.000530 0.024933 0.000000 0.011865 0.000000
# 4 0.000000 0.000000 0.000000 0.053809 0.000000 -0.000792
# 5 -0.005441 0.001636 0.011865 0.000000 0.053174 0.000000
# 6 0.000000 0.000000 0.000000 -0.000792 0.000000 0.045619
#
#
# Mechanical properties :
#
#
# Convention : Reuss Voigt Hill
#
# Bulk Modulus (GPa) = 34.28035 45.36516 39.82276
# Shear Modulus (GPa) = 18.98182 20.97399 19.97790
#
# Velocity S-wave (km/s) = 3.32656 3.49677 3.41273
# Velocity P-wave (km/s) = 5.89402 6.53837 6.22454
#
# Compressibility (1/GPa) = 0.02917123
#
# Stress axis : x y z
#
# Youngs Moduli (GPa) = 62.97700 41.12513 40.10812
#
# Poissons Ratio (x) = 0.28329 0.42355
# Poissons Ratio (y) = 0.43381 0.02124
# Poissons Ratio (z) = 0.66504 0.02178
#
# Static dielectric constant tensor:
#      x y z
#    x 3.385040 0.000000 -0.062200 
#    y 0.000000 3.200770 0.000000 
#    z -0.062200 0.000000 3.050860 
# 
# 
# High freq. dielectric constant tensor:
#      x y z
#    x 1.659350 0.000000 -0.007380 
#    y 0.000000 1.663160 0.000000 
#    z -0.007380 0.000000 1.622470 
# 
# From -- ./inp_files/326940.got.cif
#   From: 2010.06.25/outbox.cif.g09.slc.cpg/sg12_164_cif.got.tgz:326940.got - 2010.06.28 00:19:55.
