data_PCOD8079944
_publ_section_title
;
Structure prediction by ZEFSAII (Michael W. Deem and Ramdas Pophale) SiO2 
 PCOD8079944
Probable space group: C 2/M
;
_chemical_formula_sum "Si O2"
_cell_formula_units_Z 64
_cell_length_a 31.590320
_cell_length_b 9.026583
_cell_length_c 30.402445
_cell_angle_alpha 90.000000
_cell_angle_beta 150.181292
_cell_angle_gamma 90.000000
_cell_volume 4310.891193
_symmetry_space_group_name_H-M "C 2/M"
_symmetry_group_IT_number 12
_symmetry_cell_setting 'monoclinic'
loop_
_space_group_symop_operation_xyz
x,y,z
-x,y,-z
-x,-y,-z
x,-y,z
1/2+x,1/2+y,z
1/2-x,1/2+y,-z
1/2-x,1/2-y,-z
1/2+x,1/2-y,z
loop_
_atom_site_type_symbol
_atom_site_label
_atom_site_fract_x
_atom_site_fract_y
_atom_site_fract_z
Si Si1 0.701003 0.330529 0.993406
Si Si2 0.957140 0.174370 0.197631
Si Si3 0.125041 0.327924 0.367069
Si Si4 0.600595 0.333106 0.596209
Si Si5 0.355978 0.826611 0.184806
Si Si6 0.077725 0.327600 0.661607
Si Si7 0.380528 0.826625 0.473721
Si Si8 0.305227 0.672402 0.487396
O O1 0.709284 0.500000 0.988395
O O2 0.753170 0.298169 0.085641
O O3 0.750000 0.250000 0.000000
O O4 0.600655 0.288911 0.898355
O O5 0.911224 0.233313 0.200176
O O6 0.045729 0.257892 0.269767
O O7 0.974017 0.000000 0.218098
O O8 0.108981 0.500000 0.361711
O O9 0.207217 0.300487 0.411228
O O10 0.133786 0.248911 0.421989
O O11 0.500000 0.330309 0.500000
O O12 0.636353 0.500000 0.626753
O O13 0.623848 0.260917 0.663994
O O14 0.642555 0.237871 0.595015
O O15 0.379115 0.773363 0.254437
O O16 0.378701 0.000000 0.199148
O O17 0.092954 0.500000 0.666308
O O18 0.977754 0.291668 0.574095
O O19 0.319502 0.746256 0.453233
O O20 0.360991 0.000000 0.456197
O O21 0.328450 0.500000 0.506511
#
# Coordination Sequence:
#
# PCOD8079944 Si02
#       8
#     8   8   8   8   8   8   8   8
#     4   8  15  26  39  57  80 107 137 169 204 241
#     4  10  18  27  41  60  82 109 142 175 205 240
#     4  10  20  32  44  59  81 109 139 171 208 244
#     4   9  17  28  41  57  79 107 137 169 201 233
#     4   9  16  27  42  59  83 112 140 170 206 247
#     4   9  17  27  40  59  81 107 137 167 200 240
#     4  10  18  28  43  61  83 110 138 166 200 243
#     4  10  20  32  45  61  81 105 137 175 208 240
#
# _framework density 14.846118000000001
#
# number of rings (size 3 to 8) (size 9 to 14) (size 15 to 20)
#    0.000    2.625    0.000    2.625    0.000    5.500 
#    0.000    0.000    0.000    0.000    0.000    0.000 
#    0.000    1.000    0.000   11.500    0.000    2.875 
#
# Total GULP energy -396606.887187 kJ/mol
# GULP energy per Si atom -12393.965225 kJ/mol
# Density = 1.481233 g / cm^3
# Si number density = 14.846118 Si / 1000 Ang^3
#
#
#
# Elastic Constant Matrix: (Units=GPa)
#
#
# Indices 1 2 3 4 5 6 
#
# 1 77.3490 41.4024 32.5481 0.0000 -11.1188 0.0000
# 2 41.4024 81.8364 37.3964 0.0001 -1.2311 -0.0001
# 3 32.5481 37.3964 91.4488 0.0000 -7.1991 0.0000
# 4 0.0000 0.0001 0.0000 19.1897 0.0000 -0.5025
# 5 -11.1188 -1.2311 -7.1991 0.0000 18.1244 0.0000
# 6 0.0000 -0.0001 0.0000 -0.5025 0.0000 26.3941
#
#
#
# Elastic Compliance Matrix: (Units=1/GPa)
#
#
# Indices 1 2 3 4 5 6 
#
# 1 0.020413 -0.008896 -0.002776 0.000000 0.010816 0.000000
# 2 -0.008896 0.018942 -0.005067 0.000000 -0.006183 0.000000
# 3 -0.002776 -0.005067 0.014280 0.000000 0.003625 0.000000
# 4 0.000000 0.000000 0.000000 0.052137 0.000000 0.000993
# 5 0.010816 -0.006183 0.003625 0.000000 0.062830 0.000000
# 6 0.000000 0.000000 0.000000 0.000993 0.000000 0.037906
#
#
# Mechanical properties :
#
#
# Convention : Reuss Voigt Hill
#
# Bulk Modulus (GPa) = 49.60704 52.59202 51.09953
# Shear Modulus (GPa) = 20.26703 22.02746 21.14724
#
# Velocity S-wave (km/s) = 3.69879 3.85609 3.77826
# Velocity P-wave (km/s) = 7.19222 7.43825 7.31627
#
# Compressibility (1/GPa) = 0.02015843
#
# Stress axis : x y z
#
# Youngs Moduli (GPa) = 48.98806 52.79137 70.02597
#
# Poissons Ratio (x) = 0.46964 0.19439
# Poissons Ratio (y) = 0.43580 0.35480
# Poissons Ratio (z) = 0.13599 0.26748
#
# Static dielectric constant tensor:
#      x y z
#    x 2.672910 0.000000 -0.157910 
#    y 0.000000 2.988100 0.000000 
#    z -0.157910 0.000000 3.186290 
# 
# 
# High freq. dielectric constant tensor:
#      x y z
#    x 1.536460 0.000000 -0.012120 
#    y 0.000000 1.584190 0.000000 
#    z -0.012120 0.000000 1.554320 
# 
# From -- ./inp_files/384602.got.cif
#   From: 2010.06.25/outbox.cif.g09.slc.cpg/sg12_193_cif.got.tgz:384602.got - 2010.06.28 00:19:55.
