data_PCOD8079704
_publ_section_title
;
Structure prediction by ZEFSAII (Michael W. Deem and Ramdas Pophale) SiO2 
 PCOD8079704
Probable space group: C 2/M
;
_chemical_formula_sum "Si O2"
_cell_formula_units_Z 44
_cell_length_a 16.118494
_cell_length_b 16.155309
_cell_length_c 11.776915
_cell_angle_alpha 90.000000
_cell_angle_beta 46.598675
_cell_angle_gamma 90.000000
_cell_volume 2228.137704
_symmetry_space_group_name_H-M "C 2/M"
_symmetry_group_IT_number 12
_symmetry_cell_setting 'monoclinic'
loop_
_space_group_symop_operation_xyz
x,y,z
-x,y,-z
-x,-y,-z
x,-y,z
1/2+x,1/2+y,z
1/2-x,1/2+y,-z
1/2-x,1/2-y,-z
1/2+x,1/2-y,z
loop_
_atom_site_type_symbol
_atom_site_label
_atom_site_fract_x
_atom_site_fract_y
_atom_site_fract_z
Si Si1 0.924026 0.762862 0.182356
Si Si2 0.487728 0.408062 0.741223
Si Si3 0.496031 0.912299 0.137856
Si Si4 0.727321 0.130388 0.006901
Si Si5 0.777789 0.734638 0.783328
Si Si6 0.000000 0.171128 0.500000
O O1 0.793630 0.775817 0.265483
O O2 0.960886 0.838506 0.226069
O O3 0.936803 0.673700 0.236650
O O4 0.000000 0.766365 0.000000
O O5 0.530965 0.500000 0.735355
O O6 0.534121 0.388277 0.571830
O O7 0.350134 0.410837 0.872432
O O8 0.622284 0.926976 0.070101
O O9 0.431137 0.000000 0.229955
O O10 0.500000 0.903999 0.000000
O O11 0.709138 0.149782 0.158234
O O12 0.711774 0.208291 0.936736
O O13 0.899102 0.769522 0.633992
#
# Coordination Sequence:
#
# PCOD8079704 Si02
#       6
#     8   8   8   8   8   4
#     4  11  19  37  59  88 121 147 196 254 295 343
#     4  11  23  38  59  88 121 160 199 241 293 352
#     4  10  18  29  50  84 114 143 183 240 298 335
#     4  10  17  34  57  81 116 153 198 242 285 343
#     4  10  19  35  59  84 114 158 194 239 294 350
#     4  10  23  38  58  84 121 160 199 240 292 360
#
# _framework density 19.747433000000001
#
# number of rings (size 3 to 8) (size 9 to 14) (size 15 to 20)
#    0.000    1.636    5.455    3.000    0.000    1.091 
#    0.000    0.909    0.000    0.000    0.000   17.818 
#    0.000    0.000    0.000    0.000    0.000    0.000 
#
# Total GULP energy -272551.452924 kJ/mol
# GULP energy per Si atom -12388.702406 kJ/mol
# Density = 1.970249 g / cm^3
# Si number density = 19.747433 Si / 1000 Ang^3
#
#
#
# Elastic Constant Matrix: (Units=GPa)
#
#
# Indices 1 2 3 4 5 6 
#
# 1 112.1319 48.4257 18.2894 0.0000 4.3233 0.0000
# 2 48.4257 143.0816 35.5157 0.0000 19.5570 0.0000
# 3 18.2894 35.5157 58.4663 0.0000 8.3365 0.0000
# 4 0.0000 0.0000 0.0000 9.5752 0.0000 18.6263
# 5 4.3233 19.5570 8.3365 0.0000 17.7554 0.0000
# 6 0.0000 0.0000 0.0000 18.6263 0.0000 125.4135
#
#
#
# Elastic Compliance Matrix: (Units=1/GPa)
#
#
# Indices 1 2 3 4 5 6 
#
# 1 0.010588 -0.003484 -0.001474 0.000000 0.001952 0.000000
# 2 -0.003484 0.010335 -0.003951 0.000000 -0.008681 0.000000
# 3 -0.001474 -0.003951 0.020677 0.000000 -0.004998 0.000000
# 4 0.000000 0.000000 0.000000 0.146868 0.000000 -0.021813
# 5 0.001952 -0.008681 -0.004998 0.000000 0.067754 0.000000
# 6 0.000000 0.000000 0.000000 -0.021813 0.000000 0.011213
#
#
# Mechanical properties :
#
#
# Convention : Reuss Voigt Hill
#
# Bulk Modulus (GPa) = 42.04646 57.57129 49.80887
# Shear Modulus (GPa) = 17.05428 44.64542 30.84985
#
# Velocity S-wave (km/s) = 2.94193 4.75997 3.95678
# Velocity P-wave (km/s) = 5.73396 7.70888 6.79357
#
# Compressibility (1/GPa) = 0.02378321
#
# Stress axis : x y z
#
# Youngs Moduli (GPa) = 94.44644 96.75417 48.36208
#
# Poissons Ratio (x) = 0.33714 0.07128
# Poissons Ratio (y) = 0.32909 0.19106
# Poissons Ratio (z) = 0.13920 0.38223
#
# Static dielectric constant tensor:
#      x y z
#    x 22.104690 0.000000 6.319190 
#    y 0.000000 3.868510 0.000000 
#    z 6.319190 0.000000 5.349780 
# 
# 
# High freq. dielectric constant tensor:
#      x y z
#    x 1.781570 0.000000 0.000240 
#    y 0.000000 1.771120 0.000000 
#    z 0.000240 0.000000 1.720640 
# 
# From -- ./inp_files/145330.got.cif
#   From: 2010.06.25/outbox.cif.g09.slc.cpg/sg12_73_cif.got.tgz:145330.got - 2010.06.28 00:19:55.
