data_PCOD8079127
_publ_section_title
;
Structure prediction by ZEFSAII (Michael W. Deem and Ramdas Pophale) SiO2 
 PCOD8079127
Probable space group: C 2/M
;
_chemical_formula_sum "Si O2"
_cell_formula_units_Z 56
_cell_length_a 27.506383
_cell_length_b 8.486863
_cell_length_c 14.516875
_cell_angle_alpha 90.000000
_cell_angle_beta 104.250098
_cell_angle_gamma 90.000000
_cell_volume 3284.587848
_symmetry_space_group_name_H-M "C 2/M"
_symmetry_group_IT_number 12
_symmetry_cell_setting 'monoclinic'
loop_
_space_group_symop_operation_xyz
x,y,z
-x,y,-z
-x,-y,-z
x,-y,z
1/2+x,1/2+y,z
1/2-x,1/2+y,-z
1/2-x,1/2-y,-z
1/2+x,1/2-y,z
loop_
_atom_site_type_symbol
_atom_site_label
_atom_site_fract_x
_atom_site_fract_y
_atom_site_fract_z
Si Si1 0.794932 0.314238 0.407588
Si Si2 0.630138 0.817749 0.930430
Si Si3 0.319045 0.316888 0.606357
Si Si4 0.812869 0.314020 0.214365
Si Si5 0.865427 0.682655 0.795659
Si Si6 0.443474 0.316022 0.961709
Si Si7 0.707691 0.316364 0.097172
O O1 0.801426 0.500000 0.422858
O O2 0.736425 0.266928 0.385341
O O3 0.825840 0.229155 0.502715
O O4 0.817919 0.250919 0.321312
O O5 0.638604 0.771700 0.826271
O O6 0.586531 0.715397 0.956956
O O7 0.615584 0.000000 0.933857
O O8 0.683377 0.786948 0.004711
O O9 0.329051 0.500000 0.623596
O O10 0.360904 0.222744 0.685148
O O11 0.805083 0.500000 0.216847
O O12 0.762893 0.247171 0.142163
O O13 0.854393 0.500000 0.808736
O O14 0.824657 0.793361 0.825633
O O15 0.919834 0.723950 0.863726
O O16 0.441947 0.500000 0.939068
O O17 0.500000 0.254867 0.000000
O O18 0.707113 0.500000 0.069826
#
# Coordination Sequence:
#
# PCOD8079127 Si02
#       7
#     8   8   8   8   8   8   8
#     4   9  17  30  45  63  93 131 167 200 229 266
#     4  10  19  30  46  69  94 122 157 194 233 280
#     4  10  18  30  46  66  94 128 164 201 235 272
#     4   9  17  29  44  64  94 131 162 191 230 271
#     4  11  20  30  48  72  96 124 159 197 237 282
#     4  10  21  37  54  71  93 121 153 194 244 290
#     4  10  17  29  44  62  93 130 162 192 227 269
#
# _framework density 17.049323000000001
#
# number of rings (size 3 to 8) (size 9 to 14) (size 15 to 20)
#    0.000    2.143    1.429    5.143    0.000    1.714 
#    0.000    3.571    0.000    0.000    0.000    1.000 
#    0.000    8.000    0.000    0.000    0.000    0.000 
#
# Total GULP energy -347098.568528 kJ/mol
# GULP energy per Si atom -12396.377447 kJ/mol
# Density = 1.701052 g / cm^3
# Si number density = 17.049323 Si / 1000 Ang^3
#
#
#
# Elastic Constant Matrix: (Units=GPa)
#
#
# Indices 1 2 3 4 5 6 
#
# 1 65.0555 13.8228 57.4461 0.0000 -0.9852 0.0000
# 2 13.8228 45.2262 21.4478 0.0000 2.9045 0.0000
# 3 57.4461 21.4478 117.2765 0.0000 -13.5626 0.0000
# 4 0.0000 0.0000 0.0000 26.2750 0.0000 -0.4527
# 5 -0.9852 2.9045 -13.5626 0.0000 23.7283 0.0000
# 6 0.0000 0.0000 0.0000 -0.4527 0.0000 16.7000
#
#
#
# Elastic Compliance Matrix: (Units=1/GPa)
#
#
# Indices 1 2 3 4 5 6 
#
# 1 0.028267 -0.001373 -0.014391 0.000000 -0.006884 0.000000
# 2 -0.001373 0.025070 -0.004576 0.000000 -0.005741 0.000000
# 3 -0.014391 -0.004576 0.017570 0.000000 0.010005 0.000000
# 4 0.000000 0.000000 0.000000 0.038077 0.000000 0.001032
# 5 -0.006884 -0.005741 0.010005 0.000000 0.048280 0.000000
# 6 0.000000 0.000000 0.000000 0.001032 0.000000 0.059908
#
#
# Mechanical properties :
#
#
# Convention : Reuss Voigt Hill
#
# Bulk Modulus (GPa) = 33.08380 45.88797 39.48588
# Shear Modulus (GPa) = 18.66183 22.33008 20.49596
#
# Velocity S-wave (km/s) = 3.31203 3.62295 3.47097
# Velocity P-wave (km/s) = 5.83720 6.66891 6.26687
#
# Compressibility (1/GPa) = 0.03022627
#
# Stress axis : x y z
#
# Youngs Moduli (GPa) = 35.37742 39.88894 56.91484
#
# Poissons Ratio (x) = 0.05475 0.81906
# Poissons Ratio (y) = 0.04856 0.26047
# Poissons Ratio (z) = 0.50912 0.18255
#
# Static dielectric constant tensor:
#      x y z
#    x 2.947560 0.000000 -0.154010 
#    y 0.000000 3.046200 0.000000 
#    z -0.154010 0.000000 3.383420 
# 
# 
# High freq. dielectric constant tensor:
#      x y z
#    x 1.610800 0.000000 -0.017330 
#    y 0.000000 1.656690 0.000000 
#    z -0.017330 0.000000 1.656980 
# 
# From -- ./inp_files/248581.got.cif
#   From: 2010.06.25/outbox.cif.g09.slc.cpg/sg12_125_cif.got.tgz:248581.got - 2010.06.28 00:19:55.
