data_PCOD8079578
_publ_section_title
;
Structure prediction by ZEFSAII (Michael W. Deem and Ramdas Pophale) SiO2 
 PCOD8079578
Probable space group: C 2/M
;
_chemical_formula_sum "Si O2"
_cell_formula_units_Z 56
_cell_length_a 14.559224
_cell_length_b 20.457059
_cell_length_c 13.446286
_cell_angle_alpha 90.000000
_cell_angle_beta 49.101887
_cell_angle_gamma 90.000000
_cell_volume 3027.148806
_symmetry_space_group_name_H-M "C 2/M"
_symmetry_group_IT_number 12
_symmetry_cell_setting 'monoclinic'
loop_
_space_group_symop_operation_xyz
x,y,z
-x,y,-z
-x,-y,-z
x,-y,z
1/2+x,1/2+y,z
1/2-x,1/2+y,-z
1/2-x,1/2-y,-z
1/2+x,1/2-y,z
loop_
_atom_site_type_symbol
_atom_site_label
_atom_site_fract_x
_atom_site_fract_y
_atom_site_fract_z
Si Si1 0.656358 0.427441 0.106545
Si Si2 0.376367 0.749760 0.463343
Si Si3 0.979363 0.302489 0.207222
Si Si4 0.962654 0.869967 0.632302
Si Si5 0.390065 0.692897 0.003590
Si Si6 0.235711 0.233725 0.263952
Si Si7 0.931700 0.573231 0.948313
O O1 0.640653 0.500000 0.070537
O O2 0.555329 0.421459 0.265865
O O3 0.640932 0.373670 0.031673
O O4 0.787782 0.421462 0.064940
O O5 0.250000 0.750000 0.500000
O O6 0.467276 0.795078 0.335395
O O7 0.424042 0.675995 0.423328
O O8 0.356052 0.771004 0.593118
O O9 0.854464 0.292070 0.236647
O O10 0.077005 0.250281 0.097118
O O11 0.026451 0.376077 0.164755
O O12 0.837065 0.828883 0.723212
O O13 0.000000 0.903646 0.500000
O O14 0.500000 0.677565 0.000000
O O15 0.272252 0.717248 0.149217
O O16 0.970885 0.500000 0.888804
O O17 0.000000 0.594605 0.000000
#
# Coordination Sequence:
#
# PCOD8079578 Si02
#       7
#     8   8   8   8   8   8   8
#     4  11  23  36  53  79 109 148 186 220 267 320
#     4   9  18  31  50  77 108 133 169 223 271 318
#     4  10  17  32  55  79 103 139 176 222 270 317
#     4  10  19  33  52  78 110 137 172 220 278 327
#     4  10  20  34  56  80 106 137 185 230 265 309
#     4   9  19  31  51  84 106 133 176 222 275 320
#     4  10  21  35  52  78 112 141 173 219 271 325
#
# _framework density 18.499255999999999
#
# number of rings (size 3 to 8) (size 9 to 14) (size 15 to 20)
#    0.000    2.143    1.429    3.000    2.000    1.714 
#    0.000    0.000    0.000    6.000    0.000    2.000 
#    0.000    0.000    0.000    0.000    0.000    0.000 
#
# Total GULP energy -346981.341462 kJ/mol
# GULP energy per Si atom -12392.190767 kJ/mol
# Density = 1.845715 g / cm^3
# Si number density = 18.499256 Si / 1000 Ang^3
#
#
#
# Elastic Constant Matrix: (Units=GPa)
#
#
# Indices 1 2 3 4 5 6 
#
# 1 33.1221 20.1068 21.4797 0.0000 -0.8561 0.0000
# 2 20.1068 103.0482 62.4722 0.0000 9.3908 0.0000
# 3 21.4797 62.4722 146.1314 0.0000 13.4159 0.0000
# 4 0.0000 0.0000 0.0000 24.6291 0.0000 3.0783
# 5 -0.8561 9.3908 13.4159 0.0000 24.5877 0.0000
# 6 0.0000 0.0000 0.0000 3.0783 0.0000 23.0106
#
#
#
# Elastic Compliance Matrix: (Units=1/GPa)
#
#
# Indices 1 2 3 4 5 6 
#
# 1 0.035820 -0.005374 -0.003443 0.000000 0.005178 0.000000
# 2 -0.005374 0.014004 -0.004936 0.000000 -0.002842 0.000000
# 3 -0.003443 -0.004936 0.009788 0.000000 -0.003575 0.000000
# 4 0.000000 0.000000 0.000000 0.041293 0.000000 -0.005524
# 5 0.005178 -0.002842 -0.003575 0.000000 0.043887 0.000000
# 6 0.000000 0.000000 0.000000 -0.005524 0.000000 0.044197
#
#
# Mechanical properties :
#
#
# Convention : Reuss Voigt Hill
#
# Bulk Modulus (GPa) = 31.14673 54.49098 42.81885
# Shear Modulus (GPa) = 22.00726 26.32835 24.16780
#
# Velocity S-wave (km/s) = 3.45284 3.77664 3.61836
# Velocity P-wave (km/s) = 5.72446 6.96685 6.37599
#
# Compressibility (1/GPa) = 0.03210610
#
# Stress axis : x y z
#
# Youngs Moduli (GPa) = 27.91714 71.40720 102.16893
#
# Poissons Ratio (x) = 0.38372 0.35180
# Poissons Ratio (y) = 0.15002 0.50431
# Poissons Ratio (z) = 0.09613 0.35247
#
# Static dielectric constant tensor:
#      x y z
#    x 3.543440 0.000000 0.165140 
#    y 0.000000 3.210870 0.000000 
#    z 0.165140 0.000000 4.075960 
# 
# 
# High freq. dielectric constant tensor:
#      x y z
#    x 1.717400 0.000000 -0.006840 
#    y 0.000000 1.684620 0.000000 
#    z -0.006840 0.000000 1.733100 
# 
# From -- ./inp_files/226560.got.cif
#   From: 2010.06.25/outbox.cif.g09.slc.cpg/sg12_114_cif.got.tgz:226560.got - 2010.06.28 00:19:55.
