data_PCOD8079052
_publ_section_title
;
Structure prediction by ZEFSAII (Michael W. Deem and Ramdas Pophale) SiO2 
 PCOD8079052
Probable space group: C 2/M
;
_chemical_formula_sum "Si O2"
_cell_formula_units_Z 64
_cell_length_a 29.854392
_cell_length_b 9.379242
_cell_length_c 30.591427
_cell_angle_alpha 90.000000
_cell_angle_beta 28.588050
_cell_angle_gamma 90.000000
_cell_volume 4098.883488
_symmetry_space_group_name_H-M "C 2/M"
_symmetry_group_IT_number 12
_symmetry_cell_setting 'monoclinic'
loop_
_space_group_symop_operation_xyz
x,y,z
-x,y,-z
-x,-y,-z
x,-y,z
1/2+x,1/2+y,z
1/2-x,1/2+y,-z
1/2-x,1/2-y,-z
1/2+x,1/2-y,z
loop_
_atom_site_type_symbol
_atom_site_label
_atom_site_fract_x
_atom_site_fract_y
_atom_site_fract_z
Si Si1 0.527986 0.332296 0.579623
Si Si2 0.819655 0.662517 0.386364
Si Si3 0.978203 0.165684 0.088129
Si Si4 0.634525 0.165707 0.556602
Si Si5 0.828782 0.832662 0.711327
Si Si6 0.850411 0.833755 0.117072
Si Si7 0.678265 0.668822 0.381074
Si Si8 0.621069 0.835536 0.757751
O O1 0.542089 0.500000 0.575562
O O2 0.550125 0.247808 0.605209
O O3 0.422459 0.295546 0.657078
O O4 0.596441 0.274100 0.482823
O O5 0.780346 0.500000 0.418394
O O6 0.732906 0.768971 0.457047
O O7 0.878277 0.688188 0.380343
O O8 0.887981 0.689187 0.286626
O O9 0.902001 0.213444 0.117420
O O10 0.961178 0.250472 0.147540
O O11 0.967669 0.000000 0.107178
O O12 0.081996 0.200202 0.981730
O O13 0.632865 0.000000 0.545250
O O14 0.743776 0.755376 0.808682
O O15 0.838703 0.773754 0.653352
O O16 0.807963 0.000000 0.728886
O O17 0.825863 0.000000 0.139706
O O18 0.673591 0.500000 0.385284
O O19 0.778054 0.723132 0.313065
O O20 0.609757 0.000000 0.780102
#
# Coordination Sequence:
#
# PCOD8079052 Si02
#       8
#     8   8   8   8   8   8   8   8
#     4  10  19  32  47  63  92 127 156 190 227 262
#     4   9  18  32  47  65  92 121 149 186 233 272
#     4   9  18  31  46  65  91 122 151 181 228 277
#     4  10  19  30  46  67  90 119 156 191 222 267
#     4  10  19  30  47  68  88 120 163 194 218 257
#     4   9  18  32  46  62  91 125 150 183 229 272
#     4   9  16  28  44  64  91 123 156 184 217 261
#     4  10  17  28  48  69  90 120 152 185 225 267
#
# _framework density 15.614008
#
# number of rings (size 3 to 8) (size 9 to 14) (size 15 to 20)
#    0.000    2.500    2.500    1.500    0.000    3.500 
#    0.000    1.875    0.000    1.500    0.000    0.875 
#    0.000    0.000    0.000    0.000    0.000    0.000 
#
# Total GULP energy -396787.152933 kJ/mol
# GULP energy per Si atom -12399.598529 kJ/mol
# Density = 1.557847 g / cm^3
# Si number density = 15.614008 Si / 1000 Ang^3
#
#
#
# Elastic Constant Matrix: (Units=GPa)
#
#
# Indices 1 2 3 4 5 6 
#
# 1 99.3521 45.4658 54.7816 -0.0066 7.3776 0.0024
# 2 45.4658 56.0981 48.5710 -0.0146 4.3966 0.0093
# 3 54.7816 48.5710 107.4180 -0.0114 7.1094 0.0104
# 4 -0.0066 -0.0146 -0.0114 26.0434 0.0084 -0.2814
# 5 7.3776 4.3966 7.1094 0.0084 22.7317 -0.0047
# 6 0.0024 0.0093 0.0104 -0.2814 -0.0047 24.4305
#
#
#
# Elastic Compliance Matrix: (Units=1/GPa)
#
#
# Indices 1 2 3 4 5 6 
#
# 1 0.017108 -0.010291 -0.003917 -0.000002 -0.002337 0.000003
# 2 -0.010291 0.035539 -0.010811 0.000013 -0.000153 -0.000008
# 3 -0.003917 -0.010811 0.016311 0.000001 -0.001739 -0.000003
# 4 -0.000002 0.000013 0.000001 0.038402 -0.000016 0.000442
# 5 -0.002337 -0.000153 -0.001739 -0.000016 0.045323 0.000010
# 6 0.000003 -0.000008 -0.000003 0.000442 0.000010 0.040937
#
#
# Mechanical properties :
#
#
# Convention : Reuss Voigt Hill
#
# Bulk Modulus (GPa) = 52.85607 62.27832 57.56720
# Shear Modulus (GPa) = 20.00280 22.24445 21.12363
#
# Velocity S-wave (km/s) = 3.58310 3.77854 3.68212
# Velocity P-wave (km/s) = 7.14446 7.68175 7.41797
#
# Compressibility (1/GPa) = 0.01891930
#
# Stress axis : x y z
#
# Youngs Moduli (GPa) = 58.45283 28.13805 61.31002
#
# Poissons Ratio (x) = 0.28957 0.24014
# Poissons Ratio (y) = 0.60154 0.66284
# Poissons Ratio (z) = 0.22895 0.30421
#
# Static dielectric constant tensor:
#      x y z
#    x 2.960350 -0.000030 0.137800 
#    y -0.000030 2.849460 0.000040 
#    z 0.137800 0.000040 2.879230 
# 
# 
# High freq. dielectric constant tensor:
#      x y z
#    x 1.583490 0.000000 0.012530 
#    y 0.000000 1.590040 0.000000 
#    z 0.012530 0.000000 1.584310 
# 
# From -- ./inp_files/248259.got.cif
#   From: 2010.06.25/outbox.cif.g09.slc.cpg/sg12_125_cif.got.tgz:248259.got - 2010.06.28 00:19:55.
