data_PCOD8079987
_publ_section_title
;
Structure prediction by ZEFSAII (Michael W. Deem and Ramdas Pophale) SiO2 
 PCOD8079987
Probable space group: C 2/M
;
_chemical_formula_sum "Si O2"
_cell_formula_units_Z 64
_cell_length_a 23.803516
_cell_length_b 8.948729
_cell_length_c 17.350094
_cell_angle_alpha 90.000000
_cell_angle_beta 93.403143
_cell_angle_gamma 90.000000
_cell_volume 3689.247374
_symmetry_space_group_name_H-M "C 2/M"
_symmetry_group_IT_number 12
_symmetry_cell_setting 'monoclinic'
loop_
_space_group_symop_operation_xyz
x,y,z
-x,y,-z
-x,-y,-z
x,-y,z
1/2+x,1/2+y,z
1/2-x,1/2+y,-z
1/2-x,1/2-y,-z
1/2+x,1/2-y,z
loop_
_atom_site_type_symbol
_atom_site_label
_atom_site_fract_x
_atom_site_fract_y
_atom_site_fract_z
Si Si1 0.550138 0.325615 0.763091
Si Si2 0.060280 0.823088 0.035320
Si Si3 0.734071 0.176795 0.578495
Si Si4 0.687470 0.328526 0.277408
Si Si5 0.792318 0.668920 0.199524
Si Si6 0.116397 0.671107 0.905266
Si Si7 0.645999 0.671481 0.664918
Si Si8 0.927747 0.823176 0.790891
O O1 0.556215 0.500000 0.786276
O O2 0.576161 0.231202 0.834570
O O3 0.580751 0.293801 0.683018
O O4 0.484449 0.281314 0.749001
O O5 0.069178 0.759546 0.121977
O O6 0.063509 0.000000 0.033786
O O7 0.108930 0.760183 0.983846
O O8 0.000000 0.766313 0.000000
O O9 0.750000 0.250000 0.500000
O O10 0.778448 0.237727 0.646476
O O11 0.670719 0.227707 0.597620
O O12 0.734878 0.000000 0.570548
O O13 0.676795 0.500000 0.296272
O O14 0.724838 0.310045 0.201775
O O15 0.626598 0.251807 0.257490
O O16 0.807257 0.500000 0.231209
O O17 0.817782 0.688190 0.115748
O O18 0.820213 0.794746 0.254492
O O19 0.100517 0.500000 0.918655
O O20 0.653739 0.500000 0.641316
O O21 0.919837 0.000000 0.795473
#
# Coordination Sequence:
#
# PCOD8079987 Si02
#       8
#     8   8   8   8   8   8   8   8
#     4   9  16  28  46  68  92 119 156 194 227 267
#     4  10  18  29  44  63  89 119 157 199 235 273
#     4  10  19  32  52  76  99 120 148 183 222 270
#     4   8  15  29  49  70  90 116 152 188 224 271
#     4   8  15  28  44  63  88 120 155 192 231 272
#     4  10  18  27  42  63  90 120 154 198 241 274
#     4   9  16  26  45  72  97 119 148 187 226 265
#     4   9  16  28  47  67  89 120 155 193 233 270
#
# _framework density 17.347712000000001
#
# number of rings (size 3 to 8) (size 9 to 14) (size 15 to 20)
#    0.000    2.875    1.250    1.875    0.000    1.250 
#    0.000    0.625    0.000    8.250    0.000    5.250 
#    0.000    0.000    0.000    0.000    0.000    0.000 
#
# Total GULP energy -396428.429962 kJ/mol
# GULP energy per Si atom -12388.388436 kJ/mol
# Density = 1.730823 g / cm^3
# Si number density = 17.347712 Si / 1000 Ang^3
#
#
#
# Elastic Constant Matrix: (Units=GPa)
#
#
# Indices 1 2 3 4 5 6 
#
# 1 126.8902 24.1214 64.7131 0.0000 -19.8644 0.0000
# 2 24.1214 36.6835 27.9876 0.0000 -8.6020 0.0000
# 3 64.7131 27.9876 105.2720 0.0000 -26.0191 0.0000
# 4 0.0000 0.0000 0.0000 23.7286 0.0000 -8.6722
# 5 -19.8644 -8.6020 -26.0191 0.0000 28.2175 0.0000
# 6 0.0000 0.0000 0.0000 -8.6722 0.0000 15.7653
#
#
#
# Elastic Compliance Matrix: (Units=1/GPa)
#
#
# Indices 1 2 3 4 5 6 
#
# 1 0.011776 -0.002677 -0.006062 0.000000 0.001885 0.000000
# 2 -0.002677 0.034958 -0.007098 0.000000 0.002228 0.000000
# 3 -0.006062 -0.007098 0.017515 0.000000 0.009719 0.000000
# 4 0.000000 0.000000 0.000000 0.052748 0.000000 0.029016
# 5 0.001885 0.002228 0.009719 0.000000 0.046407 0.000000
# 6 0.000000 0.000000 0.000000 0.029016 0.000000 0.079392
#
#
# Mechanical properties :
#
#
# Convention : Reuss Voigt Hill
#
# Bulk Modulus (GPa) = 30.69723 55.83223 43.26473
# Shear Modulus (GPa) = 17.52382 23.67719 20.60050
#
# Velocity S-wave (km/s) = 3.18174 3.69841 3.44976
# Velocity P-wave (km/s) = 5.58852 7.10575 6.39231
#
# Compressibility (1/GPa) = 0.03257623
#
# Stress axis : x y z
#
# Youngs Moduli (GPa) = 84.91798 28.60578 57.09529
#
# Poissons Ratio (x) = 0.07657 0.34608
# Poissons Ratio (y) = 0.22731 0.40525
# Poissons Ratio (z) = 0.51473 0.20304
#
# Static dielectric constant tensor:
#      x y z
#    x 3.550180 0.000000 -0.337120 
#    y 0.000000 3.043120 0.000000 
#    z -0.337120 0.000000 3.160160 
# 
# 
# High freq. dielectric constant tensor:
#      x y z
#    x 1.662030 0.000000 -0.038830 
#    y 0.000000 1.649580 0.000000 
#    z -0.038830 0.000000 1.644100 
# 
# From -- ./inp_files/287552.got.cif
#   From: 2010.06.25/outbox.cif.g09.slc.cpg/sg12_144_cif.got.tgz:287552.got - 2010.06.28 00:19:55.
