data_PCOD8079981
_publ_section_title
;
Structure prediction by ZEFSAII (Michael W. Deem and Ramdas Pophale) SiO2 
 PCOD8079981
Probable space group: C 2/M
;
_chemical_formula_sum "Si O2"
_cell_formula_units_Z 64
_cell_length_a 32.257296
_cell_length_b 9.177287
_cell_length_c 13.917751
_cell_angle_alpha 90.000000
_cell_angle_beta 94.731914
_cell_angle_gamma 90.000000
_cell_volume 4106.090850
_symmetry_space_group_name_H-M "C 2/M"
_symmetry_group_IT_number 12
_symmetry_cell_setting 'monoclinic'
loop_
_space_group_symop_operation_xyz
x,y,z
-x,y,-z
-x,-y,-z
x,-y,z
1/2+x,1/2+y,z
1/2-x,1/2+y,-z
1/2-x,1/2-y,-z
1/2+x,1/2-y,z
loop_
_atom_site_type_symbol
_atom_site_label
_atom_site_fract_x
_atom_site_fract_y
_atom_site_fract_z
Si Si1 0.452549 0.839439 0.023113
Si Si2 0.039631 0.331913 0.573591
Si Si3 0.644364 0.332090 0.307585
Si Si4 0.380256 0.329203 0.482727
Si Si5 0.568497 0.670042 0.158499
Si Si6 0.699304 0.835197 0.579291
Si Si7 0.223227 0.335753 0.361788
Si Si8 0.989202 0.671099 0.221742
O O1 0.454002 0.788191 0.134987
O O2 0.432141 0.000000 0.009867
O O3 0.500000 0.846242 0.000000
O O4 0.427678 0.728438 0.950181
O O5 0.054046 0.500000 0.572060
O O6 0.075743 0.228675 0.543577
O O7 0.028684 0.283123 0.679200
O O8 0.000000 0.305013 0.500000
O O9 0.658014 0.500000 0.309143
O O10 0.623530 0.292804 0.405375
O O11 0.611924 0.295027 0.217944
O O12 0.685475 0.237192 0.296051
O O13 0.376868 0.500000 0.461660
O O14 0.344009 0.249494 0.415884
O O15 0.558779 0.500000 0.153578
O O16 0.532076 0.745391 0.211684
O O17 0.734531 0.754310 0.648900
O O18 0.712610 0.833865 0.471590
O O19 0.694261 0.000000 0.616278
O O20 0.229564 0.500000 0.325696
O O21 0.999691 0.500000 0.218799
#
# Coordination Sequence:
#
# PCOD8079981 Si02
#       8
#     8   8   8   8   8   8   8   8
#     4   8  15  28  43  58  78 105 135 168 210 255
#     4  10  20  32  45  61  82 110 145 180 211 245
#     4   9  18  29  39  57  87 116 138 166 208 252
#     4  10  19  30  43  59  82 112 145 177 207 243
#     4  10  18  27  42  63  84 107 138 174 210 249
#     4   9  16  27  42  58  80 109 139 172 208 244
#     4   9  16  25  40  61  81 106 140 172 203 243
#     4   9  18  31  44  58  80 110 141 174 212 252
#
# _framework density 15.586601999999999
#
# number of rings (size 3 to 8) (size 9 to 14) (size 15 to 20)
#    0.000    2.750    0.000    3.000    0.000    7.500 
#    0.000    0.000    0.000    0.000    0.000    0.000 
#    0.000    1.000    0.000    3.000    0.000    4.625 
#
# Total GULP energy -396747.048790 kJ/mol
# GULP energy per Si atom -12398.345275 kJ/mol
# Density = 1.555113 g / cm^3
# Si number density = 15.586602 Si / 1000 Ang^3
#
#
#
# Elastic Constant Matrix: (Units=GPa)
#
#
# Indices 1 2 3 4 5 6 
#
# 1 84.1342 56.6657 37.2731 0.0000 18.4380 0.0000
# 2 56.6657 98.7091 37.0448 0.0000 15.7369 0.0000
# 3 37.2731 37.0448 84.4007 0.0000 14.9902 0.0000
# 4 0.0000 0.0000 0.0000 18.5795 0.0000 3.8238
# 5 18.4380 15.7369 14.9902 0.0000 17.5085 0.0000
# 6 0.0000 0.0000 0.0000 3.8238 0.0000 31.0130
#
#
#
# Elastic Compliance Matrix: (Units=1/GPa)
#
#
# Indices 1 2 3 4 5 6 
#
# 1 0.022690 -0.009754 -0.003600 0.000000 -0.012045 0.000000
# 2 -0.009754 0.017214 -0.002741 0.000000 -0.002853 0.000000
# 3 -0.003600 -0.002741 0.015957 0.000000 -0.007407 0.000000
# 4 0.000000 0.000000 0.000000 0.055224 0.000000 -0.006809
# 5 -0.012045 -0.002853 -0.007407 0.000000 0.078706 0.000000
# 6 0.000000 0.000000 0.000000 -0.006809 0.000000 0.033084
#
#
# Mechanical properties :
#
#
# Convention : Reuss Voigt Hill
#
# Bulk Modulus (GPa) = 42.24682 58.80124 50.52403
# Shear Modulus (GPa) = 19.01472 22.50424 20.75948
#
# Velocity S-wave (km/s) = 3.49655 3.80388 3.65345
# Velocity P-wave (km/s) = 6.59277 7.55646 7.09101
#
# Compressibility (1/GPa) = 0.02367042
#
# Stress axis : x y z
#
# Youngs Moduli (GPa) = 44.07267 58.09246 62.67008
#
# Poissons Ratio (x) = 0.56665 0.22559
# Poissons Ratio (y) = 0.42989 0.17178
# Poissons Ratio (z) = 0.15865 0.15923
#
# Static dielectric constant tensor:
#      x y z
#    x 2.835240 0.000000 0.209660 
#    y 0.000000 3.089930 0.000000 
#    z 0.209660 0.000000 3.029870 
# 
# 
# High freq. dielectric constant tensor:
#      x y z
#    x 1.580020 0.000000 0.024210 
#    y 0.000000 1.609350 0.000000 
#    z 0.024210 0.000000 1.565470 
# 
# From -- ./inp_files/248375.got.cif
#   From: 2010.06.25/outbox.cif.g09.slc.cpg/sg12_125_cif.got.tgz:248375.got - 2010.06.28 00:19:55.
