data_PCOD8079030
_publ_section_title
;
Structure prediction by ZEFSAII (Michael W. Deem and Ramdas Pophale) SiO2 
 PCOD8079030
Probable space group: C 2/M
;
_chemical_formula_sum "Si O2"
_cell_formula_units_Z 56
_cell_length_a 18.277776
_cell_length_b 13.237994
_cell_length_c 17.433862
_cell_angle_alpha 90.000000
_cell_angle_beta 52.698934
_cell_angle_gamma 90.000000
_cell_volume 3355.511139
_symmetry_space_group_name_H-M "C 2/M"
_symmetry_group_IT_number 12
_symmetry_cell_setting 'monoclinic'
loop_
_space_group_symop_operation_xyz
x,y,z
-x,y,-z
-x,-y,-z
x,-y,z
1/2+x,1/2+y,z
1/2-x,1/2+y,-z
1/2-x,1/2-y,-z
1/2+x,1/2-y,z
loop_
_atom_site_type_symbol
_atom_site_label
_atom_site_fract_x
_atom_site_fract_y
_atom_site_fract_z
Si Si1 0.721134 0.885112 0.820237
Si Si2 0.561423 0.882731 0.809396
Si Si3 0.841768 0.702618 0.729052
Si Si4 0.739132 0.384469 0.927615
Si Si5 0.393598 0.888612 0.545679
Si Si6 0.532607 0.881786 0.655020
Si Si7 0.370110 0.192466 0.971558
O O1 0.655089 0.852445 0.792240
O O2 0.813612 0.818905 0.759529
O O3 0.666803 0.871103 0.933632
O O4 0.753366 0.000000 0.791725
O O5 0.575613 0.859351 0.710500
O O6 0.537140 0.000000 0.838834
O O7 0.479813 0.815717 0.896855
O O8 0.767944 0.632471 0.820712
O O9 0.837743 0.681470 0.640219
O O10 0.942268 0.685773 0.700422
O O11 0.708156 0.500000 0.959974
O O12 0.655310 0.311108 0.004891
O O13 0.828142 0.356745 0.921657
O O14 0.500000 0.890263 0.500000
O O15 0.390623 0.852393 0.458353
O O16 0.350595 0.000000 0.580684
O O17 0.504815 0.000000 0.663051
#
# Coordination Sequence:
#
# PCOD8079030 Si02
#       7
#     8   8   8   8   8   8   8
#     4  10  21  32  44  66  93 124 157 188 223 266
#     4  10  18  31  49  67  92 120 153 193 227 265
#     4  10  17  28  47  69  93 119 146 187 231 271
#     4  10  18  28  45  71  96 117 147 187 230 269
#     4   8  14  25  45  72  94 111 140 186 235 275
#     4   9  16  28  50  75  92 111 145 190 236 273
#     4  10  19  29  46  68  91 122 154 187 222 266
#
# _framework density 16.688963000000001
#
# number of rings (size 3 to 8) (size 9 to 14) (size 15 to 20)
#    0.000    2.429    1.429    3.857    0.000    1.143 
#    0.000    0.714    0.000   12.429    0.000    0.000 
#    0.000    0.000    0.000    0.000    0.000    0.000 
#
# Total GULP energy -347113.378686 kJ/mol
# GULP energy per Si atom -12396.906382 kJ/mol
# Density = 1.665098 g / cm^3
# Si number density = 16.688963 Si / 1000 Ang^3
#
#
#
# Elastic Constant Matrix: (Units=GPa)
#
#
# Indices 1 2 3 4 5 6 
#
# 1 56.3989 31.8853 28.0763 0.0000 10.3238 0.0000
# 2 31.8853 92.1851 36.9446 0.0000 2.7561 0.0000
# 3 28.0763 36.9446 107.6829 0.0000 23.5162 0.0000
# 4 0.0000 0.0000 0.0000 20.3266 0.0000 -0.4235
# 5 10.3238 2.7561 23.5162 0.0000 12.4547 0.0000
# 6 0.0000 0.0000 0.0000 -0.4235 0.0000 18.9971
#
#
#
# Elastic Compliance Matrix: (Units=1/GPa)
#
#
# Indices 1 2 3 4 5 6 
#
# 1 0.026165 -0.008748 0.000839 0.000000 -0.021336 0.000000
# 2 -0.008748 0.016143 -0.006910 0.000000 0.016727 0.000000
# 3 0.000839 -0.006910 0.019155 0.000000 -0.035333 0.000000
# 4 0.000000 0.000000 0.000000 0.049219 0.000000 0.001097
# 5 -0.021336 0.016727 -0.035333 0.000000 0.160990 0.000000
# 6 0.000000 0.000000 0.000000 0.001097 0.000000 0.052664
#
#
# Mechanical properties :
#
#
# Convention : Reuss Voigt Hill
#
# Bulk Modulus (GPa) = 31.42368 50.00880 40.71624
# Shear Modulus (GPa) = 13.71429 20.97972 17.34701
#
# Velocity S-wave (km/s) = 2.86974 3.54941 3.22752
# Velocity P-wave (km/s) = 5.46356 6.84310 6.19187
#
# Compressibility (1/GPa) = 0.03182313
#
# Stress axis : x y z
#
# Youngs Moduli (GPa) = 38.21951 61.94639 52.20593
#
# Poissons Ratio (x) = 0.54192 -0.04380
# Poissons Ratio (y) = 0.33435 0.36077
# Poissons Ratio (z) = -0.03207 0.42808
#
# Static dielectric constant tensor:
#      x y z
#    x 2.952730 0.000000 0.375360 
#    y 0.000000 2.987220 0.000000 
#    z 0.375360 0.000000 3.382990 
# 
# 
# High freq. dielectric constant tensor:
#      x y z
#    x 1.613390 0.000000 0.029300 
#    y 0.000000 1.622310 0.000000 
#    z 0.029300 0.000000 1.651200 
# 
# From -- ./inp_files/223110.got.cif
#   From: 2010.06.25/outbox.cif.g09.slc.cpg/sg12_112_cif.got.tgz:223110.got - 2010.06.28 00:19:55.
