data_PCOD8079428
_publ_section_title
;
Structure prediction by ZEFSAII (Michael W. Deem and Ramdas Pophale) SiO2 
 PCOD8079428
Probable space group: C 2/M
;
_chemical_formula_sum "Si O2"
_cell_formula_units_Z 40
_cell_length_a 11.337659
_cell_length_b 18.175338
_cell_length_c 9.595083
_cell_angle_alpha 90.000000
_cell_angle_beta 94.289859
_cell_angle_gamma 90.000000
_cell_volume 1971.678908
_symmetry_space_group_name_H-M "C 2/M"
_symmetry_group_IT_number 12
_symmetry_cell_setting 'monoclinic'
loop_
_space_group_symop_operation_xyz
x,y,z
-x,y,-z
-x,-y,-z
x,-y,z
1/2+x,1/2+y,z
1/2-x,1/2+y,-z
1/2-x,1/2-y,-z
1/2+x,1/2-y,z
loop_
_atom_site_type_symbol
_atom_site_label
_atom_site_fract_x
_atom_site_fract_y
_atom_site_fract_z
Si Si1 0.236116 0.335292 0.790335
Si Si2 0.371196 0.413111 0.038210
Si Si3 0.744574 0.673262 0.740061
Si Si4 0.018446 0.335964 0.350123
Si Si5 0.111891 0.178660 0.448902
O O1 0.271042 0.383994 0.925228
O O2 0.260896 0.249419 0.826494
O O3 0.313592 0.362977 0.663707
O O4 0.097574 0.347789 0.752242
O O5 0.364680 0.500000 0.046354
O O6 0.500000 0.386028 0.000000
O O7 0.345563 0.380462 0.188966
O O8 0.869940 0.631044 0.726368
O O9 0.698105 0.699018 0.584253
O O10 0.050275 0.250267 0.375644
O O11 0.000000 0.374252 0.500000
O O12 0.000000 0.130886 0.500000
#
# Coordination Sequence:
#
# PCOD8079428 Si02
#       5
#     8   8   8   8   8
#     4  11  20  37  63  93 124 157 201 253 307 358
#     4  11  27  46  59  81 126 170 210 251 295 357
#     4  11  20  36  63  94 123 160 199 251 304 362
#     4  10  17  32  59  99 125 144 188 256 318 350
#     4  10  17  30  59  94 126 150 191 256 309 350
#
# _framework density 20.287278000000001
#
# number of rings (size 3 to 8) (size 9 to 14) (size 15 to 20)
#    0.000    1.400    6.000    3.000    2.800    0.800 
#    0.000    3.000    0.000    4.800    0.000    0.000 
#    0.000    0.000    0.000    0.000    0.000    0.000 
#
# Total GULP energy -247897.296227 kJ/mol
# GULP energy per Si atom -12394.864811 kJ/mol
# Density = 2.024110 g / cm^3
# Si number density = 20.287278 Si / 1000 Ang^3
#
#
#
# Elastic Constant Matrix: (Units=GPa)
#
#
# Indices 1 2 3 4 5 6 
#
# 1 158.9812 21.8463 33.9253 0.0000 -8.9503 0.0000
# 2 21.8463 44.8906 24.4677 0.0000 -6.2405 0.0000
# 3 33.9253 24.4677 82.5337 0.0000 0.0711 0.0000
# 4 0.0000 0.0000 0.0000 5.2013 0.0000 -4.1234
# 5 -8.9503 -6.2405 0.0711 0.0000 44.9857 0.0000
# 6 0.0000 0.0000 0.0000 -4.1234 0.0000 18.7094
#
#
#
# Elastic Compliance Matrix: (Units=1/GPa)
#
#
# Indices 1 2 3 4 5 6 
#
# 1 0.007132 -0.002044 -0.002326 0.000000 0.001139 0.000000
# 2 -0.002044 0.027786 -0.007400 0.000000 0.003459 0.000000
# 3 -0.002326 -0.007400 0.015268 0.000000 -0.001514 0.000000
# 4 0.000000 0.000000 0.000000 0.232962 0.000000 0.051342
# 5 0.001139 0.003459 -0.001514 0.000000 0.022938 0.000000
# 6 0.000000 0.000000 0.000000 0.051342 0.000000 0.064764
#
#
# Mechanical properties :
#
#
# Convention : Reuss Voigt Hill
#
# Bulk Modulus (GPa) = 37.53253 49.65379 43.59316
# Shear Modulus (GPa) = 12.39859 27.52369 19.96114
#
# Velocity S-wave (km/s) = 2.47483 3.68733 3.14016
# Velocity P-wave (km/s) = 5.16789 6.53124 5.88915
#
# Compressibility (1/GPa) = 0.02664355
#
# Stress axis : x y z
#
# Youngs Moduli (GPa) = 140.22284 35.98998 65.49844
#
# Poissons Ratio (x) = 0.07357 0.15237
# Poissons Ratio (y) = 0.28666 0.48468
# Poissons Ratio (z) = 0.32620 0.26632
#
# Static dielectric constant tensor:
#      x y z
#    x 4.566940 0.000000 -0.397570 
#    y 0.000000 2.970490 0.000000 
#    z -0.397570 0.000000 3.670600 
# 
# 
# High freq. dielectric constant tensor:
#      x y z
#    x 1.827650 0.000000 -0.010310 
#    y 0.000000 1.710960 0.000000 
#    z -0.010310 0.000000 1.793430 
# 
# From -- ./inp_files/47081.got.cif
#   From: 2010.06.25/outbox.cif.g09.slc.cpg/sg12_24_cif.got.tgz:47081.got - 2010.06.28 00:19:55.
