data_PCOD8079677
_publ_section_title
;
Structure prediction by ZEFSAII (Michael W. Deem and Ramdas Pophale) SiO2 
 PCOD8079677
Probable space group: C 2/M
;
_chemical_formula_sum "Si O2"
_cell_formula_units_Z 64
_cell_length_a 15.564796
_cell_length_b 17.365554
_cell_length_c 14.837039
_cell_angle_alpha 90.000000
_cell_angle_beta 130.205519
_cell_angle_gamma 90.000000
_cell_volume 3062.819156
_symmetry_space_group_name_H-M "C 2/M"
_symmetry_group_IT_number 12
_symmetry_cell_setting 'monoclinic'
loop_
_space_group_symop_operation_xyz
x,y,z
-x,y,-z
-x,-y,-z
x,-y,z
1/2+x,1/2+y,z
1/2-x,1/2+y,-z
1/2-x,1/2-y,-z
1/2+x,1/2-y,z
loop_
_atom_site_type_symbol
_atom_site_label
_atom_site_fract_x
_atom_site_fract_y
_atom_site_fract_z
Si Si1 0.007357 0.191215 0.268290
Si Si2 0.304703 0.089283 0.834984
Si Si3 0.775301 0.161796 0.040079
Si Si4 0.370862 0.169059 0.395032
Si Si5 0.758885 0.840309 0.522950
Si Si6 0.416632 0.854936 0.737964
Si Si7 0.640702 0.912161 0.798066
Si Si8 0.600047 0.668381 0.625633
O O1 0.110282 0.135943 0.371069
O O2 0.056624 0.263858 0.247581
O O3 0.909938 0.148403 0.144596
O O4 0.945718 0.216064 0.318522
O O5 0.300523 0.138040 0.924453
O O6 0.401303 0.120263 0.832214
O O7 0.183986 0.099514 0.705033
O O8 0.326075 0.000000 0.871219
O O9 0.750000 0.250000 0.000000
O O10 0.740425 0.108040 0.934266
O O11 0.500000 0.151653 0.500000
O O12 0.303223 0.129007 0.429657
O O13 0.335233 0.137457 0.274286
O O14 0.341026 0.260591 0.386683
O O15 0.750000 0.750000 0.500000
O O16 0.697308 0.878665 0.394411
O O17 0.521037 0.898547 0.764411
O O18 0.649760 0.000000 0.775255
O O19 0.500000 0.630865 0.500000
#
# Coordination Sequence:
#
# PCOD8079677 Si02
#       8
#     8   8   8   8   8   8   8   8
#     4  10  19  35  61  90 120 158 212 265 310 353
#     4  11  24  38  58  92 131 167 202 254 322 385
#     4  11  23  44  64  85 120 166 224 264 304 373
#     4  11  19  38  62  92 125 159 213 266 309 370
#     4  10  19  33  61  96 125 155 205 265 316 358
#     4  11  19  39  59  96 133 161 203 256 320 381
#     4  12  24  40  63  90 126 170 207 258 321 379
#     4  10  17  33  59  87 120 164 216 256 299 366
#
# _framework density 20.895782000000001
#
# number of rings (size 3 to 8) (size 9 to 14) (size 15 to 20)
#    0.000    1.250    3.750    6.000    0.000    1.000 
#    0.000    3.125    0.000    6.750    0.000    0.000 
#    0.000    0.000    0.000    0.000    0.000    0.000 
#
# Total GULP energy -396569.231480 kJ/mol
# GULP energy per Si atom -12392.788484 kJ/mol
# Density = 2.084822 g / cm^3
# Si number density = 20.895782 Si / 1000 Ang^3
#
#
#
# Elastic Constant Matrix: (Units=GPa)
#
#
# Indices 1 2 3 4 5 6 
#
# 1 106.5720 23.6037 32.7943 0.0000 -16.8317 0.0000
# 2 23.6037 54.1597 11.5645 0.0000 -2.6586 0.0000
# 3 32.7943 11.5645 123.7460 0.0000 3.9867 0.0000
# 4 0.0000 0.0000 0.0000 18.2726 0.0000 0.2591
# 5 -16.8317 -2.6586 3.9867 0.0000 42.4365 0.0000
# 6 0.0000 0.0000 0.0000 0.2591 0.0000 18.3942
#
#
#
# Elastic Compliance Matrix: (Units=1/GPa)
#
#
# Indices 1 2 3 4 5 6 
#
# 1 0.012004 -0.004373 -0.002926 0.000000 0.004762 0.000000
# 2 -0.004373 0.020510 -0.000746 0.000000 -0.000380 0.000000
# 3 -0.002926 -0.000746 0.008992 0.000000 -0.002052 0.000000
# 4 0.000000 0.000000 0.000000 0.054738 0.000000 -0.000771
# 5 0.004762 -0.000380 -0.002052 0.000000 0.025623 0.000000
# 6 0.000000 0.000000 0.000000 -0.000771 0.000000 0.054376
#
#
# Mechanical properties :
#
#
# Convention : Reuss Voigt Hill
#
# Bulk Modulus (GPa) = 39.34301 46.71140 43.02720
# Shear Modulus (GPa) = 24.89973 30.25500 27.57737
#
# Velocity S-wave (km/s) = 3.45572 3.80926 3.63679
# Velocity P-wave (km/s) = 5.89846 6.46144 6.18636
#
# Compressibility (1/GPa) = 0.02541748
#
# Stress axis : x y z
#
# Youngs Moduli (GPa) = 83.30237 48.75573 111.20621
#
# Poissons Ratio (x) = 0.21322 0.32540
# Poissons Ratio (y) = 0.36430 0.08292
# Poissons Ratio (z) = 0.24375 0.03635
#
# Static dielectric constant tensor:
#      x y z
#    x 3.959310 0.000000 0.101630 
#    y 0.000000 3.307860 0.000000 
#    z 0.101630 0.000000 4.324400 
# 
# 
# High freq. dielectric constant tensor:
#      x y z
#    x 1.824010 0.000000 -0.005910 
#    y 0.000000 1.767600 0.000000 
#    z -0.005910 0.000000 1.833280 
# 
# From -- ./inp_files/216828.got.cif
#   From: 2010.06.25/outbox.cif.g09.slc.cpg/sg12_109_cif.got.tgz:216828.got - 2010.06.28 00:19:55.
