data_PCOD8079716
_publ_section_title
;
Structure prediction by ZEFSAII (Michael W. Deem and Ramdas Pophale) SiO2 
 PCOD8079716
Probable space group: C 2/M
;
_chemical_formula_sum "Si O2"
_cell_formula_units_Z 56
_cell_length_a 24.598820
_cell_length_b 15.220532
_cell_length_c 9.744316
_cell_angle_alpha 90.000000
_cell_angle_beta 131.104536
_cell_angle_gamma 90.000000
_cell_volume 2749.066610
_symmetry_space_group_name_H-M "C 2/M"
_symmetry_group_IT_number 12
_symmetry_cell_setting 'monoclinic'
loop_
_space_group_symop_operation_xyz
x,y,z
-x,y,-z
-x,-y,-z
x,-y,z
1/2+x,1/2+y,z
1/2-x,1/2+y,-z
1/2-x,1/2-y,-z
1/2+x,1/2-y,z
loop_
_atom_site_type_symbol
_atom_site_label
_atom_site_fract_x
_atom_site_fract_y
_atom_site_fract_z
Si Si1 0.841127 0.404061 0.026111
Si Si2 0.951354 0.739092 0.717544
Si Si3 0.542269 0.595532 0.438583
Si Si4 0.806930 0.101165 0.870629
Si Si5 0.845113 0.674895 0.316292
Si Si6 0.107843 0.263989 0.086184
Si Si7 0.817551 0.130031 0.193494
O O1 0.875321 0.500000 0.048828
O O2 0.875399 0.368338 0.225897
O O3 0.842936 0.339324 0.898394
O O4 0.757202 0.419046 0.913838
O O5 0.958913 0.841987 0.694432
O O6 0.913743 0.684313 0.532178
O O7 0.902874 0.721918 0.770249
O O8 0.033863 0.714792 0.881858
O O9 0.500000 0.636868 0.500000
O O10 0.509479 0.500000 0.345162
O O11 0.625197 0.582256 0.616192
O O12 0.720591 0.120835 0.723168
O O13 0.854472 0.168251 0.858214
O O14 0.818507 0.000000 0.841207
O O15 0.841650 0.117331 0.076757
O O16 0.810726 0.767733 0.219024
#
# Coordination Sequence:
#
# PCOD8079716 Si02
#       7
#     8   8   8   8   8   8   8
#     4  11  21  38  65  90 116 153 201 257 303 349
#     4  10  25  39  62  81 127 165 196 254 302 358
#     4  10  20  34  57  92 124 157 201 243 297 364
#     4  11  20  35  63  92 125 161 195 246 305 362
#     4  10  19  38  61  92 117 153 202 254 293 353
#     4  11  23  44  57  89 121 165 206 239 308 373
#     4  10  17  34  59  90 122 150 197 254 291 352
#
# _framework density 20.370552
#
# number of rings (size 3 to 8) (size 9 to 14) (size 15 to 20)
#    0.000    1.571    2.857    4.286    2.000    2.857 
#    0.000    6.429    0.000    0.000    0.000    0.000 
#    0.000    0.000    0.000    0.000    0.000    0.000 
#
# Total GULP energy -346971.258083 kJ/mol
# GULP energy per Si atom -12391.830646 kJ/mol
# Density = 2.032419 g / cm^3
# Si number density = 20.370552 Si / 1000 Ang^3
#
#
#
# Elastic Constant Matrix: (Units=GPa)
#
#
# Indices 1 2 3 4 5 6 
#
# 1 65.3383 26.5898 16.3823 0.0000 -15.7611 0.0000
# 2 26.5898 129.0198 25.1885 0.0000 -11.7430 0.0000
# 3 16.3823 25.1885 71.4441 0.0000 -9.7180 0.0000
# 4 0.0000 0.0000 0.0000 6.7931 0.0000 0.6204
# 5 -15.7611 -11.7430 -9.7180 0.0000 22.5464 0.0000
# 6 0.0000 0.0000 0.0000 0.6204 0.0000 16.2254
#
#
#
# Elastic Compliance Matrix: (Units=1/GPa)
#
#
# Indices 1 2 3 4 5 6 
#
# 1 0.019648 -0.002608 -0.002021 0.000000 0.011506 0.000000
# 2 -0.002608 0.008902 -0.002292 0.000000 0.001826 0.000000
# 3 -0.002021 -0.002292 0.015843 0.000000 0.004222 0.000000
# 4 0.000000 0.000000 0.000000 0.147725 0.000000 -0.005649
# 5 0.011506 0.001826 0.004222 0.000000 0.055167 0.000000
# 6 0.000000 0.000000 0.000000 -0.005649 0.000000 0.061848
#
#
# Mechanical properties :
#
#
# Convention : Reuss Voigt Hill
#
# Bulk Modulus (GPa) = 32.73172 44.68037 38.70605
# Shear Modulus (GPa) = 15.00790 22.28909 18.64849
#
# Velocity S-wave (km/s) = 2.71725 3.31143 3.02894
# Velocity P-wave (km/s) = 5.09388 6.04997 5.59240
#
# Compressibility (1/GPa) = 0.03055140
#
# Stress axis : x y z
#
# Youngs Moduli (GPa) = 50.89495 112.33677 63.12018
#
# Poissons Ratio (x) = 0.29292 0.12757
# Poissons Ratio (y) = 0.13271 0.14468
# Poissons Ratio (z) = 0.10286 0.25750
#
# Static dielectric constant tensor:
#      x y z
#    x 3.569090 0.000000 0.063010 
#    y 0.000000 3.848340 0.000000 
#    z 0.063010 0.000000 3.554970 
# 
# 
# High freq. dielectric constant tensor:
#      x y z
#    x 1.787430 0.000000 0.011690 
#    y 0.000000 1.795820 0.000000 
#    z 0.011690 0.000000 1.780660 
# 
# From -- ./inp_files/96786.got.cif
#   From: 2010.06.25/outbox.cif.g09.slc.cpg/sg12_49_cif.got.tgz:96786.got - 2010.06.28 00:19:55.
