data_PCOD8079264
_publ_section_title
;
Structure prediction by ZEFSAII (Michael W. Deem and Ramdas Pophale) SiO2 
 PCOD8079264
Probable space group: C 2/M
;
_chemical_formula_sum "Si O2"
_cell_formula_units_Z 48
_cell_length_a 17.042543
_cell_length_b 17.859517
_cell_length_c 15.904587
_cell_angle_alpha 90.000000
_cell_angle_beta 144.930524
_cell_angle_gamma 90.000000
_cell_volume 2781.435068
_symmetry_space_group_name_H-M "C 2/M"
_symmetry_group_IT_number 12
_symmetry_cell_setting 'monoclinic'
loop_
_space_group_symop_operation_xyz
x,y,z
-x,y,-z
-x,-y,-z
x,-y,z
1/2+x,1/2+y,z
1/2-x,1/2+y,-z
1/2-x,1/2-y,-z
1/2+x,1/2-y,z
loop_
_atom_site_type_symbol
_atom_site_label
_atom_site_fract_x
_atom_site_fract_y
_atom_site_fract_z
Si Si1 0.451136 0.201845 0.655725
Si Si2 0.540447 0.667849 0.198826
Si Si3 0.643602 0.230724 0.151787
Si Si4 0.749073 0.699972 0.080643
Si Si5 0.787511 0.085803 0.528649
Si Si6 0.116930 0.823617 0.535765
O O1 0.445833 0.261370 0.726414
O O2 0.601014 0.162737 0.779415
O O3 0.347327 0.135724 0.583647
O O4 0.411356 0.243809 0.534226
O O5 0.606713 0.692297 0.168610
O O6 0.619889 0.597187 0.306798
O O7 0.381202 0.644422 0.043236
O O8 0.730661 0.247938 0.145614
O O9 0.735836 0.177009 0.289715
O O10 0.500000 0.190544 0.000000
O O11 0.750000 0.750000 0.000000
O O12 0.877772 0.109521 0.527267
O O13 0.743765 0.000000 0.483447
O O14 0.000000 0.842285 0.500000
#
# Coordination Sequence:
#
# PCOD8079264 Si02
#       6
#     8   8   8   8   8   8
#     4  10  17  32  54  78 103 131 179 225 262 304
#     4   9  17  33  52  77 103 134 177 219 260 311
#     4  10  17  29  53  82 105 129 164 224 272 309
#     4   9  18  28  51  84 103 125 167 230 278 301
#     4  11  22  35  52  75 112 151 175 208 261 320
#     4  11  19  33  56  81 105 133 178 230 262 306
#
# _framework density 17.257279
#
# number of rings (size 3 to 8) (size 9 to 14) (size 15 to 20)
#    0.000    2.000    5.000    1.000    0.000    0.333 
#    0.000    0.833    0.000    9.500    0.000    0.000 
#    0.000    0.000    0.000    0.000    0.000    0.000 
#
# Total GULP energy -297420.276744 kJ/mol
# GULP energy per Si atom -12392.511531 kJ/mol
# Density = 1.721800 g / cm^3
# Si number density = 17.257279 Si / 1000 Ang^3
#
#
#
# Elastic Constant Matrix: (Units=GPa)
#
#
# Indices 1 2 3 4 5 6 
#
# 1 86.8026 15.3231 20.4054 -0.0001 3.0522 0.0000
# 2 15.3231 66.3862 22.7521 0.0000 8.1714 0.0000
# 3 20.4054 22.7521 116.0166 -0.0002 13.2915 0.0000
# 4 -0.0001 0.0000 -0.0002 11.8142 -0.0002 0.0064
# 5 3.0522 8.1714 13.2915 -0.0002 35.7766 -0.0001
# 6 0.0000 0.0000 0.0000 0.0064 -0.0001 10.1044
#
#
#
# Elastic Compliance Matrix: (Units=1/GPa)
#
#
# Indices 1 2 3 4 5 6 
#
# 1 0.012324 -0.002263 -0.001736 0.000000 0.000111 0.000000
# 2 -0.002263 0.016804 -0.002590 0.000000 -0.002683 0.000000
# 3 -0.001736 -0.002590 0.009764 0.000000 -0.002888 0.000000
# 4 0.000000 0.000000 0.000000 0.084644 0.000000 -0.000054
# 5 0.000111 -0.002683 -0.002888 0.000000 0.029627 0.000000
# 6 0.000000 0.000000 0.000000 -0.000054 0.000000 0.098967
#
#
# Mechanical properties :
#
#
# Convention : Reuss Voigt Hill
#
# Bulk Modulus (GPa) = 38.89193 42.90738 40.89965
# Shear Modulus (GPa) = 18.25619 25.58736 21.92178
#
# Velocity S-wave (km/s) = 3.25604 3.85476 3.56798
# Velocity P-wave (km/s) = 6.05980 6.68802 6.38164
#
# Compressibility (1/GPa) = 0.02571228
#
# Stress axis : x y z
#
# Youngs Moduli (GPa) = 81.14106 59.51111 102.42102
#
# Poissons Ratio (x) = 0.13468 0.17785
# Poissons Ratio (y) = 0.18363 0.26527
# Poissons Ratio (z) = 0.14090 0.15413
#
# Static dielectric constant tensor:
#      x y z
#    x 3.516750 0.000000 0.106620 
#    y 0.000000 2.550050 0.000000 
#    z 0.106620 0.000000 3.856480 
# 
# 
# High freq. dielectric constant tensor:
#      x y z
#    x 1.687530 0.000000 0.001040 
#    y 0.000000 1.579910 0.000000 
#    z 0.001040 0.000000 1.696660 
# 
# From -- ./inp_files/216472.got.cif
#   From: 2010.06.25/outbox.cif.g09.slc.cpg/sg12_109_cif.got.tgz:216472.got - 2010.06.28 00:19:55.
