data_PCOD8079623
_publ_section_title
;
Structure prediction by ZEFSAII (Michael W. Deem and Ramdas Pophale) SiO2 
 PCOD8079623
Probable space group: C 2/M
;
_chemical_formula_sum "Si O2"
_cell_formula_units_Z 48
_cell_length_a 17.121879
_cell_length_b 17.814596
_cell_length_c 21.772130
_cell_angle_alpha 90.000000
_cell_angle_beta 25.183607
_cell_angle_gamma 90.000000
_cell_volume 2825.847351
_symmetry_space_group_name_H-M "C 2/M"
_symmetry_group_IT_number 12
_symmetry_cell_setting 'monoclinic'
loop_
_space_group_symop_operation_xyz
x,y,z
-x,y,-z
-x,-y,-z
x,-y,z
1/2+x,1/2+y,z
1/2-x,1/2+y,-z
1/2-x,1/2-y,-z
1/2+x,1/2-y,z
loop_
_atom_site_type_symbol
_atom_site_label
_atom_site_fract_x
_atom_site_fract_y
_atom_site_fract_z
Si Si1 0.139815 0.689630 0.653026
Si Si2 0.448522 0.917544 0.185030
Si Si3 0.944141 0.788696 0.881096
Si Si4 0.023810 0.794080 0.324919
Si Si5 0.119365 0.703747 0.858779
Si Si6 0.867640 0.915282 0.854698
O O1 0.056781 0.612887 0.740897
O O2 0.352513 0.677271 0.486651
O O3 0.113485 0.754438 0.722322
O O4 0.027266 0.716592 0.673341
O O5 0.334478 0.863135 0.221571
O O6 0.359889 0.000000 0.247328
O O7 0.650580 0.919511 0.013562
O O8 0.938230 0.877023 0.868358
O O9 0.998290 0.771115 0.913259
O O10 0.750000 0.750000 0.000000
O O11 0.185152 0.768753 0.255608
O O12 0.079326 0.862537 0.240376
O O13 0.000000 0.672263 0.000000
O O14 0.949142 0.000000 0.789990
#
# Coordination Sequence:
#
# PCOD8079623 Si02
#       6
#     8   8   8   8   8   8
#     4   9  19  35  52  71 102 133 169 206 242 304
#     4  10  20  32  49  72 102 138 164 196 249 305
#     4  10  17  33  52  72  99 135 172 200 244 297
#     4  10  20  33  52  79  99 127 169 211 254 284
#     4  11  19  30  52  76 100 127 166 214 246 290
#     4  10  19  33  52  73 102 137 167 197 245 308
#
# _framework density 16.986056000000001
#
# number of rings (size 3 to 8) (size 9 to 14) (size 15 to 20)
#    0.000    2.000    5.000    1.000    0.000    4.333 
#    0.000    0.833    0.000    1.500    0.000   10.500 
#    0.000    0.000    0.000    0.000    0.000    0.000 
#
# Total GULP energy -297331.198268 kJ/mol
# GULP energy per Si atom -12388.799928 kJ/mol
# Density = 1.694739 g / cm^3
# Si number density = 16.986056 Si / 1000 Ang^3
#
#
#
# Elastic Constant Matrix: (Units=GPa)
#
#
# Indices 1 2 3 4 5 6 
#
# 1 99.4663 53.9168 38.5062 -0.0225 -12.0765 0.0014
# 2 53.9168 68.3686 25.0129 -0.0046 -7.1914 0.0087
# 3 38.5062 25.0129 97.3488 -0.0431 0.8014 -0.0001
# 4 -0.0225 -0.0046 -0.0431 12.0071 0.0007 2.7467
# 5 -12.0765 -7.1914 0.8014 0.0007 28.0199 -0.0013
# 6 0.0014 0.0087 -0.0001 2.7467 -0.0013 16.1925
#
#
#
# Elastic Compliance Matrix: (Units=1/GPa)
#
#
# Indices 1 2 3 4 5 6 
#
# 1 0.019581 -0.013301 -0.004370 0.000015 0.005150 0.000003
# 2 -0.013301 0.025706 -0.001351 -0.000018 0.000903 -0.000010
# 3 -0.004370 -0.001351 0.012369 0.000037 -0.002584 -0.000005
# 4 0.000015 -0.000018 0.000037 0.086646 -0.000002 -0.014697
# 5 0.005150 0.000903 -0.002584 -0.000002 0.038214 0.000003
# 6 0.000003 -0.000010 -0.000005 -0.014697 0.000003 0.064250
#
#
# Mechanical properties :
#
#
# Convention : Reuss Voigt Hill
#
# Bulk Modulus (GPa) = 50.99106 55.56174 53.27640
# Shear Modulus (GPa) = 17.16161 21.09375 19.12768
#
# Velocity S-wave (km/s) = 3.18203 3.52778 3.35935
# Velocity P-wave (km/s) = 6.60189 7.02672 6.81762
#
# Compressibility (1/GPa) = 0.01961128
#
# Stress axis : x y z
#
# Youngs Moduli (GPa) = 51.07033 38.90215 80.84562
#
# Poissons Ratio (x) = 0.51745 0.35329
# Poissons Ratio (y) = 0.67930 0.10922
# Poissons Ratio (z) = 0.22317 0.05255
#
# Static dielectric constant tensor:
#      x y z
#    x 3.339390 0.000010 0.161320 
#    y 0.000010 3.439770 0.000200 
#    z 0.161320 0.000200 3.235300 
# 
# 
# High freq. dielectric constant tensor:
#      x y z
#    x 1.644700 0.000000 0.014190 
#    y 0.000000 1.631540 0.000010 
#    z 0.014190 0.000010 1.657320 
# 
# From -- ./inp_files/311313.got.cif
#   From: 2010.06.25/outbox.cif.g09.slc.cpg/sg12_156_cif.got.tgz:311313.got - 2010.06.28 00:19:55.
