data_PCOD8079208
_publ_section_title
;
Structure prediction by ZEFSAII (Michael W. Deem and Ramdas Pophale) SiO2 
 PCOD8079208
Probable space group: C 2/M
;
_chemical_formula_sum "Si O2"
_cell_formula_units_Z 56
_cell_length_a 12.804889
_cell_length_b 24.307081
_cell_length_c 13.360242
_cell_angle_alpha 90.000000
_cell_angle_beta 135.158523
_cell_angle_gamma 90.000000
_cell_volume 2932.263802
_symmetry_space_group_name_H-M "C 2/M"
_symmetry_group_IT_number 12
_symmetry_cell_setting 'monoclinic'
loop_
_space_group_symop_operation_xyz
x,y,z
-x,y,-z
-x,-y,-z
x,-y,z
1/2+x,1/2+y,z
1/2-x,1/2+y,-z
1/2-x,1/2-y,-z
1/2+x,1/2-y,z
loop_
_atom_site_type_symbol
_atom_site_label
_atom_site_fract_x
_atom_site_fract_y
_atom_site_fract_z
Si Si1 0.452168 0.736538 0.859002
Si Si2 0.050054 0.361732 0.142132
Si Si3 0.945417 0.865458 0.164006
Si Si4 0.388600 0.649246 0.341373
Si Si5 0.662048 0.873726 0.835217
Si Si6 0.882365 0.724948 0.339174
Si Si7 0.860763 0.938490 0.831966
O O1 0.509665 0.798929 0.891690
O O2 0.527164 0.700058 0.824420
O O3 0.278700 0.729336 0.721522
O O4 0.500000 0.711859 0.000000
O O5 0.225636 0.362931 0.272345
O O6 0.975804 0.392907 0.187155
O O7 0.000000 0.386371 0.000000
O O8 0.914126 0.883783 0.256178
O O9 0.090361 0.899021 0.225867
O O10 0.800637 0.875873 0.002023
O O11 0.500000 0.626154 0.500000
O O12 0.424899 0.712697 0.339547
O O13 0.621145 0.814367 0.760320
O O14 0.707507 0.915771 0.777154
O O15 0.000000 0.701498 0.500000
O O16 0.827111 0.000000 0.770064
O O17 0.000000 0.939430 0.000000
#
# Coordination Sequence:
#
# PCOD8079208 Si02
#       7
#     8   8   8   8   8   8   8
#     4  10  17  29  49  77 105 138 184 218 253 310
#     4  10  20  31  49  79 108 142 180 214 255 311
#     4  11  18  32  57  77 105 142 183 220 262 316
#     4  10  22  35  49  77 114 149 181 213 254 313
#     4  11  19  33  55  77 107 140 178 223 265 317
#     4  10  20  32  47  78 115 143 177 219 262 309
#     4   9  19  35  58  86 104 126 174 233 279 309
#
# _framework density 19.097871999999999
#
# number of rings (size 3 to 8) (size 9 to 14) (size 15 to 20)
#    0.000    1.857    4.286    1.286    0.000    2.286 
#    0.000    4.286    0.000    2.143    0.000    0.000 
#    0.000    0.000    0.000    0.000    0.000    0.000 
#
# Total GULP energy -346993.603893 kJ/mol
# GULP energy per Si atom -12392.628710 kJ/mol
# Density = 1.905440 g / cm^3
# Si number density = 19.097872 Si / 1000 Ang^3
#
#
#
# Elastic Constant Matrix: (Units=GPa)
#
#
# Indices 1 2 3 4 5 6 
#
# 1 139.3292 30.6974 37.2795 0.0000 -10.0556 0.0000
# 2 30.6974 43.7445 12.5256 0.0000 -2.9594 0.0000
# 3 37.2795 12.5256 93.4752 0.0000 3.4964 0.0000
# 4 0.0000 0.0000 0.0000 6.5400 0.0000 2.7665
# 5 -10.0556 -2.9594 3.4964 0.0000 23.5607 0.0000
# 6 0.0000 0.0000 0.0000 2.7665 0.0000 12.7936
#
#
#
# Elastic Compliance Matrix: (Units=1/GPa)
#
#
# Indices 1 2 3 4 5 6 
#
# 1 0.009526 -0.005507 -0.003205 0.000000 0.003850 0.000000
# 2 -0.005507 0.027242 -0.001503 0.000000 0.001295 0.000000
# 3 -0.003205 -0.001503 0.012304 0.000000 -0.003383 0.000000
# 4 0.000000 0.000000 0.000000 0.168301 0.000000 -0.036394
# 5 0.003850 0.001295 -0.003383 0.000000 0.044751 0.000000
# 6 0.000000 0.000000 0.000000 -0.036394 0.000000 0.086034
#
#
# Mechanical properties :
#
#
# Convention : Reuss Voigt Hill
#
# Bulk Modulus (GPa) = 34.91233 48.61710 41.76471
# Shear Modulus (GPa) = 13.22281 21.64864 17.43573
#
# Velocity S-wave (km/s) = 2.63415 3.37050 3.02481
# Velocity P-wave (km/s) = 5.25091 6.37645 5.84085
#
# Compressibility (1/GPa) = 0.02864318
#
# Stress axis : x y z
#
# Youngs Moduli (GPa) = 104.97713 36.70801 81.27305
#
# Poissons Ratio (x) = 0.20213 0.26050
# Poissons Ratio (y) = 0.57806 0.12213
# Poissons Ratio (z) = 0.33647 0.05516
#
# Static dielectric constant tensor:
#      x y z
#    x 3.685060 0.000000 -0.033610 
#    y 0.000000 3.250850 0.000000 
#    z -0.033610 0.000000 3.349840 
# 
# 
# High freq. dielectric constant tensor:
#      x y z
#    x 1.753580 0.000000 0.000050 
#    y 0.000000 1.688600 0.000000 
#    z 0.000050 0.000000 1.721930 
# 
# From -- ./inp_files/136925.got.cif
#   From: 2010.06.25/outbox.cif.g09.slc.cpg/sg12_69_cif.got.tgz:136925.got - 2010.06.28 00:19:55.
