data_PCOD8079133
_publ_section_title
;
Structure prediction by ZEFSAII (Michael W. Deem and Ramdas Pophale) SiO2 
 PCOD8079133
Probable space group: C 2/M
;
_chemical_formula_sum "Si O2"
_cell_formula_units_Z 48
_cell_length_a 24.562465
_cell_length_b 8.618165
_cell_length_c 21.984205
_cell_angle_alpha 90.000000
_cell_angle_beta 142.400362
_cell_angle_gamma 90.000000
_cell_volume 2839.403602
_symmetry_space_group_name_H-M "C 2/M"
_symmetry_group_IT_number 12
_symmetry_cell_setting 'monoclinic'
loop_
_space_group_symop_operation_xyz
x,y,z
-x,y,-z
-x,-y,-z
x,-y,z
1/2+x,1/2+y,z
1/2-x,1/2+y,-z
1/2-x,1/2-y,-z
1/2+x,1/2-y,z
loop_
_atom_site_type_symbol
_atom_site_label
_atom_site_fract_x
_atom_site_fract_y
_atom_site_fract_z
Si Si1 0.362440 0.319742 0.658213
Si Si2 0.875770 0.816229 0.222002
Si Si3 0.319346 0.682038 0.482143
Si Si4 0.987678 0.184584 0.556719
Si Si5 0.954076 0.317955 0.168590
Si Si6 0.209559 0.816237 0.026005
O O1 0.381217 0.500000 0.684616
O O2 0.353867 0.275848 0.579821
O O3 0.272414 0.271211 0.613638
O O4 0.444602 0.223647 0.759146
O O5 0.929232 0.766464 0.209361
O O6 0.776830 0.740002 0.138675
O O7 0.930817 0.757109 0.329235
O O8 0.865799 0.000000 0.212375
O O9 0.301274 0.500000 0.460219
O O10 0.393346 0.742527 0.500169
O O11 0.000000 0.253246 0.500000
O O12 0.987374 0.000000 0.555755
O O13 0.941047 0.500000 0.165129
O O14 0.889897 0.255886 0.057113
O O15 0.203849 0.000000 0.019834
O O16 0.250000 0.750000 0.000000
#
# Coordination Sequence:
#
# PCOD8079133 Si02
#       6
#     8   8   8   8   8   8
#     4  10  18  29  45  67  93 124 153 189 233 278
#     4  10  17  29  45  65  93 123 156 193 230 271
#     4   9  17  30  45  66  92 122 157 192 228 272
#     4   9  17  30  49  70  93 124 161 196 228 264
#     4  11  19  28  44  67  93 123 154 187 232 282
#     4  10  18  28  42  63  91 122 153 187 230 280
#
# _framework density 16.904958000000001
#
# number of rings (size 3 to 8) (size 9 to 14) (size 15 to 20)
#    0.000    2.167    1.667    6.000    0.000    0.667 
#    0.000    0.000    0.000    4.500    0.000    1.167 
#    0.000    9.333    0.000    0.000    0.000    0.000 
#
# Total GULP energy -297538.658804 kJ/mol
# GULP energy per Si atom -12397.444117 kJ/mol
# Density = 1.686648 g / cm^3
# Si number density = 16.904958 Si / 1000 Ang^3
#
#
#
# Elastic Constant Matrix: (Units=GPa)
#
#
# Indices 1 2 3 4 5 6 
#
# 1 81.5709 15.3728 56.7039 0.0000 13.3547 0.0000
# 2 15.3728 68.7074 32.9209 0.0000 12.4627 0.0000
# 3 56.7039 32.9209 135.5476 0.0000 28.0471 0.0000
# 4 0.0000 0.0000 0.0000 26.6017 0.0000 9.6282
# 5 13.3547 12.4627 28.0471 0.0000 27.2708 0.0000
# 6 0.0000 0.0000 0.0000 9.6282 0.0000 16.4851
#
#
#
# Elastic Compliance Matrix: (Units=1/GPa)
#
#
# Indices 1 2 3 4 5 6 
#
# 1 0.017330 -0.000344 -0.006914 0.000000 -0.001219 0.000000
# 2 -0.000344 0.016892 -0.003044 0.000000 -0.004420 0.000000
# 3 -0.006914 -0.003044 0.012730 0.000000 -0.008315 0.000000
# 4 0.000000 0.000000 0.000000 0.047668 0.000000 -0.027841
# 5 -0.001219 -0.004420 -0.008315 0.000000 0.047838 0.000000
# 6 0.000000 0.000000 0.000000 -0.027841 0.000000 0.076922
#
#
# Mechanical properties :
#
#
# Convention : Reuss Voigt Hill
#
# Bulk Modulus (GPa) = 37.95381 55.09123 46.52252
# Shear Modulus (GPa) = 20.09927 26.12674 23.11301
#
# Velocity S-wave (km/s) = 3.45187 3.93556 3.70162
# Velocity P-wave (km/s) = 6.19574 7.30144 6.77120
#
# Compressibility (1/GPa) = 0.02634782
#
# Stress axis : x y z
#
# Youngs Moduli (GPa) = 57.70402 59.20044 78.55646
#
# Poissons Ratio (x) = 0.02034 0.54314
# Poissons Ratio (y) = 0.01982 0.23914
# Poissons Ratio (z) = 0.39897 0.18022
#
# Static dielectric constant tensor:
#      x y z
#    x 2.952000 0.000000 0.340100 
#    y 0.000000 3.072910 0.000000 
#    z 0.340100 0.000000 3.755460 
# 
# 
# High freq. dielectric constant tensor:
#      x y z
#    x 1.599190 0.000000 0.037380 
#    y 0.000000 1.651590 0.000000 
#    z 0.037380 0.000000 1.658140 
# 
# From -- ./inp_files/323863.got.cif
#   From: 2010.06.25/outbox.cif.g09.slc.cpg/sg12_162_cif.got.tgz:323863.got - 2010.06.28 00:19:55.
