data_PCOD8079415
_publ_section_title
;
Structure prediction by ZEFSAII (Michael W. Deem and Ramdas Pophale) SiO2 
 PCOD8079415
Probable space group: C 2/M
;
_chemical_formula_sum "Si O2"
_cell_formula_units_Z 40
_cell_length_a 15.298742
_cell_length_b 13.148722
_cell_length_c 27.928747
_cell_angle_alpha 90.000000
_cell_angle_beta 161.653039
_cell_angle_gamma 90.000000
_cell_volume 1768.417364
_symmetry_space_group_name_H-M "C 2/M"
_symmetry_group_IT_number 12
_symmetry_cell_setting 'monoclinic'
loop_
_space_group_symop_operation_xyz
x,y,z
-x,y,-z
-x,-y,-z
x,-y,z
1/2+x,1/2+y,z
1/2-x,1/2+y,-z
1/2-x,1/2-y,-z
1/2+x,1/2-y,z
loop_
_atom_site_type_symbol
_atom_site_label
_atom_site_fract_x
_atom_site_fract_y
_atom_site_fract_z
Si Si1 0.812457 0.117294 0.144544
Si Si2 0.725031 0.881477 0.993003
Si Si3 0.594381 0.380773 0.100455
Si Si4 0.130565 0.300905 0.347278
Si Si5 0.201859 0.882423 0.664531
O O1 0.814287 0.159167 0.091108
O O2 0.035337 0.183935 0.290034
O O3 0.907591 0.000000 0.198485
O O4 0.500000 0.130043 0.000000
O O5 0.923840 0.830170 0.055960
O O6 0.775194 0.000000 0.018308
O O7 0.402622 0.858097 0.813575
O O8 0.536373 0.500000 0.070382
O O9 0.919660 0.355239 0.274571
O O10 0.500000 0.332796 0.000000
O O11 0.436993 0.307048 0.529924
O O12 0.129453 0.363296 0.296859
O O13 0.103779 0.000000 0.614366
#
# Coordination Sequence:
#
# PCOD8079415 Si02
#       5
#     8   8   8   8   8
#     4  10  23  43  63  83 116 166 219 255 282 341
#     4   9  19  37  63  89 119 159 200 249 303 356
#     4  10  17  30  56  93 124 148 189 248 310 365
#     4  11  20  34  58  92 120 159 194 240 310 361
#     4  10  20  36  60  93 130 157 185 241 319 379
#
# _framework density 22.619095000000002
#
# number of rings (size 3 to 8) (size 9 to 14) (size 15 to 20)
#    0.000    2.000    2.000    3.000    0.000    0.800 
#    0.000    3.000    4.400    0.000    0.000    4.200 
#    0.000    0.000    0.000    0.000    0.000    0.000 
#
# Total GULP energy -247932.364632 kJ/mol
# GULP energy per Si atom -12396.618232 kJ/mol
# Density = 2.256761 g / cm^3
# Si number density = 22.619095 Si / 1000 Ang^3
#
#
#
# Elastic Constant Matrix: (Units=GPa)
#
#
# Indices 1 2 3 4 5 6 
#
# 1 114.1673 5.5755 42.3125 -0.0433 15.9084 -0.1386
# 2 5.5755 103.9721 34.2431 -0.0970 2.3790 -0.1417
# 3 42.3125 34.2431 99.1569 -0.1659 21.2887 -0.7553
# 4 -0.0433 -0.0970 -0.1659 26.1053 -0.0255 -15.2969
# 5 15.9084 2.3790 21.2887 -0.0255 25.2898 0.1931
# 6 -0.1386 -0.1417 -0.7553 -15.2969 0.1931 -31.1017
#
#
#
# Elastic Compliance Matrix: (Units=1/GPa)
#
#
# Indices 1 2 3 4 5 6 
#
# 1 0.010722 0.000872 -0.004163 0.000006 -0.003323 0.000026
# 2 0.000872 0.011066 -0.004701 0.000046 0.002368 0.000052
# 3 -0.004163 -0.004701 0.015654 -0.000133 -0.010114 -0.000338
# 4 0.000006 0.000046 -0.000133 0.029738 0.000245 -0.014622
# 5 -0.003323 0.002368 -0.010114 0.000245 0.049919 0.000439
# 6 0.000026 0.000052 -0.000338 -0.014622 0.000439 -0.024951
#
#
# Mechanical properties :
#
#
# Convention : Reuss Voigt Hill
#
# Bulk Modulus (GPa) = 46.60508 53.50651 50.05579
# Shear Modulus (GPa) = 43.37048 19.73636 31.55342
#
# Velocity S-wave (km/s) = 4.38359 2.95711 3.73901
# Velocity P-wave (km/s) = 6.80222 5.94694 6.38891
#
# Compressibility (1/GPa) = 0.02145689
#
# Stress axis : x y z
#
# Youngs Moduli (GPa) = 93.26234 90.37056 63.88256
#
# Poissons Ratio (x) = -0.07882 0.26595
# Poissons Ratio (y) = -0.08134 0.30034
# Poissons Ratio (z) = 0.38827 0.42487
#
# Static dielectric constant tensor:
#      x y z
#    x 4.428240 0.000120 0.076750 
#    y 0.000120 4.018870 -0.000090 
#    z 0.076750 -0.000090 3.885460 
# 
# 
# High freq. dielectric constant tensor:
#      x y z
#    x 1.883170 0.000000 0.013940 
#    y 0.000000 1.901900 -0.000010 
#    z 0.013940 -0.000010 1.872000 
# 
# From -- ./inp_files/361509.got.cif
#   From: 2010.06.25/outbox.cif.g09.slc.cpg/sg12_181_cif.got.tgz:361509.got - 2010.06.28 00:19:55.
