data_PCOD8079738
_publ_section_title
;
Structure prediction by ZEFSAII (Michael W. Deem and Ramdas Pophale) SiO2 
 PCOD8079738
Probable space group: C 2/M
;
_chemical_formula_sum "Si O2"
_cell_formula_units_Z 64
_cell_length_a 21.235537
_cell_length_b 20.013992
_cell_length_c 11.726775
_cell_angle_alpha 90.000000
_cell_angle_beta 137.133143
_cell_angle_gamma 90.000000
_cell_volume 3390.581014
_symmetry_space_group_name_H-M "C 2/M"
_symmetry_group_IT_number 12
_symmetry_cell_setting 'monoclinic'
loop_
_space_group_symop_operation_xyz
x,y,z
-x,y,-z
-x,-y,-z
x,-y,z
1/2+x,1/2+y,z
1/2-x,1/2+y,-z
1/2-x,1/2-y,-z
1/2+x,1/2-y,z
loop_
_atom_site_type_symbol
_atom_site_label
_atom_site_fract_x
_atom_site_fract_y
_atom_site_fract_z
Si Si1 0.715928 0.427464 0.258281
Si Si2 0.922077 0.277348 0.991480
Si Si3 0.044104 0.703223 0.712593
Si Si4 0.142166 0.077741 0.400271
Si Si5 0.560166 0.375042 0.911390
Si Si6 0.784140 0.820518 0.314139
Si Si7 0.856934 0.319747 0.370505
Si Si8 0.923013 0.849609 0.313366
O O1 0.757845 0.500000 0.288450
O O2 0.712996 0.416870 0.389912
O O3 0.781088 0.374621 0.287184
O O4 0.614072 0.424525 0.066760
O O5 0.826039 0.310687 0.824333
O O6 0.944303 0.314030 0.139834
O O7 0.915124 0.198869 0.008728
O O8 0.000000 0.292522 0.000000
O O9 0.134117 0.685145 0.755546
O O10 0.026895 0.781439 0.662750
O O11 0.955734 0.660481 0.554504
O O12 0.183615 0.122730 0.555560
O O13 0.048057 0.109703 0.227514
O O14 0.129500 0.000000 0.422270
O O15 0.593880 0.389802 0.826024
O O16 0.827763 0.748182 0.396798
O O17 0.823180 0.842371 0.241538
O O18 0.000000 0.883501 0.500000
#
# Coordination Sequence:
#
# PCOD8079738 Si02
#       8
#     8   8   8   8   8   8   8   8
#     4  11  24  38  57  85 119 159 201 243 299 361
#     4  11  23  34  57  96 125 148 195 252 301 352
#     4   9  19  35  56  84 121 151 190 244 309 350
#     4  11  24  41  60  84 125 168 197 238 302 371
#     4  11  21  37  60  86 125 157 197 238 298 362
#     4  11  21  37  61  89 120 156 202 247 298 352
#     4  10  19  37  61  85 111 156 198 252 296 352
#     4  10  17  35  58  89 120 155 194 240 300 356
#
# _framework density 18.875820999999998
#
# number of rings (size 3 to 8) (size 9 to 14) (size 15 to 20)
#    0.000    1.500    5.000    2.250    3.500    3.000 
#    0.000    3.125    0.000    1.125    0.000    0.000 
#    0.000    0.000    0.000    0.000    0.000    0.000 
#
# Total GULP energy -396549.669809 kJ/mol
# GULP energy per Si atom -12392.177182 kJ/mol
# Density = 1.883286 g / cm^3
# Si number density = 18.875821 Si / 1000 Ang^3
#
#
#
# Elastic Constant Matrix: (Units=GPa)
#
#
# Indices 1 2 3 4 5 6 
#
# 1 121.0427 41.5156 47.9474 0.0000 -4.4204 0.0000
# 2 41.5156 76.5688 36.5350 0.0000 -6.1840 0.0000
# 3 47.9474 36.5350 89.0684 0.0000 -2.6515 0.0000
# 4 0.0000 0.0000 0.0000 20.6981 0.0000 -3.4840
# 5 -4.4204 -6.1840 -2.6515 0.0000 31.4691 0.0000
# 6 0.0000 0.0000 0.0000 -3.4840 0.0000 0.7301
#
#
#
# Elastic Compliance Matrix: (Units=1/GPa)
#
#
# Indices 1 2 3 4 5 6 
#
# 1 0.011437 -0.004021 -0.004494 0.000000 0.000438 0.000000
# 2 -0.004021 0.017873 -0.005092 0.000000 0.002518 0.000000
# 3 -0.004494 -0.005092 0.015726 0.000000 -0.000307 0.000000
# 4 0.000000 0.000000 0.000000 0.245607 0.000000 1.172090
# 5 0.000438 0.002518 -0.000307 0.000000 0.032308 0.000000
# 6 0.000000 0.000000 0.000000 1.172090 0.000000 6.963205
#
#
# Mechanical properties :
#
#
# Convention : Reuss Voigt Hill
#
# Bulk Modulus (GPa) = 56.11082 59.85290 57.98186
# Shear Modulus (GPa) = 0.68312 21.29158 10.98735
#
# Velocity S-wave (km/s) = 0.60224 3.36219 2.41526
# Velocity P-wave (km/s) = 5.50222 6.84471 6.20985
#
# Compressibility (1/GPa) = 0.01782188
#
# Stress axis : x y z
#
# Youngs Moduli (GPa) = 87.43511 55.94877 63.58846
#
# Poissons Ratio (x) = 0.22499 0.28578
# Poissons Ratio (y) = 0.35161 0.32378
# Poissons Ratio (z) = 0.39295 0.28488
#
# Static dielectric constant tensor:
#      x y z
#    x 3.626380 0.000000 -0.166520 
#    y 0.000000 3.196560 0.000000 
#    z -0.166520 0.000000 3.500270 
# 
# 
# High freq. dielectric constant tensor:
#      x y z
#    x 1.747240 0.000000 -0.007230 
#    y 0.000000 1.693250 0.000000 
#    z -0.007230 0.000000 1.729380 
# 
# From -- ./inp_files/169712.got.cif
#   From: 2010.06.25/outbox.cif.g09.slc.cpg/sg12_85_cif.got.tgz:169712.got - 2010.06.28 00:19:55.
