data_PCOD8079114
_publ_section_title
;
Structure prediction by ZEFSAII (Michael W. Deem and Ramdas Pophale) SiO2 
 PCOD8079114
Probable space group: C 2/M
;
_chemical_formula_sum "Si O2"
_cell_formula_units_Z 56
_cell_length_a 14.635065
_cell_length_b 20.578105
_cell_length_c 17.669168
_cell_angle_alpha 90.000000
_cell_angle_beta 147.661913
_cell_angle_gamma 90.000000
_cell_volume 2846.427925
_symmetry_space_group_name_H-M "C 2/M"
_symmetry_group_IT_number 12
_symmetry_cell_setting 'monoclinic'
loop_
_space_group_symop_operation_xyz
x,y,z
-x,y,-z
-x,-y,-z
x,-y,z
1/2+x,1/2+y,z
1/2-x,1/2+y,-z
1/2-x,1/2-y,-z
1/2+x,1/2-y,z
loop_
_atom_site_type_symbol
_atom_site_label
_atom_site_fract_x
_atom_site_fract_y
_atom_site_fract_z
Si Si1 0.500000 0.738762 0.000000
Si Si2 0.526383 0.570711 0.608301
Si Si3 0.276665 0.194981 0.081745
Si Si4 0.181038 0.570683 0.449700
Si Si5 0.912365 0.292701 0.589828
Si Si6 0.936916 0.427464 0.141124
Si Si7 0.500000 0.729161 0.500000
Si Si8 0.698720 0.842504 0.234080
O O1 0.624785 0.694049 0.037083
O O2 0.605276 0.783498 0.129807
O O3 0.500000 0.572009 0.500000
O O4 0.587760 0.500000 0.677484
O O5 0.353340 0.589833 0.527635
O O6 0.675142 0.620981 0.737186
O O7 0.459536 0.207846 0.249122
O O8 0.280642 0.123617 0.044341
O O9 0.250000 0.250000 0.000000
O O10 0.197486 0.500000 0.504218
O O11 0.141299 0.633651 0.472752
O O12 0.029706 0.562186 0.284847
O O13 0.750000 0.250000 0.500000
O O14 0.013461 0.269055 0.586727
O O15 0.875949 0.500000 0.070605
O O16 0.067293 0.395579 0.172834
O O17 0.673565 0.686563 0.612378
#
# Coordination Sequence:
#
# PCOD8079114 Si02
#       8
#     4   8   8   8   8   8   4   8
#     4  12  26  38  58  88 122 168 198 240 314 362
#     4  10  17  28  52  84 116 150 189 236 296 362
#     4  11  23  42  62  87 123 162 203 249 302 362
#     4   9  18  33  54  84 118 153 196 246 300 353
#     4  11  23  37  61  93 116 154 202 253 298 351
#     4  10  19  35  61  86 114 156 203 249 297 359
#     4  12  22  36  58  92 124 150 200 256 298 358
#     4  12  20  36  56  87 122 154 195 246 301 365
#
# _framework density 19.673781000000002
#
# number of rings (size 3 to 8) (size 9 to 14) (size 15 to 20)
#    0.000    1.286    5.000    3.000    0.000    0.000 
#    0.000    2.143    0.000    0.857    0.000    0.000 
#    0.000    0.000    0.000    0.000    0.000    0.000 
#
# Total GULP energy -346879.565622 kJ/mol
# GULP energy per Si atom -12388.555915 kJ/mol
# Density = 1.962900 g / cm^3
# Si number density = 19.673781 Si / 1000 Ang^3
#
#
#
# Elastic Constant Matrix: (Units=GPa)
#
#
# Indices 1 2 3 4 5 6 
#
# 1 77.0871 60.6019 20.0944 -0.0018 15.8336 0.0047
# 2 60.6019 173.5177 39.9312 -0.0057 17.5664 0.0086
# 3 20.0944 39.9312 64.7916 -0.0076 13.6376 0.0180
# 4 -0.0018 -0.0057 -0.0076 20.4089 -0.0007 23.1911
# 5 15.8336 17.5664 13.6376 -0.0007 27.6422 0.0073
# 6 0.0047 0.0086 0.0180 23.1911 0.0073 14.4264
#
#
#
# Elastic Compliance Matrix: (Units=1/GPa)
#
#
# Indices 1 2 3 4 5 6 
#
# 1 0.019172 -0.005787 -0.000939 0.000003 -0.006841 -0.000003
# 2 -0.005787 0.008619 -0.003417 0.000001 -0.000477 0.000000
# 3 -0.000939 -0.003417 0.019261 -0.000032 -0.006793 0.000033
# 4 0.000003 0.000001 -0.000032 -0.059270 -0.000013 0.095280
# 5 -0.006841 -0.000477 -0.006793 -0.000013 0.043749 0.000010
# 6 -0.000003 0.000000 0.000033 0.095280 0.000010 -0.083849
#
#
# Mechanical properties :
#
#
# Convention : Reuss Voigt Hill
#
# Bulk Modulus (GPa) = 37.36207 61.85014 49.60610
# Shear Modulus (GPa) = -216.35368 25.48008 -95.43680
#
# Velocity S-wave (km/s) = -10.49806 3.60269 -6.97244
# Velocity P-wave (km/s) = 11.30989 6.98656 6.28895
#
# Compressibility (1/GPa) = 0.02676511
#
# Stress axis : x y z
#
# Youngs Moduli (GPa) = 52.15988 116.02551 51.91834
#
# Poissons Ratio (x) = 0.67145 0.04878
# Poissons Ratio (y) = 0.30186 0.17739
# Poissons Ratio (z) = 0.04900 0.39642
#
# Static dielectric constant tensor:
#      x y z
#    x 3.483150 -0.000010 0.274440 
#    y -0.000010 -27.677650 -0.001790 
#    z 0.274440 -0.001790 3.540440 
# 
# 
# High freq. dielectric constant tensor:
#      x y z
#    x 1.741240 0.000000 0.023510 
#    y 0.000000 1.785880 0.000000 
#    z 0.023510 0.000000 1.742920 
# 
# From -- ./inp_files/272450.got.cif
#   From: 2010.06.25/outbox.cif.g09.slc.cpg/sg12_137_cif.got.tgz:272450.got - 2010.06.28 00:19:55.
