data_PCOD8079161
_publ_section_title
;
Structure prediction by ZEFSAII (Michael W. Deem and Ramdas Pophale) SiO2 
 PCOD8079161
Probable space group: C 2/M
;
_chemical_formula_sum "Si O2"
_cell_formula_units_Z 56
_cell_length_a 19.449187
_cell_length_b 20.137013
_cell_length_c 9.589410
_cell_angle_alpha 90.000000
_cell_angle_beta 122.851690
_cell_angle_gamma 90.000000
_cell_volume 3155.061076
_symmetry_space_group_name_H-M "C 2/M"
_symmetry_group_IT_number 12
_symmetry_cell_setting 'monoclinic'
loop_
_space_group_symop_operation_xyz
x,y,z
-x,y,-z
-x,-y,-z
x,-y,z
1/2+x,1/2+y,z
1/2-x,1/2+y,-z
1/2-x,1/2-y,-z
1/2+x,1/2-y,z
loop_
_atom_site_type_symbol
_atom_site_label
_atom_site_fract_x
_atom_site_fract_y
_atom_site_fract_z
Si Si1 0.075381 0.233563 0.179732
Si Si2 0.986469 0.288503 0.336060
Si Si3 0.821287 0.574368 0.986275
Si Si4 0.008022 0.427578 0.260276
Si Si5 0.800732 0.696134 0.138569
Si Si6 0.756480 0.187423 0.609037
Si Si7 0.153389 0.373233 0.269624
O O1 0.145898 0.176248 0.256271
O O2 0.117892 0.302214 0.178239
O O3 0.040202 0.243246 0.294832
O O4 0.000000 0.212107 0.000000
O O5 0.019907 0.364975 0.376829
O O6 0.892104 0.285683 0.193256
O O7 0.000000 0.255974 0.500000
O O8 0.789580 0.500000 0.982648
O O9 0.794217 0.597216 0.801212
O O10 0.919573 0.578102 0.092694
O O11 0.781195 0.622042 0.059578
O O12 0.016824 0.500000 0.345052
O O13 0.077582 0.421919 0.218625
O O14 0.788392 0.698179 0.291794
O O15 0.750000 0.750000 0.000000
O O16 0.750000 0.250000 0.500000
O O17 0.712018 0.129289 0.472198
#
# Coordination Sequence:
#
# PCOD8079161 Si02
#       7
#     8   8   8   8   8   8   8
#     4  10  18  31  48  67  95 131 169 205 248 303
#     4  10  19  30  45  69  98 128 164 205 244 288
#     4  10  20  32  48  72 102 136 172 205 242 297
#     4   9  17  28  44  67  97 135 171 196 227 285
#     4  11  20  33  52  73 102 137 169 208 255 297
#     4  10  20  32  47  71 101 132 169 214 258 297
#     4  10  17  29  47  68  97 133 170 204 242 289
#
# _framework density 17.749261000000001
#
# number of rings (size 3 to 8) (size 9 to 14) (size 15 to 20)
#    0.000    2.000    0.000    8.571    0.000    1.429 
#    0.000    4.286    0.000    0.000    0.000    0.000 
#    0.000   26.286    0.000    0.000    0.000    0.000 
#
# Total GULP energy -346966.092244 kJ/mol
# GULP energy per Si atom -12391.646152 kJ/mol
# Density = 1.770886 g / cm^3
# Si number density = 17.749261 Si / 1000 Ang^3
#
#
#
# Elastic Constant Matrix: (Units=GPa)
#
#
# Indices 1 2 3 4 5 6 
#
# 1 74.5523 32.4835 19.6631 0.0000 -7.8578 0.0000
# 2 32.4835 65.8012 30.8251 0.0000 -4.6949 0.0000
# 3 19.6631 30.8251 78.7270 0.0000 -10.2786 0.0000
# 4 0.0000 0.0000 0.0000 15.0908 0.0000 0.3696
# 5 -7.8578 -4.6949 -10.2786 0.0000 39.5174 0.0000
# 6 0.0000 0.0000 0.0000 0.3696 0.0000 18.7134
#
#
#
# Elastic Compliance Matrix: (Units=1/GPa)
#
#
# Indices 1 2 3 4 5 6 
#
# 1 0.017374 -0.007985 -0.000917 0.000000 0.002267 0.000000
# 2 -0.007985 0.022285 -0.006825 0.000000 -0.000715 0.000000
# 3 -0.000917 -0.006825 0.016017 0.000000 0.003173 0.000000
# 4 0.000000 0.000000 0.000000 0.066298 0.000000 -0.001309
# 5 0.002267 -0.000715 0.003173 0.000000 0.026497 0.000000
# 6 0.000000 0.000000 0.000000 -0.001309 0.000000 0.053463
#
#
# Mechanical properties :
#
#
# Convention : Reuss Voigt Hill
#
# Bulk Modulus (GPa) = 41.28296 42.78044 42.03170
# Shear Modulus (GPa) = 20.70721 23.73824 22.22273
#
# Velocity S-wave (km/s) = 3.41933 3.66104 3.54225
# Velocity P-wave (km/s) = 6.23687 6.48274 6.36100
#
# Compressibility (1/GPa) = 0.02422307
#
# Stress axis : x y z
#
# Youngs Moduli (GPa) = 57.55888 44.87233 62.43174
#
# Poissons Ratio (x) = 0.35833 0.05722
# Poissons Ratio (y) = 0.45963 0.42608
# Poissons Ratio (z) = 0.05276 0.30624
#
# Static dielectric constant tensor:
#      x y z
#    x 3.481410 0.000000 0.087780 
#    y 0.000000 3.192770 0.000000 
#    z 0.087780 0.000000 3.450490 
# 
# 
# High freq. dielectric constant tensor:
#      x y z
#    x 1.679400 0.000000 -0.011260 
#    y 0.000000 1.641180 0.000000 
#    z -0.011260 0.000000 1.690200 
# 
# From -- ./inp_files/77347.got.cif
#   From: 2010.06.25/outbox.cif.g09.slc.cpg/sg12_39_cif.got.tgz:77347.got - 2010.06.28 00:19:55.
