data_PCOD8079992
_publ_section_title
;
Structure prediction by ZEFSAII (Michael W. Deem and Ramdas Pophale) SiO2 
 PCOD8079992
Probable space group: C 2/M
;
_chemical_formula_sum "Si O2"
_cell_formula_units_Z 64
_cell_length_a 28.152742
_cell_length_b 8.979616
_cell_length_c 20.830046
_cell_angle_alpha 90.000000
_cell_angle_beta 129.723558
_cell_angle_gamma 90.000000
_cell_volume 4050.161252
_symmetry_space_group_name_H-M "C 2/M"
_symmetry_group_IT_number 12
_symmetry_cell_setting 'monoclinic'
loop_
_space_group_symop_operation_xyz
x,y,z
-x,y,-z
-x,-y,-z
x,-y,z
1/2+x,1/2+y,z
1/2-x,1/2+y,-z
1/2-x,1/2-y,-z
1/2+x,1/2-y,z
loop_
_atom_site_type_symbol
_atom_site_label
_atom_site_fract_x
_atom_site_fract_y
_atom_site_fract_z
Si Si1 0.382104 0.175955 0.764734
Si Si2 0.839863 0.834957 0.606603
Si Si3 0.194825 0.170398 0.918894
Si Si4 0.796720 0.335625 0.456197
Si Si5 0.369237 0.673676 0.014240
Si Si6 0.735505 0.677009 0.276814
Si Si7 0.001645 0.828233 0.076937
Si Si8 0.254580 0.175231 0.846538
O O1 0.378243 0.230768 0.687822
O O2 0.330570 0.251295 0.764858
O O3 0.448196 0.220213 0.849207
O O4 0.373051 0.000000 0.758803
O O5 0.842263 0.770490 0.536042
O O6 0.769666 0.843050 0.568052
O O7 0.869305 0.000000 0.631529
O O8 0.196403 0.213554 0.844449
O O9 0.212637 0.000000 0.937966
O O10 0.250000 0.250000 0.000000
O O11 0.134385 0.202772 0.910826
O O12 0.826466 0.500000 0.481106
O O13 0.786268 0.276981 0.374507
O O14 0.357398 0.500000 0.987873
O O15 0.319079 0.769847 0.932450
O O16 0.436542 0.723040 0.050039
O O17 0.726248 0.500000 0.267555
O O18 0.760709 0.736963 0.231434
O O19 0.016630 0.000000 0.106813
O O20 0.000000 0.803243 0.000000
O O21 0.259873 0.000000 0.836509
#
# Coordination Sequence:
#
# PCOD8079992 Si02
#       8
#     8   8   8   8   8   8   8   8
#     4  11  21  31  44  61  84 113 145 180 213 246
#     4   9  16  27  43  60  81 109 140 172 205 246
#     4   8  15  27  42  61  82 107 139 173 211 253
#     4   8  15  26  40  59  81 107 138 171 205 243
#     4   9  17  30  46  60  81 115 148 177 212 253
#     4  10  19  30  43  60  86 116 144 172 207 255
#     4  10  20  32  45  61  83 113 148 182 213 247
#     4  10  18  27  42  64  88 110 138 177 215 253
#
# _framework density 15.80184
#
# number of rings (size 3 to 8) (size 9 to 14) (size 15 to 20)
#    0.000    2.625    0.000    3.750    0.000    5.750 
#    0.000    0.000    0.000    0.000    0.000    0.000 
#    0.000    1.000    0.000   11.500    0.000    3.125 
#
# Total GULP energy -396513.180493 kJ/mol
# GULP energy per Si atom -12391.036890 kJ/mol
# Density = 1.576587 g / cm^3
# Si number density = 15.801840 Si / 1000 Ang^3
#
#
#
# Elastic Constant Matrix: (Units=GPa)
#
#
# Indices 1 2 3 4 5 6 
#
# 1 97.4992 33.9369 44.9433 0.0000 -24.0134 0.0000
# 2 33.9369 80.0385 40.7807 0.0000 -14.4282 0.0000
# 3 44.9433 40.7807 82.4398 0.0000 -27.3318 0.0000
# 4 0.0000 0.0000 0.0000 23.8738 0.0000 -2.2499
# 5 -24.0134 -14.4282 -27.3318 0.0000 23.5106 0.0000
# 6 0.0000 0.0000 0.0000 -2.2499 0.0000 15.4888
#
#
#
# Elastic Compliance Matrix: (Units=1/GPa)
#
#
# Indices 1 2 3 4 5 6 
#
# 1 0.015343 -0.002856 -0.003803 0.000000 0.009497 0.000000
# 2 -0.002856 0.017252 -0.007215 0.000000 -0.000717 0.000000
# 3 -0.003803 -0.007215 0.024434 0.000000 0.020093 0.000000
# 4 0.000000 0.000000 0.000000 0.042468 0.000000 0.006169
# 5 0.009497 -0.000717 0.020093 0.000000 0.075153 0.000000
# 6 0.000000 0.000000 0.000000 0.006169 0.000000 0.065459
#
#
# Mechanical properties :
#
#
# Convention : Reuss Voigt Hill
#
# Bulk Modulus (GPa) = 34.15158 55.47767 44.81463
# Shear Modulus (GPa) = 18.01051 21.92908 19.96979
#
# Velocity S-wave (km/s) = 3.37971 3.72930 3.55880
# Velocity P-wave (km/s) = 6.07366 7.32995 6.73118
#
# Compressibility (1/GPa) = 0.02928122
#
# Stress axis : x y z
#
# Youngs Moduli (GPa) = 65.17809 57.96568 40.92672
#
# Poissons Ratio (x) = 0.16553 0.15564
# Poissons Ratio (y) = 0.18613 0.29528
# Poissons Ratio (z) = 0.24787 0.41821
#
# Static dielectric constant tensor:
#      x y z
#    x 3.233400 0.000000 -0.417850 
#    y 0.000000 3.124380 0.000000 
#    z -0.417850 0.000000 2.995330 
# 
# 
# High freq. dielectric constant tensor:
#      x y z
#    x 1.577000 0.000000 -0.034120 
#    y 0.000000 1.617370 0.000000 
#    z -0.034120 0.000000 1.587570 
# 
# From -- ./inp_files/326933.got.cif
#   From: 2010.06.25/outbox.cif.g09.slc.cpg/sg12_164_cif.got.tgz:326933.got - 2010.06.28 00:19:55.
