data_PCOD8079136
_publ_section_title
;
Structure prediction by ZEFSAII (Michael W. Deem and Ramdas Pophale) SiO2 
 PCOD8079136
Probable space group: C 2/M
;
_chemical_formula_sum "Si O2"
_cell_formula_units_Z 64
_cell_length_a 24.413631
_cell_length_b 14.393233
_cell_length_c 9.588582
_cell_angle_alpha 90.000000
_cell_angle_beta 90.177461
_cell_angle_gamma 90.000000
_cell_volume 3369.326017
_symmetry_space_group_name_H-M "C 2/M"
_symmetry_group_IT_number 12
_symmetry_cell_setting 'monoclinic'
loop_
_space_group_symop_operation_xyz
x,y,z
-x,y,-z
-x,-y,-z
x,-y,z
1/2+x,1/2+y,z
1/2-x,1/2+y,-z
1/2-x,1/2-y,-z
1/2+x,1/2-y,z
loop_
_atom_site_type_symbol
_atom_site_label
_atom_site_fract_x
_atom_site_fract_y
_atom_site_fract_z
Si Si1 0.335691 0.709522 0.685736
Si Si2 0.661088 0.606882 0.601848
Si Si3 0.236026 0.393389 0.734133
Si Si4 0.569476 0.744850 0.648737
Si Si5 0.717222 0.106099 0.409375
Si Si6 0.878657 0.392717 0.157056
Si Si7 0.048930 0.393434 0.091203
Si Si8 0.051527 0.256824 0.327034
O O1 0.333762 0.641968 0.554269
O O2 0.288067 0.668632 0.785101
O O3 0.324214 0.818816 0.655356
O O4 0.398068 0.699599 0.745161
O O5 0.642279 0.500000 0.604108
O O6 0.614609 0.665676 0.683193
O O7 0.722760 0.617921 0.663441
O O8 0.251956 0.500000 0.756139
O O9 0.220032 0.372340 0.574097
O O10 0.184640 0.363604 0.828620
O O11 0.582419 0.834983 0.739697
O O12 0.569894 0.774699 0.486633
O O13 0.507916 0.707074 0.684121
O O14 0.696118 0.000000 0.384125
O O15 0.886893 0.500000 0.200519
O O16 0.895046 0.376414 0.995647
O O17 0.035880 0.500000 0.114404
O O18 0.050019 0.353447 0.245920
O O19 0.000000 0.347790 0.000000
#
# Coordination Sequence:
#
# PCOD8079136 Si02
#       8
#     8   8   8   8   8   8   8   8
#     4  10  17  29  45  69 105 135 162 200 252 299
#     4   9  17  30  49  73 101 134 170 210 251 292
#     4   9  16  27  46  71  95 127 171 209 238 286
#     4  10  19  33  50  76 105 129 167 213 251 286
#     4   9  16  26  44  71 103 135 162 195 248 301
#     4  10  19  32  54  78 101 134 171 202 243 299
#     4  10  20  36  52  70 100 138 171 200 244 305
#     4  10  21  32  47  73 104 131 164 203 252 297
#
# _framework density 18.994897000000002
#
# number of rings (size 3 to 8) (size 9 to 14) (size 15 to 20)
#    0.000    2.375    1.250    4.875    0.000    1.000 
#    0.000    7.500    0.000    0.000    0.000    6.125 
#    0.000    0.000    0.000    0.000    0.000    0.000 
#
# Total GULP energy -396430.899971 kJ/mol
# GULP energy per Si atom -12388.465624 kJ/mol
# Density = 1.895166 g / cm^3
# Si number density = 18.994897 Si / 1000 Ang^3
#
#
#
# Elastic Constant Matrix: (Units=GPa)
#
#
# Indices 1 2 3 4 5 6 
#
# 1 135.0960 39.9663 21.4147 0.0000 -32.4587 0.0000
# 2 39.9663 67.8349 21.0185 0.0000 -8.5304 0.0000
# 3 21.4147 21.0185 32.0347 0.0000 -9.2175 0.0000
# 4 0.0000 0.0000 0.0000 14.5971 0.0000 -7.0518
# 5 -32.4587 -8.5304 -9.2175 0.0000 21.8979 0.0000
# 6 0.0000 0.0000 0.0000 -7.0518 0.0000 21.8128
#
#
#
# Elastic Compliance Matrix: (Units=1/GPa)
#
#
# Indices 1 2 3 4 5 6 
#
# 1 0.013261 -0.005560 -0.000210 0.000000 0.017403 0.000000
# 2 -0.005560 0.020945 -0.011434 0.000000 -0.004895 0.000000
# 3 -0.000210 -0.011434 0.042653 0.000000 0.013189 0.000000
# 4 0.000000 0.000000 0.000000 0.081186 0.000000 0.026247
# 5 0.017403 -0.004895 0.013189 0.000000 0.075107 0.000000
# 6 0.000000 0.000000 0.000000 0.026247 0.000000 0.054330
#
#
# Mechanical properties :
#
#
# Convention : Reuss Voigt Hill
#
# Bulk Modulus (GPa) = 23.55578 44.41829 33.98704
# Shear Modulus (GPa) = 14.87917 21.83266 18.35591
#
# Velocity S-wave (km/s) = 2.80183 3.39395 3.11201
# Velocity P-wave (km/s) = 4.78488 6.22845 5.55377
#
# Compressibility (1/GPa) = 0.04245242
#
# Stress axis : x y z
#
# Youngs Moduli (GPa) = 75.40629 47.74517 23.44484
#
# Poissons Ratio (x) = 0.26545 0.00492
# Poissons Ratio (y) = 0.41924 0.26807
# Poissons Ratio (z) = 0.01582 0.54591
#
# Static dielectric constant tensor:
#      x y z
#    x 4.184810 0.000000 -0.391120 
#    y 0.000000 3.392720 0.000000 
#    z -0.391120 0.000000 3.122980 
# 
# 
# High freq. dielectric constant tensor:
#      x y z
#    x 1.759520 0.000000 -0.030370 
#    y 0.000000 1.719710 0.000000 
#    z -0.030370 0.000000 1.686280 
# 
# From -- ./inp_files/104555.got.cif
#   From: 2010.06.25/outbox.cif.g09.slc.cpg/sg12_53_cif.got.tgz:104555.got - 2010.06.28 00:19:55.
