data_PCOD8079592
_publ_section_title
;
Structure prediction by ZEFSAII (Michael W. Deem and Ramdas Pophale) SiO2 
 PCOD8079592
Probable space group: C 2/M
;
_chemical_formula_sum "Si O2"
_cell_formula_units_Z 64
_cell_length_a 15.334161
_cell_length_b 25.832346
_cell_length_c 12.618925
_cell_angle_alpha 90.000000
_cell_angle_beta 142.002408
_cell_angle_gamma 90.000000
_cell_volume 3077.264613
_symmetry_space_group_name_H-M "C 2/M"
_symmetry_group_IT_number 12
_symmetry_cell_setting 'monoclinic'
loop_
_space_group_symop_operation_xyz
x,y,z
-x,y,-z
-x,-y,-z
x,-y,z
1/2+x,1/2+y,z
1/2-x,1/2+y,-z
1/2-x,1/2-y,-z
1/2+x,1/2-y,z
loop_
_atom_site_type_symbol
_atom_site_label
_atom_site_fract_x
_atom_site_fract_y
_atom_site_fract_z
Si Si1 0.081974 0.813310 0.325081
Si Si2 0.700496 0.219842 0.304239
Si Si3 0.152683 0.297203 0.687921
Si Si4 0.533834 0.057254 0.333405
Si Si5 0.776008 0.941159 0.894546
Si Si6 0.480887 0.868536 0.092228
Si Si7 0.228269 0.842977 0.983880
Si Si8 0.725433 0.608712 0.316152
O O1 0.166885 0.811480 0.517018
O O2 0.130629 0.761894 0.313539
O O3 0.111928 0.866369 0.288002
O O4 0.912137 0.810487 0.180375
O O5 0.744704 0.248811 0.238107
O O6 0.579651 0.179920 0.162134
O O7 0.177156 0.314463 0.833552
O O8 0.181149 0.344761 0.637839
O O9 0.000000 0.278709 0.500000
O O10 0.395813 0.062579 0.276255
O O11 0.536056 0.097913 0.241372
O O12 0.674994 0.066559 0.534243
O O13 0.539063 0.000000 0.289150
O O14 0.822670 0.900697 0.029823
O O15 0.845707 0.922233 0.850206
O O16 0.825512 0.000000 0.968727
O O17 0.322356 0.848755 0.968051
O O18 0.500000 0.900618 0.000000
#
# Coordination Sequence:
#
# PCOD8079592 Si02
#       8
#     8   8   8   8   8   8   8   8
#     4  10  22  38  58  84 120 164 192 234 287 346
#     4  10  23  39  58  81 121 154 199 242 279 343
#     4  10  21  35  59  90 122 157 190 233 296 350
#     4  10  19  35  59  86 116 154 199 247 295 344
#     4   9  18  32  56  91 123 154 193 237 289 352
#     4  11  24  41  61  88 113 150 199 253 291 350
#     4  10  23  40  62  84 123 157 192 240 300 350
#     4  10  17  32  56  85 126 154 192 232 285 351
#
# _framework density 20.797692000000001
#
# number of rings (size 3 to 8) (size 9 to 14) (size 15 to 20)
#    0.000    2.000    1.250    3.000    5.250    6.750 
#    0.000    1.875    0.000    0.000    0.000    0.875 
#    0.000    0.000    0.000    0.000    0.000    0.000 
#
# Total GULP energy -396539.743053 kJ/mol
# GULP energy per Si atom -12391.866970 kJ/mol
# Density = 2.075036 g / cm^3
# Si number density = 20.797692 Si / 1000 Ang^3
#
#
#
# Elastic Constant Matrix: (Units=GPa)
#
#
# Indices 1 2 3 4 5 6 
#
# 1 98.9059 27.7393 32.6160 0.0000 -5.8245 0.0000
# 2 27.7393 96.2201 14.0423 0.0000 1.7791 0.0000
# 3 32.6160 14.0423 71.3097 0.0000 13.4624 0.0000
# 4 0.0000 0.0000 0.0000 11.5475 0.0000 6.1571
# 5 -5.8245 1.7791 13.4624 0.0000 29.9066 0.0000
# 6 0.0000 0.0000 0.0000 6.1571 0.0000 21.2858
#
#
#
# Elastic Compliance Matrix: (Units=1/GPa)
#
#
# Indices 1 2 3 4 5 6 
#
# 1 0.013504 -0.003026 -0.006679 0.000000 0.005817 0.000000
# 2 -0.003026 0.011382 -0.000676 0.000000 -0.000962 0.000000
# 3 -0.006679 -0.000676 0.019070 0.000000 -0.009845 0.000000
# 4 0.000000 0.000000 0.000000 0.102391 0.000000 -0.029617
# 5 0.005817 -0.000962 -0.009845 0.000000 0.039059 0.000000
# 6 0.000000 0.000000 0.000000 -0.029617 0.000000 0.055547
#
#
# Mechanical properties :
#
#
# Convention : Reuss Voigt Hill
#
# Bulk Modulus (GPa) = 43.11309 46.13677 44.62493
# Shear Modulus (GPa) = 18.55666 25.35051 21.95358
#
# Velocity S-wave (km/s) = 2.99029 3.49508 3.25249
# Velocity P-wave (km/s) = 5.71815 6.20638 5.96726
#
# Compressibility (1/GPa) = 0.02319481
#
# Stress axis : x y z
#
# Youngs Moduli (GPa) = 74.05039 87.86120 52.43901
#
# Poissons Ratio (x) = 0.26587 0.35023
# Poissons Ratio (y) = 0.22408 0.03543
# Poissons Ratio (z) = 0.49457 0.05935
#
# Static dielectric constant tensor:
#      x y z
#    x 3.855100 0.000000 -0.054020 
#    y 0.000000 3.827200 0.000000 
#    z -0.054020 0.000000 3.547190 
# 
# 
# High freq. dielectric constant tensor:
#      x y z
#    x 1.805620 0.000000 0.004680 
#    y 0.000000 1.812180 0.000000 
#    z 0.004680 0.000000 1.795680 
# 
# From -- ./inp_files/149821.got.cif
#   From: 2010.06.25/outbox.cif.g09.slc.cpg/sg12_75_cif.got.tgz:149821.got - 2010.06.28 00:19:55.
