data_PCOD8079261
_publ_section_title
;
Structure prediction by ZEFSAII (Michael W. Deem and Ramdas Pophale) SiO2 
 PCOD8079261
Probable space group: C 2/M
;
_chemical_formula_sum "Si O2"
_cell_formula_units_Z 56
_cell_length_a 31.507863
_cell_length_b 17.829183
_cell_length_c 9.381881
_cell_angle_alpha 90.000000
_cell_angle_beta 31.786346
_cell_angle_gamma 90.000000
_cell_volume 2776.179422
_symmetry_space_group_name_H-M "C 2/M"
_symmetry_group_IT_number 12
_symmetry_cell_setting 'monoclinic'
loop_
_space_group_symop_operation_xyz
x,y,z
-x,y,-z
-x,-y,-z
x,-y,z
1/2+x,1/2+y,z
1/2-x,1/2+y,-z
1/2-x,1/2-y,-z
1/2+x,1/2-y,z
loop_
_atom_site_type_symbol
_atom_site_label
_atom_site_fract_x
_atom_site_fract_y
_atom_site_fract_z
Si Si1 0.199546 0.082112 0.601779
Si Si2 0.556380 0.175890 0.710254
Si Si3 0.843590 0.581737 0.986778
Si Si4 0.308804 0.326769 0.100095
Si Si5 0.162138 0.767484 0.592742
Si Si6 0.291936 0.087228 0.825357
Si Si7 0.419814 0.783413 0.898625
O O1 0.206665 0.105982 0.745633
O O2 0.149291 0.144312 0.658445
O O3 0.157488 0.000000 0.712269
O O4 0.288023 0.077277 0.283890
O O5 0.602473 0.249057 0.634907
O O6 0.621080 0.111930 0.485920
O O7 0.500000 0.143930 0.000000
O O8 0.509716 0.208338 0.705068
O O9 0.885059 0.500000 0.844790
O O10 0.791009 0.602022 0.997083
O O11 0.910810 0.643753 0.824677
O O12 0.253415 0.253841 0.291827
O O13 0.282655 0.362856 0.023626
O O14 0.399705 0.291148 0.856957
O O15 0.141179 0.719308 0.793520
O O16 0.278447 0.000000 0.826894
#
# Coordination Sequence:
#
# PCOD8079261 Si02
#       7
#     8   8   8   8   8   8   8
#     4  10  17  29  53  78  99 129 166 206 254 296
#     4   9  20  34  52  72 100 139 168 204 255 299
#     4  10  20  32  49  76 106 132 162 205 256 299
#     4  10  17  32  53  75  97 129 175 211 243 288
#     4   9  16  32  50  75 100 127 168 214 244 288
#     4  10  22  36  49  74 108 135 167 210 252 302
#     4  10  17  32  52  72  99 133 166 206 248 295
#
# _framework density 20.171607999999999
#
# number of rings (size 3 to 8) (size 9 to 14) (size 15 to 20)
#    0.000    2.286    2.857    1.286    0.000    2.000 
#    0.000    1.429    0.000   11.571    0.000    0.000 
#    0.000    3.429    0.000    0.143    0.000    0.000 
#
# Total GULP energy -346873.570486 kJ/mol
# GULP energy per Si atom -12388.341803 kJ/mol
# Density = 2.012570 g / cm^3
# Si number density = 20.171608 Si / 1000 Ang^3
#
#
#
# Elastic Constant Matrix: (Units=GPa)
#
#
# Indices 1 2 3 4 5 6 
#
# 1 147.3644 76.6652 3.7907 0.0000 -6.6914 0.0000
# 2 76.6652 141.6407 3.6447 0.0000 5.8458 0.0000
# 3 3.7907 3.6447 15.8307 0.0000 2.9340 0.0000
# 4 0.0000 0.0000 0.0000 11.3306 0.0000 7.8354
# 5 -6.6914 5.8458 2.9340 0.0000 18.2103 0.0000
# 6 0.0000 0.0000 0.0000 7.8354 0.0000 27.1745
#
#
#
# Elastic Compliance Matrix: (Units=1/GPa)
#
#
# Indices 1 2 3 4 5 6 
#
# 1 0.010027 -0.005612 -0.002191 0.000000 0.005839 0.000000
# 2 -0.005612 0.010320 -0.000037 0.000000 -0.005369 0.000000
# 3 -0.002191 -0.000037 0.065814 0.000000 -0.011397 0.000000
# 4 0.000000 0.000000 0.000000 0.110237 0.000000 -0.031785
# 5 0.005839 -0.005369 -0.011397 0.000000 0.060619 0.000000
# 6 0.000000 0.000000 0.000000 -0.031785 0.000000 0.045964
#
#
# Mechanical properties :
#
#
# Convention : Reuss Voigt Hill
#
# Bulk Modulus (GPa) = 14.18830 52.55969 33.37400
# Shear Modulus (GPa) = 14.61327 26.05876 20.33602
#
# Velocity S-wave (km/s) = 2.69448 3.59814 3.17858
# Velocity P-wave (km/s) = 4.09015 6.58597 5.48198
#
# Compressibility (1/GPa) = 0.07048059
#
# Stress axis : x y z
#
# Youngs Moduli (GPa) = 99.73179 96.89792 15.19439
#
# Poissons Ratio (x) = 0.54377 0.03329
# Poissons Ratio (y) = 0.55968 0.00057
# Poissons Ratio (z) = 0.21852 0.00360
#
# Static dielectric constant tensor:
#      x y z
#    x 3.851410 0.000000 0.103440 
#    y 0.000000 3.828290 0.000000 
#    z 0.103440 0.000000 3.271830 
# 
# 
# High freq. dielectric constant tensor:
#      x y z
#    x 1.797020 0.000000 0.017620 
#    y 0.000000 1.785540 0.000000 
#    z 0.017620 0.000000 1.741250 
# 
# From -- ./inp_files/87806.got.cif
#   From: 2010.06.25/outbox.cif.g09.slc.cpg/sg12_44_cif.got.tgz:87806.got - 2010.06.28 00:19:55.
