data_PCOD8079092
_publ_section_title
;
Structure prediction by ZEFSAII (Michael W. Deem and Ramdas Pophale) SiO2 
 PCOD8079092
Probable space group: C 2/M
;
_chemical_formula_sum "Si O2"
_cell_formula_units_Z 52
_cell_length_a 22.673265
_cell_length_b 23.699433
_cell_length_c 14.884011
_cell_angle_alpha 90.000000
_cell_angle_beta 159.868571
_cell_angle_gamma 90.000000
_cell_volume 2752.650271
_symmetry_space_group_name_H-M "C 2/M"
_symmetry_group_IT_number 12
_symmetry_cell_setting 'monoclinic'
loop_
_space_group_symop_operation_xyz
x,y,z
-x,y,-z
-x,-y,-z
x,-y,z
1/2+x,1/2+y,z
1/2-x,1/2+y,-z
1/2-x,1/2-y,-z
1/2+x,1/2-y,z
loop_
_atom_site_type_symbol
_atom_site_label
_atom_site_fract_x
_atom_site_fract_y
_atom_site_fract_z
Si Si1 0.652962 0.132683 0.150088
Si Si2 0.840040 0.849206 0.044266
Si Si3 0.586399 0.195311 0.298907
Si Si4 0.500000 0.195919 0.500000
Si Si5 0.474670 0.434020 0.566757
Si Si6 0.595568 0.266554 0.478975
Si Si7 0.960059 0.816185 0.839959
O O1 0.779607 0.080234 0.316865
O O2 0.761021 0.186898 0.337150
O O3 0.500000 0.118165 0.000000
O O4 0.560626 0.148138 0.923383
O O5 0.890176 0.904992 0.172128
O O6 0.910877 0.795339 0.200495
O O7 0.914277 0.849620 0.048357
O O8 0.633552 0.843563 0.744978
O O9 0.614456 0.213511 0.440921
O O10 0.768685 0.167408 0.532886
O O11 0.528363 0.248256 0.153711
O O12 0.612324 0.238478 0.599965
O O13 0.500000 0.413215 0.500000
O O14 0.505928 0.500000 0.620014
O O15 0.000000 0.833576 0.000000
#
# Coordination Sequence:
#
# PCOD8079092 Si02
#       7
#     8   8   8   4   8   8   8
#     4  11  21  34  57  87 112 146 191 230 277 337
#     4  10  22  35  55  82 113 154 198 237 282 336
#     4  10  17  28  50  76 113 156 190 219 261 332
#     4  12  22  32  51  86 121 164 198 222 270 344
#     4  10  24  45  65  82 108 146 191 253 315 346
#     4  10  21  31  48  80 127 160 184 220 269 336
#     4  10  18  32  49  78 121 157 186 221 276 337
#
# _framework density 18.890885000000001
#
# number of rings (size 3 to 8) (size 9 to 14) (size 15 to 20)
#    0.000    1.692    0.000    8.308    6.462    0.308 
#    0.000    0.385    0.000    0.462    0.000    0.000 
#    0.000    0.000    0.000    0.000    0.000    0.000 
#
# Total GULP energy -322219.877999 kJ/mol
# GULP energy per Si atom -12393.072231 kJ/mol
# Density = 1.884789 g / cm^3
# Si number density = 18.890885 Si / 1000 Ang^3
#
#
#
# Elastic Constant Matrix: (Units=GPa)
#
#
# Indices 1 2 3 4 5 6 
#
# 1 108.9017 33.9091 19.1581 0.0000 -4.5076 0.0000
# 2 33.9091 55.8233 33.2994 0.0000 -0.4898 0.0000
# 3 19.1581 33.2994 105.6374 0.0000 5.3837 0.0000
# 4 0.0000 0.0000 0.0000 19.4484 0.0000 -1.3327
# 5 -4.5076 -0.4898 5.3837 0.0000 26.6038 0.0000
# 6 0.0000 0.0000 0.0000 -1.3327 0.0000 19.0723
#
#
#
# Elastic Compliance Matrix: (Units=1/GPa)
#
#
# Indices 1 2 3 4 5 6 
#
# 1 0.011411 -0.006929 0.000023 0.000000 0.001801 0.000000
# 2 -0.006929 0.026359 -0.007090 0.000000 0.000746 0.000000
# 3 0.000023 -0.007090 0.011826 0.000000 -0.002520 0.000000
# 4 0.000000 0.000000 0.000000 0.051665 0.000000 0.003610
# 5 0.001801 0.000746 -0.002520 0.000000 0.038417 0.000000
# 6 0.000000 0.000000 0.000000 0.003610 0.000000 0.052684
#
#
# Mechanical properties :
#
#
# Convention : Reuss Voigt Hill
#
# Bulk Modulus (GPa) = 46.29167 49.23286 47.76227
# Shear Modulus (GPa) = 21.97265 25.29130 23.63197
#
# Velocity S-wave (km/s) = 3.41418 3.66294 3.54075
# Velocity P-wave (km/s) = 6.33246 6.63384 6.48490
#
# Compressibility (1/GPa) = 0.02160216
#
# Stress axis : x y z
#
# Youngs Moduli (GPa) = 87.63742 37.93818 84.56239
#
# Poissons Ratio (x) = 0.26288 -0.00195
# Poissons Ratio (y) = 0.60726 0.59957
# Poissons Ratio (z) = -0.00202 0.26899
#
# Static dielectric constant tensor:
#      x y z
#    x 3.552510 0.000000 0.003470 
#    y 0.000000 2.904040 0.000000 
#    z 0.003470 0.000000 3.725740 
# 
# 
# High freq. dielectric constant tensor:
#      x y z
#    x 1.743420 0.000000 -0.004150 
#    y 0.000000 1.661570 0.000000 
#    z -0.004150 0.000000 1.754800 
# 
# From -- ./inp_files/235780.got.cif
#   From: 2010.06.25/outbox.cif.g09.slc.cpg/sg12_118_cif.got.tgz:235780.got - 2010.06.28 00:19:55.
