data_PCOD8079286
_publ_section_title
;
Structure prediction by ZEFSAII (Michael W. Deem and Ramdas Pophale) SiO2 
 PCOD8079286
Probable space group: C 2/M
;
_chemical_formula_sum "Si O2"
_cell_formula_units_Z 52
_cell_length_a 23.540639
_cell_length_b 16.438579
_cell_length_c 19.416147
_cell_angle_alpha 90.000000
_cell_angle_beta 153.203809
_cell_angle_gamma 90.000000
_cell_volume 3387.248144
_symmetry_space_group_name_H-M "C 2/M"
_symmetry_group_IT_number 12
_symmetry_cell_setting 'monoclinic'
loop_
_space_group_symop_operation_xyz
x,y,z
-x,y,-z
-x,-y,-z
x,-y,z
1/2+x,1/2+y,z
1/2-x,1/2+y,-z
1/2-x,1/2-y,-z
1/2+x,1/2-y,z
loop_
_atom_site_type_symbol
_atom_site_label
_atom_site_fract_x
_atom_site_fract_y
_atom_site_fract_z
Si Si1 0.000000 0.303000 0.000000
Si Si2 0.678028 0.266920 0.295228
Si Si3 0.216707 0.093466 0.432541
Si Si4 0.465361 0.170466 0.742811
Si Si5 0.069830 0.094877 0.645015
Si Si6 0.925551 0.810108 0.603561
Si Si7 0.862662 0.595058 0.967035
O O1 0.893146 0.243079 0.854177
O O2 0.941869 0.361291 0.994049
O O3 0.684358 0.360826 0.325832
O O4 0.603728 0.219178 0.272718
O O5 0.816429 0.228400 0.438068
O O6 0.365934 0.103433 0.608307
O O7 0.133661 0.128391 0.405115
O O8 0.182286 0.000000 0.385226
O O9 0.500436 0.235763 0.721452
O O10 0.591048 0.127111 0.907894
O O11 0.216887 0.114533 0.797729
O O12 0.000000 0.124096 0.500000
O O13 0.020893 0.142534 0.658202
O O14 0.044023 0.000000 0.629612
O O15 0.890681 0.500000 0.992106
#
# Coordination Sequence:
#
# PCOD8079286 Si02
#       7
#     4   8   8   8   8   8   8
#     4  10  17  30  45  58  86 118 138 166 209 244
#     4   8  16  27  42  63  83 108 142 172 199 245
#     4   9  15  26  45  65  84 107 138 175 211 242
#     4   8  16  28  43  63  83 105 139 177 205 241
#     4  10  20  30  40  60  88 113 140 171 202 247
#     4   9  16  29  44  60  85 114 138 165 211 253
#     4  10  19  29  43  64  86 109 140 173 206 246
#
# _framework density 15.351694
#
# number of rings (size 3 to 8) (size 9 to 14) (size 15 to 20)
#    0.000    2.923    0.000    3.923    0.000    0.615 
#    0.000    5.000    0.000    0.000    0.000    0.000 
#    0.000   51.077    0.000    0.000    0.000    0.000 
#
# Total GULP energy -322272.375046 kJ/mol
# GULP energy per Si atom -12395.091348 kJ/mol
# Density = 1.531675 g / cm^3
# Si number density = 15.351694 Si / 1000 Ang^3
#
#
#
# Elastic Constant Matrix: (Units=GPa)
#
#
# Indices 1 2 3 4 5 6 
#
# 1 59.6041 34.9926 34.7303 0.0004 -0.8620 0.0002
# 2 34.9926 96.7728 52.1866 0.0005 -6.3429 0.0002
# 3 34.7303 52.1866 121.3653 0.0012 -15.5267 0.0008
# 4 0.0004 0.0005 0.0012 22.2270 0.0006 -0.4270
# 5 -0.8620 -6.3429 -15.5267 0.0006 19.3266 0.0003
# 6 0.0002 0.0002 0.0008 -0.4270 0.0003 24.2279
#
#
#
# Elastic Compliance Matrix: (Units=1/GPa)
#
#
# Indices 1 2 3 4 5 6 
#
# 1 0.022962 -0.006176 -0.004507 0.000000 -0.004624 0.000000
# 2 -0.006176 0.015115 -0.004606 0.000000 0.000985 0.000000
# 3 -0.004507 -0.004606 0.012584 -0.000001 0.008397 0.000000
# 4 0.000000 0.000000 -0.000001 0.045006 -0.000002 0.000793
# 5 -0.004624 0.000985 0.008397 -0.000002 0.058606 -0.000001
# 6 0.000000 0.000000 0.000000 0.000793 -0.000001 0.041289
#
#
# Mechanical properties :
#
#
# Convention : Reuss Voigt Hill
#
# Bulk Modulus (GPa) = 49.79086 57.95122 53.87104
# Shear Modulus (GPa) = 21.47455 23.54513 22.50984
#
# Velocity S-wave (km/s) = 3.74416 3.92052 3.83335
# Velocity P-wave (km/s) = 7.15511 7.63708 7.40002
#
# Compressibility (1/GPa) = 0.02008401
#
# Stress axis : x y z
#
# Youngs Moduli (GPa) = 43.54977 66.15911 79.46429
#
# Poissons Ratio (x) = 0.40857 0.35814
# Poissons Ratio (y) = 0.26895 0.36603
# Poissons Ratio (z) = 0.19628 0.30474
#
# Static dielectric constant tensor:
#      x y z
#    x 2.732740 0.000000 -0.236860 
#    y 0.000000 2.927330 0.000000 
#    z -0.236860 0.000000 3.338290 
# 
# 
# High freq. dielectric constant tensor:
#      x y z
#    x 1.563580 0.000000 -0.007010 
#    y 0.000000 1.581090 0.000000 
#    z -0.007010 0.000000 1.594060 
# 
# From -- ./inp_files/166207.got.cif
#   From: 2010.06.25/outbox.cif.g09.slc.cpg/sg12_84_cif.got.tgz:166207.got - 2010.06.28 00:19:55.
