data_PCOD8079619
_publ_section_title
;
Structure prediction by ZEFSAII (Michael W. Deem and Ramdas Pophale) SiO2 
 PCOD8079619
Probable space group: C 2/M
;
_chemical_formula_sum "Si O2"
_cell_formula_units_Z 48
_cell_length_a 26.246801
_cell_length_b 13.707367
_cell_length_c 15.246950
_cell_angle_alpha 90.000000
_cell_angle_beta 153.277826
_cell_angle_gamma 90.000000
_cell_volume 2466.619716
_symmetry_space_group_name_H-M "C 2/M"
_symmetry_group_IT_number 12
_symmetry_cell_setting 'monoclinic'
loop_
_space_group_symop_operation_xyz
x,y,z
-x,y,-z
-x,-y,-z
x,-y,z
1/2+x,1/2+y,z
1/2-x,1/2+y,-z
1/2-x,1/2-y,-z
1/2+x,1/2-y,z
loop_
_atom_site_type_symbol
_atom_site_label
_atom_site_fract_x
_atom_site_fract_y
_atom_site_fract_z
Si Si1 0.598571 0.386924 0.581863
Si Si2 0.464035 0.714344 0.693959
Si Si3 0.198695 0.609273 0.591243
Si Si4 0.702886 0.754845 0.132107
Si Si5 0.294959 0.356381 0.563267
Si Si6 0.379406 0.105794 0.844437
O O1 0.500000 0.374522 0.500000
O O2 0.636983 0.500000 0.633201
O O3 0.555011 0.349529 0.421396
O O4 0.702641 0.318311 0.774382
O O5 0.403277 0.819901 0.595980
O O6 0.418873 0.649684 0.707415
O O7 0.596980 0.735652 0.906960
O O8 0.152645 0.500000 0.539651
O O9 0.251308 0.650999 0.762367
O O10 0.294698 0.600695 0.661619
O O11 0.675446 0.817082 0.175913
O O12 0.250000 0.250000 0.500000
O O13 0.205794 0.414722 0.366614
O O14 0.400066 0.000000 0.921741
O O15 0.500000 0.149584 0.000000
#
# Coordination Sequence:
#
# PCOD8079619 Si02
#       6
#     8   8   8   8   8   8
#     4  10  22  42  65  87 112 144 189 243 296 346
#     4  10  22  37  59  83 115 150 189 240 289 338
#     4  10  21  36  53  80 118 160 194 228 273 335
#     4  11  22  36  59  84 116 152 188 238 280 347
#     4  10  17  33  50  75 115 156 188 228 275 327
#     4  11  20  30  53  83 112 151 198 238 274 328
#
# _framework density 19.45983
#
# number of rings (size 3 to 8) (size 9 to 14) (size 15 to 20)
#    0.000    1.667    5.000    3.000    0.000    4.667 
#    0.000    0.833    0.000    8.000    0.000    0.000 
#    0.000    0.000    0.000    0.000    0.000    0.000 
#
# Total GULP energy -297419.608186 kJ/mol
# GULP energy per Si atom -12392.483674 kJ/mol
# Density = 1.941554 g / cm^3
# Si number density = 19.459830 Si / 1000 Ang^3
#
#
#
# Elastic Constant Matrix: (Units=GPa)
#
#
# Indices 1 2 3 4 5 6 
#
# 1 71.0299 30.5119 21.8062 0.0000 15.8536 0.0000
# 2 30.5119 109.2811 28.1854 0.0000 8.9190 0.0000
# 3 21.8062 28.1854 118.3352 0.0000 16.1676 0.0000
# 4 0.0000 0.0000 0.0000 34.8206 0.0000 4.7360
# 5 15.8536 8.9190 16.1676 0.0000 20.6649 0.0000
# 6 0.0000 0.0000 0.0000 4.7360 0.0000 14.6628
#
#
#
# Elastic Compliance Matrix: (Units=1/GPa)
#
#
# Indices 1 2 3 4 5 6 
#
# 1 0.018747 -0.004036 -0.000858 0.000000 -0.011969 0.000000
# 2 -0.004036 0.010753 -0.001799 0.000000 -0.000137 0.000000
# 3 -0.000858 -0.001799 0.009899 0.000000 -0.006310 0.000000
# 4 0.000000 0.000000 0.000000 0.030038 0.000000 -0.009702
# 5 -0.011969 -0.000137 -0.006310 0.000000 0.062570 0.000000
# 6 0.000000 0.000000 0.000000 -0.009702 0.000000 0.071334
#
#
# Mechanical properties :
#
#
# Convention : Reuss Voigt Hill
#
# Bulk Modulus (GPa) = 38.44135 51.07256 44.75696
# Shear Modulus (GPa) = 22.18301 28.57251 25.37776
#
# Velocity S-wave (km/s) = 3.37996 3.83597 3.61516
# Velocity P-wave (km/s) = 5.91855 6.77655 6.36203
#
# Compressibility (1/GPa) = 0.02601365
#
# Stress axis : x y z
#
# Youngs Moduli (GPa) = 53.34115 92.99971 101.01802
#
# Poissons Ratio (x) = 0.37536 0.08667
# Poissons Ratio (y) = 0.21529 0.18169
# Poissons Ratio (z) = 0.04577 0.16727
#
# Static dielectric constant tensor:
#      x y z
#    x 3.817450 0.000000 0.270020 
#    y 0.000000 3.849940 0.000000 
#    z 0.270020 0.000000 3.496160 
# 
# 
# High freq. dielectric constant tensor:
#      x y z
#    x 1.731100 0.000000 0.008540 
#    y 0.000000 1.769200 0.000000 
#    z 0.008540 0.000000 1.741530 
# 
# From -- ./inp_files/240761.got.cif
#   From: 2010.06.25/outbox.cif.g09.slc.cpg/sg12_121_cif.got.tgz:240761.got - 2010.06.28 00:19:55.
