data_PCOD8079926
_publ_section_title
;
Structure prediction by ZEFSAII (Michael W. Deem and Ramdas Pophale) SiO2 
 PCOD8079926
Probable space group: C 2/M
;
_chemical_formula_sum "Si O2"
_cell_formula_units_Z 64
_cell_length_a 32.895961
_cell_length_b 9.066207
_cell_length_c 13.888870
_cell_angle_alpha 90.000000
_cell_angle_beta 85.552735
_cell_angle_gamma 90.000000
_cell_volume 4129.766936
_symmetry_space_group_name_H-M "C 2/M"
_symmetry_group_IT_number 12
_symmetry_cell_setting 'monoclinic'
loop_
_space_group_symop_operation_xyz
x,y,z
-x,y,-z
-x,-y,-z
x,-y,z
1/2+x,1/2+y,z
1/2-x,1/2+y,-z
1/2-x,1/2-y,-z
1/2+x,1/2-y,z
loop_
_atom_site_type_symbol
_atom_site_label
_atom_site_fract_x
_atom_site_fract_y
_atom_site_fract_z
Si Si1 0.678200 0.673577 0.671439
Si Si2 0.288574 0.667216 0.528668
Si Si3 0.869872 0.328160 0.984374
Si Si4 0.282177 0.175636 0.924329
Si Si5 0.239869 0.174236 0.268135
Si Si6 0.054049 0.165262 0.077732
Si Si7 0.889593 0.673508 0.197519
Si Si8 0.032762 0.167015 0.858523
O O1 0.682001 0.500000 0.695641
O O2 0.675278 0.699523 0.554925
O O3 0.716282 0.760461 0.710374
O O4 0.636722 0.739144 0.719977
O O5 0.275357 0.500000 0.522941
O O6 0.250000 0.750000 0.500000
O O7 0.294391 0.703366 0.641291
O O8 0.875518 0.500000 0.973946
O O9 0.826501 0.275493 0.953188
O O10 0.905516 0.260476 0.910944
O O11 0.873397 0.279875 0.095067
O O12 0.276981 0.238586 0.819258
O O13 0.276471 0.000000 0.926185
O O14 0.250000 0.250000 0.000000
O O15 0.245058 0.000000 0.244285
O O16 0.014305 0.221897 0.144993
O O17 0.064088 0.000000 0.108792
O O18 0.043415 0.170726 0.968137
O O19 0.886158 0.500000 0.216256
O O20 0.936570 0.724163 0.203155
O O21 0.037562 0.000000 0.818356
#
# Coordination Sequence:
#
# PCOD8079926 Si02
#       8
#     8   8   8   8   8   8   8   8
#     4  10  18  29  45  64  85 112 142 173 213 260
#     4   8  16  29  45  63  82 105 136 173 215 257
#     4   9  19  31  41  56  82 112 144 178 210 243
#     4  11  22  34  46  62  85 116 150 183 216 250
#     4  10  19  32  47  63  84 110 142 182 218 253
#     4   8  14  25  42  59  77 104 140 174 206 244
#     4  10  18  27  40  61  87 115 143 173 209 249
#     4   8  14  25  39  58  82 108 136 169 206 248
#
# _framework density 15.497242
#
# number of rings (size 3 to 8) (size 9 to 14) (size 15 to 20)
#    0.000    2.750    0.000    3.000    0.000    4.000 
#    0.000    2.500    0.000    0.000    0.000    0.000 
#    0.000    1.000    0.000   11.250    0.000    6.125 
#
# Total GULP energy -396441.324501 kJ/mol
# GULP energy per Si atom -12388.791391 kJ/mol
# Density = 1.546197 g / cm^3
# Si number density = 15.497242 Si / 1000 Ang^3
#
#
#
# Elastic Constant Matrix: (Units=GPa)
#
#
# Indices 1 2 3 4 5 6 
#
# 1 117.9887 47.2026 52.2200 0.0000 -20.8915 0.0000
# 2 47.2026 62.8382 39.6882 0.0000 -9.6759 0.0000
# 3 52.2200 39.6882 84.8797 0.0000 -15.8243 0.0000
# 4 0.0000 0.0000 0.0000 19.5630 0.0000 -3.8733
# 5 -20.8915 -9.6759 -15.8243 0.0000 17.6130 0.0000
# 6 0.0000 0.0000 0.0000 -3.8733 0.0000 28.2915
#
#
#
# Elastic Compliance Matrix: (Units=1/GPa)
#
#
# Indices 1 2 3 4 5 6 
#
# 1 0.014863 -0.007123 -0.003911 0.000000 0.010202 0.000000
# 2 -0.007123 0.026179 -0.008111 0.000000 -0.001355 0.000000
# 3 -0.003911 -0.008111 0.019561 0.000000 0.008480 0.000000
# 4 0.000000 0.000000 0.000000 0.052541 0.000000 0.007193
# 5 0.010202 -0.001355 0.008480 0.000000 0.075751 0.000000
# 6 0.000000 0.000000 0.000000 0.007193 0.000000 0.036331
#
#
# Mechanical properties :
#
#
# Convention : Reuss Voigt Hill
#
# Bulk Modulus (GPa) = 44.81942 60.43648 52.62795
# Shear Modulus (GPa) = 18.45333 21.53321 19.99327
#
# Velocity S-wave (km/s) = 3.45447 3.73163 3.59572
# Velocity P-wave (km/s) = 6.70036 7.59273 7.16046
#
# Compressibility (1/GPa) = 0.02231176
#
# Stress axis : x y z
#
# Youngs Moduli (GPa) = 67.28343 38.19865 51.12218
#
# Poissons Ratio (x) = 0.27210 0.19994
# Poissons Ratio (y) = 0.47928 0.41465
# Poissons Ratio (z) = 0.26315 0.30983
#
# Static dielectric constant tensor:
#      x y z
#    x 3.183490 0.000000 -0.381240 
#    y 0.000000 3.090200 0.000000 
#    z -0.381240 0.000000 3.329120 
# 
# 
# High freq. dielectric constant tensor:
#      x y z
#    x 1.580520 0.000000 -0.028500 
#    y 0.000000 1.605990 0.000000 
#    z -0.028500 0.000000 1.563420 
# 
# From -- ./inp_files/248444.got.cif
#   From: 2010.06.25/outbox.cif.g09.slc.cpg/sg12_125_cif.got.tgz:248444.got - 2010.06.28 00:19:55.
