data_PCOD8079013
_publ_section_title
;
Structure prediction by ZEFSAII (Michael W. Deem and Ramdas Pophale) SiO2 
 PCOD8079013
Probable space group: C 2/M
;
_chemical_formula_sum "Si O2"
_cell_formula_units_Z 48
_cell_length_a 19.365586
_cell_length_b 30.813909
_cell_length_c 10.602923
_cell_angle_alpha 90.000000
_cell_angle_beta 155.953933
_cell_angle_gamma 90.000000
_cell_volume 2578.100090
_symmetry_space_group_name_H-M "C 2/M"
_symmetry_group_IT_number 12
_symmetry_cell_setting 'monoclinic'
loop_
_space_group_symop_operation_xyz
x,y,z
-x,y,-z
-x,-y,-z
x,-y,z
1/2+x,1/2+y,z
1/2-x,1/2+y,-z
1/2-x,1/2-y,-z
1/2+x,1/2-y,z
loop_
_atom_site_type_symbol
_atom_site_label
_atom_site_fract_x
_atom_site_fract_y
_atom_site_fract_z
Si Si1 0.490026 0.706767 0.633729
Si Si2 0.994431 0.380632 0.638881
Si Si3 0.643700 0.793234 0.633724
Si Si4 0.598011 0.450003 0.355359
Si Si5 0.644447 0.380632 0.638875
Si Si6 0.742646 0.049996 0.644630
O O1 0.500000 0.705886 0.500000
O O2 0.385108 0.750000 0.500003
O O3 0.397131 0.661934 0.516537
O O4 0.673087 0.708858 0.000003
O O5 0.000000 0.390606 0.500000
O O6 0.880597 0.338067 0.483468
O O7 0.916705 0.421495 0.581130
O O8 0.183370 0.372032 0.000003
O O9 0.500000 0.794115 0.500000
O O10 0.614645 0.500000 0.423068
O O11 0.664418 0.421495 0.581116
O O12 0.714033 0.440323 0.428066
O O13 0.403308 0.438596 0.999995
O O14 0.500000 0.390605 0.500000
O O15 0.691571 0.000000 0.576919
#
# Coordination Sequence:
#
# PCOD8079013 Si02
#       6
#     8   8   8   8   8   8
#     4  10  17  28  46  70 101 134 169 207 251 301
#     4  11  21  33  51  77 107 137 172 213 256 300
#     4  10  17  28  46  70 101 134 169 207 251 301
#     4   9  19  37  58  77 100 133 171 210 256 310
#     4  11  21  33  51  77 107 137 172 213 256 300
#     4   9  19  37  58  77 100 133 171 210 256 310
#
# _framework density 18.618361
#
# number of rings (size 3 to 8) (size 9 to 14) (size 15 to 20)
#    0.000    2.000    0.000   10.000    0.000    2.000 
#    0.000    1.667    0.000    1.000    0.000    0.000 
#    0.000    0.000    0.000    0.000    0.000    0.000 
#
# Total GULP energy -297543.639286 kJ/mol
# GULP energy per Si atom -12397.651637 kJ/mol
# Density = 1.857598 g / cm^3
# Si number density = 18.618361 Si / 1000 Ang^3
#
#
#
# Elastic Constant Matrix: (Units=GPa)
#
#
# Indices 1 2 3 4 5 6 
#
# 1 47.1208 49.5280 32.3659 0.0000 -2.5546 0.0000
# 2 49.5280 133.4721 59.7864 0.0000 -0.9133 0.0000
# 3 32.3659 59.7864 162.2882 0.0000 -7.6969 -0.0002
# 4 0.0000 0.0000 0.0000 34.6469 0.0000 -3.2244
# 5 -2.5546 -0.9133 -7.6969 0.0000 22.1843 -0.0001
# 6 0.0000 0.0000 -0.0002 -3.2244 -0.0001 -1.5834
#
#
#
# Elastic Compliance Matrix: (Units=1/GPa)
#
#
# Indices 1 2 3 4 5 6 
#
# 1 0.035907 -0.012163 -0.002550 0.000000 0.002749 -0.000001
# 2 -0.012163 0.013107 -0.002484 0.000000 -0.001723 0.000000
# 3 -0.002550 -0.002484 0.007693 0.000000 0.002273 -0.000001
# 4 0.000000 0.000000 0.000000 0.024264 0.000000 -0.049412
# 5 0.002749 -0.001723 0.002273 0.000000 0.046111 -0.000002
# 6 -0.000001 0.000000 -0.000001 -0.049412 -0.000002 -0.530944
#
#
# Mechanical properties :
#
#
# Convention : Reuss Voigt Hill
#
# Bulk Modulus (GPa) = 44.81824 69.58242 57.20033
# Shear Modulus (GPa) = -13.81106 24.46295 5.32594
#
# Velocity S-wave (km/s) = -2.72655 3.62873 1.69316
# Velocity P-wave (km/s) = 3.76991 7.41694 5.88316
#
# Compressibility (1/GPa) = 0.02231234
#
# Stress axis : x y z
#
# Youngs Moduli (GPa) = 27.84964 76.29674 129.98029
#
# Poissons Ratio (x) = 0.92801 0.33143
# Poissons Ratio (y) = 0.33874 0.32293
# Poissons Ratio (z) = 0.07101 0.18955
#
# Static dielectric constant tensor:
#      x y z
#    x 2.910270 0.000000 -0.043640 
#    y 0.000000 4.272050 0.000000 
#    z -0.043640 0.000000 3.400470 
# 
# 
# High freq. dielectric constant tensor:
#      x y z
#    x 1.666930 0.000000 -0.005990 
#    y 0.000000 1.747930 0.000000 
#    z -0.005990 0.000000 1.734240 
# 
# From -- ./inp_files/170835.got.cif
#   From: 2010.06.25/outbox.cif.g09.slc.cpg/sg12_86_cif.got.tgz:170835.got - 2010.06.28 00:19:55.
