data_PCOD8079514
_publ_section_title
;
Structure prediction by ZEFSAII (Michael W. Deem and Ramdas Pophale) SiO2 
 PCOD8079514
Probable space group: C 2/M
;
_chemical_formula_sum "Si O2"
_cell_formula_units_Z 48
_cell_length_a 14.876978
_cell_length_b 17.167477
_cell_length_c 14.924597
_cell_angle_alpha 90.000000
_cell_angle_beta 140.670353
_cell_angle_gamma 90.000000
_cell_volume 2415.812153
_symmetry_space_group_name_H-M "C 2/M"
_symmetry_group_IT_number 12
_symmetry_cell_setting 'monoclinic'
loop_
_space_group_symop_operation_xyz
x,y,z
-x,y,-z
-x,-y,-z
x,-y,z
1/2+x,1/2+y,z
1/2-x,1/2+y,-z
1/2-x,1/2-y,-z
1/2+x,1/2-y,z
loop_
_atom_site_type_symbol
_atom_site_label
_atom_site_fract_x
_atom_site_fract_y
_atom_site_fract_z
Si Si1 0.646146 0.677264 0.148472
Si Si2 0.146114 0.640322 0.153258
Si Si3 0.832363 0.160571 0.638364
Si Si4 0.200410 0.670720 0.912228
Si Si5 0.127668 0.089708 0.815869
Si Si6 0.867839 0.340343 0.665408
O O1 0.621099 0.768137 0.145619
O O2 0.684146 0.632503 0.270784
O O3 0.767131 0.667605 0.167845
O O4 0.500000 0.639997 0.000000
O O5 0.282474 0.619749 0.199652
O O6 0.174193 0.611258 0.276936
O O7 0.000000 0.603746 0.000000
O O8 0.811499 0.252701 0.625651
O O9 0.709629 0.121776 0.481392
O O10 0.984596 0.139584 0.713351
O O11 0.035462 0.657737 0.789883
O O12 0.250000 0.750000 0.000000
O O13 0.279196 0.600176 0.022849
O O14 0.088132 0.000000 0.772832
#
# Coordination Sequence:
#
# PCOD8079514 Si02
#       6
#     8   8   8   8   8   8
#     4  10  17  31  63  88 113 149 201 251 295 341
#     4  10  18  34  58  88 114 154 201 248 292 349
#     4  10  21  37  54  91 120 154 197 249 304 347
#     4  12  18  37  62  88 115 154 206 252 290 350
#     4  12  24  38  58  89 127 161 196 243 307 371
#     4  10  20  35  62  86 119 149 203 260 290 337
#
# _framework density 19.869095000000002
#
# number of rings (size 3 to 8) (size 9 to 14) (size 15 to 20)
#    0.000    1.333    6.667    1.000    0.000    1.667 
#    0.000    9.167    0.000    0.000    0.000    2.333 
#    0.000    0.000    0.000    0.000    0.000    0.000 
#
# Total GULP energy -297434.253118 kJ/mol
# GULP energy per Si atom -12393.093880 kJ/mol
# Density = 1.982387 g / cm^3
# Si number density = 19.869095 Si / 1000 Ang^3
#
#
#
# Elastic Constant Matrix: (Units=GPa)
#
#
# Indices 1 2 3 4 5 6 
#
# 1 157.8214 9.2189 69.7664 0.0002 -23.9413 0.0002
# 2 9.2189 24.6084 13.1642 0.0001 -9.2514 0.0002
# 3 69.7664 13.1642 160.9722 0.0001 -25.0132 0.0002
# 4 0.0002 0.0001 0.0001 7.6716 0.0001 -2.3200
# 5 -23.9413 -9.2514 -25.0132 0.0001 38.6117 0.0002
# 6 0.0002 0.0002 0.0002 -2.3200 0.0002 4.8186
#
#
#
# Elastic Compliance Matrix: (Units=1/GPa)
#
#
# Indices 1 2 3 4 5 6 
#
# 1 0.008156 -0.000294 -0.003042 0.000000 0.003016 -0.000001
# 2 -0.000294 0.045390 -0.002138 -0.000001 0.009308 -0.000002
# 3 -0.003042 -0.002138 0.008154 0.000000 0.002883 0.000000
# 4 0.000000 -0.000001 0.000000 0.152564 -0.000001 0.073453
# 5 0.003016 0.009308 0.002883 -0.000001 0.031867 -0.000002
# 6 -0.000001 -0.000002 0.000000 0.073453 -0.000002 0.242892
#
#
# Mechanical properties :
#
#
# Convention : Reuss Voigt Hill
#
# Bulk Modulus (GPa) = 19.70428 58.63346 39.16887
# Shear Modulus (GPa) = 9.67328 26.97054 18.32191
#
# Velocity S-wave (km/s) = 2.20886 3.68830 3.03996
# Velocity P-wave (km/s) = 4.05512 6.90739 5.66375
#
# Compressibility (1/GPa) = 0.05075039
#
# Stress axis : x y z
#
# Youngs Moduli (GPa) = 122.61316 22.03137 122.64495
#
# Poissons Ratio (x) = 0.00648 0.37309
# Poissons Ratio (y) = 0.03607 0.26223
# Poissons Ratio (z) = 0.37300 0.04711
#
# Static dielectric constant tensor:
#      x y z
#    x 3.845480 0.000000 -0.461540 
#    y 0.000000 3.142000 0.000000 
#    z -0.461540 0.000000 4.133880 
# 
# 
# High freq. dielectric constant tensor:
#      x y z
#    x 1.789590 0.000000 -0.012090 
#    y 0.000000 1.713680 0.000000 
#    z -0.012090 0.000000 1.781940 
# 
# From -- ./inp_files/216485.got.cif
#   From: 2010.06.25/outbox.cif.g09.slc.cpg/sg12_109_cif.got.tgz:216485.got - 2010.06.28 00:19:55.
