data_PCOD8079557
_publ_section_title
;
Structure prediction by ZEFSAII (Michael W. Deem and Ramdas Pophale) SiO2 
 PCOD8079557
Probable space group: C 2/M
;
_chemical_formula_sum "Si O2"
_cell_formula_units_Z 60
_cell_length_a 23.660140
_cell_length_b 15.614263
_cell_length_c 20.601015
_cell_angle_alpha 90.000000
_cell_angle_beta 153.861242
_cell_angle_gamma 90.000000
_cell_volume 3352.889319
_symmetry_space_group_name_H-M "C 2/M"
_symmetry_group_IT_number 12
_symmetry_cell_setting 'monoclinic'
loop_
_space_group_symop_operation_xyz
x,y,z
-x,y,-z
-x,-y,-z
x,-y,z
1/2+x,1/2+y,z
1/2-x,1/2+y,-z
1/2-x,1/2-y,-z
1/2+x,1/2-y,z
loop_
_atom_site_type_symbol
_atom_site_label
_atom_site_fract_x
_atom_site_fract_y
_atom_site_fract_z
Si Si1 0.257740 0.096478 0.550381
Si Si2 0.500000 0.284237 0.000000
Si Si3 0.359218 0.246435 0.735314
Si Si4 0.510571 0.684442 0.250979
Si Si5 0.688286 0.097162 0.600540
Si Si6 0.711643 0.598577 0.161039
Si Si7 0.979070 0.356784 0.679241
Si Si8 0.744257 0.402509 0.049777
O O1 0.275930 0.164461 0.627625
O O2 0.120248 0.113381 0.374858
O O3 0.371078 0.104162 0.614893
O O4 0.257408 0.000000 0.578136
O O5 0.578091 0.223998 0.130300
O O6 0.587159 0.345644 0.046597
O O7 0.467673 0.264677 0.793716
O O8 0.279155 0.334098 0.658949
O O9 0.521990 0.753687 0.320544
O O10 0.367389 0.647566 0.102956
O O11 0.682845 0.113420 0.672787
O O12 0.549355 0.110258 0.423724
O O13 0.738369 0.000000 0.639292
O O14 0.668233 0.500000 0.114319
O O15 0.763942 0.627569 0.144841
O O16 0.119885 0.388953 0.846025
O O17 0.701490 0.500000 0.002417
#
# Coordination Sequence:
#
# PCOD8079557 Si02
#       8
#     8   4   8   8   8   8   8   8
#     4  11  21  36  56  78 103 136 179 224 263 303
#     4  10  17  32  53  72 106 134 170 216 266 298
#     4  10  19  33  53  79 101 132 175 218 258 308
#     4  11  20  36  52  77 103 139 180 217 252 311
#     4  10  18  31  52  76 103 137 171 206 254 310
#     4   9  19  30  47  75 106 139 173 206 248 312
#     4  11  21  35  52  75 109 142 174 212 264 313
#     4  11  22  34  49  77 111 142 174 210 259 311
#
# _framework density 17.895014
#
# number of rings (size 3 to 8) (size 9 to 14) (size 15 to 20)
#    0.000    1.600    4.000    3.000    0.000    1.600 
#    0.000    2.333    0.000    0.000    0.000    0.000 
#    0.000    4.267    0.000    0.000    0.000    0.000 
#
# Total GULP energy -371824.390693 kJ/mol
# GULP energy per Si atom -12394.146356 kJ/mol
# Density = 1.785428 g / cm^3
# Si number density = 17.895014 Si / 1000 Ang^3
#
#
#
# Elastic Constant Matrix: (Units=GPa)
#
#
# Indices 1 2 3 4 5 6 
#
# 1 40.6831 25.4075 33.0347 0.0008 -4.4644 0.0001
# 2 25.4075 101.5992 46.5255 0.0009 -10.7025 0.0004
# 3 33.0347 46.5255 122.4873 0.0010 -2.2817 0.0003
# 4 0.0008 0.0009 0.0010 24.5636 0.0008 -0.4532
# 5 -4.4644 -10.7025 -2.2817 0.0008 29.1736 0.0002
# 6 0.0001 0.0004 0.0003 -0.4532 0.0002 14.6282
#
#
#
# Elastic Compliance Matrix: (Units=1/GPa)
#
#
# Indices 1 2 3 4 5 6 
#
# 1 0.033776 -0.004844 -0.007217 -0.000001 0.002827 0.000000
# 2 -0.004844 0.013101 -0.003599 0.000000 0.003783 0.000000
# 3 -0.007217 -0.003599 0.011449 0.000000 -0.001529 0.000000
# 4 -0.000001 0.000000 0.000000 0.040734 -0.000001 0.001262
# 5 0.002827 0.003783 -0.001529 -0.000001 0.035979 -0.000001
# 6 0.000000 0.000000 0.000000 0.001262 -0.000001 0.068400
#
#
# Mechanical properties :
#
#
# Convention : Reuss Voigt Hill
#
# Bulk Modulus (GPa) = 37.02927 52.74502 44.88714
# Shear Modulus (GPa) = 20.51200 24.32654 22.41927
#
# Velocity S-wave (km/s) = 3.38929 3.69101 3.54336
# Velocity P-wave (km/s) = 6.00448 6.90677 6.47137
#
# Compressibility (1/GPa) = 0.02700566
#
# Stress axis : x y z
#
# Youngs Moduli (GPa) = 29.60718 76.33179 87.34299
#
# Poissons Ratio (x) = 0.36974 0.63033
# Poissons Ratio (y) = 0.14341 0.31437
# Poissons Ratio (z) = 0.21367 0.27474
#
# Static dielectric constant tensor:
#      x y z
#    x 3.169830 0.000000 -0.152590 
#    y 0.000000 3.278610 0.000000 
#    z -0.152590 0.000000 3.473280 
# 
# 
# High freq. dielectric constant tensor:
#      x y z
#    x 1.664120 0.000000 -0.005010 
#    y 0.000000 1.679380 0.000000 
#    z -0.005010 0.000000 1.702630 
# 
# From -- ./inp_files/325558.got.cif
#   From: 2010.06.25/outbox.cif.g09.slc.cpg/sg12_163_cif.got.tgz:325558.got - 2010.06.28 00:19:55.
