data_PCOD8079768
_publ_section_title
;
Structure prediction by ZEFSAII (Michael W. Deem and Ramdas Pophale) SiO2 
 PCOD8079768
Probable space group: C 2/M
;
_chemical_formula_sum "Si O2"
_cell_formula_units_Z 36
_cell_length_a 22.935810
_cell_length_b 14.790612
_cell_length_c 19.345641
_cell_angle_alpha 90.000000
_cell_angle_beta 163.188828
_cell_angle_gamma 90.000000
_cell_volume 1898.057463
_symmetry_space_group_name_H-M "C 2/M"
_symmetry_group_IT_number 12
_symmetry_cell_setting 'monoclinic'
loop_
_space_group_symop_operation_xyz
x,y,z
-x,y,-z
-x,-y,-z
x,-y,z
1/2+x,1/2+y,z
1/2-x,1/2+y,-z
1/2-x,1/2-y,-z
1/2+x,1/2-y,z
loop_
_atom_site_type_symbol
_atom_site_label
_atom_site_fract_x
_atom_site_fract_y
_atom_site_fract_z
Si Si1 0.000000 0.341033 0.000000
Si Si2 0.282104 0.104016 0.372746
Si Si3 0.435886 0.600864 0.503458
Si Si4 0.124067 0.731966 0.789233
Si Si5 0.126576 0.820230 0.057968
O O1 0.193851 0.401894 0.236341
O O2 0.045291 0.279134 0.984694
O O3 0.443701 0.161782 0.599815
O O4 0.276302 0.144660 0.288277
O O5 0.348772 0.000000 0.446440
O O6 0.064428 0.112130 0.162777
O O7 0.500000 0.632293 0.500000
O O8 0.517325 0.500000 0.611866
O O9 0.535698 0.670944 0.668652
O O10 0.262349 0.684277 0.888584
O O11 0.250000 0.750000 0.000000
#
# Coordination Sequence:
#
# PCOD8079768 Si02
#       5
#     4   8   8   8   8
#     4  10  17  36  65  84 106 142 197 250 285 322
#     4  10  21  39  65  91 113 147 200 252 291 339
#     4  11  21  38  61  87 113 148 200 245 283 336
#     4  12  24  38  58  84 126 162 187 228 293 359
#     4  10  19  37  64  86 114 145 197 243 295 332
#
# _framework density 18.966759
#
# number of rings (size 3 to 8) (size 9 to 14) (size 15 to 20)
#    0.000    1.556    6.667    2.333    0.000    4.444 
#    0.000    0.000    0.000    0.000    0.000    0.000 
#    0.000    0.000    0.000    0.000    0.000    0.000 
#
# Total GULP energy -223207.818766 kJ/mol
# GULP energy per Si atom -12400.434376 kJ/mol
# Density = 1.892359 g / cm^3
# Si number density = 18.966759 Si / 1000 Ang^3
#
#
#
# Elastic Constant Matrix: (Units=GPa)
#
#
# Indices 1 2 3 4 5 6 
#
# 1 53.8784 27.6287 52.4389 0.0676 -5.7424 -0.0077
# 2 27.6287 115.7192 50.3470 -0.0447 -14.7690 -0.0116
# 3 52.4389 50.3470 129.2570 -0.1469 -16.9957 0.0283
# 4 0.0676 -0.0447 -0.1469 11.3550 0.0051 8.1227
# 5 -5.7424 -14.7690 -16.9957 0.0051 26.6433 0.0093
# 6 -0.0077 -0.0116 0.0283 8.1227 0.0093 14.2178
#
#
#
# Elastic Compliance Matrix: (Units=1/GPa)
#
#
# Indices 1 2 3 4 5 6 
#
# 1 0.031318 -0.002545 -0.012022 -0.000642 -0.002329 0.000407
# 2 -0.002545 0.010915 -0.002724 0.000023 0.003764 -0.000003
# 3 -0.012022 -0.002724 0.014339 0.000462 0.005046 -0.000304
# 4 -0.000642 0.000023 0.000462 0.148953 0.000170 -0.085099
# 5 -0.002329 0.003764 0.005046 0.000170 0.042336 -0.000133
# 6 0.000407 -0.000003 -0.000304 -0.085099 -0.000133 0.118953
#
#
# Mechanical properties :
#
#
# Convention : Reuss Voigt Hill
#
# Bulk Modulus (GPa) = 45.47280 62.18709 53.82995
# Shear Modulus (GPa) = 12.23318 21.67255 16.95286
#
# Velocity S-wave (km/s) = 2.54240 3.38399 2.99292
# Velocity P-wave (km/s) = 5.71362 6.93737 6.35502
#
# Compressibility (1/GPa) = 0.02199117
#
# Stress axis : x y z
#
# Youngs Moduli (GPa) = 31.93040 91.61901 69.74126
#
# Poissons Ratio (x) = 0.23313 0.83840
# Poissons Ratio (y) = 0.08125 0.18999
# Poissons Ratio (z) = 0.38385 0.24958
#
# Static dielectric constant tensor:
#      x y z
#    x 3.190350 -0.000030 0.261530 
#    y -0.000030 3.431120 -0.000040 
#    z 0.261530 -0.000040 3.560940 
# 
# 
# High freq. dielectric constant tensor:
#      x y z
#    x 1.702860 0.000000 0.026700 
#    y 0.000000 1.745420 -0.000010 
#    z 0.026700 -0.000010 1.738330 
# 
# From -- ./inp_files/284365.got.cif
#   From: 2010.06.25/outbox.cif.g09.slc.cpg/sg12_143_cif.got.tgz:284365.got - 2010.06.28 00:19:55.
