data_PCOD8079490
_publ_section_title
;
Structure prediction by ZEFSAII (Michael W. Deem and Ramdas Pophale) SiO2 
 PCOD8079490
Probable space group: C 2/M
;
_chemical_formula_sum "Si O2"
_cell_formula_units_Z 44
_cell_length_a 22.170199
_cell_length_b 14.237938
_cell_length_c 11.617641
_cell_angle_alpha 90.000000
_cell_angle_beta 137.567237
_cell_angle_gamma 90.000000
_cell_volume 2474.350098
_symmetry_space_group_name_H-M "C 2/M"
_symmetry_group_IT_number 12
_symmetry_cell_setting 'monoclinic'
loop_
_space_group_symop_operation_xyz
x,y,z
-x,y,-z
-x,-y,-z
x,-y,z
1/2+x,1/2+y,z
1/2-x,1/2+y,-z
1/2-x,1/2-y,-z
1/2+x,1/2-y,z
loop_
_atom_site_type_symbol
_atom_site_label
_atom_site_fract_x
_atom_site_fract_y
_atom_site_fract_z
Si Si1 0.040261 0.000000 0.187629
Si Si2 0.785141 0.000000 0.871040
Si Si3 0.500000 0.224569 0.000000
Si Si4 0.422041 0.658577 0.089468
Si Si5 0.763069 0.000000 0.578737
Si Si6 0.904835 0.395106 0.678970
Si Si7 0.023871 0.687311 0.664923
Si Si8 0.591749 0.000000 0.702018
O O1 0.145586 0.000000 0.362361
O O2 0.007477 0.090996 0.209834
O O3 0.000000 0.000000 0.000000
O O4 0.680519 0.000000 0.750375
O O5 0.799947 0.000000 0.757944
O O6 0.832480 0.903673 0.979904
O O7 0.430891 0.284388 0.981243
O O8 0.564089 0.159323 0.165109
O O9 0.425487 0.726154 0.204825
O O10 0.703237 0.093333 0.470105
O O11 0.948556 0.500000 0.736140
O O12 0.932489 0.337273 0.603938
O O13 0.090155 0.596970 0.771355
O O14 0.000000 0.712602 0.500000
O O15 0.500000 0.000000 0.500000
#
# Coordination Sequence:
#
# PCOD8079490 Si02
#       8
#     4   4   4   8   4   8   8   4
#     4  11  18  38  57  73 111 150 190 215 264 326
#     4  11  20  36  56  77 106 143 199 215 263 332
#     4  10  17  35  54  84 120 136 178 222 286 324
#     4  10  21  35  58  81 105 152 178 227 269 322
#     4  10  17  31  55  83 108 142 188 219 261 331
#     4   9  19  31  55  84 107 149 173 220 276 325
#     4  10  19  36  56  81 110 140 185 225 277 319
#     4  10  19  35  57  75 103 141 173 229 272 317
#
# _framework density 17.782447000000001
#
# number of rings (size 3 to 8) (size 9 to 14) (size 15 to 20)
#    0.545    1.455    3.636    2.455    0.000    0.727 
#    0.000   13.636    0.000    4.364    0.000    0.000 
#    0.000    0.000    0.000    0.000    0.000    0.000 
#
# Total GULP energy -272545.721935 kJ/mol
# GULP energy per Si atom -12388.441906 kJ/mol
# Density = 1.774197 g / cm^3
# Si number density = 17.782447 Si / 1000 Ang^3
#
#
#
# Elastic Constant Matrix: (Units=GPa)
#
#
# Indices 1 2 3 4 5 6 
#
# 1 85.0351 37.7206 53.6366 0.0000 8.9063 0.0000
# 2 37.7206 123.2433 58.7172 0.0000 -6.7925 0.0000
# 3 53.6366 58.7172 89.1675 0.0000 3.5269 0.0000
# 4 0.0000 0.0000 0.0000 21.4228 0.0000 -12.2518
# 5 8.9063 -6.7925 3.5269 0.0000 42.5547 0.0000
# 6 0.0000 0.0000 0.0000 -12.2518 0.0000 27.1107
#
#
#
# Elastic Compliance Matrix: (Units=1/GPa)
#
#
# Indices 1 2 3 4 5 6 
#
# 1 0.019415 -0.000907 -0.010951 0.000000 -0.003301 0.000000
# 2 -0.000907 0.012146 -0.007562 0.000000 0.002755 0.000000
# 3 -0.010951 -0.007562 0.022814 0.000000 -0.000806 0.000000
# 4 0.000000 0.000000 0.000000 0.062948 0.000000 0.028447
# 5 -0.003301 0.002755 -0.000806 0.000000 0.024697 0.000000
# 6 0.000000 0.000000 0.000000 0.028447 0.000000 0.049742
#
#
# Mechanical properties :
#
#
# Convention : Reuss Voigt Hill
#
# Bulk Modulus (GPa) = 64.36846 66.39943 65.38394
# Shear Modulus (GPa) = 21.20625 28.04242 24.62434
#
# Velocity S-wave (km/s) = 3.45706 3.97542 3.72527
# Velocity P-wave (km/s) = 7.22574 7.64806 7.43990
#
# Compressibility (1/GPa) = 0.01553556
#
# Stress axis : x y z
#
# Youngs Moduli (GPa) = 51.50575 82.33098 43.83352
#
# Poissons Ratio (x) = 0.07466 0.48003
# Poissons Ratio (y) = 0.04670 0.33146
# Poissons Ratio (z) = 0.56405 0.62257
#
# Static dielectric constant tensor:
#      x y z
#    x 3.261130 0.000000 0.020410 
#    y 0.000000 3.624860 0.000000 
#    z 0.020410 0.000000 3.050040 
# 
# 
# High freq. dielectric constant tensor:
#      x y z
#    x 1.680300 0.000000 0.002000 
#    y 0.000000 1.699160 0.000000 
#    z 0.002000 0.000000 1.660770 
# 
# From -- ./inp_files/176273.got.cif
#   From: 2010.06.25/outbox.cif.g09.slc.cpg/sg12_89_cif.got.tgz:176273.got - 2010.06.28 00:19:55.
