data_PCOD8079807
_publ_section_title
;
Structure prediction by ZEFSAII (Michael W. Deem and Ramdas Pophale) SiO2 
 PCOD8079807
Probable space group: C 2/M
;
_chemical_formula_sum "Si O2"
_cell_formula_units_Z 48
_cell_length_a 24.612881
_cell_length_b 9.305734
_cell_length_c 14.986636
_cell_angle_alpha 90.000000
_cell_angle_beta 117.084007
_cell_angle_gamma 90.000000
_cell_volume 3056.138941
_symmetry_space_group_name_H-M "C 2/M"
_symmetry_group_IT_number 12
_symmetry_cell_setting 'monoclinic'
loop_
_space_group_symop_operation_xyz
x,y,z
-x,y,-z
-x,-y,-z
x,-y,z
1/2+x,1/2+y,z
1/2-x,1/2+y,-z
1/2-x,1/2-y,-z
1/2+x,1/2-y,z
loop_
_atom_site_type_symbol
_atom_site_label
_atom_site_fract_x
_atom_site_fract_y
_atom_site_fract_z
Si Si1 0.812606 0.167307 0.035127
Si Si2 0.214376 0.666302 0.345629
Si Si3 0.067494 0.330323 0.556210
Si Si4 0.211053 0.162605 0.175893
Si Si5 0.669790 0.165980 0.501477
Si Si6 0.848883 0.332131 0.220930
O O1 0.860796 0.241719 0.138572
O O2 0.804255 0.000000 0.053322
O O3 0.750000 0.250000 0.000000
O O4 0.830635 0.184204 0.944074
O O5 0.226485 0.500000 0.337263
O O6 0.185539 0.735077 0.234938
O O7 0.278610 0.739366 0.414357
O O8 0.167902 0.690851 0.393450
O O9 0.061832 0.500000 0.559430
O O10 0.104903 0.288173 0.494855
O O11 0.102479 0.274911 0.670431
O O12 0.000000 0.260370 0.500000
O O13 0.281538 0.199793 0.208189
O O14 0.205900 0.000000 0.206384
O O15 0.684641 0.000000 0.535444
O O16 0.856977 0.500000 0.205213
#
# Coordination Sequence:
#
# PCOD8079807 Si02
#       6
#     8   8   8   8   8   8
#     4   9  17  27  40  59  84 114 141 171 213 257
#     4  10  18  25  41  64  86 114 141 171 213 254
#     4   9  16  28  47  65  83 114 150 178 210 253
#     4   9  16  27  41  59  86 115 139 170 211 257
#     4   9  17  30  42  59  87 113 142 177 210 252
#     4   9  16  27  42  61  85 112 141 177 213 249
#
# _framework density 15.706092999999999
#
# number of rings (size 3 to 8) (size 9 to 14) (size 15 to 20)
#    0.000    2.833    1.667    2.000    0.000    4.000 
#    0.000    0.000    0.000    2.000    0.000    1.167 
#    0.000    9.333    0.000    0.000    0.000    0.000 
#
# Total GULP energy -297430.395982 kJ/mol
# GULP energy per Si atom -12392.933166 kJ/mol
# Density = 1.567035 g / cm^3
# Si number density = 15.706093 Si / 1000 Ang^3
#
#
#
# Elastic Constant Matrix: (Units=GPa)
#
#
# Indices 1 2 3 4 5 6 
#
# 1 74.8167 30.0140 53.9664 0.0000 -7.9318 0.0000
# 2 30.0140 72.5488 55.3251 0.0000 -15.4192 0.0000
# 3 53.9664 55.3251 133.0344 0.0000 -16.8655 0.0000
# 4 0.0000 0.0000 0.0000 30.7511 0.0000 -6.3214
# 5 -7.9318 -15.4192 -16.8655 0.0000 20.4182 0.0000
# 6 0.0000 0.0000 0.0000 -6.3214 0.0000 11.6897
#
#
#
# Elastic Compliance Matrix: (Units=1/GPa)
#
#
# Indices 1 2 3 4 5 6 
#
# 1 0.019318 -0.002990 -0.006621 0.000000 -0.000223 0.000000
# 2 -0.002990 0.022356 -0.006804 0.000000 0.010101 0.000000
# 3 -0.006621 -0.006804 0.013465 0.000000 0.003412 0.000000
# 4 0.000000 0.000000 0.000000 0.036586 0.000000 0.019785
# 5 -0.000223 0.010101 0.003412 0.000000 0.059336 0.000000
# 6 0.000000 0.000000 0.000000 0.019785 0.000000 0.096245
#
#
# Mechanical properties :
#
#
# Convention : Reuss Voigt Hill
#
# Bulk Modulus (GPa) = 44.82520 62.11234 53.46877
# Shear Modulus (GPa) = 17.38695 21.97807 19.68251
#
# Velocity S-wave (km/s) = 3.33080 3.74483 3.54386
# Velocity P-wave (km/s) = 6.58743 7.63746 7.13180
#
# Compressibility (1/GPa) = 0.02230888
#
# Stress axis : x y z
#
# Youngs Moduli (GPa) = 51.76557 44.73037 74.26763
#
# Poissons Ratio (x) = 0.13374 0.49174
# Poissons Ratio (y) = 0.15478 0.50530
# Poissons Ratio (z) = 0.34275 0.30433
#
# Static dielectric constant tensor:
#      x y z
#    x 2.774830 0.000000 -0.187230 
#    y 0.000000 2.994700 0.000000 
#    z -0.187230 0.000000 3.525360 
# 
# 
# High freq. dielectric constant tensor:
#      x y z
#    x 1.546880 0.000000 -0.025280 
#    y 0.000000 1.595770 0.000000 
#    z -0.025280 0.000000 1.612690 
# 
# From -- ./inp_files/236585.got.cif
#   From: 2010.06.25/outbox.cif.g09.slc.cpg/sg12_119_cif.got.tgz:236585.got - 2010.06.28 00:19:55.
