data_PCOD8079787
_publ_section_title
;
Structure prediction by ZEFSAII (Michael W. Deem and Ramdas Pophale) SiO2 
 PCOD8079787
Probable space group: C 2/M
;
_chemical_formula_sum "Si O2"
_cell_formula_units_Z 40
_cell_length_a 12.060004
_cell_length_b 21.557691
_cell_length_c 12.389725
_cell_angle_alpha 90.000000
_cell_angle_beta 41.156616
_cell_angle_gamma 90.000000
_cell_volume 2119.903793
_symmetry_space_group_name_H-M "C 2/M"
_symmetry_group_IT_number 12
_symmetry_cell_setting 'monoclinic'
loop_
_space_group_symop_operation_xyz
x,y,z
-x,y,-z
-x,-y,-z
x,-y,z
1/2+x,1/2+y,z
1/2-x,1/2+y,-z
1/2-x,1/2-y,-z
1/2+x,1/2-y,z
loop_
_atom_site_type_symbol
_atom_site_label
_atom_site_fract_x
_atom_site_fract_y
_atom_site_fract_z
Si Si1 0.321483 0.570135 0.325433
Si Si2 0.000000 0.351433 0.500000
Si Si3 0.168347 0.329848 0.944768
Si Si4 0.000000 0.878465 0.000000
Si Si5 0.821574 0.301663 0.826554
Si Si6 0.434182 0.573199 0.666755
O O1 0.262487 0.500000 0.379924
O O2 0.456951 0.577011 0.130826
O O3 0.412072 0.592314 0.368217
O O4 0.156015 0.607970 0.422119
O O5 0.039890 0.309459 0.367690
O O6 0.296199 0.271938 0.852204
O O7 0.265957 0.389442 0.824874
O O8 0.113871 0.335188 0.110679
O O9 0.000000 0.318289 0.000000
O O10 0.149947 0.833382 0.918943
O O11 0.500000 0.591207 0.500000
O O12 0.390307 0.500000 0.707683
#
# Coordination Sequence:
#
# PCOD8079787 Si02
#       6
#     8   4   8   4   8   8
#     4  10  20  37  59  85 116 155 193 238 292 341
#     4  10  23  36  60  88 121 148 190 250 286 354
#     4  11  23  40  63  84 117 156 197 238 294 349
#     4  10  17  38  58  82 117 150 192 242 286 352
#     4  10  22  39  57  92 116 149 192 246 291 347
#     4  10  23  41  60  85 119 156 200 243 283 343
#
# _framework density 18.868780999999998
#
# number of rings (size 3 to 8) (size 9 to 14) (size 15 to 20)
#    0.000    1.800    3.000    0.600    4.200    0.400 
#    0.000    3.000    0.000    0.000    0.000    0.000 
#    0.000    0.000    0.000    0.000    0.000    0.000 
#
# Total GULP energy -247966.368602 kJ/mol
# GULP energy per Si atom -12398.318430 kJ/mol
# Density = 1.882584 g / cm^3
# Si number density = 18.868781 Si / 1000 Ang^3
#
#
#
# Elastic Constant Matrix: (Units=GPa)
#
#
# Indices 1 2 3 4 5 6 
#
# 1 86.8526 31.0845 59.2164 -0.0002 39.1261 0.0002
# 2 31.0845 61.4036 36.6071 -0.0004 4.1694 0.0003
# 3 59.2164 36.6071 137.7078 -0.0005 27.5278 0.0005
# 4 -0.0002 -0.0004 -0.0005 23.3277 0.0004 5.0056
# 5 39.1261 4.1694 27.5278 0.0004 30.3956 -0.0003
# 6 0.0002 0.0003 0.0005 5.0056 -0.0003 25.4836
#
#
#
# Elastic Compliance Matrix: (Units=1/GPa)
#
#
# Indices 1 2 3 4 5 6 
#
# 1 0.040676 -0.014910 -0.004237 0.000001 -0.046477 -0.000001
# 2 -0.014910 0.024968 -0.004125 0.000000 0.019503 0.000000
# 3 -0.004237 -0.004125 0.010961 0.000000 -0.003907 0.000000
# 4 0.000001 0.000000 0.000000 0.044754 -0.000002 -0.008791
# 5 -0.046477 0.019503 -0.003907 -0.000002 0.093590 0.000002
# 6 -0.000001 0.000000 0.000000 -0.008791 0.000002 0.040968
#
#
# Mechanical properties :
#
#
# Convention : Reuss Voigt Hill
#
# Bulk Modulus (GPa) = 33.26355 59.97556 46.61956
# Shear Modulus (GPa) = 16.00100 26.44510 21.22305
#
# Velocity S-wave (km/s) = 2.91523 3.74776 3.35740
# Velocity P-wave (km/s) = 5.38503 7.11212 6.30796
#
# Compressibility (1/GPa) = 0.03006293
#
# Stress axis : x y z
#
# Youngs Moduli (GPa) = 24.58434 40.05103 91.23055
#
# Poissons Ratio (x) = 0.59715 0.38656
# Poissons Ratio (y) = 0.36655 0.37628
# Poissons Ratio (z) = 0.10417 0.16519
#
# Static dielectric constant tensor:
#      x y z
#    x 3.543830 0.000000 0.323230 
#    y 0.000000 3.409980 0.000000 
#    z 0.323230 0.000000 3.656580 
# 
# 
# High freq. dielectric constant tensor:
#      x y z
#    x 1.747200 0.000000 0.014440 
#    y 0.000000 1.730630 0.000000 
#    z 0.014440 0.000000 1.734340 
# 
# From -- ./inp_files/50459.got.cif
#   From: 2010.06.25/outbox.cif.g09.slc.cpg/sg12_26_cif.got.tgz:50459.got - 2010.06.28 00:19:55.
