data_PCOD8079407
_publ_section_title
;
Structure prediction by ZEFSAII (Michael W. Deem and Ramdas Pophale) SiO2 
 PCOD8079407
Probable space group: C 2/M
;
_chemical_formula_sum "Si O2"
_cell_formula_units_Z 40
_cell_length_a 21.322846
_cell_length_b 14.257238
_cell_length_c 22.711322
_cell_angle_alpha 90.000000
_cell_angle_beta 19.374267
_cell_angle_gamma 90.000000
_cell_volume 2290.432601
_symmetry_space_group_name_H-M "C 2/M"
_symmetry_group_IT_number 12
_symmetry_cell_setting 'monoclinic'
loop_
_space_group_symop_operation_xyz
x,y,z
-x,y,-z
-x,-y,-z
x,-y,z
1/2+x,1/2+y,z
1/2-x,1/2+y,-z
1/2-x,1/2-y,-z
1/2+x,1/2-y,z
loop_
_atom_site_type_symbol
_atom_site_label
_atom_site_fract_x
_atom_site_fract_y
_atom_site_fract_z
Si Si1 0.018278 0.398102 0.775005
Si Si2 0.445570 0.608198 0.982550
Si Si3 0.047031 0.673720 0.296193
Si Si4 0.354361 0.671146 0.869444
Si Si5 0.653868 0.298590 0.692872
O O1 0.115703 0.500000 0.699551
O O2 0.006418 0.381606 0.715627
O O3 0.136387 0.314342 0.700561
O O4 0.805778 0.408669 0.992125
O O5 0.493485 0.500000 0.927355
O O6 0.223056 0.624957 0.171540
O O7 0.500000 0.637401 0.000000
O O8 0.569858 0.672988 0.829910
O O9 0.872258 0.671650 0.496215
O O10 0.092062 0.783356 0.240930
O O11 0.542979 0.644636 0.738994
O O12 0.250000 0.750000 0.000000
#
# Coordination Sequence:
#
# PCOD8079407 Si02
#       5
#     8   8   8   8   8
#     4  10  17  30  55  83 109 139 168 206 261 319
#     4  11  23  37  53  75 103 138 182 219 251 304
#     4  10  18  34  54  75 109 140 168 211 260 310
#     4   8  14  29  50  75 101 135 165 199 254 309
#     4  10  19  35  54  74 109 142 170 213 262 309
#
# _framework density 17.463950000000001
#
# number of rings (size 3 to 8) (size 9 to 14) (size 15 to 20)
#    0.000    2.600    6.000    3.000    0.000    2.400 
#    0.000    5.000    0.000    0.600    0.000    1.400 
#    0.000    0.000    0.000    0.000    0.000    0.000 
#
# Total GULP energy -247783.378254 kJ/mol
# GULP energy per Si atom -12389.168913 kJ/mol
# Density = 1.742420 g / cm^3
# Si number density = 17.463950 Si / 1000 Ang^3
#
#
#
# Elastic Constant Matrix: (Units=GPa)
#
#
# Indices 1 2 3 4 5 6 
#
# 1 79.9048 34.5151 29.6348 0.0034 6.6509 -0.0028
# 2 34.5151 85.8597 28.4793 -0.0030 5.6302 0.0002
# 3 29.6348 28.4793 120.6693 -0.0016 -6.0636 -0.0011
# 4 0.0034 -0.0030 -0.0016 11.9685 -0.0019 -2.1723
# 5 6.6509 5.6302 -6.0636 -0.0019 7.8152 0.0020
# 6 -0.0028 0.0002 -0.0011 -2.1723 0.0020 19.8745
#
#
#
# Elastic Compliance Matrix: (Units=1/GPa)
#
#
# Indices 1 2 3 4 5 6 
#
# 1 0.017135 -0.004696 -0.003811 -0.000008 -0.014157 0.000003
# 2 -0.004696 0.015080 -0.002863 0.000003 -0.009089 0.000000
# 3 -0.003811 -0.002863 0.010578 0.000004 0.013513 -0.000001
# 4 -0.000008 0.000003 0.000004 0.085244 0.000026 0.009317
# 5 -0.014157 -0.009089 0.013513 0.000026 0.157034 -0.000014
# 6 0.000003 0.000000 -0.000001 0.009317 -0.000014 0.051334
#
#
# Mechanical properties :
#
#
# Convention : Reuss Voigt Hill
#
# Bulk Modulus (GPa) = 49.86601 52.41023 51.13812
# Shear Modulus (GPa) = 13.66761 20.85196 17.25978
#
# Velocity S-wave (km/s) = 2.80057 3.45918 3.14715
# Velocity P-wave (km/s) = 6.25086 6.78456 6.52317
#
# Compressibility (1/GPa) = 0.02005374
#
# Stress axis : x y z
#
# Youngs Moduli (GPa) = 58.35982 66.31282 94.53847
#
# Poissons Ratio (x) = 0.31139 0.36031
# Poissons Ratio (y) = 0.27404 0.27062
# Poissons Ratio (z) = 0.22242 0.18982
#
# Static dielectric constant tensor:
#      x y z
#    x 2.948860 0.000020 -0.138990 
#    y 0.000020 3.445910 0.000140 
#    z -0.138990 0.000140 3.668820 
# 
# 
# High freq. dielectric constant tensor:
#      x y z
#    x 1.625920 0.000000 -0.005040 
#    y 0.000000 1.658900 0.000000 
#    z -0.005040 0.000000 1.685550 
# 
# From -- ./inp_files/322041.got.cif
#   From: 2010.06.25/outbox.cif.g09.slc.cpg/sg12_162_cif.got.tgz:322041.got - 2010.06.28 00:19:55.
