data_PCOD8079116
_publ_section_title
;
Structure prediction by ZEFSAII (Michael W. Deem and Ramdas Pophale) SiO2 
 PCOD8079116
Probable space group: C 2/M
;
_chemical_formula_sum "Si O2"
_cell_formula_units_Z 64
_cell_length_a 15.886591
_cell_length_b 22.798038
_cell_length_c 15.081834
_cell_angle_alpha 90.000000
_cell_angle_beta 37.552778
_cell_angle_gamma 90.000000
_cell_volume 3329.280071
_symmetry_space_group_name_H-M "C 2/M"
_symmetry_group_IT_number 12
_symmetry_cell_setting 'monoclinic'
loop_
_space_group_symop_operation_xyz
x,y,z
-x,y,-z
-x,-y,-z
x,-y,z
1/2+x,1/2+y,z
1/2-x,1/2+y,-z
1/2-x,1/2-y,-z
1/2+x,1/2-y,z
loop_
_atom_site_type_symbol
_atom_site_label
_atom_site_fract_x
_atom_site_fract_y
_atom_site_fract_z
Si Si1 0.632300 0.437235 0.271642
Si Si2 0.959151 0.360438 0.828066
Si Si3 0.210372 0.932316 0.005121
Si Si4 0.539534 0.328781 0.068967
Si Si5 0.434889 0.314679 0.642827
Si Si6 0.904825 0.756965 0.334971
Si Si7 0.400970 0.934614 0.156639
Si Si8 0.641884 0.214557 0.936836
O O1 0.553122 0.500000 0.344544
O O2 0.529298 0.383896 0.376675
O O3 0.745390 0.434148 0.254324
O O4 0.704722 0.432951 0.115861
O O5 0.858158 0.402791 0.854002
O O6 0.037125 0.308856 0.713173
O O7 0.083444 0.398408 0.766181
O O8 0.858062 0.332856 0.985895
O O9 0.198630 0.000000 0.978781
O O10 0.087428 0.890850 0.070227
O O11 0.420217 0.295310 0.229932
O O12 0.500000 0.342689 0.000000
O O13 0.662032 0.280056 0.961745
O O14 0.500000 0.288178 0.500000
O O15 0.496087 0.287005 0.678275
O O16 0.271576 0.302492 0.767975
O O17 0.750000 0.750000 0.500000
O O18 0.456040 0.000000 0.129414
O O19 0.500000 0.904748 0.000000
O O20 0.500000 0.215041 0.000000
#
# Coordination Sequence:
#
# PCOD8079116 Si02
#       8
#     8   8   8   8   8   8   8   8
#     4  10  20  34  53  82 122 161 198 245 300 370
#     4  11  19  34  60  81 120 158 200 244 302 363
#     4  11  20  35  60  89 116 150 203 266 312 355
#     4  10  22  40  65  85 116 155 210 259 313 356
#     4  12  24  37  61  87 128 164 206 247 317 372
#     4  11  26  42  58  91 130 163 207 257 311 372
#     4  10  17  28  52  88 120 150 193 241 296 357
#     4  10  20  35  59  89 117 155 200 246 305 368
#
# _framework density 19.223375000000001
#
# number of rings (size 3 to 8) (size 9 to 14) (size 15 to 20)
#    0.000    1.375    3.750    2.250    7.000    3.000 
#    0.000    0.000    0.000    1.500    0.000    0.875 
#    0.000    0.000    0.000    0.000    0.000    0.000 
#
# Total GULP energy -396419.997271 kJ/mol
# GULP energy per Si atom -12388.124915 kJ/mol
# Density = 1.917962 g / cm^3
# Si number density = 19.223375 Si / 1000 Ang^3
#
#
#
# Elastic Constant Matrix: (Units=GPa)
#
#
# Indices 1 2 3 4 5 6 
#
# 1 77.9281 41.8273 28.6641 0.0044 -0.1573 0.0019
# 2 41.8273 149.4150 32.3449 0.0037 -3.4139 0.0020
# 3 28.6641 32.3449 99.4831 0.0182 -0.8222 -0.0014
# 4 0.0044 0.0037 0.0182 5.0422 -0.0074 -1.8732
# 5 -0.1573 -3.4139 -0.8222 -0.0074 19.5296 -0.0003
# 6 0.0019 0.0020 -0.0014 -1.8732 -0.0003 29.2830
#
#
#
# Elastic Compliance Matrix: (Units=1/GPa)
#
#
# Indices 1 2 3 4 5 6 
#
# 1 0.016122 -0.003789 -0.003419 0.000000 -0.000676 -0.000001
# 2 -0.003789 0.008116 -0.001536 0.000005 0.001324 0.000000
# 3 -0.003419 -0.001536 0.011538 -0.000038 0.000190 -0.000002
# 4 0.000000 0.000005 -0.000038 0.203154 0.000076 0.012995
# 5 -0.000676 0.001324 0.000190 0.000076 0.051438 0.000005
# 6 -0.000001 0.000000 -0.000002 0.012995 0.000005 0.034981
#
#
# Mechanical properties :
#
#
# Convention : Reuss Voigt Hill
#
# Bulk Modulus (GPa) = 54.67885 59.16655 56.92270
# Shear Modulus (GPa) = 14.32938 25.70361 20.01650
#
# Velocity S-wave (km/s) = 2.73319 3.66061 3.23035
# Velocity P-wave (km/s) = 6.20211 6.97940 6.60220
#
# Compressibility (1/GPa) = 0.01828861
#
# Stress axis : x y z
#
# Youngs Moduli (GPa) = 62.02677 123.21133 86.66884
#
# Poissons Ratio (x) = 0.46679 0.29633
# Poissons Ratio (y) = 0.23499 0.13315
# Poissons Ratio (z) = 0.21208 0.18929
#
# Static dielectric constant tensor:
#      x y z
#    x 3.340970 -0.000010 0.090870 
#    y -0.000010 4.188760 0.000020 
#    z 0.090870 0.000020 3.140770 
# 
# 
# High freq. dielectric constant tensor:
#      x y z
#    x 1.730960 0.000000 -0.003700 
#    y 0.000000 1.772760 0.000000 
#    z -0.003700 0.000000 1.710990 
# 
# From -- ./inp_files/218492.got.cif
#   From: 2010.06.25/outbox.cif.g09.slc.cpg/sg12_110_cif.got.tgz:218492.got - 2010.06.28 00:19:55.
