data_PCOD8079441
_publ_section_title
;
Structure prediction by ZEFSAII (Michael W. Deem and Ramdas Pophale) SiO2 
 PCOD8079441
Probable space group: C 2/M
;
_chemical_formula_sum "Si O2"
_cell_formula_units_Z 48
_cell_length_a 23.283039
_cell_length_b 22.389093
_cell_length_c 5.826729
_cell_angle_alpha 90.000000
_cell_angle_beta 74.251321
_cell_angle_gamma 90.000000
_cell_volume 2923.373791
_symmetry_space_group_name_H-M "C 2/M"
_symmetry_group_IT_number 12
_symmetry_cell_setting 'monoclinic'
loop_
_space_group_symop_operation_xyz
x,y,z
-x,y,-z
-x,-y,-z
x,-y,z
1/2+x,1/2+y,z
1/2-x,1/2+y,-z
1/2-x,1/2-y,-z
1/2+x,1/2-y,z
loop_
_atom_site_type_symbol
_atom_site_label
_atom_site_fract_x
_atom_site_fract_y
_atom_site_fract_z
Si Si1 0.264674 0.165898 0.660555
Si Si2 0.834615 0.431842 0.342342
Si Si3 0.438823 0.121552 0.483263
Si Si4 0.649766 0.157591 0.052083
Si Si5 0.157572 0.240651 0.684602
Si Si6 0.469308 0.756280 0.280833
O O1 0.278996 0.106496 0.498534
O O2 0.285020 0.155204 0.899041
O O3 0.194701 0.181526 0.717961
O O4 0.304592 0.221945 0.538956
O O5 0.814385 0.500000 0.338060
O O6 0.892963 0.427910 0.441813
O O7 0.854508 0.404391 0.080461
O O8 0.500000 0.089623 0.500000
O O9 0.406719 0.158920 0.719156
O O10 0.455747 0.172441 0.278649
O O11 0.644792 0.218025 0.916525
O O12 0.094108 0.220830 0.647304
O O13 0.500000 0.741679 0.500000
O O14 0.500000 0.738700 0.000000
#
# Coordination Sequence:
#
# PCOD8079441 Si02
#       6
#     8   8   8   8   8   8
#     4   9  19  31  50  70  93 128 163 212 255 305
#     4  10  21  34  46  65  93 128 177 222 255 286
#     4  10  20  31  48  65  96 136 174 207 249 293
#     4  10  17  32  45  71  93 133 164 214 253 299
#     4  10  17  31  49  74  98 123 168 197 257 313
#     4  11  21  32  52  77 108 139 166 205 254 308
#
# _framework density 16.419384999999998
#
# number of rings (size 3 to 8) (size 9 to 14) (size 15 to 20)
#    0.000    2.000    5.000    2.500    0.000    3.000 
#    0.000    0.833    0.000    0.000    0.000    0.000 
#    0.000    1.333    0.000    0.000    0.000    0.000 
#
# Total GULP energy -297322.192207 kJ/mol
# GULP energy per Si atom -12388.424675 kJ/mol
# Density = 1.638201 g / cm^3
# Si number density = 16.419385 Si / 1000 Ang^3
#
#
#
# Elastic Constant Matrix: (Units=GPa)
#
#
# Indices 1 2 3 4 5 6 
#
# 1 115.2031 48.4212 35.4268 0.0000 -1.0277 0.0000
# 2 48.4212 64.2084 15.6144 0.0000 0.6556 0.0000
# 3 35.4268 15.6144 74.8340 0.0000 10.2744 0.0000
# 4 0.0000 0.0000 0.0000 3.5126 0.0000 3.2803
# 5 -1.0277 0.6556 10.2744 0.0000 12.1204 0.0000
# 6 0.0000 0.0000 0.0000 3.2803 0.0000 18.9305
#
#
#
# Elastic Compliance Matrix: (Units=1/GPa)
#
#
# Indices 1 2 3 4 5 6 
#
# 1 0.014583 -0.009654 -0.005807 0.000000 0.006681 0.000000
# 2 -0.009654 0.022853 0.000095 0.000000 -0.002135 0.000000
# 3 -0.005807 0.000095 0.018289 0.000000 -0.016001 0.000000
# 4 0.000000 0.000000 0.000000 0.339647 0.000000 -0.058854
# 5 0.006681 -0.002135 -0.016001 0.000000 0.096751 0.000000
# 6 0.000000 0.000000 0.000000 -0.058854 0.000000 0.063023
#
#
# Mechanical properties :
#
#
# Convention : Reuss Voigt Hill
#
# Bulk Modulus (GPa) = 40.00953 50.35226 45.18090
# Shear Modulus (GPa) = 8.41455 17.23160 12.82307
#
# Velocity S-wave (km/s) = 2.26625 3.24306 2.79762
# Velocity P-wave (km/s) = 5.59178 6.69001 6.16540
#
# Compressibility (1/GPa) = 0.02499405
#
# Stress axis : x y z
#
# Youngs Moduli (GPa) = 68.57247 43.75782 54.67796
#
# Poissons Ratio (x) = 0.42242 0.31750
# Poissons Ratio (y) = 0.66197 -0.00519
# Poissons Ratio (z) = 0.39818 -0.00415
#
# Static dielectric constant tensor:
#      x y z
#    x 3.446560 0.000000 0.176930 
#    y 0.000000 2.643820 0.000000 
#    z 0.176930 0.000000 3.246810 
# 
# 
# High freq. dielectric constant tensor:
#      x y z
#    x 1.634200 0.000000 0.011980 
#    y 0.000000 1.566050 0.000000 
#    z 0.011980 0.000000 1.643400 
# 
# From -- ./inp_files/17226.got.cif
#   From: 2010.06.25/outbox.cif.g09.slc.cpg/sg12_9_cif.got.tgz:17226.got - 2010.06.28 00:19:55.
