data_PCOD8079316
_publ_section_title
;
Structure prediction by ZEFSAII (Michael W. Deem and Ramdas Pophale) SiO2 
 PCOD8079316
Probable space group: C 2/M
;
_chemical_formula_sum "Si O2"
_cell_formula_units_Z 64
_cell_length_a 28.742303
_cell_length_b 8.920269
_cell_length_c 15.722389
_cell_angle_alpha 90.000000
_cell_angle_beta 90.392346
_cell_angle_gamma 90.000000
_cell_volume 4030.954253
_symmetry_space_group_name_H-M "C 2/M"
_symmetry_group_IT_number 12
_symmetry_cell_setting 'monoclinic'
loop_
_space_group_symop_operation_xyz
x,y,z
-x,y,-z
-x,-y,-z
x,-y,z
1/2+x,1/2+y,z
1/2-x,1/2+y,-z
1/2-x,1/2-y,-z
1/2+x,1/2-y,z
loop_
_atom_site_type_symbol
_atom_site_label
_atom_site_fract_x
_atom_site_fract_y
_atom_site_fract_z
Si Si1 0.697183 0.175171 0.675287
Si Si2 0.802442 0.177823 0.676440
Si Si3 0.142205 0.823164 0.158132
Si Si4 0.552605 0.822632 0.098929
Si Si5 0.800314 0.178232 0.005795
Si Si6 0.799770 0.324141 0.509778
Si Si7 0.354441 0.821583 0.161132
Si Si8 0.450411 0.823477 0.092414
O O1 0.749594 0.239869 0.685493
O O2 0.675180 0.208010 0.581233
O O3 0.663282 0.239438 0.747802
O O4 0.701654 0.000000 0.690680
O O5 0.831341 0.234749 0.757639
O O6 0.825451 0.248681 0.590885
O O7 0.803721 0.000000 0.667246
O O8 0.090659 0.754434 0.159174
O O9 0.137782 0.000000 0.159197
O O10 0.170642 0.768669 0.076086
O O11 0.500762 0.769664 0.128013
O O12 0.558981 0.000000 0.106275
O O13 0.559778 0.762728 0.002611
O O14 0.825118 0.238791 0.089518
O O15 0.795861 0.000000 0.009495
O O16 0.750000 0.250000 0.000000
O O17 0.794655 0.500000 0.525753
O O18 0.750000 0.250000 0.500000
O O19 0.408732 0.773999 0.154343
O O20 0.348395 0.000000 0.149798
O O21 0.453344 0.000000 0.083280
#
# Coordination Sequence:
#
# PCOD8079316 Si02
#       8
#     8   8   8   8   8   8   8   8
#     4   8  15  27  45  65  87 114 143 176 216 258
#     4   9  17  30  44  61  87 117 147 181 218 260
#     4  10  20  32  45  64  90 119 150 185 224 260
#     4   9  16  29  46  66  88 113 148 187 221 261
#     4  11  22  33  43  60  89 122 153 182 212 252
#     4   9  16  28  44  64  87 112 143 181 220 258
#     4  10  17  30  49  66  86 119 151 177 216 264
#     4   8  15  27  46  67  88 113 145 185 224 260
#
# _framework density 15.877134
#
# number of rings (size 3 to 8) (size 9 to 14) (size 15 to 20)
#    0.000    2.750    1.250    3.000    0.000    3.000 
#    0.000    7.500    0.000    0.000    0.000    0.875 
#    0.000    7.000    0.000    0.000    0.000    0.000 
#
# Total GULP energy -396545.316503 kJ/mol
# GULP energy per Si atom -12392.041141 kJ/mol
# Density = 1.584100 g / cm^3
# Si number density = 15.877134 Si / 1000 Ang^3
#
#
#
# Elastic Constant Matrix: (Units=GPa)
#
#
# Indices 1 2 3 4 5 6 
#
# 1 113.1954 22.3907 65.7084 0.0000 -4.1102 0.0000
# 2 22.3907 28.6066 28.7530 0.0000 -2.6329 0.0000
# 3 65.7084 28.7530 140.0775 0.0000 -7.3818 0.0000
# 4 0.0000 0.0000 0.0000 23.1504 0.0000 4.8307
# 5 -4.1102 -2.6329 -7.3818 0.0000 11.7401 0.0000
# 6 0.0000 0.0000 0.0000 4.8307 0.0000 20.1151
#
#
#
# Elastic Compliance Matrix: (Units=1/GPa)
#
#
# Indices 1 2 3 4 5 6 
#
# 1 0.012678 -0.004960 -0.004917 0.000000 0.000235 0.000000
# 2 -0.004960 0.046199 -0.006932 0.000000 0.004266 0.000000
# 3 -0.004917 -0.006932 0.011062 0.000000 0.003680 0.000000
# 4 0.000000 0.000000 0.000000 0.045475 0.000000 -0.010921
# 5 0.000235 0.004266 0.003680 0.000000 0.088531 0.000000
# 6 0.000000 0.000000 0.000000 -0.010921 0.000000 0.052337
#
#
# Mechanical properties :
#
#
# Convention : Reuss Voigt Hill
#
# Bulk Modulus (GPa) = 27.53100 57.28708 42.40904
# Shear Modulus (GPa) = 16.55608 22.00295 19.27951
#
# Velocity S-wave (km/s) = 3.23269 3.72671 3.48845
# Velocity P-wave (km/s) = 5.59566 7.39443 6.55702
#
# Compressibility (1/GPa) = 0.03632269
#
# Stress axis : x y z
#
# Youngs Moduli (GPa) = 78.87755 21.64559 90.40018
#
# Poissons Ratio (x) = 0.10736 0.44446
# Poissons Ratio (y) = 0.39121 0.62662
# Poissons Ratio (z) = 0.38781 0.15004
#
# Static dielectric constant tensor:
#      x y z
#    x 2.471180 0.000000 -0.142620 
#    y 0.000000 2.848970 0.000000 
#    z -0.142620 0.000000 3.362640 
# 
# 
# High freq. dielectric constant tensor:
#      x y z
#    x 1.591340 0.000000 -0.001310 
#    y 0.000000 1.591260 0.000000 
#    z -0.001310 0.000000 1.604850 
# 
# From -- ./inp_files/248352.got.cif
#   From: 2010.06.25/outbox.cif.g09.slc.cpg/sg12_125_cif.got.tgz:248352.got - 2010.06.28 00:19:55.
