data_PCOD8079224
_publ_section_title
;
Structure prediction by ZEFSAII (Michael W. Deem and Ramdas Pophale) SiO2 
 PCOD8079224
Probable space group: C 2/M
;
_chemical_formula_sum "Si O2"
_cell_formula_units_Z 48
_cell_length_a 15.524104
_cell_length_b 9.107312
_cell_length_c 28.773983
_cell_angle_alpha 90.000000
_cell_angle_beta 143.262956
_cell_angle_gamma 90.000000
_cell_volume 2433.335867
_symmetry_space_group_name_H-M "C 2/M"
_symmetry_group_IT_number 12
_symmetry_cell_setting 'monoclinic'
loop_
_space_group_symop_operation_xyz
x,y,z
-x,y,-z
-x,-y,-z
x,-y,z
1/2+x,1/2+y,z
1/2-x,1/2+y,-z
1/2-x,1/2-y,-z
1/2+x,1/2-y,z
loop_
_atom_site_type_symbol
_atom_site_label
_atom_site_fract_x
_atom_site_fract_y
_atom_site_fract_z
Si Si1 0.673903 0.173069 0.346685
Si Si2 0.158248 0.169294 0.171347
Si Si3 0.608999 0.837538 0.504099
Si Si4 0.876389 0.675012 0.082794
Si Si5 0.868756 0.673367 0.184747
Si Si6 0.660500 0.831204 0.661415
O O1 0.754470 0.232924 0.427641
O O2 0.509638 0.231410 0.273162
O O3 0.747482 0.225156 0.331108
O O4 0.682566 0.000000 0.352847
O O5 0.224131 0.217855 0.150034
O O6 0.288689 0.189094 0.264016
O O7 0.027536 0.275845 0.126405
O O8 0.104783 0.000000 0.147355
O O9 0.500000 0.829325 0.500000
O O10 0.510928 0.791701 0.416971
O O11 0.672420 0.000000 0.524918
O O12 0.863464 0.500000 0.074052
O O13 0.863878 0.734852 0.130185
O O14 0.750000 0.750000 0.000000
O O15 0.881030 0.500000 0.187169
O O16 0.682412 0.000000 0.654075
#
# Coordination Sequence:
#
# PCOD8079224 Si02
#       6
#     8   8   8   8   8   8
#     4  10  17  29  50  76 107 146 187 228 272 323
#     4  10  20  38  62  85 109 149 191 224 270 333
#     4   8  15  27  43  71 107 144 184 229 273 317
#     4  11  23  42  63  87 115 144 178 225 278 333
#     4   9  20  37  58  83 115 148 182 225 279 333
#     4   9  17  30  51  76 106 143 187 230 271 320
#
# _framework density 19.726006999999999
#
# number of rings (size 3 to 8) (size 9 to 14) (size 15 to 20)
#    0.000    2.500    1.667    2.000    0.000    3.667 
#    0.000    7.500    0.000    0.000    0.000    0.000 
#    0.000    0.000    0.000    0.000    0.000    0.000 
#
# Total GULP energy -297458.274174 kJ/mol
# GULP energy per Si atom -12394.094757 kJ/mol
# Density = 1.968111 g / cm^3
# Si number density = 19.726007 Si / 1000 Ang^3
#
#
#
# Elastic Constant Matrix: (Units=GPa)
#
#
# Indices 1 2 3 4 5 6 
#
# 1 97.9402 33.5618 58.4347 0.0000 6.0891 0.0000
# 2 33.5618 72.0885 49.5220 0.0000 3.8621 0.0000
# 3 58.4347 49.5220 152.5196 0.0000 10.0840 0.0000
# 4 0.0000 0.0000 0.0000 34.1620 0.0000 4.5678
# 5 6.0891 3.8621 10.0840 0.0000 8.1560 0.0000
# 6 0.0000 0.0000 0.0000 4.5678 0.0000 20.4736
#
#
#
# Elastic Compliance Matrix: (Units=1/GPa)
#
#
# Indices 1 2 3 4 5 6 
#
# 1 0.014049 -0.003619 -0.003950 0.000000 -0.003891 0.000000
# 2 -0.003619 0.018801 -0.004692 0.000000 -0.000401 0.000000
# 3 -0.003950 -0.004692 0.010075 0.000000 -0.007286 0.000000
# 4 0.000000 0.000000 0.000000 0.030172 0.000000 -0.006732
# 5 -0.003891 -0.000401 -0.007286 0.000000 0.134713 0.000000
# 6 0.000000 0.000000 0.000000 -0.006732 0.000000 0.050345
#
#
# Mechanical properties :
#
#
# Convention : Reuss Voigt Hill
#
# Bulk Modulus (GPa) = 54.33621 67.28727 60.81174
# Shear Modulus (GPa) = 17.31232 24.62697 20.96964
#
# Velocity S-wave (km/s) = 2.96571 3.53718 3.26398
# Velocity P-wave (km/s) = 6.27156 7.13212 6.71564
#
# Compressibility (1/GPa) = 0.01840393
#
# Stress axis : x y z
#
# Youngs Moduli (GPa) = 71.17838 53.18876 99.25397
#
# Poissons Ratio (x) = 0.19246 0.39210
# Poissons Ratio (y) = 0.25756 0.46567
# Poissons Ratio (z) = 0.28119 0.24955
#
# Static dielectric constant tensor:
#      x y z
#    x 3.457280 0.000000 -0.030320 
#    y 0.000000 3.421460 0.000000 
#    z -0.030320 0.000000 4.052230 
# 
# 
# High freq. dielectric constant tensor:
#      x y z
#    x 1.745890 0.000000 0.000360 
#    y 0.000000 1.747410 0.000000 
#    z 0.000360 0.000000 1.784840 
# 
# From -- ./inp_files/360330.got.cif
#   From: 2010.06.25/outbox.cif.g09.slc.cpg/sg12_181_cif.got.tgz:360330.got - 2010.06.28 00:19:55.
