data_PCOD8079470
_publ_section_title
;
Structure prediction by ZEFSAII (Michael W. Deem and Ramdas Pophale) SiO2 
 PCOD8079470
Probable space group: C 2/M
;
_chemical_formula_sum "Si O2"
_cell_formula_units_Z 40
_cell_length_a 15.184183
_cell_length_b 22.905364
_cell_length_c 12.376899
_cell_angle_alpha 90.000000
_cell_angle_beta 29.130218
_cell_angle_gamma 90.000000
_cell_volume 2095.499699
_symmetry_space_group_name_H-M "C 2/M"
_symmetry_group_IT_number 12
_symmetry_cell_setting 'monoclinic'
loop_
_space_group_symop_operation_xyz
x,y,z
-x,y,-z
-x,-y,-z
x,-y,z
1/2+x,1/2+y,z
1/2-x,1/2+y,-z
1/2-x,1/2-y,-z
1/2+x,1/2-y,z
loop_
_atom_site_type_symbol
_atom_site_label
_atom_site_fract_x
_atom_site_fract_y
_atom_site_fract_z
Si Si1 0.228217 0.848064 0.492270
Si Si2 0.736053 0.231353 0.357927
Si Si3 0.326378 0.745304 0.799162
Si Si4 0.902079 0.114534 0.709249
Si Si5 0.478047 0.933070 0.897964
O O1 0.185114 0.822551 0.657721
O O2 0.289774 0.794136 0.350122
O O3 0.391188 0.894167 0.316597
O O4 0.044438 0.881219 0.654702
O O5 0.795970 0.225962 0.166530
O O6 0.519913 0.224654 0.594785
O O7 0.335201 0.678860 0.750425
O O8 0.250000 0.750000 0.000000
O O9 0.000000 0.086488 0.500000
O O10 0.727591 0.075521 0.923792
O O11 0.533757 0.000000 0.821539
O O12 0.500000 0.914887 0.000000
#
# Coordination Sequence:
#
# PCOD8079470 Si02
#       5
#     8   8   8   8   8
#     4  10  19  35  53  75 115 144 182 229 276 341
#     4   9  18  32  52  81 111 150 181 216 284 341
#     4  10  17  31  53  80 113 144 180 221 274 340
#     4  11  19  35  50  73 111 146 180 231 278 328
#     4  11  22  33  52  80 107 150 196 232 285 334
#
# _framework density 19.088526000000002
#
# number of rings (size 3 to 8) (size 9 to 14) (size 15 to 20)
#    0.000    1.800    6.000    1.200    0.000    1.200 
#    0.000    8.000    0.000    0.000    0.000   11.200 
#    0.000   20.800    0.000    0.000    0.000    0.000 
#
# Total GULP energy -247873.612143 kJ/mol
# GULP energy per Si atom -12393.680607 kJ/mol
# Density = 1.904508 g / cm^3
# Si number density = 19.088526 Si / 1000 Ang^3
#
#
#
# Elastic Constant Matrix: (Units=GPa)
#
#
# Indices 1 2 3 4 5 6 
#
# 1 117.4418 37.7748 49.2960 -0.0221 16.2299 0.0288
# 2 37.7748 68.2096 36.1936 0.0029 -3.8479 0.0140
# 3 49.2960 36.1936 74.0090 0.0288 9.0745 0.0301
# 4 -0.0221 0.0029 0.0288 24.7440 0.0168 -2.8121
# 5 16.2299 -3.8479 9.0745 0.0168 39.7393 -0.0297
# 6 0.0288 0.0140 0.0301 -2.8121 -0.0297 17.2131
#
#
#
# Elastic Compliance Matrix: (Units=1/GPa)
#
#
# Indices 1 2 3 4 5 6 
#
# 1 0.013027 -0.004237 -0.006072 0.000021 -0.004344 -0.000012
# 2 -0.004237 0.021899 -0.008600 0.000001 0.005815 0.000015
# 3 -0.006072 -0.008600 0.022181 -0.000032 -0.003418 -0.000033
# 4 0.000021 0.000001 -0.000032 0.041179 -0.000014 0.006727
# 5 -0.004344 0.005815 -0.003418 -0.000014 0.028282 0.000055
# 6 -0.000012 0.000015 -0.000033 0.006727 0.000055 0.059195
#
#
# Mechanical properties :
#
#
# Convention : Reuss Voigt Hill
#
# Bulk Modulus (GPa) = 51.84569 56.24323 54.04446
# Shear Modulus (GPa) = 21.73820 25.43234 23.58527
#
# Velocity S-wave (km/s) = 3.37829 3.65408 3.51889
# Velocity P-wave (km/s) = 6.51435 6.87978 6.69956
#
# Compressibility (1/GPa) = 0.01928800
#
# Stress axis : x y z
#
# Youngs Moduli (GPa) = 76.76439 45.66469 45.08329
#
# Poissons Ratio (x) = 0.19350 0.27375
# Poissons Ratio (y) = 0.32528 0.38771
# Poissons Ratio (z) = 0.46612 0.39271
#
# Static dielectric constant tensor:
#      x y z
#    x 2.400090 -0.000610 2.008890 
#    y -0.000610 3.169560 0.000920 
#    z 2.008890 0.000920 0.251770 
# 
# 
# High freq. dielectric constant tensor:
#      x y z
#    x 1.746260 -0.000010 -0.018430 
#    y -0.000010 1.699950 0.000020 
#    z -0.018430 0.000020 1.727130 
# 
# From -- ./inp_files/149255.got.cif
#   From: 2010.06.25/outbox.cif.g09.slc.cpg/sg12_75_cif.got.tgz:149255.got - 2010.06.28 00:19:55.
