data_PCOD8079111
_publ_section_title
;
Structure prediction by ZEFSAII (Michael W. Deem and Ramdas Pophale) SiO2 
 PCOD8079111
Probable space group: C 2/M
;
_chemical_formula_sum "Si O2"
_cell_formula_units_Z 48
_cell_length_a 19.192515
_cell_length_b 16.347811
_cell_length_c 23.940702
_cell_angle_alpha 90.000000
_cell_angle_beta 160.591083
_cell_angle_gamma 90.000000
_cell_volume 2496.140766
_symmetry_space_group_name_H-M "C 2/M"
_symmetry_group_IT_number 12
_symmetry_cell_setting 'monoclinic'
loop_
_space_group_symop_operation_xyz
x,y,z
-x,y,-z
-x,-y,-z
x,-y,z
1/2+x,1/2+y,z
1/2-x,1/2+y,-z
1/2-x,1/2-y,-z
1/2+x,1/2-y,z
loop_
_atom_site_type_symbol
_atom_site_label
_atom_site_fract_x
_atom_site_fract_y
_atom_site_fract_z
Si Si1 0.992207 0.253584 0.198596
Si Si2 0.995042 0.147263 0.304996
Si Si3 0.670411 0.799695 0.770664
Si Si4 0.926080 0.407543 0.666025
Si Si5 0.408107 0.740233 0.845642
Si Si6 0.536096 0.912730 0.962435
O O1 0.059681 0.189089 0.295801
O O2 0.036969 0.346427 0.253734
O O3 0.121769 0.220937 0.242287
O O4 0.750000 0.250000 0.000000
O O5 0.180590 0.088510 0.465132
O O6 0.976683 0.220038 0.336762
O O7 0.782189 0.097540 0.135779
O O8 0.554105 0.879411 0.706964
O O9 0.738416 0.806055 0.756774
O O10 0.864918 0.783269 0.959062
O O11 0.997426 0.500000 0.735662
O O12 0.391567 0.839187 0.831658
O O13 0.466745 0.000000 0.883037
O O14 0.500000 0.916174 0.000000
#
# Coordination Sequence:
#
# PCOD8079111 Si02
#       6
#     8   8   8   8   8   8
#     4  11  19  35  61  85 112 143 194 240 281 331
#     4  10  19  36  56  79 109 156 188 221 278 353
#     4   9  17  34  59  77 109 150 189 225 273 339
#     4  11  23  38  56  84 118 152 189 236 289 335
#     4  10  17  33  55  85 108 141 192 233 277 337
#     4  10  17  28  52  82 109 138 179 232 278 326
#
# _framework density 19.229685
#
# number of rings (size 3 to 8) (size 9 to 14) (size 15 to 20)
#    0.000    1.833    8.333    2.500    0.000    0.667 
#    0.000    5.000    0.000    2.000    0.000    0.000 
#    0.000    0.000    0.000    0.000    0.000    0.000 
#
# Total GULP energy -297319.000462 kJ/mol
# GULP energy per Si atom -12388.291686 kJ/mol
# Density = 1.918592 g / cm^3
# Si number density = 19.229685 Si / 1000 Ang^3
#
#
#
# Elastic Constant Matrix: (Units=GPa)
#
#
# Indices 1 2 3 4 5 6 
#
# 1 146.9029 24.6175 21.2228 0.0047 10.6568 -0.0023
# 2 24.6175 67.5354 12.7270 0.0202 2.2059 0.0077
# 3 21.2228 12.7270 34.3164 0.0113 1.9935 0.0119
# 4 0.0047 0.0202 0.0113 21.3077 0.0312 2.3968
# 5 10.6568 2.2059 1.9935 0.0312 19.5968 0.0103
# 6 -0.0023 0.0077 0.0119 2.3968 0.0103 18.7572
#
#
#
# Elastic Compliance Matrix: (Units=1/GPa)
#
#
# Indices 1 2 3 4 5 6 
#
# 1 0.007993 -0.002044 -0.003969 0.000007 -0.003713 0.000005
# 2 -0.002044 0.016471 -0.004830 -0.000012 -0.000251 -0.000002
# 3 -0.003969 -0.004830 0.033427 -0.000009 -0.000698 -0.000018
# 4 0.000007 -0.000012 -0.000009 0.047616 -0.000074 -0.006084
# 5 -0.003713 -0.000251 -0.000698 -0.000074 0.053147 -0.000020
# 6 0.000005 -0.000002 -0.000018 -0.006084 -0.000020 0.054090
#
#
# Mechanical properties :
#
#
# Convention : Reuss Voigt Hill
#
# Bulk Modulus (GPa) = 27.62115 40.65437 34.13776
# Shear Modulus (GPa) = 20.28419 24.61149 22.44784
#
# Velocity S-wave (km/s) = 3.25135 3.58141 3.42036
# Velocity P-wave (km/s) = 5.33760 6.18784 5.77838
#
# Compressibility (1/GPa) = 0.03620415
#
# Stress axis : x y z
#
# Youngs Moduli (GPa) = 125.11726 60.71451 29.91588
#
# Poissons Ratio (x) = 0.12411 0.11874
# Poissons Ratio (y) = 0.25576 0.14448
# Poissons Ratio (z) = 0.49661 0.29323
#
# Static dielectric constant tensor:
#      x y z
#    x 3.767020 -0.001360 0.268720 
#    y -0.001360 4.095630 0.000610 
#    z 0.268720 0.000610 3.202460 
# 
# 
# High freq. dielectric constant tensor:
#      x y z
#    x 1.753360 -0.000010 0.015450 
#    y -0.000010 1.726100 -0.000020 
#    z 0.015450 -0.000020 1.721280 
# 
# From -- ./inp_files/325711.got.cif
#   From: 2010.06.25/outbox.cif.g09.slc.cpg/sg12_163_cif.got.tgz:325711.got - 2010.06.28 00:19:55.
