data_PCOD8079732
_publ_section_title
;
Structure prediction by ZEFSAII (Michael W. Deem and Ramdas Pophale) SiO2 
 PCOD8079732
Probable space group: C 2/M
;
_chemical_formula_sum "Si O2"
_cell_formula_units_Z 64
_cell_length_a 18.549912
_cell_length_b 20.800355
_cell_length_c 18.492396
_cell_angle_alpha 90.000000
_cell_angle_beta 30.620149
_cell_angle_gamma 90.000000
_cell_volume 3634.268812
_symmetry_space_group_name_H-M "C 2/M"
_symmetry_group_IT_number 12
_symmetry_cell_setting 'monoclinic'
loop_
_space_group_symop_operation_xyz
x,y,z
-x,y,-z
-x,-y,-z
x,-y,z
1/2+x,1/2+y,z
1/2-x,1/2+y,-z
1/2-x,1/2-y,-z
1/2+x,1/2-y,z
loop_
_atom_site_type_symbol
_atom_site_label
_atom_site_fract_x
_atom_site_fract_y
_atom_site_fract_z
Si Si1 0.461472 0.075130 0.822267
Si Si2 0.010824 0.207111 0.074398
Si Si3 0.823361 0.177594 0.361219
Si Si4 0.789846 0.306325 0.909559
Si Si5 0.059211 0.648081 0.872067
Si Si6 0.625615 0.360403 0.445320
Si Si7 0.771820 0.928867 0.508801
Si Si8 0.444164 0.752752 0.385977
O O1 0.343881 0.126575 0.897919
O O2 0.503568 0.092415 0.867684
O O3 0.603505 0.084840 0.652611
O O4 0.409723 0.000000 0.863146
O O5 0.882538 0.174679 0.229144
O O6 0.009474 0.283582 0.089584
O O7 0.152081 0.175282 0.983351
O O8 0.000000 0.189359 0.000000
O O9 0.851205 0.111800 0.379321
O O10 0.656322 0.189985 0.500568
O O11 0.898353 0.233518 0.343728
O O12 0.897615 0.278577 0.756819
O O13 0.750000 0.250000 0.000000
O O14 0.230563 0.656563 0.722902
O O15 0.000000 0.625957 0.000000
O O16 0.500000 0.381802 0.500000
O O17 0.663141 0.417574 0.467778
O O18 0.568072 0.301952 0.543234
O O19 0.807096 0.000000 0.455360
#
# Coordination Sequence:
#
# PCOD8079732 Si02
#       8
#     8   8   8   8   8   8   8   8
#     4  10  20  37  59  84 110 151 198 236 280 340
#     4  11  23  36  56  85 117 147 185 236 300 346
#     4  10  17  35  55  78 111 139 185 235 282 332
#     4  12  21  35  59  86 114 148 189 240 286 333
#     4  10  20  35  53  80 120 156 185 226 284 345
#     4  10  21  32  52  83 119 150 185 232 278 331
#     4   9  19  36  59  81 108 151 197 233 277 338
#     4  10  19  30  55  82 107 145 185 228 281 328
#
# _framework density 17.610144999999999
#
# number of rings (size 3 to 8) (size 9 to 14) (size 15 to 20)
#    0.000    1.750    5.000    0.000    3.500    0.500 
#    0.000    0.625    0.000    1.500    0.000    1.750 
#    0.000    0.000    0.000    0.000    0.000    0.000 
#
# Total GULP energy -396634.178479 kJ/mol
# GULP energy per Si atom -12394.818077 kJ/mol
# Density = 1.757006 g / cm^3
# Si number density = 17.610145 Si / 1000 Ang^3
#
#
#
# Elastic Constant Matrix: (Units=GPa)
#
#
# Indices 1 2 3 4 5 6 
#
# 1 88.8268 42.9420 49.5980 -0.0006 0.8616 0.0025
# 2 42.9420 90.8483 42.7113 0.0050 2.1037 0.0003
# 3 49.5980 42.7113 127.8585 0.0142 13.4639 -0.0020
# 4 -0.0006 0.0050 0.0142 18.5980 -0.0043 -3.5679
# 5 0.8616 2.1037 13.4639 -0.0043 35.2533 -0.0019
# 6 0.0025 0.0003 -0.0020 -3.5679 -0.0019 17.1385
#
#
#
# Elastic Compliance Matrix: (Units=1/GPa)
#
#
# Indices 1 2 3 4 5 6 
#
# 1 0.016630 -0.005673 -0.004739 0.000006 0.001742 -0.000001
# 2 -0.005673 0.015022 -0.002853 -0.000002 0.000332 0.000000
# 3 -0.004739 -0.002853 0.011026 -0.000009 -0.003925 0.000000
# 4 0.000006 -0.000002 -0.000009 0.056006 0.000011 0.011659
# 5 0.001742 0.000332 -0.003925 0.000011 0.029803 0.000005
# 6 -0.000001 0.000000 0.000000 0.011659 0.000005 0.060775
#
#
# Mechanical properties :
#
#
# Convention : Reuss Voigt Hill
#
# Bulk Modulus (GPa) = 61.92565 64.22624 63.07594
# Shear Modulus (GPa) = 22.60668 25.68346 24.14507
#
# Velocity S-wave (km/s) = 3.58681 3.82310 3.70684
# Velocity P-wave (km/s) = 7.23842 7.48589 7.36319
#
# Compressibility (1/GPa) = 0.01614840
#
# Stress axis : x y z
#
# Youngs Moduli (GPa) = 60.13371 66.56850 90.69617
#
# Poissons Ratio (x) = 0.37762 0.42984
# Poissons Ratio (y) = 0.34112 0.25872
# Poissons Ratio (z) = 0.28499 0.18989
#
# Static dielectric constant tensor:
#      x y z
#    x 3.171760 0.000000 -0.018440 
#    y 0.000000 3.078110 0.000010 
#    z -0.018440 0.000010 3.397010 
# 
# 
# High freq. dielectric constant tensor:
#      x y z
#    x 1.662940 0.000000 0.001820 
#    y 0.000000 1.657810 0.000000 
#    z 0.001820 0.000000 1.691380 
# 
# From -- ./inp_files/279108.got.cif
#   From: 2010.06.25/outbox.cif.g09.slc.cpg/sg12_140_cif.got.tgz:279108.got - 2010.06.28 00:19:55.
