data_PCOD8079195
_publ_section_title
;
Structure prediction by ZEFSAII (Michael W. Deem and Ramdas Pophale) SiO2 
 PCOD8079195
Probable space group: C 2/M
;
_chemical_formula_sum "Si O2"
_cell_formula_units_Z 56
_cell_length_a 23.790805
_cell_length_b 19.762479
_cell_length_c 8.081587
_cell_angle_alpha 90.000000
_cell_angle_beta 127.314573
_cell_angle_gamma 90.000000
_cell_volume 3021.960240
_symmetry_space_group_name_H-M "C 2/M"
_symmetry_group_IT_number 12
_symmetry_cell_setting 'monoclinic'
loop_
_space_group_symop_operation_xyz
x,y,z
-x,y,-z
-x,-y,-z
x,-y,z
1/2+x,1/2+y,z
1/2-x,1/2+y,-z
1/2-x,1/2-y,-z
1/2+x,1/2-y,z
loop_
_atom_site_type_symbol
_atom_site_label
_atom_site_fract_x
_atom_site_fract_y
_atom_site_fract_z
Si Si1 0.385787 0.925201 0.320186
Si Si2 0.545178 0.199708 0.734951
Si Si3 0.951151 0.386123 0.776388
Si Si4 0.232265 0.922162 0.187035
Si Si5 0.720129 0.728384 0.697925
Si Si6 0.840055 0.806338 0.086514
Si Si7 0.302136 0.157645 0.586203
O O1 0.411689 0.867825 0.241086
O O2 0.431134 0.925560 0.572567
O O3 0.303333 0.911699 0.205719
O O4 0.396650 0.000000 0.261493
O O5 0.500000 0.226052 0.500000
O O6 0.494967 0.181461 0.800302
O O7 0.595978 0.262341 0.875460
O O8 0.879883 0.371584 0.750745
O O9 0.000000 0.425452 0.000000
O O10 0.248970 0.893333 0.398893
O O11 0.210758 0.000000 0.164077
O O12 0.163904 0.884441 0.982276
O O13 0.660072 0.697789 0.712618
O O14 0.685112 0.771443 0.487960
O O15 0.768312 0.669194 0.706233
O O16 0.765895 0.779582 0.886646
#
# Coordination Sequence:
#
# PCOD8079195 Si02
#       7
#     8   8   8   8   8   8   8
#     4   9  18  32  46  62  89 125 160 190 224 268
#     4  10  19  30  46  68  95 126 154 183 224 276
#     4  10  19  28  41  63  94 125 156 185 216 264
#     4   9  18  32  49  67  90 121 155 196 240 275
#     4   9  16  27  48  70  90 117 150 196 241 267
#     4  10  17  29  49  72  93 116 156 197 231 270
#     4   9  17  30  45  66  95 123 152 188 231 277
#
# _framework density 18.531018
#
# number of rings (size 3 to 8) (size 9 to 14) (size 15 to 20)
#    0.000    2.571    0.000    5.143    0.000    2.857 
#    0.000    0.714    0.000    6.429    0.000    0.000 
#    0.000   28.000    0.000    0.000    0.000    1.571 
#
# Total GULP energy -346941.298598 kJ/mol
# GULP energy per Si atom -12390.760664 kJ/mol
# Density = 1.848884 g / cm^3
# Si number density = 18.531018 Si / 1000 Ang^3
#
#
#
# Elastic Constant Matrix: (Units=GPa)
#
#
# Indices 1 2 3 4 5 6 
#
# 1 49.9009 28.5120 -0.2771 0.0000 -2.9749 0.0000
# 2 28.5120 109.4555 25.6597 0.0000 8.9878 0.0000
# 3 -0.2771 25.6597 45.3240 0.0000 5.8165 0.0000
# 4 0.0000 0.0000 0.0000 19.7909 0.0000 6.1785
# 5 -2.9749 8.9878 5.8165 0.0000 22.7413 0.0000
# 6 0.0000 0.0000 0.0000 6.1785 0.0000 12.9042
#
#
#
# Elastic Compliance Matrix: (Units=1/GPa)
#
#
# Indices 1 2 3 4 5 6 
#
# 1 0.024852 -0.007826 0.003896 0.000000 0.005347 0.000000
# 2 -0.007826 0.013165 -0.006929 0.000000 -0.004455 0.000000
# 3 0.003896 -0.006929 0.026462 0.000000 -0.003520 0.000000
# 4 0.000000 0.000000 0.000000 0.059409 0.000000 -0.028445
# 5 0.005347 -0.004455 -0.003520 0.000000 0.047333 0.000000
# 6 0.000000 0.000000 0.000000 -0.028445 0.000000 0.091114
#
#
# Mechanical properties :
#
#
# Convention : Reuss Voigt Hill
#
# Bulk Modulus (GPa) = 23.38619 34.71885 29.05252
# Shear Modulus (GPa) = 16.76133 21.13967 18.95050
#
# Velocity S-wave (km/s) = 3.01076 3.38120 3.20134
# Velocity P-wave (km/s) = 4.97329 5.83263 5.42002
#
# Compressibility (1/GPa) = 0.04276028
#
# Stress axis : x y z
#
# Youngs Moduli (GPa) = 40.23859 75.95898 37.79016
#
# Poissons Ratio (x) = 0.59447 -0.14724
# Poissons Ratio (y) = 0.31491 0.26186
# Poissons Ratio (z) = -0.15678 0.52635
#
# Static dielectric constant tensor:
#      x y z
#    x 3.337210 0.000000 -0.075320 
#    y 0.000000 3.327940 0.000000 
#    z -0.075320 0.000000 3.422670 
# 
# 
# High freq. dielectric constant tensor:
#      x y z
#    x 1.700540 0.000000 -0.010560 
#    y 0.000000 1.688740 0.000000 
#    z -0.010560 0.000000 1.709040 
# 
# From -- ./inp_files/106263.got.cif
#   From: 2010.06.25/outbox.cif.g09.slc.cpg/sg12_54_cif.got.tgz:106263.got - 2010.06.28 00:19:55.
