data_PCOD8079823
_publ_section_title
;
Structure prediction by ZEFSAII (Michael W. Deem and Ramdas Pophale) SiO2 
 PCOD8079823
Probable space group: C 2/M
;
_chemical_formula_sum "Si O2"
_cell_formula_units_Z 64
_cell_length_a 27.371609
_cell_length_b 9.496036
_cell_length_c 19.061412
_cell_angle_alpha 90.000000
_cell_angle_beta 121.238500
_cell_angle_gamma 90.000000
_cell_volume 4236.156331
_symmetry_space_group_name_H-M "C 2/M"
_symmetry_group_IT_number 12
_symmetry_cell_setting 'monoclinic'
loop_
_space_group_symop_operation_xyz
x,y,z
-x,y,-z
-x,-y,-z
x,-y,z
1/2+x,1/2+y,z
1/2-x,1/2+y,-z
1/2-x,1/2-y,-z
1/2+x,1/2-y,z
loop_
_atom_site_type_symbol
_atom_site_label
_atom_site_fract_x
_atom_site_fract_y
_atom_site_fract_z
Si Si1 0.886498 0.161612 0.845735
Si Si2 0.450271 0.663871 0.512929
Si Si3 0.502439 0.658595 0.850659
Si Si4 0.949476 0.160647 0.671605
Si Si5 0.840411 0.662164 0.599042
Si Si6 0.658921 0.158237 0.562973
Si Si7 0.058527 0.340611 0.000973
Si Si8 0.716169 0.337045 0.329398
O O1 0.938399 0.187097 0.830733
O O2 0.893009 0.258842 0.919317
O O3 0.827369 0.206218 0.764660
O O4 0.884688 0.000000 0.869273
O O5 0.500000 0.723788 0.500000
O O6 0.440507 0.500000 0.491722
O O7 0.469414 0.695221 0.607280
O O8 0.390716 0.737900 0.448691
O O9 0.521213 0.500000 0.884375
O O10 0.501688 0.679880 0.765533
O O11 0.548227 0.764737 0.918595
O O12 0.900979 0.266906 0.660169
O O13 0.926119 0.000000 0.658396
O O14 0.843491 0.500000 0.624324
O O15 0.825340 0.680283 0.506601
O O16 0.792747 0.740551 0.609125
O O17 0.718465 0.186813 0.648463
O O18 0.636702 0.000000 0.559703
O O19 0.078798 0.500000 0.002556
O O20 0.000000 0.334825 0.000000
O O21 0.706738 0.500000 0.343910
#
# Coordination Sequence:
#
# PCOD8079823 Si02
#       8
#     8   8   8   8   8   8   8   8
#     4   9  16  26  39  54  75 109 146 173 198 237
#     4   9  18  32  49  66  85 109 138 175 216 255
#     4   9  15  25  40  56  75 106 144 174 200 238
#     4   9  16  28  44  61  82 111 144 174 208 248
#     4  10  18  26  38  59  85 111 141 175 210 241
#     4   9  19  31  43  61  83 110 142 175 209 249
#     4   9  17  26  36  53  78 107 136 172 210 240
#     4  10  18  29  42  57  82 114 147 175 203 241
#
# _framework density 15.108034999999999
#
# number of rings (size 3 to 8) (size 9 to 14) (size 15 to 20)
#    0.000    2.750    1.250    1.125    0.000    3.750 
#    0.000    0.000    0.000    0.000    0.000    0.000 
#    0.000    1.000    0.000    2.000    0.000    2.750 
#
# Total GULP energy -396698.793803 kJ/mol
# GULP energy per Si atom -12396.837306 kJ/mol
# Density = 1.507365 g / cm^3
# Si number density = 15.108035 Si / 1000 Ang^3
#
#
#
# Elastic Constant Matrix: (Units=GPa)
#
#
# Indices 1 2 3 4 5 6 
#
# 1 64.0957 36.9393 35.6418 0.0000 5.2031 0.0000
# 2 36.9393 79.4253 44.8905 0.0000 6.3797 0.0000
# 3 35.6418 44.8905 90.9935 0.0000 9.6110 0.0000
# 4 0.0000 0.0000 0.0000 20.3224 0.0000 2.1598
# 5 5.2031 6.3797 9.6110 0.0000 13.1992 0.0000
# 6 0.0000 0.0000 0.0000 2.1598 0.0000 15.6782
#
#
#
# Elastic Compliance Matrix: (Units=1/GPa)
#
#
# Indices 1 2 3 4 5 6 
#
# 1 0.022973 -0.007715 -0.005015 0.000000 -0.001675 0.000000
# 2 -0.007715 0.020117 -0.006713 0.000000 -0.001794 0.000000
# 3 -0.005015 -0.006713 0.017024 0.000000 -0.007174 0.000000
# 4 0.000000 0.000000 0.000000 0.049938 0.000000 -0.006880
# 5 -0.001675 -0.001794 -0.007174 0.000000 0.082514 0.000000
# 6 0.000000 0.000000 0.000000 -0.006880 0.000000 0.064731
#
#
# Mechanical properties :
#
#
# Convention : Reuss Voigt Hill
#
# Bulk Modulus (GPa) = 47.11039 52.16196 49.63617
# Shear Modulus (GPa) = 16.48764 17.64283 17.06523
#
# Velocity S-wave (km/s) = 3.30709 3.42098 3.36452
# Velocity P-wave (km/s) = 6.76997 7.08556 6.92956
#
# Compressibility (1/GPa) = 0.02122674
#
# Stress axis : x y z
#
# Youngs Moduli (GPa) = 43.52970 49.70972 58.74146
#
# Poissons Ratio (x) = 0.38352 0.29461
# Poissons Ratio (y) = 0.33584 0.39432
# Poissons Ratio (z) = 0.21831 0.33370
#
# Static dielectric constant tensor:
#      x y z
#    x 2.511970 0.000000 0.020270 
#    y 0.000000 3.010340 0.000000 
#    z 0.020270 0.000000 3.000170 
# 
# 
# High freq. dielectric constant tensor:
#      x y z
#    x 1.516590 0.000000 0.006000 
#    y 0.000000 1.586010 0.000000 
#    z 0.006000 0.000000 1.579400 
# 
# From -- ./inp_files/323740.got.cif
#   From: 2010.06.25/outbox.cif.g09.slc.cpg/sg12_162_cif.got.tgz:323740.got - 2010.06.28 00:19:55.
