data_PCOD8079360
_publ_section_title
;
Structure prediction by ZEFSAII (Michael W. Deem and Ramdas Pophale) SiO2 
 PCOD8079360
Probable space group: C 2/M
;
_chemical_formula_sum "Si O2"
_cell_formula_units_Z 52
_cell_length_a 29.562211
_cell_length_b 11.405497
_cell_length_c 12.550478
_cell_angle_alpha 90.000000
_cell_angle_beta 135.730533
_cell_angle_gamma 90.000000
_cell_volume 2953.845947
_symmetry_space_group_name_H-M "C 2/M"
_symmetry_group_IT_number 12
_symmetry_cell_setting 'monoclinic'
loop_
_space_group_symop_operation_xyz
x,y,z
-x,y,-z
-x,-y,-z
x,-y,z
1/2+x,1/2+y,z
1/2-x,1/2+y,-z
1/2-x,1/2-y,-z
1/2+x,1/2-y,z
loop_
_atom_site_type_symbol
_atom_site_label
_atom_site_fract_x
_atom_site_fract_y
_atom_site_fract_z
Si Si1 0.702644 0.631224 0.205055
Si Si2 0.082940 0.500000 0.902799
Si Si3 0.175270 0.743192 0.354320
Si Si4 0.348451 0.214122 0.460073
Si Si5 0.818760 0.864513 0.211081
Si Si6 0.382056 0.000000 0.793010
Si Si7 0.672027 0.201810 0.967770
Si Si8 0.565845 0.000000 0.354154
O O1 0.689508 0.500000 0.150350
O O2 0.659962 0.661391 0.237834
O O3 0.779010 0.651071 0.349104
O O4 0.673976 0.703765 0.061920
O O5 0.116066 0.611950 0.904316
O O6 0.008958 0.500000 0.741399
O O7 0.083482 0.500000 0.033166
O O8 0.250000 0.750000 0.500000
O O9 0.137131 0.772025 0.399310
O O10 0.162394 0.614071 0.286523
O O11 0.348460 0.316167 0.372066
O O12 0.402286 0.113680 0.535144
O O13 0.845843 0.773475 0.169270
O O14 0.841560 0.000000 0.233562
O O15 0.740714 0.864805 0.075081
O O16 0.428009 0.000000 0.765302
#
# Coordination Sequence:
#
# PCOD8079360 Si02
#       8
#     8   4   8   8   8   4   8   4
#     4  10  17  30  51  76 113 139 173 228 282 331
#     4  12  21  37  58  83 115 146 190 228 265 330
#     4   9  18  27  48  78 110 142 168 224 273 335
#     4   9  19  34  50  78 107 145 185 221 273 328
#     4  10  20  36  56  77 113 145 177 228 288 331
#     4  10  19  36  52  82 120 144 188 214 279 332
#     4  10  21  33  52  86 109 142 181 225 277 337
#     4  10  21  37  58  81 113 152 184 229 271 318
#
# _framework density 17.604168999999999
#
# number of rings (size 3 to 8) (size 9 to 14) (size 15 to 20)
#    0.000    2.154    3.077    0.692    3.231    1.231 
#    0.000    1.538    0.000    2.769    0.000    2.154 
#    0.000    0.000    0.000    0.000    0.000    0.000 
#
# Total GULP energy -322163.964270 kJ/mol
# GULP energy per Si atom -12390.921703 kJ/mol
# Density = 1.756410 g / cm^3
# Si number density = 17.604169 Si / 1000 Ang^3
#
#
#
# Elastic Constant Matrix: (Units=GPa)
#
#
# Indices 1 2 3 4 5 6 
#
# 1 71.3820 49.8602 41.5296 0.0000 -5.2677 0.0000
# 2 49.8602 125.4766 45.8563 0.0000 -3.2007 0.0000
# 3 41.5296 45.8563 69.8714 0.0000 -7.7897 0.0000
# 4 0.0000 0.0000 0.0000 7.9762 0.0000 17.9805
# 5 -5.2677 -3.2007 -7.7897 0.0000 33.0754 0.0000
# 6 0.0000 0.0000 0.0000 17.9805 0.0000 -14.0775
#
#
#
# Elastic Compliance Matrix: (Units=1/GPa)
#
#
# Indices 1 2 3 4 5 6 
#
# 1 0.024211 -0.005754 -0.010522 0.000000 0.000821 0.000000
# 2 -0.005754 0.011864 -0.004458 0.000000 -0.000818 0.000000
# 3 -0.010522 -0.004458 0.023884 0.000000 0.003518 0.000000
# 4 0.000000 0.000000 0.000000 0.032319 0.000000 0.041279
# 5 0.000821 -0.000818 0.003518 0.000000 0.031114 0.000000
# 6 0.000000 0.000000 0.000000 0.041279 0.000000 -0.018312
#
#
# Mechanical properties :
#
#
# Convention : Reuss Voigt Hill
#
# Bulk Modulus (GPa) = 54.08071 60.13581 57.10826
# Shear Modulus (GPa) = 32.74143 14.02709 23.38426
#
# Velocity S-wave (km/s) = 4.31730 2.82584 3.64859
# Velocity P-wave (km/s) = 7.45917 6.69935 7.08944
#
# Compressibility (1/GPa) = 0.01849088
#
# Stress axis : x y z
#
# Youngs Moduli (GPa) = 41.30392 84.28631 41.86933
#
# Poissons Ratio (x) = 0.48500 0.44056
# Poissons Ratio (y) = 0.23767 0.18664
# Poissons Ratio (z) = 0.43461 0.37571
#
# Static dielectric constant tensor:
#      x y z
#    x 3.422730 0.000000 -0.477480 
#    y 0.000000 3.149330 0.000000 
#    z -0.477480 0.000000 3.223440 
# 
# 
# High freq. dielectric constant tensor:
#      x y z
#    x 1.664360 0.000000 -0.036260 
#    y 0.000000 1.683560 0.000000 
#    z -0.036260 0.000000 1.661110 
# 
# From -- ./inp_files/175361.got.cif
#   From: 2010.06.25/outbox.cif.g09.slc.cpg/sg12_88_cif.got.tgz:175361.got - 2010.06.28 00:19:55.
