data_PCOD8079412
_publ_section_title
;
Structure prediction by ZEFSAII (Michael W. Deem and Ramdas Pophale) SiO2 
 PCOD8079412
Probable space group: C 2/M
;
_chemical_formula_sum "Si O2"
_cell_formula_units_Z 36
_cell_length_a 10.858065
_cell_length_b 22.065708
_cell_length_c 9.304605
_cell_angle_alpha 90.000000
_cell_angle_beta 123.058911
_cell_angle_gamma 90.000000
_cell_volume 1868.397751
_symmetry_space_group_name_H-M "C 2/M"
_symmetry_group_IT_number 12
_symmetry_cell_setting 'monoclinic'
loop_
_space_group_symop_operation_xyz
x,y,z
-x,y,-z
-x,-y,-z
x,-y,z
1/2+x,1/2+y,z
1/2-x,1/2+y,-z
1/2-x,1/2-y,-z
1/2+x,1/2-y,z
loop_
_atom_site_type_symbol
_atom_site_label
_atom_site_fract_x
_atom_site_fract_y
_atom_site_fract_z
Si Si1 0.239871 0.233674 0.826401
Si Si2 0.540404 0.626067 0.682305
Si Si3 0.147196 0.854822 0.179542
Si Si4 0.712259 0.929559 0.969953
Si Si5 0.000000 0.648218 0.000000
O O1 0.090111 0.196666 0.703311
O O2 0.246200 0.296264 0.741583
O O3 0.250000 0.250000 0.000000
O O4 0.371845 0.190663 0.856484
O O5 0.500000 0.600503 0.500000
O O6 0.394567 0.622320 0.688284
O O7 0.667787 0.584466 0.830650
O O8 0.228617 0.908869 0.147730
O O9 0.000000 0.835024 0.000000
O O10 0.562326 0.893888 0.911179
O O11 0.677174 0.000000 0.941726
#
# Coordination Sequence:
#
# PCOD8079412 Si02
#       5
#     8   8   8   8   4
#     4  11  16  32  57  81 106 138 176 220 271 319
#     4  10  22  34  51  81 111 140 176 222 278 323
#     4  10  18  32  54  79 104 137 179 220 266 313
#     4  10  21  35  55  79 105 143 186 222 259 315
#     4  10  17  30  56  84 103 128 178 232 264 306
#
# _framework density 19.267845000000001
#
# number of rings (size 3 to 8) (size 9 to 14) (size 15 to 20)
#    0.000    1.778    7.778    0.333    0.000    5.333 
#    0.000    0.000    0.000    0.000    0.000    7.778 
#    0.000    0.000    0.000    0.000    0.000    0.000 
#
# Total GULP energy -223166.988044 kJ/mol
# GULP energy per Si atom -12398.166002 kJ/mol
# Density = 1.922399 g / cm^3
# Si number density = 19.267845 Si / 1000 Ang^3
#
#
#
# Elastic Constant Matrix: (Units=GPa)
#
#
# Indices 1 2 3 4 5 6 
#
# 1 121.3795 32.2802 41.8587 0.0000 -29.1790 0.0000
# 2 32.2802 105.9232 18.3922 0.0000 -8.3278 0.0000
# 3 41.8587 18.3922 63.5751 0.0000 -26.0689 0.0000
# 4 0.0000 0.0000 0.0000 13.7104 0.0000 -0.3706
# 5 -29.1790 -8.3278 -26.0689 0.0000 25.8247 0.0000
# 6 0.0000 0.0000 0.0000 -0.3706 0.0000 29.1448
#
#
#
# Elastic Compliance Matrix: (Units=1/GPa)
#
#
# Indices 1 2 3 4 5 6 
#
# 1 0.012425 -0.002415 -0.003489 0.000000 0.009738 0.000000
# 2 -0.002415 0.010414 -0.001987 0.000000 -0.001376 0.000000
# 3 -0.003489 -0.001987 0.028533 0.000000 0.024219 0.000000
# 4 0.000000 0.000000 0.000000 0.072962 0.000000 0.000928
# 5 0.009738 -0.001376 0.024219 0.000000 0.073730 0.000000
# 6 0.000000 0.000000 0.000000 0.000928 0.000000 0.034323
#
#
# Mechanical properties :
#
#
# Convention : Reuss Voigt Hill
#
# Bulk Modulus (GPa) = 28.09839 52.88223 40.49031
# Shear Modulus (GPa) = 19.22837 26.95911 23.09374
#
# Velocity S-wave (km/s) = 3.16246 3.74461 3.46578
# Velocity P-wave (km/s) = 5.28674 6.79718 6.08897
#
# Compressibility (1/GPa) = 0.03558923
#
# Stress axis : x y z
#
# Youngs Moduli (GPa) = 80.48191 96.02830 35.04756
#
# Poissons Ratio (x) = 0.23192 0.12228
# Poissons Ratio (y) = 0.19437 0.06964
# Poissons Ratio (z) = 0.28081 0.19080
#
# Static dielectric constant tensor:
#      x y z
#    x 3.929820 0.000000 -0.174260 
#    y 0.000000 3.494130 0.000000 
#    z -0.174260 0.000000 2.973680 
# 
# 
# High freq. dielectric constant tensor:
#      x y z
#    x 1.769810 0.000000 -0.020340 
#    y 0.000000 1.745270 0.000000 
#    z -0.020340 0.000000 1.684570 
# 
# From -- ./inp_files/48973.got.cif
#   From: 2010.06.25/outbox.cif.g09.slc.cpg/sg12_25_cif.got.tgz:48973.got - 2010.06.28 00:19:55.
