data_PCOD8079809
_publ_section_title
;
Structure prediction by ZEFSAII (Michael W. Deem and Ramdas Pophale) SiO2 
 PCOD8079809
Probable space group: C 2/M
;
_chemical_formula_sum "Si O2"
_cell_formula_units_Z 48
_cell_length_a 14.628614
_cell_length_b 24.085534
_cell_length_c 11.496156
_cell_angle_alpha 90.000000
_cell_angle_beta 140.759394
_cell_angle_gamma 90.000000
_cell_volume 2562.279105
_symmetry_space_group_name_H-M "C 2/M"
_symmetry_group_IT_number 12
_symmetry_cell_setting 'monoclinic'
loop_
_space_group_symop_operation_xyz
x,y,z
-x,y,-z
-x,-y,-z
x,-y,z
1/2+x,1/2+y,z
1/2-x,1/2+y,-z
1/2-x,1/2-y,-z
1/2+x,1/2-y,z
loop_
_atom_site_type_symbol
_atom_site_label
_atom_site_fract_x
_atom_site_fract_y
_atom_site_fract_z
Si Si1 0.000000 0.663482 0.000000
Si Si2 0.298003 0.809486 0.004574
Si Si3 0.972508 0.879375 0.343496
Si Si4 0.345261 0.500000 0.216311
Si Si5 0.718858 0.117293 0.403215
Si Si6 0.812193 0.500000 0.697217
Si Si7 0.512874 0.881409 0.647367
Si Si8 0.922595 0.500000 0.190837
O O1 0.090682 0.698571 0.994126
O O2 0.880364 0.628064 0.810369
O O3 0.365726 0.842151 0.179227
O O4 0.250000 0.750000 0.000000
O O5 0.161287 0.846041 0.837037
O O6 0.000000 0.860206 0.500000
O O7 0.120507 0.857269 0.428548
O O8 0.946145 0.945771 0.313534
O O9 0.233144 0.500000 0.213112
O O10 0.246607 0.500000 0.004541
O O11 0.637705 0.135404 0.439905
O O12 0.754724 0.052360 0.434315
O O13 0.985725 0.500000 0.840090
O O14 0.500000 0.867980 0.500000
O O15 0.544892 0.946034 0.699998
#
# Coordination Sequence:
#
# PCOD8079809 Si02
#       8
#     4   8   8   4   8   4   8   4
#     4  10  20  41  60  86 118 151 202 248 298 350
#     4  11  24  42  63  88 120 157 203 251 296 350
#     4  12  21  36  60  94 129 150 188 246 311 356
#     4  12  19  31  57  94 129 153 181 242 311 359
#     4  10  21  34  59  91 122 155 190 245 295 355
#     4  10  18  25  51  94 123 152 188 225 298 368
#     4  10  22  43  62  85 119 163 208 237 287 359
#     4  10  20  33  61  86 120 162 197 242 284 352
#
# _framework density 18.733322000000001
#
# number of rings (size 3 to 8) (size 9 to 14) (size 15 to 20)
#    0.000    1.333    5.000    1.250    4.667    0.667 
#    3.000    1.667    0.000    1.000    0.000    0.000 
#    0.000    0.000    0.000    0.000    0.000    0.000 
#
# Total GULP energy -297367.408539 kJ/mol
# GULP energy per Si atom -12390.308689 kJ/mol
# Density = 1.869068 g / cm^3
# Si number density = 18.733322 Si / 1000 Ang^3
#
#
#
# Elastic Constant Matrix: (Units=GPa)
#
#
# Indices 1 2 3 4 5 6 
#
# 1 130.8087 52.3876 89.8026 0.0000 1.4328 0.0000
# 2 52.3876 110.3881 43.5212 0.0000 2.1129 0.0000
# 3 89.8026 43.5212 131.7310 0.0000 6.4076 0.0000
# 4 0.0000 0.0000 0.0000 -53.0447 0.0000 -3.1614
# 5 1.4328 2.1129 6.4076 0.0000 34.9688 0.0000
# 6 0.0000 0.0000 0.0000 -3.1614 0.0000 25.8133
#
#
#
# Elastic Compliance Matrix: (Units=1/GPa)
#
#
# Indices 1 2 3 4 5 6 
#
# 1 0.015634 -0.003699 -0.009500 0.000000 0.001324 0.000000
# 2 -0.003699 0.011291 -0.001193 0.000000 -0.000312 0.000000
# 3 -0.009500 -0.001193 0.014569 0.000000 -0.002208 0.000000
# 4 0.000000 0.000000 0.000000 -0.018715 0.000000 -0.002292
# 5 0.001324 -0.000312 -0.002208 0.000000 0.028966 0.000000
# 6 0.000000 0.000000 0.000000 -0.002292 0.000000 0.038459
#
#
# Mechanical properties :
#
#
# Convention : Reuss Voigt Hill
#
# Bulk Modulus (GPa) = 78.68567 82.70561 80.69564
# Shear Modulus (GPa) = 40.57639 14.02856 27.30248
#
# Velocity S-wave (km/s) = 4.65908 2.73949 3.82177
# Velocity P-wave (km/s) = 8.42834 7.36554 7.91480
#
# Compressibility (1/GPa) = 0.01270879
#
# Stress axis : x y z
#
# Youngs Moduli (GPa) = 63.96482 88.56624 68.63883
#
# Poissons Ratio (x) = 0.32763 0.65206
# Poissons Ratio (y) = 0.23663 0.08190
# Poissons Ratio (z) = 0.60765 0.10568
#
# Static dielectric constant tensor:
#      x y z
#    x 3.543270 0.000000 0.147530 
#    y 0.000000 3.216810 0.000000 
#    z 0.147530 0.000000 3.148420 
# 
# 
# High freq. dielectric constant tensor:
#      x y z
#    x 1.726780 0.000000 0.021570 
#    y 0.000000 1.707920 0.000000 
#    z 0.021570 0.000000 1.728840 
# 
# From -- ./inp_files/148080.got.cif
#   From: 2010.06.25/outbox.cif.g09.slc.cpg/sg12_75_cif.got.tgz:148080.got - 2010.06.28 00:19:55.
