data_PCOD8079355
_publ_section_title
;
Structure prediction by ZEFSAII (Michael W. Deem and Ramdas Pophale) SiO2 
 PCOD8079355
Probable space group: C 2/M
;
_chemical_formula_sum "Si O2"
_cell_formula_units_Z 64
_cell_length_a 25.435413
_cell_length_b 24.123556
_cell_length_c 12.175101
_cell_angle_alpha 90.000000
_cell_angle_beta 151.310955
_cell_angle_gamma 90.000000
_cell_volume 3586.281649
_symmetry_space_group_name_H-M "C 2/M"
_symmetry_group_IT_number 12
_symmetry_cell_setting 'monoclinic'
loop_
_space_group_symop_operation_xyz
x,y,z
-x,y,-z
-x,-y,-z
x,-y,z
1/2+x,1/2+y,z
1/2-x,1/2+y,-z
1/2-x,1/2-y,-z
1/2+x,1/2-y,z
loop_
_atom_site_type_symbol
_atom_site_label
_atom_site_fract_x
_atom_site_fract_y
_atom_site_fract_z
Si Si1 0.600612 0.937213 0.987924
Si Si2 0.403412 0.725780 0.884271
Si Si3 0.350314 0.936851 0.516662
Si Si4 0.870518 0.342424 0.385073
Si Si5 0.738699 0.271041 0.747827
Si Si6 0.877673 0.653224 0.146623
Si Si7 0.728563 0.563635 0.515430
Si Si8 0.399764 0.333493 0.672344
O O1 0.668796 0.920577 0.219971
O O2 0.623356 0.000000 0.994404
O O3 0.473866 0.927780 0.785951
O O4 0.641106 0.901831 0.958374
O O5 0.469463 0.678967 0.078773
O O6 0.500000 0.762027 0.000000
O O7 0.329699 0.765606 0.820172
O O8 0.337661 0.694970 0.664539
O O9 0.326812 0.894311 0.375042
O O10 0.265499 0.924577 0.458662
O O11 0.335959 0.000000 0.447321
O O12 0.802187 0.288737 0.291862
O O13 0.850351 0.359531 0.222524
O O14 0.997052 0.327164 0.638319
O O15 0.642826 0.308860 0.521390
O O16 0.794475 0.299255 0.954780
O O17 0.692519 0.500000 0.464536
O O18 0.625381 0.601010 0.363731
#
# Coordination Sequence:
#
# PCOD8079355 Si02
#       8
#     8   8   8   8   8   8   8   8
#     4   9  17  31  49  73 103 132 160 204 253 306
#     4   8  21  33  47  74 105 127 168 203 247 306
#     4   9  18  31  49  73 103 132 162 203 255 305
#     4  10  22  34  52  72 104 134 175 210 246 294
#     4  12  18  35  53  70 101 141 169 206 253 291
#     4  10  21  35  48  79 100 133 176 211 244 292
#     4  10  17  30  51  76 100 129 166 205 252 306
#     4   9  19  33  48  74 102 131 161 204 246 303
#
# _framework density 17.845782
#
# number of rings (size 3 to 8) (size 9 to 14) (size 15 to 20)
#    0.750    1.500    1.250    2.625    0.000    2.000 
#    2.250    3.750    0.000    0.750    0.000    0.000 
#    0.000    2.000    0.000    0.000    0.000    0.000 
#
# Total GULP energy -396550.893210 kJ/mol
# GULP energy per Si atom -12392.215413 kJ/mol
# Density = 1.780516 g / cm^3
# Si number density = 17.845782 Si / 1000 Ang^3
#
#
#
# Elastic Constant Matrix: (Units=GPa)
#
#
# Indices 1 2 3 4 5 6 
#
# 1 60.9717 29.1824 18.6772 0.0000 -14.3152 0.0000
# 2 29.1824 81.0626 27.7818 0.0000 -11.4777 0.0000
# 3 18.6772 27.7818 64.9403 0.0000 -20.2230 0.0000
# 4 0.0000 0.0000 0.0000 28.3156 0.0000 0.2073
# 5 -14.3152 -11.4777 -20.2230 0.0000 23.3564 0.0000
# 6 0.0000 0.0000 0.0000 0.2073 0.0000 19.3284
#
#
#
# Elastic Compliance Matrix: (Units=1/GPa)
#
#
# Indices 1 2 3 4 5 6 
#
# 1 0.021897 -0.006305 -0.000528 0.000000 0.009865 0.000000
# 2 -0.006305 0.016370 -0.005323 0.000000 -0.000429 0.000000
# 3 -0.000528 -0.005323 0.023156 0.000000 0.017110 0.000000
# 4 0.000000 0.000000 0.000000 0.035319 0.000000 -0.000379
# 5 0.009865 -0.000429 0.017110 0.000000 0.063464 0.000000
# 6 0.000000 0.000000 0.000000 -0.000379 0.000000 0.051741
#
#
# Mechanical properties :
#
#
# Convention : Reuss Voigt Hill
#
# Bulk Modulus (GPa) = 26.94748 39.80640 33.37694
# Shear Modulus (GPa) = 20.11017 22.95561 21.53289
#
# Velocity S-wave (km/s) = 3.36056 3.59044 3.47740
# Velocity P-wave (km/s) = 5.49461 6.28829 5.90480
#
# Compressibility (1/GPa) = 0.03710922
#
# Stress axis : x y z
#
# Youngs Moduli (GPa) = 45.66906 61.08902 43.18485
#
# Poissons Ratio (x) = 0.38516 0.02282
# Poissons Ratio (y) = 0.28794 0.22989
# Poissons Ratio (z) = 0.02413 0.32520
#
# Static dielectric constant tensor:
#      x y z
#    x 3.080720 0.000000 -0.148350 
#    y 0.000000 3.238760 0.000000 
#    z -0.148350 0.000000 3.302300 
# 
# 
# High freq. dielectric constant tensor:
#      x y z
#    x 1.667170 0.000000 -0.014570 
#    y 0.000000 1.686380 0.000000 
#    z -0.014570 0.000000 1.687110 
# 
# From -- ./inp_files/184721.got.cif
#   From: 2010.06.25/outbox.cif.g09.slc.cpg/sg12_93_cif.got.tgz:184721.got - 2010.06.28 00:19:55.
