data_PCOD8079984
_publ_section_title
;
Structure prediction by ZEFSAII (Michael W. Deem and Ramdas Pophale) SiO2 
 PCOD8079984
Probable space group: C 2/M
;
_chemical_formula_sum "Si O2"
_cell_formula_units_Z 64
_cell_length_a 27.531690
_cell_length_b 9.139292
_cell_length_c 20.250268
_cell_angle_alpha 90.000000
_cell_angle_beta 126.960457
_cell_angle_gamma 90.000000
_cell_volume 4071.463230
_symmetry_space_group_name_H-M "C 2/M"
_symmetry_group_IT_number 12
_symmetry_cell_setting 'monoclinic'
loop_
_space_group_symop_operation_xyz
x,y,z
-x,y,-z
-x,-y,-z
x,-y,z
1/2+x,1/2+y,z
1/2-x,1/2+y,-z
1/2-x,1/2-y,-z
1/2+x,1/2-y,z
loop_
_atom_site_type_symbol
_atom_site_label
_atom_site_fract_x
_atom_site_fract_y
_atom_site_fract_z
Si Si1 0.887742 0.669345 0.754541
Si Si2 0.239729 0.834046 0.149222
Si Si3 0.876925 0.828939 0.034608
Si Si4 0.306573 0.831355 0.076981
Si Si5 0.490597 0.830783 0.068519
Si Si6 0.340312 0.335109 0.597578
Si Si7 0.209519 0.334732 0.558102
Si Si8 0.262044 0.171301 0.718412
O O1 0.884722 0.500000 0.732356
O O2 0.887479 0.760530 0.686519
O O3 0.830818 0.711204 0.754211
O O4 0.947869 0.709633 0.843423
O O5 0.299005 0.818785 0.150123
O O6 0.249015 0.723335 0.216463
O O7 0.234610 0.000000 0.171809
O O8 0.178378 0.792388 0.059924
O O9 0.866689 0.746822 0.096769
O O10 0.938499 0.772537 0.053183
O O11 0.881885 0.000000 0.053052
O O12 0.306238 0.000000 0.054558
O O13 0.250000 0.750000 0.000000
O O14 0.472496 0.000000 0.063843
O O15 0.500000 0.794112 0.000000
O O16 0.361898 0.500000 0.601056
O O17 0.274052 0.332564 0.575165
O O18 0.339670 0.246889 0.528188
O O19 0.187240 0.500000 0.552261
O O20 0.214180 0.251662 0.631549
O O21 0.249427 0.000000 0.703288
#
# Coordination Sequence:
#
# PCOD8079984 Si02
#       8
#     8   8   8   8   8   8   8   8
#     4   9  18  30  42  59  84 115 150 183 217 256
#     4   9  18  30  43  62  87 113 141 175 218 264
#     4  10  20  32  46  64  86 114 149 187 224 261
#     4   9  17  30  47  65  85 110 142 180 221 265
#     4  10  20  33  47  63  86 118 154 188 222 259
#     4   9  16  26  41  59  79 107 144 180 213 252
#     4   9  16  26  40  58  83 112 139 172 214 257
#     4  10  18  27  42  63  87 115 146 178 212 256
#
# _framework density 15.719163999999999
#
# number of rings (size 3 to 8) (size 9 to 14) (size 15 to 20)
#    0.000    2.625    0.000    3.375    0.000    8.250 
#    0.000    0.000    0.000    0.000    0.000    0.000 
#    0.000    1.000    0.000   10.500    0.000    5.500 
#
# Total GULP energy -396749.193192 kJ/mol
# GULP energy per Si atom -12398.412287 kJ/mol
# Density = 1.568339 g / cm^3
# Si number density = 15.719164 Si / 1000 Ang^3
#
#
#
# Elastic Constant Matrix: (Units=GPa)
#
#
# Indices 1 2 3 4 5 6 
#
# 1 70.3340 48.1974 39.8785 0.0000 -12.0515 0.0000
# 2 48.1974 115.2190 61.6135 0.0000 -15.0780 0.0000
# 3 39.8785 61.6135 103.7827 0.0000 -14.7772 0.0000
# 4 0.0000 0.0000 0.0000 27.9995 0.0000 -4.8779
# 5 -12.0515 -15.0780 -14.7772 0.0000 14.9109 0.0000
# 6 0.0000 0.0000 0.0000 -4.8779 0.0000 25.5675
#
#
#
# Elastic Compliance Matrix: (Units=1/GPa)
#
#
# Indices 1 2 3 4 5 6 
#
# 1 0.021841 -0.006183 -0.003607 0.000000 0.007825 0.000000
# 2 -0.006183 0.014989 -0.005910 0.000000 0.004302 0.000000
# 3 -0.003607 -0.005910 0.015444 0.000000 0.006413 0.000000
# 4 0.000000 0.000000 0.000000 0.036943 0.000000 0.007048
# 5 0.007825 0.004302 0.006413 0.000000 0.084096 0.000000
# 6 0.000000 0.000000 0.000000 0.007048 0.000000 0.040457
#
#
# Mechanical properties :
#
#
# Convention : Reuss Voigt Hill
#
# Bulk Modulus (GPa) = 47.91084 65.41271 56.66178
# Shear Modulus (GPa) = 19.83114 23.00532 21.41823
#
# Velocity S-wave (km/s) = 3.55574 3.82975 3.69529
# Velocity P-wave (km/s) = 6.88499 7.82686 7.37098
#
# Compressibility (1/GPa) = 0.02087210
#
# Stress axis : x y z
#
# Youngs Moduli (GPa) = 45.78487 66.71468 64.75197
#
# Poissons Ratio (x) = 0.41252 0.23359
# Poissons Ratio (y) = 0.28310 0.38270
# Poissons Ratio (z) = 0.16516 0.39430
#
# Static dielectric constant tensor:
#      x y z
#    x 8.871600 0.000000 -0.371910 
#    y 0.000000 3.170660 0.000000 
#    z -0.371910 0.000000 2.928190 
# 
# 
# High freq. dielectric constant tensor:
#      x y z
#    x 1.567250 0.000000 -0.022610 
#    y 0.000000 1.619920 0.000000 
#    z -0.022610 0.000000 1.586330 
# 
# From -- ./inp_files/326925.got.cif
#   From: 2010.06.25/outbox.cif.g09.slc.cpg/sg12_164_cif.got.tgz:326925.got - 2010.06.28 00:19:55.
