data_PCOD8079916
_publ_section_title
;
Structure prediction by ZEFSAII (Michael W. Deem and Ramdas Pophale) SiO2 
 PCOD8079916
Probable space group: C 2/M
;
_chemical_formula_sum "Si O2"
_cell_formula_units_Z 64
_cell_length_a 32.723964
_cell_length_b 9.086257
_cell_length_c 13.978251
_cell_angle_alpha 90.000000
_cell_angle_beta 85.556977
_cell_angle_gamma 90.000000
_cell_volume 4143.779886
_symmetry_space_group_name_H-M "C 2/M"
_symmetry_group_IT_number 12
_symmetry_cell_setting 'monoclinic'
loop_
_space_group_symop_operation_xyz
x,y,z
-x,y,-z
-x,-y,-z
x,-y,z
1/2+x,1/2+y,z
1/2-x,1/2+y,-z
1/2-x,1/2-y,-z
1/2+x,1/2-y,z
loop_
_atom_site_type_symbol
_atom_site_label
_atom_site_fract_x
_atom_site_fract_y
_atom_site_fract_z
Si Si1 0.299805 0.834363 0.580067
Si Si2 0.512250 0.824498 0.228823
Si Si3 0.924523 0.324050 0.168927
Si Si4 0.545270 0.839892 0.031560
Si Si5 0.034303 0.172502 0.419581
Si Si6 0.722754 0.166287 0.637437
Si Si7 0.643136 0.326860 0.695779
Si Si8 0.122489 0.829211 0.484075
O O1 0.286960 0.833158 0.472469
O O2 0.266565 0.743566 0.647607
O O3 0.344302 0.760661 0.583352
O O4 0.301739 0.000000 0.619728
O O5 0.464932 0.778534 0.221626
O O6 0.540767 0.760261 0.135995
O O7 0.529094 0.756814 0.322152
O O8 0.515883 0.000000 0.231042
O O9 0.918891 0.500000 0.171517
O O10 0.885548 0.244560 0.219703
O O11 0.928410 0.263045 0.058037
O O12 0.565109 0.000000 0.045667
O O13 0.500000 0.862604 0.000000
O O14 0.077932 0.215489 0.455465
O O15 0.000000 0.226693 0.500000
O O16 0.030120 0.000000 0.400545
O O17 0.688128 0.257292 0.699816
O O18 0.724379 0.000000 0.676794
O O19 0.646288 0.500000 0.712127
O O20 0.624644 0.288385 0.595407
O O21 0.132212 0.000000 0.466881
#
# Coordination Sequence:
#
# PCOD8079916 Si02
#       8
#     8   8   8   8   8   8   8   8
#     4   9  16  26  41  59  78 102 136 175 207 237
#     4   9  17  29  45  62  79 104 141 180 211 242
#     4   9  16  27  43  61  82 108 136 167 209 257
#     4   7  12  25  43  60  78 102 132 167 209 254
#     4  10  20  32  43  57  82 115 146 175 210 246
#     4   9  16  26  40  58  81 108 135 163 202 250
#     4  10  18  27  40  59  84 111 140 172 203 239
#     4   9  18  30  41  54  78 114 147 172 204 245
#
# _framework density 15.444836
#
# number of rings (size 3 to 8) (size 9 to 14) (size 15 to 20)
#    0.000    3.000    0.000    3.375    0.000    5.750 
#    0.000    0.625    0.000    2.250    0.000    0.000 
#    0.000    1.000    0.000    3.000    0.000    4.625 
#
# Total GULP energy -396566.745358 kJ/mol
# GULP energy per Si atom -12392.710792 kJ/mol
# Density = 1.540968 g / cm^3
# Si number density = 15.444836 Si / 1000 Ang^3
#
#
#
# Elastic Constant Matrix: (Units=GPa)
#
#
# Indices 1 2 3 4 5 6 
#
# 1 106.4184 47.1804 52.6822 0.0000 -26.5279 0.0000
# 2 47.1804 65.4092 38.2202 0.0000 -15.1695 0.0000
# 3 52.6822 38.2202 96.0061 0.0000 -19.7724 0.0000
# 4 0.0000 0.0000 0.0000 12.7320 0.0000 -3.8246
# 5 -26.5279 -15.1695 -19.7724 0.0000 22.9181 0.0000
# 6 0.0000 0.0000 0.0000 -3.8246 0.0000 21.9414
#
#
#
# Elastic Compliance Matrix: (Units=1/GPa)
#
#
# Indices 1 2 3 4 5 6 
#
# 1 0.017887 -0.007604 -0.004330 0.000000 0.011936 0.000000
# 2 -0.007604 0.024344 -0.004880 0.000000 0.003102 0.000000
# 3 -0.004330 -0.004880 0.015854 0.000000 0.005436 0.000000
# 4 0.000000 0.000000 0.000000 0.082882 0.000000 0.014447
# 5 0.011936 0.003102 0.005436 0.000000 0.064192 0.000000
# 6 0.000000 0.000000 0.000000 0.014447 0.000000 0.048094
#
#
# Mechanical properties :
#
#
# Convention : Reuss Voigt Hill
#
# Bulk Modulus (GPa) = 40.88748 60.44437 50.66593
# Shear Modulus (GPa) = 16.94723 20.16837 18.55780
#
# Velocity S-wave (km/s) = 3.31611 3.61755 3.47010
# Velocity P-wave (km/s) = 6.41816 7.52792 6.99508
#
# Compressibility (1/GPa) = 0.02445736
#
# Stress axis : x y z
#
# Youngs Moduli (GPa) = 55.90703 41.07800 63.07404
#
# Poissons Ratio (x) = 0.31235 0.27311
# Poissons Ratio (y) = 0.42510 0.30781
# Poissons Ratio (z) = 0.24208 0.20047
#
# Static dielectric constant tensor:
#      x y z
#    x 2.888880 0.000000 -0.242410 
#    y 0.000000 2.886600 0.000000 
#    z -0.242410 0.000000 2.937260 
# 
# 
# High freq. dielectric constant tensor:
#      x y z
#    x 1.576230 0.000000 -0.027780 
#    y 0.000000 1.586360 0.000000 
#    z -0.027780 0.000000 1.565390 
# 
# From -- ./inp_files/248333.got.cif
#   From: 2010.06.25/outbox.cif.g09.slc.cpg/sg12_125_cif.got.tgz:248333.got - 2010.06.28 00:19:55.
