data_PCOD8079977
_publ_section_title
;
Structure prediction by ZEFSAII (Michael W. Deem and Ramdas Pophale) SiO2 
 PCOD8079977
Probable space group: C 2/M
;
_chemical_formula_sum "Si O2"
_cell_formula_units_Z 64
_cell_length_a 31.856898
_cell_length_b 9.082988
_cell_length_c 30.453338
_cell_angle_alpha 90.000000
_cell_angle_beta 29.394724
_cell_angle_gamma 90.000000
_cell_volume 4325.063619
_symmetry_space_group_name_H-M "C 2/M"
_symmetry_group_IT_number 12
_symmetry_cell_setting 'monoclinic'
loop_
_space_group_symop_operation_xyz
x,y,z
-x,y,-z
-x,-y,-z
x,-y,z
1/2+x,1/2+y,z
1/2-x,1/2+y,-z
1/2-x,1/2-y,-z
1/2+x,1/2-y,z
loop_
_atom_site_type_symbol
_atom_site_label
_atom_site_fract_x
_atom_site_fract_y
_atom_site_fract_z
Si Si1 0.195593 0.328345 0.316133
Si Si2 0.915016 0.327222 0.667800
Si Si3 0.056654 0.833855 0.491723
Si Si4 0.544677 0.831126 0.026950
Si Si5 0.869558 0.825586 0.973511
Si Si6 0.132328 0.331179 0.856856
Si Si7 0.677409 0.829325 0.162805
Si Si8 0.840492 0.672074 0.916709
O O1 0.193483 0.500000 0.328185
O O2 0.152563 0.291079 0.308776
O O3 0.145765 0.248264 0.401144
O O4 0.292512 0.274280 0.227246
O O5 0.934164 0.500000 0.653376
O O6 0.875825 0.259421 0.748500
O O7 0.005258 0.247177 0.577359
O O8 0.000000 0.828163 0.500000
O O9 0.076453 0.000000 0.488346
O O10 0.565449 0.724037 0.048182
O O11 0.445889 0.807818 0.105093
O O12 0.561651 0.000000 0.024864
O O13 0.603676 0.787325 0.931963
O O14 0.898935 0.750506 0.900463
O O15 0.872816 0.000000 0.964689
O O16 0.774175 0.766185 0.072209
O O17 0.163411 0.500000 0.827584
O O18 0.625487 0.804864 0.164332
O O19 0.687792 0.000000 0.164132
O O20 0.831054 0.500000 0.936093
O O21 0.750000 0.750000 0.000000
#
# Coordination Sequence:
#
# PCOD8079977 Si02
#       8
#     8   8   8   8   8   8   8   8
#     4  10  18  27  42  61  81 109 140 168 203 243
#     4   9  16  27  41  58  81 107 136 169 203 241
#     4   9  17  28  40  56  79 106 136 169 202 238
#     4   9  18  31  44  59  81 110 140 171 209 246
#     4  10  18  28  42  60  82 110 143 175 206 241
#     4   9  18  31  44  59  82 109 138 173 209 244
#     4   8  15  26  40  58  81 108 136 167 203 242
#     4   9  16  27  41  58  81 109 139 170 206 246
#
# _framework density 14.797470000000001
#
# number of rings (size 3 to 8) (size 9 to 14) (size 15 to 20)
#    0.000    2.875    0.000    3.750    0.000    4.000 
#    0.000    5.000    0.000    0.000    0.000    0.000 
#    0.000    1.000    0.000    3.000    0.000    4.000 
#
# Total GULP energy -396663.409016 kJ/mol
# GULP energy per Si atom -12395.731532 kJ/mol
# Density = 1.476379 g / cm^3
# Si number density = 14.797470 Si / 1000 Ang^3
#
#
#
# Elastic Constant Matrix: (Units=GPa)
#
#
# Indices 1 2 3 4 5 6 
#
# 1 78.2281 37.2423 30.6533 0.0072 10.2292 -0.0050
# 2 37.2423 74.9350 39.9319 -0.0100 3.8982 0.0083
# 3 30.6533 39.9319 90.0932 -0.0067 6.6498 0.0014
# 4 0.0072 -0.0100 -0.0067 24.5944 0.0019 -1.2598
# 5 10.2292 3.8982 6.6498 0.0019 18.4158 0.0008
# 6 -0.0050 0.0083 0.0014 -1.2598 0.0008 22.1421
#
#
#
# Elastic Compliance Matrix: (Units=1/GPa)
#
#
# Indices 1 2 3 4 5 6 
#
# 1 0.018242 -0.007411 -0.002352 -0.000008 -0.007714 0.000007
# 2 -0.007411 0.020498 -0.006727 0.000008 0.002207 -0.000009
# 3 -0.002352 -0.006727 0.015082 0.000002 -0.002715 0.000001
# 4 -0.000008 0.000008 0.000002 0.040779 -0.000003 0.002320
# 5 -0.007714 0.002207 -0.002715 -0.000003 0.059100 -0.000005
# 6 0.000007 -0.000009 0.000001 0.002320 -0.000005 0.045295
#
#
# Mechanical properties :
#
#
# Convention : Reuss Voigt Hill
#
# Bulk Modulus (GPa) = 47.98153 50.99016 49.48585
# Shear Modulus (GPa) = 20.92729 22.05903 21.49316
#
# Velocity S-wave (km/s) = 3.76473 3.86519 3.81529
# Velocity P-wave (km/s) = 7.16892 7.37923 7.27484
#
# Compressibility (1/GPa) = 0.02084135
#
# Stress axis : x y z
#
# Youngs Moduli (GPa) = 54.81860 48.78525 66.30505
#
# Poissons Ratio (x) = 0.36156 0.15597
# Poissons Ratio (y) = 0.40628 0.44600
# Poissons Ratio (z) = 0.12895 0.32816
#
# Static dielectric constant tensor:
#      x y z
#    x 3.258610 0.000040 0.179290 
#    y 0.000040 2.873600 0.000020 
#    z 0.179290 0.000020 2.849930 
# 
# 
# High freq. dielectric constant tensor:
#      x y z
#    x 1.541990 0.000000 0.013980 
#    y 0.000000 1.569680 0.000000 
#    z 0.013980 0.000000 1.544630 
# 
# From -- ./inp_files/384568.got.cif
#   From: 2010.06.25/outbox.cif.g09.slc.cpg/sg12_193_cif.got.tgz:384568.got - 2010.06.28 00:19:55.
