data_PCOD8079672
_publ_section_title
;
Structure prediction by ZEFSAII (Michael W. Deem and Ramdas Pophale) SiO2 
 PCOD8079672
Probable space group: C 2/M
;
_chemical_formula_sum "Si O2"
_cell_formula_units_Z 64
_cell_length_a 22.574695
_cell_length_b 17.760632
_cell_length_c 8.815638
_cell_angle_alpha 90.000000
_cell_angle_beta 69.872271
_cell_angle_gamma 90.000000
_cell_volume 3318.686773
_symmetry_space_group_name_H-M "C 2/M"
_symmetry_group_IT_number 12
_symmetry_cell_setting 'monoclinic'
loop_
_space_group_symop_operation_xyz
x,y,z
-x,y,-z
-x,-y,-z
x,-y,z
1/2+x,1/2+y,z
1/2-x,1/2+y,-z
1/2-x,1/2-y,-z
1/2+x,1/2-y,z
loop_
_atom_site_type_symbol
_atom_site_label
_atom_site_fract_x
_atom_site_fract_y
_atom_site_fract_z
Si Si1 0.311447 0.715873 0.020440
Si Si2 0.002776 0.855160 0.177983
Si Si3 0.124824 0.685639 0.485505
Si Si4 0.376732 0.355666 0.449672
Si Si5 0.483011 0.916301 0.338680
Si Si6 0.071220 0.707797 0.200986
Si Si7 0.376120 0.414724 0.789877
Si Si8 0.736599 0.321758 0.613029
O O1 0.369762 0.774895 0.960364
O O2 0.326842 0.638364 0.920030
O O3 0.250000 0.750000 0.000000
O O4 0.300912 0.701031 0.204212
O O5 0.936245 0.885158 0.300993
O O6 0.018748 0.773058 0.232573
O O7 0.056451 0.912842 0.185892
O O8 0.000000 0.852367 0.000000
O O9 0.126597 0.765484 0.567899
O O10 0.083029 0.627407 0.619060
O O11 0.095896 0.705320 0.349256
O O12 0.193878 0.645988 0.407899
O O13 0.383294 0.385648 0.612793
O O14 0.309131 0.381403 0.435553
O O15 0.500000 0.920176 0.500000
O O16 0.537156 0.871805 0.195938
O O17 0.477348 0.000000 0.274593
O O18 0.350538 0.500000 0.814107
O O19 0.750000 0.250000 0.500000
#
# Coordination Sequence:
#
# PCOD8079672 Si02
#       8
#     8   8   8   8   8   8   8   8
#     4  11  19  38  64  90 118 160 205 254 306 370
#     4  11  22  36  60  91 118 161 209 256 309 377
#     4  10  17  33  58  88 118 157 201 253 296 363
#     4  11  19  36  59  87 120 158 205 248 303 374
#     4   9  18  31  54  88 122 154 196 252 305 355
#     4  10  18  32  59  87 119 152 204 252 305 365
#     4  11  25  41  61  90 122 159 203 258 323 374
#     4  10  21  35  59  95 120 153 209 253 300 366
#
# _framework density 19.284735999999999
#
# number of rings (size 3 to 8) (size 9 to 14) (size 15 to 20)
#    0.000    1.625    5.000    2.625    0.000    1.250 
#    0.000    3.750    0.000    0.375    0.000    0.000 
#    0.000    0.000    0.000    0.000    0.000    0.000 
#
# Total GULP energy -396614.614619 kJ/mol
# GULP energy per Si atom -12394.206707 kJ/mol
# Density = 1.924084 g / cm^3
# Si number density = 19.284736 Si / 1000 Ang^3
#
#
#
# Elastic Constant Matrix: (Units=GPa)
#
#
# Indices 1 2 3 4 5 6 
#
# 1 131.0423 40.9398 60.1797 0.0000 -8.5046 0.0000
# 2 40.9398 114.7924 35.4111 0.0000 -16.4013 0.0000
# 3 60.1797 35.4111 106.3023 0.0000 -8.3710 0.0000
# 4 0.0000 0.0000 0.0000 8.7255 0.0000 -7.7283
# 5 -8.5046 -16.4013 -8.3710 0.0000 39.9710 0.0000
# 6 0.0000 0.0000 0.0000 -7.7283 0.0000 15.9993
#
#
#
# Elastic Compliance Matrix: (Units=1/GPa)
#
#
# Indices 1 2 3 4 5 6 
#
# 1 0.010787 -0.002150 -0.005368 0.000000 0.000289 0.000000
# 2 -0.002150 0.010603 -0.002042 0.000000 0.003466 0.000000
# 3 -0.005368 -0.002042 0.013188 0.000000 0.000782 0.000000
# 4 0.000000 0.000000 0.000000 0.200304 0.000000 0.096755
# 5 0.000289 0.003466 0.000782 0.000000 0.026665 0.000000
# 6 0.000000 0.000000 0.000000 0.096755 0.000000 0.109239
#
#
# Mechanical properties :
#
#
# Convention : Reuss Voigt Hill
#
# Bulk Modulus (GPa) = 64.69017 69.46647 67.07832
# Shear Modulus (GPa) = 12.65639 27.31291 19.98465
#
# Velocity S-wave (km/s) = 2.56460 3.76745 3.22264
# Velocity P-wave (km/s) = 6.51054 7.41786 6.97896
#
# Compressibility (1/GPa) = 0.01545830
#
# Stress axis : x y z
#
# Youngs Moduli (GPa) = 92.70838 94.31083 75.82863
#
# Poissons Ratio (x) = 0.20276 0.40701
# Poissons Ratio (y) = 0.19931 0.15485
# Poissons Ratio (z) = 0.49762 0.19259
#
# Static dielectric constant tensor:
#      x y z
#    x 4.147140 0.000000 -0.070310 
#    y 0.000000 3.448640 0.000000 
#    z -0.070310 0.000000 3.441120 
# 
# 
# High freq. dielectric constant tensor:
#      x y z
#    x 1.770690 0.000000 -0.003260 
#    y 0.000000 1.714900 0.000000 
#    z -0.003260 0.000000 1.742980 
# 
# From -- ./inp_files/89150.got.cif
#   From: 2010.06.25/outbox.cif.g09.slc.cpg/sg12_45_cif.got.tgz:89150.got - 2010.06.28 00:19:55.
