data_PCOD8079918
_publ_section_title
;
Structure prediction by ZEFSAII (Michael W. Deem and Ramdas Pophale) SiO2 
 PCOD8079918
Probable space group: C 2/M
;
_chemical_formula_sum "Si O2"
_cell_formula_units_Z 64
_cell_length_a 23.919175
_cell_length_b 9.042836
_cell_length_c 27.546100
_cell_angle_alpha 90.000000
_cell_angle_beta 42.422151
_cell_angle_gamma 90.000000
_cell_volume 4019.291202
_symmetry_space_group_name_H-M "C 2/M"
_symmetry_group_IT_number 12
_symmetry_cell_setting 'monoclinic'
loop_
_space_group_symop_operation_xyz
x,y,z
-x,y,-z
-x,-y,-z
x,-y,z
1/2+x,1/2+y,z
1/2-x,1/2+y,-z
1/2-x,1/2-y,-z
1/2+x,1/2-y,z
loop_
_atom_site_type_symbol
_atom_site_label
_atom_site_fract_x
_atom_site_fract_y
_atom_site_fract_z
Si Si1 0.616456 0.326308 0.228585
Si Si2 0.845081 0.828231 0.989106
Si Si3 0.593928 0.170456 0.955618
Si Si4 0.921076 0.664436 0.515177
Si Si5 0.014198 0.168805 0.382473
Si Si6 0.659334 0.169892 0.341624
Si Si7 0.150682 0.671596 0.112246
Si Si8 0.733036 0.328339 0.812981
O O1 0.639171 0.500000 0.211276
O O2 0.531329 0.302245 0.314198
O O3 0.599964 0.259441 0.186032
O O4 0.692445 0.237535 0.203252
O O5 0.875419 0.741399 0.922186
O O6 0.867464 0.000000 0.968888
O O7 0.893497 0.760843 0.003277
O O8 0.747767 0.804812 0.059933
O O9 0.649391 0.239518 0.877120
O O10 0.618876 0.000000 0.947788
O O11 0.500000 0.187134 0.000000
O O12 0.910755 0.500000 0.502556
O O13 0.840660 0.708710 0.600308
O O14 0.000000 0.683749 0.500000
O O15 0.932203 0.756057 0.458194
O O16 0.096538 0.221180 0.356128
O O17 0.001169 0.000000 0.402333
O O18 0.747415 0.187435 0.257581
O O19 0.627348 0.000000 0.356393
O O20 0.125849 0.500000 0.128537
O O21 0.722275 0.500000 0.834738
#
# Coordination Sequence:
#
# PCOD8079918 Si02
#       8
#     8   8   8   8   8   8   8   8
#     4  10  18  27  40  59  86 115 142 177 216 254
#     4  10  20  33  49  68  87 111 142 179 220 262
#     4  11  23  36  49  65  88 116 144 180 223 264
#     4   8  13  22  33  46  68 101 135 168 204 244
#     4   9  16  22  31  51  76 104 137 171 205 242
#     4   8  15  25  36  50  71 100 135 172 210 248
#     4  10  19  30  47  68  89 113 142 180 220 260
#     4  10  18  29  44  61  80 106 143 183 218 258
#
# _framework density 15.923204999999999
#
# number of rings (size 3 to 8) (size 9 to 14) (size 15 to 20)
#    0.000    2.500    1.250    3.000    0.000    6.250 
#    0.000    0.000    0.000    0.000    0.000    0.000 
#    0.000    0.000    0.000    1.125    0.000   14.625 
#
# Total GULP energy -396495.896482 kJ/mol
# GULP energy per Si atom -12390.496765 kJ/mol
# Density = 1.588696 g / cm^3
# Si number density = 15.923205 Si / 1000 Ang^3
#
#
#
# Elastic Constant Matrix: (Units=GPa)
#
#
# Indices 1 2 3 4 5 6 
#
# 1 32.4669 23.8987 28.2238 0.0010 6.9352 0.0000
# 2 23.8987 98.0648 59.5608 0.0038 14.5761 -0.0017
# 3 28.2238 59.5608 138.4334 -0.0005 25.0421 0.0014
# 4 0.0010 0.0038 -0.0005 28.4006 0.0000 5.4394
# 5 6.9352 14.5761 25.0421 0.0000 14.7151 0.0009
# 6 0.0000 -0.0017 0.0014 5.4394 0.0009 15.8624
#
#
#
# Elastic Compliance Matrix: (Units=1/GPa)
#
#
# Indices 1 2 3 4 5 6 
#
# 1 0.040555 -0.006323 -0.004657 -0.000001 -0.004925 0.000000
# 2 -0.006323 0.015066 -0.004381 -0.000002 -0.004488 0.000003
# 3 -0.004657 -0.004381 0.012824 0.000001 -0.015289 -0.000001
# 4 -0.000001 -0.000002 0.000001 0.037686 0.000002 -0.012923
# 5 -0.004925 -0.004488 -0.015289 0.000002 0.100743 -0.000006
# 6 0.000000 0.000003 -0.000001 -0.012923 -0.000006 0.067474
#
#
# Mechanical properties :
#
#
# Convention : Reuss Voigt Hill
#
# Bulk Modulus (GPa) = 26.50899 54.70353 40.60626
# Shear Modulus (GPa) = 15.74085 22.28107 19.01096
#
# Velocity S-wave (km/s) = 3.14753 3.74476 3.45906
# Velocity P-wave (km/s) = 5.46749 7.28881 6.44283
#
# Compressibility (1/GPa) = 0.03772305
#
# Stress axis : x y z
#
# Youngs Moduli (GPa) = 24.65773 66.37299 77.97901
#
# Poissons Ratio (x) = 0.41967 0.36315
# Poissons Ratio (y) = 0.15591 0.34165
# Poissons Ratio (z) = 0.11483 0.29080
#
# Static dielectric constant tensor:
#      x y z
#    x 2.380470 0.000000 0.289680 
#    y 0.000000 3.196630 0.000000 
#    z 0.289680 0.000000 3.682270 
# 
# 
# High freq. dielectric constant tensor:
#      x y z
#    x 1.524430 0.000000 0.030720 
#    y 0.000000 1.630240 0.000000 
#    z 0.030720 0.000000 1.633100 
# 
# From -- ./inp_files/367037.got.cif
#   From: 2010.06.25/outbox.cif.g09.slc.cpg/sg12_184_cif.got.tgz:367037.got - 2010.06.28 00:19:55.
