data_PCOD8079438
_publ_section_title
;
Structure prediction by ZEFSAII (Michael W. Deem and Ramdas Pophale) SiO2 
 PCOD8079438
Probable space group: C 2/M
;
_chemical_formula_sum "Si O2"
_cell_formula_units_Z 56
_cell_length_a 19.076219
_cell_length_b 24.187597
_cell_length_c 11.397322
_cell_angle_alpha 90.000000
_cell_angle_beta 38.238998
_cell_angle_gamma 90.000000
_cell_volume 3254.907088
_symmetry_space_group_name_H-M "C 2/M"
_symmetry_group_IT_number 12
_symmetry_cell_setting 'monoclinic'
loop_
_space_group_symop_operation_xyz
x,y,z
-x,y,-z
-x,-y,-z
x,-y,z
1/2+x,1/2+y,z
1/2-x,1/2+y,-z
1/2-x,1/2-y,-z
1/2+x,1/2-y,z
loop_
_atom_site_type_symbol
_atom_site_label
_atom_site_fract_x
_atom_site_fract_y
_atom_site_fract_z
Si Si1 0.180566 0.647672 0.985748
Si Si2 0.513838 0.063247 0.120699
Si Si3 0.161100 0.201429 0.077529
Si Si4 0.129422 0.294875 0.825003
Si Si5 0.874212 0.170733 0.142655
Si Si6 0.669790 0.854837 0.548508
Si Si7 0.995339 0.711536 0.643974
O O1 0.094626 0.665134 0.201278
O O2 0.137086 0.589285 0.991802
O O3 0.305581 0.648799 0.881876
O O4 0.182613 0.694909 0.882492
O O5 0.411365 0.092175 0.327072
O O6 0.515094 0.000000 0.159351
O O7 0.500000 0.069025 0.000000
O O8 0.037263 0.226937 0.265958
O O9 0.250000 0.250000 0.000000
O O10 0.161890 0.177783 0.945078
O O11 0.131200 0.230717 0.788932
O O12 0.198150 0.329750 0.638677
O O13 0.000000 0.317370 0.000000
O O14 0.785859 0.130249 0.327045
O O15 0.000000 0.145987 0.000000
O O16 0.614009 0.805570 0.545089
O O17 0.000000 0.712734 0.500000
#
# Coordination Sequence:
#
# PCOD8079438 Si02
#       7
#     8   8   8   8   8   8   8
#     4  10  17  31  49  70 111 136 164 216 256 315
#     4  10  19  34  57  82 106 134 173 223 273 312
#     4  10  18  32  45  66 105 144 175 207 248 310
#     4  11  16  30  45  74 108 139 171 205 258 317
#     4  11  22  33  48  71 107 148 181 213 256 318
#     4  11  19  32  51  74 106 142 177 222 263 311
#     4  10  18  28  47  70 100 143 181 206 249 310
#
# _framework density 17.204792999999999
#
# number of rings (size 3 to 8) (size 9 to 14) (size 15 to 20)
#    0.000    1.571    7.143    3.000    0.000    0.000 
#    0.000    0.000    0.000   15.857    0.000    0.000 
#    0.000    2.857    0.000    0.000    0.000    0.000 
#
# Total GULP energy -346912.505204 kJ/mol
# GULP energy per Si atom -12389.732329 kJ/mol
# Density = 1.716563 g / cm^3
# Si number density = 17.204793 Si / 1000 Ang^3
#
#
#
# Elastic Constant Matrix: (Units=GPa)
#
#
# Indices 1 2 3 4 5 6 
#
# 1 94.3644 23.5344 38.2496 0.0001 3.3167 -0.0001
# 2 23.5344 68.6380 25.3008 0.0000 -4.6618 0.0000
# 3 38.2496 25.3008 87.6201 0.0001 7.6521 -0.0001
# 4 0.0001 0.0000 0.0001 15.5080 0.0000 0.4183
# 5 3.3167 -4.6618 7.6521 0.0000 30.7078 0.0000
# 6 -0.0001 0.0000 -0.0001 0.4183 0.0000 16.5188
#
#
#
# Elastic Compliance Matrix: (Units=1/GPa)
#
#
# Indices 1 2 3 4 5 6 
#
# 1 0.013323 -0.002783 -0.004958 0.000000 -0.000626 0.000000
# 2 -0.002783 0.017315 -0.004131 0.000000 0.003959 0.000000
# 3 -0.004958 -0.004131 0.015107 0.000000 -0.003856 0.000000
# 4 0.000000 0.000000 0.000000 0.064527 0.000000 -0.001634
# 5 -0.000626 0.003959 -0.003856 0.000000 0.034194 0.000000
# 6 0.000000 0.000000 0.000000 -0.001634 0.000000 0.060579
#
#
# Mechanical properties :
#
#
# Convention : Reuss Voigt Hill
#
# Bulk Modulus (GPa) = 45.45102 47.19910 46.32506
# Shear Modulus (GPa) = 21.17559 23.44942 22.31250
#
# Velocity S-wave (km/s) = 3.51208 3.69583 3.60512
# Velocity P-wave (km/s) = 6.55143 6.76058 6.65683
#
# Compressibility (1/GPa) = 0.02200171
#
# Stress axis : x y z
#
# Youngs Moduli (GPa) = 75.05892 57.75372 66.19642
#
# Poissons Ratio (x) = 0.16074 0.32818
# Poissons Ratio (y) = 0.20890 0.27342
# Poissons Ratio (z) = 0.37211 0.23855
#
# Static dielectric constant tensor:
#      x y z
#    x 3.606390 0.000000 -0.071340 
#    y 0.000000 2.987170 0.000000 
#    z -0.071340 0.000000 3.234070 
# 
# 
# High freq. dielectric constant tensor:
#      x y z
#    x 1.675580 0.000000 0.016390 
#    y 0.000000 1.602550 0.000000 
#    z 0.016390 0.000000 1.655220 
# 
# From -- ./inp_files/170003.got.cif
#   From: 2010.06.25/outbox.cif.g09.slc.cpg/sg12_86_cif.got.tgz:170003.got - 2010.06.28 00:19:55.
