data_PCOD8079607
_publ_section_title
;
Structure prediction by ZEFSAII (Michael W. Deem and Ramdas Pophale) SiO2 
 PCOD8079607
Probable space group: C 2/M
;
_chemical_formula_sum "Si O2"
_cell_formula_units_Z 64
_cell_length_a 23.689084
_cell_length_b 8.803916
_cell_length_c 27.699071
_cell_angle_alpha 90.000000
_cell_angle_beta 33.698640
_cell_angle_gamma 90.000000
_cell_volume 3205.126188
_symmetry_space_group_name_H-M "C 2/M"
_symmetry_group_IT_number 12
_symmetry_cell_setting 'monoclinic'
loop_
_space_group_symop_operation_xyz
x,y,z
-x,y,-z
-x,-y,-z
x,-y,z
1/2+x,1/2+y,z
1/2-x,1/2+y,-z
1/2-x,1/2-y,-z
1/2+x,1/2-y,z
loop_
_atom_site_type_symbol
_atom_site_label
_atom_site_fract_x
_atom_site_fract_y
_atom_site_fract_z
Si Si1 0.488911 0.319554 0.391171
Si Si2 0.068986 0.179506 0.232150
Si Si3 0.572765 0.177747 0.745281
Si Si4 0.714098 0.679425 0.913690
Si Si5 0.850779 0.178724 0.146383
Si Si6 0.300866 0.321402 0.582266
Si Si7 0.329346 0.321618 0.670302
Si Si8 0.519304 0.176373 0.085283
O O1 0.484954 0.500000 0.394286
O O2 0.516480 0.257448 0.318567
O O3 0.378877 0.254609 0.486587
O O4 0.573624 0.264171 0.368812
O O5 0.178647 0.252692 0.146852
O O6 0.999685 0.224801 0.236862
O O7 0.081974 0.000000 0.225453
O O8 0.687047 0.243154 0.656400
O O9 0.542211 0.207631 0.822097
O O10 0.563483 0.000000 0.738945
O O11 0.720564 0.500000 0.913258
O O12 0.686144 0.734552 0.879717
O O13 0.628584 0.741809 0.011001
O O14 0.768138 0.227998 0.244126
O O15 0.957749 0.255630 0.083732
O O16 0.867580 0.000000 0.135504
O O17 0.292045 0.500000 0.582797
O O18 0.347699 0.283208 0.601281
O O19 0.307357 0.500000 0.694062
O O20 0.537274 0.000000 0.063474
#
# Coordination Sequence:
#
# PCOD8079607 Si02
#       8
#     8   8   8   8   8   8   8   8
#     4   9  18  32  57  90 119 148 192 242 287 340
#     4  11  23  39  60  86 115 152 200 248 288 336
#     4  10  22  40  60  83 115 154 196 241 293 346
#     4  11  24  41  61  87 119 156 190 232 295 353
#     4  11  22  36  58  88 123 156 186 230 292 352
#     4   9  17  33  58  88 118 152 191 236 291 346
#     4  10  17  32  59  88 117 152 193 237 287 344
#     4  11  23  40  63  90 116 151 196 240 285 343
#
# _framework density 19.968014
#
# number of rings (size 3 to 8) (size 9 to 14) (size 15 to 20)
#    0.000    1.750    2.500    2.250    0.000    6.500 
#    0.000    0.000    0.000    4.500    0.000    0.000 
#    0.000    0.000    0.000    0.000    0.000    0.000 
#
# Total GULP energy -396871.436166 kJ/mol
# GULP energy per Si atom -12402.232380 kJ/mol
# Density = 1.992257 g / cm^3
# Si number density = 19.968014 Si / 1000 Ang^3
#
#
#
# Elastic Constant Matrix: (Units=GPa)
#
#
# Indices 1 2 3 4 5 6 
#
# 1 92.5933 31.6997 27.0176 0.0134 -26.0879 -0.0092
# 2 31.6997 51.6367 29.7525 0.0101 -6.7263 -0.0168
# 3 27.0176 29.7525 122.7964 0.0035 -23.4709 -0.0008
# 4 0.0134 0.0101 0.0035 18.6681 -0.0007 -7.1303
# 5 -26.0879 -6.7263 -23.4709 -0.0007 24.2822 0.0027
# 6 -0.0092 -0.0168 -0.0008 -7.1303 0.0027 22.2672
#
#
#
# Elastic Compliance Matrix: (Units=1/GPa)
#
#
# Indices 1 2 3 4 5 6 
#
# 1 0.019420 -0.010528 0.002096 -0.000010 0.019974 -0.000005
# 2 -0.010528 0.028243 -0.006370 0.000000 -0.009644 0.000018
# 3 0.002096 -0.006370 0.011431 -0.000002 0.011536 -0.000006
# 4 -0.000010 0.000000 -0.000002 0.061032 -0.000013 0.019543
# 5 0.019974 -0.009644 0.011536 -0.000013 0.071120 -0.000011
# 6 -0.000005 0.000018 -0.000006 0.019543 -0.000011 0.051167
#
#
# Mechanical properties :
#
#
# Convention : Reuss Voigt Hill
#
# Bulk Modulus (GPa) = 33.91005 49.32954 41.61979
# Shear Modulus (GPa) = 17.74009 24.94730 21.34369
#
# Velocity S-wave (km/s) = 2.98388 3.53847 3.27294
# Velocity P-wave (km/s) = 5.37498 6.43834 5.93054
#
# Compressibility (1/GPa) = 0.02948978
#
# Stress axis : x y z
#
# Youngs Moduli (GPa) = 51.49285 35.40689 87.48274
#
# Poissons Ratio (x) = 0.37275 -0.18333
# Poissons Ratio (y) = 0.54210 0.55728
# Poissons Ratio (z) = -0.10791 0.22555
#
# Static dielectric constant tensor:
#      x y z
#    x 3.609010 -0.000010 -0.030190 
#    y -0.000010 3.322120 0.000020 
#    z -0.030190 0.000020 3.977340 
# 
# 
# High freq. dielectric constant tensor:
#      x y z
#    x 1.777100 0.000000 -0.004770 
#    y 0.000000 1.751000 0.000000 
#    z -0.004770 0.000000 1.796310 
# 
# From -- ./inp_files/382346.got.cif
#   From: 2010.06.25/outbox.cif.g09.slc.cpg/sg12_192_cif.got.tgz:382346.got - 2010.06.28 00:19:55.
