data_PCOD8079882
_publ_section_title
;
Structure prediction by ZEFSAII (Michael W. Deem and Ramdas Pophale) SiO2 
 PCOD8079882
Probable space group: C 2/M
;
_chemical_formula_sum "Si O2"
_cell_formula_units_Z 64
_cell_length_a 24.292431
_cell_length_b 9.215052
_cell_length_c 18.977384
_cell_angle_alpha 90.000000
_cell_angle_beta 78.148177
_cell_angle_gamma 90.000000
_cell_volume 4157.638502
_symmetry_space_group_name_H-M "C 2/M"
_symmetry_group_IT_number 12
_symmetry_cell_setting 'monoclinic'
loop_
_space_group_symop_operation_xyz
x,y,z
-x,y,-z
-x,-y,-z
x,-y,z
1/2+x,1/2+y,z
1/2-x,1/2+y,-z
1/2-x,1/2-y,-z
1/2+x,1/2-y,z
loop_
_atom_site_type_symbol
_atom_site_label
_atom_site_fract_x
_atom_site_fract_y
_atom_site_fract_z
Si Si1 0.457969 0.667686 0.950747
Si Si2 0.898340 0.166598 0.615760
Si Si3 0.448961 0.831880 0.812160
Si Si4 0.655900 0.329970 0.230368
Si Si5 0.169926 0.834607 0.005533
Si Si6 0.562800 0.838974 0.514624
Si Si7 0.998295 0.666058 0.657545
Si Si8 0.727821 0.831830 0.113191
O O1 0.469030 0.500000 0.929104
O O2 0.470538 0.761496 0.878286
O O3 0.394923 0.691917 0.996323
O O4 0.500000 0.722666 0.000000
O O5 0.846842 0.194278 0.683960
O O6 0.892409 0.241840 0.540537
O O7 0.952519 0.222936 0.641859
O O8 0.906487 0.000000 0.596900
O O9 0.394066 0.749798 0.798230
O O10 0.500370 0.817017 0.741721
O O11 0.433416 0.000000 0.828357
O O12 0.652598 0.500000 0.212855
O O13 0.714298 0.260119 0.187439
O O14 0.187073 0.723559 0.061850
O O15 0.180119 0.000000 0.029339
O O16 0.207276 0.805711 0.925817
O O17 0.500000 0.821203 0.500000
O O18 0.557012 0.799399 0.600192
O O19 0.586235 0.000000 0.499472
O O20 0.980452 0.500000 0.642587
O O21 0.715065 0.000000 0.130560
#
# Coordination Sequence:
#
# PCOD8079882 Si02
#       8
#     8   8   8   8   8   8   8   8
#     4  10  20  33  47  61  81 109 135 164 207 252
#     4   9  16  22  31  49  72  98 129 161 192 227
#     4  10  18  28  42  59  77 100 136 174 203 237
#     4  10  18  27  38  55  81 109 133 165 205 240
#     4   9  18  31  44  60  82 104 130 166 206 246
#     4   8  13  22  33  45  66  97 128 157 191 229
#     4   8  15  25  35  48  69  97 127 161 198 231
#     4  10  18  27  43  63  80 103 134 169 204 238
#
# _framework density 15.393352999999999
#
# number of rings (size 3 to 8) (size 9 to 14) (size 15 to 20)
#    0.000    2.750    1.250    2.250    0.000    5.000 
#    0.000    0.000    0.000    0.000    0.000    0.000 
#    0.000    0.000    0.000    1.125    0.000   12.875 
#
# Total GULP energy -396435.011058 kJ/mol
# GULP energy per Si atom -12388.594096 kJ/mol
# Density = 1.535832 g / cm^3
# Si number density = 15.393353 Si / 1000 Ang^3
#
#
#
# Elastic Constant Matrix: (Units=GPa)
#
#
# Indices 1 2 3 4 5 6 
#
# 1 43.9859 23.5141 39.3715 0.0000 -7.9167 0.0000
# 2 23.5141 91.4663 65.4079 0.0000 -16.9722 0.0000
# 3 39.3715 65.4079 139.4117 0.0000 -29.7542 0.0000
# 4 0.0000 0.0000 0.0000 25.7222 0.0000 -5.0973
# 5 -7.9167 -16.9722 -29.7542 0.0000 17.7249 0.0000
# 6 0.0000 0.0000 0.0000 -5.0973 0.0000 11.6250
#
#
#
# Elastic Compliance Matrix: (Units=1/GPa)
#
#
# Indices 1 2 3 4 5 6 
#
# 1 0.030864 -0.002661 -0.007900 0.000000 -0.002024 0.000000
# 2 -0.002661 0.016901 -0.006199 0.000000 0.004590 0.000000
# 3 -0.007900 -0.006199 0.016039 0.000000 0.017460 0.000000
# 4 0.000000 0.000000 0.000000 0.042576 0.000000 0.018669
# 5 -0.002024 0.004590 0.017460 0.000000 0.089218 0.000000
# 6 0.000000 0.000000 0.000000 0.018669 0.000000 0.094207
#
#
# Mechanical properties :
#
#
# Convention : Reuss Voigt Hill
#
# Bulk Modulus (GPa) = 33.01945 59.05008 46.03476
# Shear Modulus (GPa) = 14.99616 20.78577 17.89097
#
# Velocity S-wave (km/s) = 3.12460 3.67864 3.41288
# Velocity P-wave (km/s) = 5.87491 7.51580 6.74543
#
# Compressibility (1/GPa) = 0.03028518
#
# Stress axis : x y z
#
# Youngs Moduli (GPa) = 32.40031 59.16698 62.34959
#
# Poissons Ratio (x) = 0.15743 0.49256
# Poissons Ratio (y) = 0.08621 0.38648
# Poissons Ratio (z) = 0.25596 0.36675
#
# Static dielectric constant tensor:
#      x y z
#    x 2.472710 0.000000 -0.460320 
#    y 0.000000 3.072450 0.000000 
#    z -0.460320 0.000000 3.567140 
# 
# 
# High freq. dielectric constant tensor:
#      x y z
#    x 1.509070 0.000000 -0.040640 
#    y 0.000000 1.603800 0.000000 
#    z -0.040640 0.000000 1.604990 
# 
# From -- ./inp_files/323373.got.cif
#   From: 2010.06.25/outbox.cif.g09.slc.cpg/sg12_162_cif.got.tgz:323373.got - 2010.06.28 00:19:55.
