data_PCOD8079117
_publ_section_title
;
Structure prediction by ZEFSAII (Michael W. Deem and Ramdas Pophale) SiO2 
 PCOD8079117
Probable space group: C 2/M
;
_chemical_formula_sum "Si O2"
_cell_formula_units_Z 48
_cell_length_a 18.512178
_cell_length_b 13.085495
_cell_length_c 15.006920
_cell_angle_alpha 90.000000
_cell_angle_beta 47.545197
_cell_angle_gamma 90.000000
_cell_volume 2682.154556
_symmetry_space_group_name_H-M "C 2/M"
_symmetry_group_IT_number 12
_symmetry_cell_setting 'monoclinic'
loop_
_space_group_symop_operation_xyz
x,y,z
-x,y,-z
-x,-y,-z
x,-y,z
1/2+x,1/2+y,z
1/2-x,1/2+y,-z
1/2-x,1/2-y,-z
1/2+x,1/2-y,z
loop_
_atom_site_type_symbol
_atom_site_label
_atom_site_fract_x
_atom_site_fract_y
_atom_site_fract_z
Si Si1 0.538609 0.115335 0.128459
Si Si2 0.500000 0.214311 0.500000
Si Si3 0.000000 0.759370 0.000000
Si Si4 0.664322 0.887776 0.613604
Si Si5 0.121256 0.381108 0.243500
Si Si6 0.804836 0.878716 0.203933
Si Si7 0.184947 0.752874 0.435762
O O1 0.424287 0.110525 0.244413
O O2 0.597608 0.163830 0.164446
O O3 0.575820 0.000000 0.073565
O O4 0.549202 0.189640 0.035367
O O5 0.460557 0.147071 0.615069
O O6 0.590845 0.283911 0.455371
O O7 0.087393 0.832634 0.895724
O O8 0.760945 0.858540 0.589250
O O9 0.644360 0.801380 0.557675
O O10 0.679649 0.000000 0.558081
O O11 0.107497 0.500000 0.242429
O O12 0.231977 0.352769 0.181445
O O13 0.756954 0.829331 0.330947
O O14 0.813287 0.000000 0.210444
#
# Coordination Sequence:
#
# PCOD8079117 Si02
#       7
#     8   4   4   8   8   8   8
#     4  10  20  35  54  77 102 135 175 217 257 297
#     4  10  17  28  53  80 106 130 162 208 266 312
#     4  12  22  36  52  74 102 146 178 212 242 302
#     4  10  19  33  53  77 106 135 167 212 261 311
#     4   9  18  32  51  77 104 131 166 213 262 306
#     4  10  21  35  52  76 105 136 171 211 258 306
#     4  10  19  33  53  81 105 132 166 211 265 312
#
# _framework density 17.896062000000001
#
# number of rings (size 3 to 8) (size 9 to 14) (size 15 to 20)
#    0.000    2.000    3.333    1.250    0.000    2.000 
#    0.000    0.417    0.000    0.000    0.000    1.167 
#    0.000    0.000    0.000    0.000    0.000    0.000 
#
# Total GULP energy -297410.621722 kJ/mol
# GULP energy per Si atom -12392.109238 kJ/mol
# Density = 1.785533 g / cm^3
# Si number density = 17.896062 Si / 1000 Ang^3
#
#
#
# Elastic Constant Matrix: (Units=GPa)
#
#
# Indices 1 2 3 4 5 6 
#
# 1 88.8030 7.9878 13.7568 0.0000 -3.2455 0.0000
# 2 7.9878 37.0078 1.6426 0.0000 -4.0716 0.0000
# 3 13.7568 1.6426 46.6558 0.0000 -3.5235 0.0000
# 4 0.0000 0.0000 0.0000 20.2270 0.0000 -1.3174
# 5 -3.2455 -4.0716 -3.5235 0.0000 33.1386 0.0000
# 6 0.0000 0.0000 0.0000 -1.3174 0.0000 19.9529
#
#
#
# Elastic Compliance Matrix: (Units=1/GPa)
#
#
# Indices 1 2 3 4 5 6 
#
# 1 0.012025 -0.002386 -0.003422 0.000000 0.000521 0.000000
# 2 -0.002386 0.027889 -0.000037 0.000000 0.003189 0.000000
# 3 -0.003422 -0.000037 0.022600 0.000000 0.002063 0.000000
# 4 0.000000 0.000000 0.000000 0.049652 0.000000 0.003278
# 5 0.000521 0.003189 0.002063 0.000000 0.030838 0.000000
# 6 0.000000 0.000000 0.000000 0.003278 0.000000 0.050335
#
#
# Mechanical properties :
#
#
# Convention : Reuss Voigt Hill
#
# Bulk Modulus (GPa) = 19.67672 24.36011 22.01841
# Shear Modulus (GPa) = 22.52545 24.60232 23.56388
#
# Velocity S-wave (km/s) = 3.55164 3.71176 3.63258
# Velocity P-wave (km/s) = 5.27615 5.65784 5.47032
#
# Compressibility (1/GPa) = 0.05082148
#
# Stress axis : x y z
#
# Youngs Moduli (GPa) = 83.16213 35.85655 44.24830
#
# Poissons Ratio (x) = 0.08556 0.15143
# Poissons Ratio (y) = 0.19845 0.00166
# Poissons Ratio (z) = 0.28460 0.00134
#
# Static dielectric constant tensor:
#      x y z
#    x 3.633200 0.000000 -0.011290 
#    y 0.000000 3.161990 0.000000 
#    z -0.011290 0.000000 3.156900 
# 
# 
# High freq. dielectric constant tensor:
#      x y z
#    x 1.708040 0.000000 -0.001800 
#    y 0.000000 1.666390 0.000000 
#    z -0.001800 0.000000 1.681440 
# 
# From -- ./inp_files/276329.got.cif
#   From: 2010.06.25/outbox.cif.g09.slc.cpg/sg12_139_cif.got.tgz:276329.got - 2010.06.28 00:19:55.
