data_PCOD8079667
_publ_section_title
;
Structure prediction by ZEFSAII (Michael W. Deem and Ramdas Pophale) SiO2 
 PCOD8079667
Probable space group: C 2/M
;
_chemical_formula_sum "Si O2"
_cell_formula_units_Z 64
_cell_length_a 17.661669
_cell_length_b 28.147865
_cell_length_c 11.976790
_cell_angle_alpha 90.000000
_cell_angle_beta 148.442922
_cell_angle_gamma 90.000000
_cell_volume 3116.075410
_symmetry_space_group_name_H-M "C 2/M"
_symmetry_group_IT_number 12
_symmetry_cell_setting 'monoclinic'
loop_
_space_group_symop_operation_xyz
x,y,z
-x,y,-z
-x,-y,-z
x,-y,z
1/2+x,1/2+y,z
1/2-x,1/2+y,-z
1/2-x,1/2-y,-z
1/2+x,1/2-y,z
loop_
_atom_site_type_symbol
_atom_site_label
_atom_site_fract_x
_atom_site_fract_y
_atom_site_fract_z
Si Si1 0.160158 0.221346 0.082879
Si Si2 0.101679 0.327587 0.018680
Si Si3 0.650416 0.291333 0.332654
Si Si4 0.336734 0.405738 0.294878
Si Si5 0.174820 0.947003 0.489538
Si Si6 0.653915 0.443679 0.936045
Si Si7 0.168430 0.369426 0.697010
Si Si8 0.158263 0.627447 0.425446
O O1 0.146004 0.210996 0.194666
O O2 0.280946 0.183154 0.193574
O O3 0.181671 0.277771 0.087329
O O4 0.013448 0.210339 0.829754
O O5 0.000680 0.349675 0.793593
O O6 0.232199 0.363252 0.200287
O O7 0.000000 0.320924 0.000000
O O8 0.750000 0.250000 0.500000
O O9 0.719555 0.338133 0.471365
O O10 0.500000 0.385623 0.500000
O O11 0.317510 0.445172 0.366597
O O12 0.298012 0.430071 0.129040
O O13 0.310540 0.920615 0.602213
O O14 0.013643 0.930336 0.249704
O O15 0.198774 0.000000 0.479487
O O16 0.681947 0.500000 0.989742
O O17 0.751281 0.412310 0.140212
O O18 0.196047 0.378220 0.601918
O O19 0.000000 0.373699 0.500000
#
# Coordination Sequence:
#
# PCOD8079667 Si02
#       8
#     8   8   8   8   8   8   8   8
#     4  10  21  35  59  88 121 164 214 251 309 382
#     4  12  20  38  64  97 131 166 216 264 323 391
#     4  10  17  33  57  88 117 157 202 251 312 374
#     4  10  22  40  64  96 131 170 212 266 325 387
#     4  10  21  39  66  99 127 158 210 277 334 379
#     4  10  22  44  69  90 124 175 219 257 321 399
#     4  11  25  44  60  88 133 174 218 265 318 381
#     4  11  22  37  63  92 129 162 207 275 323 377
#
# _framework density 20.538657000000001
#
# number of rings (size 3 to 8) (size 9 to 14) (size 15 to 20)
#    0.000    1.500    3.750    1.875    0.000    4.250 
#    0.000    6.875    0.000    0.000    0.000    0.000 
#    0.000    0.000    0.000    0.000    0.000    0.000 
#
# Total GULP energy -396483.121138 kJ/mol
# GULP energy per Si atom -12390.097536 kJ/mol
# Density = 2.049191 g / cm^3
# Si number density = 20.538657 Si / 1000 Ang^3
#
#
#
# Elastic Constant Matrix: (Units=GPa)
#
#
# Indices 1 2 3 4 5 6 
#
# 1 55.9255 38.7740 25.8098 0.0000 -4.0051 0.0000
# 2 38.7740 133.6817 53.3792 0.0000 5.1053 0.0000
# 3 25.8098 53.3792 111.1136 0.0000 -8.3554 0.0000
# 4 0.0000 0.0000 0.0000 36.7147 0.0000 0.5516
# 5 -4.0051 5.1053 -8.3554 0.0000 24.1125 0.0000
# 6 0.0000 0.0000 0.0000 0.5516 0.0000 22.9377
#
#
#
# Elastic Compliance Matrix: (Units=1/GPa)
#
#
# Indices 1 2 3 4 5 6 
#
# 1 0.023430 -0.006093 -0.002182 0.000000 0.004426 0.000000
# 2 -0.006093 0.011154 -0.004309 0.000000 -0.004867 0.000000
# 3 -0.002182 -0.004309 0.011929 0.000000 0.004684 0.000000
# 4 0.000000 0.000000 0.000000 0.027247 0.000000 -0.000655
# 5 0.004426 -0.004867 0.004684 0.000000 0.044861 0.000000
# 6 0.000000 0.000000 0.000000 -0.000655 0.000000 0.043612
#
#
# Mechanical properties :
#
#
# Convention : Reuss Voigt Hill
#
# Bulk Modulus (GPa) = 46.85281 59.62742 53.24012
# Shear Modulus (GPa) = 25.70473 28.93683 27.32078
#
# Velocity S-wave (km/s) = 3.54153 3.75760 3.65116
# Velocity P-wave (km/s) = 6.29165 6.92249 6.61459
#
# Compressibility (1/GPa) = 0.02134344
#
# Stress axis : x y z
#
# Youngs Moduli (GPa) = 42.68106 89.65130 83.82915
#
# Poissons Ratio (x) = 0.54627 0.18294
# Poissons Ratio (y) = 0.26007 0.36123
# Poissons Ratio (z) = 0.09314 0.38632
#
# Static dielectric constant tensor:
#      x y z
#    x 3.402990 0.000000 0.126210 
#    y 0.000000 3.720220 0.000000 
#    z 0.126210 0.000000 4.019770 
# 
# 
# High freq. dielectric constant tensor:
#      x y z
#    x 1.777760 0.000000 -0.002470 
#    y 0.000000 1.808160 0.000000 
#    z -0.002470 0.000000 1.817210 
# 
# From -- ./inp_files/161248.got.cif
#   From: 2010.06.25/outbox.cif.g09.slc.cpg/sg12_81_cif.got.tgz:161248.got - 2010.06.28 00:19:55.
