data_PCOD8079834
_publ_section_title
;
Structure prediction by ZEFSAII (Michael W. Deem and Ramdas Pophale) SiO2 
 PCOD8079834
Probable space group: C 2/M
;
_chemical_formula_sum "Si O2"
_cell_formula_units_Z 64
_cell_length_a 20.881122
_cell_length_b 9.404681
_cell_length_c 23.986038
_cell_angle_alpha 90.000000
_cell_angle_beta 56.939534
_cell_angle_gamma 90.000000
_cell_volume 3947.751765
_symmetry_space_group_name_H-M "C 2/M"
_symmetry_group_IT_number 12
_symmetry_cell_setting 'monoclinic'
loop_
_space_group_symop_operation_xyz
x,y,z
-x,y,-z
-x,-y,-z
x,-y,z
1/2+x,1/2+y,z
1/2-x,1/2+y,-z
1/2-x,1/2-y,-z
1/2+x,1/2-y,z
loop_
_atom_site_type_symbol
_atom_site_label
_atom_site_fract_x
_atom_site_fract_y
_atom_site_fract_z
Si Si1 0.582394 0.666429 0.973535
Si Si2 0.801835 0.656587 0.691143
Si Si3 0.639273 0.335125 0.176731
Si Si4 0.621761 0.658421 0.427968
Si Si5 0.827597 0.836291 0.963458
Si Si6 0.451104 0.160546 0.696616
Si Si7 0.529040 0.660750 0.574398
Si Si8 0.725004 0.333309 0.835251
O O1 0.570409 0.500000 0.987618
O O2 0.638593 0.698484 0.894917
O O3 0.500000 0.738273 0.000000
O O4 0.617958 0.727390 0.013970
O O5 0.784527 0.500000 0.676572
O O6 0.809485 0.752295 0.632300
O O7 0.878424 0.658559 0.691097
O O8 0.734205 0.707160 0.765218
O O9 0.640184 0.500000 0.195721
O O10 0.627574 0.322543 0.116081
O O11 0.568916 0.253237 0.239317
O O12 0.719599 0.262460 0.153651
O O13 0.653389 0.500000 0.419820
O O14 0.596367 0.716491 0.501054
O O15 0.549593 0.660408 0.421850
O O16 0.806519 0.000000 0.986317
O O17 0.750000 0.750000 0.000000
O O18 0.522137 0.234582 0.630638
O O19 0.474460 0.000000 0.702502
O O20 0.546622 0.500000 0.586287
O O21 0.746843 0.500000 0.833622
#
# Coordination Sequence:
#
# PCOD8079834 Si02
#       8
#     8   8   8   8   8   8   8   8
#     4   9  17  30  48  67  87 113 145 181 220 262
#     4   8  14  21  30  47  69  94 127 167 204 238
#     4  10  18  26  39  60  82 105 136 174 214 252
#     4   8  13  20  30  44  64  95 131 164 199 241
#     4  10  19  30  47  68  87 111 144 181 220 260
#     4   9  16  24  34  50  72 101 134 168 207 247
#     4   8  13  21  31  44  66  96 130 166 202 241
#     4   9  16  27  42  59  80 106 138 175 213 253
#
# _framework density 16.211759000000001
#
# number of rings (size 3 to 8) (size 9 to 14) (size 15 to 20)
#    0.000    3.125    1.250    2.250    0.000    4.000 
#    0.000    2.500    0.000    1.500    0.000    0.000 
#    0.000    0.000    0.000    1.125    0.000   10.000 
#
# Total GULP energy -396526.925946 kJ/mol
# GULP energy per Si atom -12391.466436 kJ/mol
# Density = 1.617486 g / cm^3
# Si number density = 16.211759 Si / 1000 Ang^3
#
#
#
# Elastic Constant Matrix: (Units=GPa)
#
#
# Indices 1 2 3 4 5 6 
#
# 1 51.2893 22.4845 40.5568 -0.0001 -2.8514 -0.0003
# 2 22.4845 78.6230 62.8137 -0.0002 -1.6690 0.0000
# 3 40.5568 62.8137 156.7124 -0.0001 -8.5701 -0.0001
# 4 -0.0001 -0.0002 -0.0001 29.3967 0.0000 -0.5066
# 5 -2.8514 -1.6690 -8.5701 0.0000 8.4574 -0.0002
# 6 -0.0003 0.0000 -0.0001 -0.5066 -0.0002 6.8620
#
#
#
# Elastic Compliance Matrix: (Units=1/GPa)
#
#
# Indices 1 2 3 4 5 6 
#
# 1 0.025013 -0.003002 -0.005125 0.000000 0.002647 0.000001
# 2 -0.003002 0.019209 -0.007167 0.000000 -0.004485 0.000000
# 3 -0.005125 -0.007167 0.011019 0.000000 0.008024 0.000000
# 4 0.000000 0.000000 0.000000 0.034061 0.000000 0.002515
# 5 0.002647 -0.004485 0.008024 0.000000 0.126377 0.000004
# 6 0.000001 0.000000 0.000000 0.002515 0.000004 0.145915
#
#
# Mechanical properties :
#
#
# Convention : Reuss Voigt Hill
#
# Bulk Modulus (GPa) = 40.56638 59.81495 50.19066
# Shear Modulus (GPa) = 12.48748 19.66122 16.07435
#
# Velocity S-wave (km/s) = 2.77839 3.48627 3.15226
# Velocity P-wave (km/s) = 5.94725 7.29257 6.65399
#
# Compressibility (1/GPa) = 0.02465096
#
# Stress axis : x y z
#
# Youngs Moduli (GPa) = 39.97865 52.06001 90.75112
#
# Poissons Ratio (x) = 0.15631 0.46512
# Poissons Ratio (y) = 0.12003 0.65045
# Poissons Ratio (z) = 0.20490 0.37314
#
# Static dielectric constant tensor:
#      x y z
#    x 2.520150 0.000000 -0.021830 
#    y 0.000000 3.152950 0.000000 
#    z -0.021830 0.000000 3.514010 
# 
# 
# High freq. dielectric constant tensor:
#      x y z
#    x 1.536410 0.000000 -0.001500 
#    y 0.000000 1.616400 0.000000 
#    z -0.001500 0.000000 1.648060 
# 
# From -- ./inp_files/345551.got.cif
#   From: 2010.06.25/outbox.cif.g09.slc.cpg/sg12_173_cif.got.tgz:345551.got - 2010.06.28 00:19:55.
