data_PCOD8079509
_publ_section_title
;
Structure prediction by ZEFSAII (Michael W. Deem and Ramdas Pophale) SiO2 
 PCOD8079509
Probable space group: C 2/M
;
_chemical_formula_sum "Si O2"
_cell_formula_units_Z 64
_cell_length_a 18.118958
_cell_length_b 18.309280
_cell_length_c 20.843546
_cell_angle_alpha 90.000000
_cell_angle_beta 150.896475
_cell_angle_gamma 90.000000
_cell_volume 3363.256236
_symmetry_space_group_name_H-M "C 2/M"
_symmetry_group_IT_number 12
_symmetry_cell_setting 'monoclinic'
loop_
_space_group_symop_operation_xyz
x,y,z
-x,y,-z
-x,-y,-z
x,-y,z
1/2+x,1/2+y,z
1/2-x,1/2+y,-z
1/2-x,1/2-y,-z
1/2+x,1/2-y,z
loop_
_atom_site_type_symbol
_atom_site_label
_atom_site_fract_x
_atom_site_fract_y
_atom_site_fract_z
Si Si1 0.532104 0.826764 0.698424
Si Si2 0.061529 0.648580 0.975873
Si Si3 0.218215 0.584325 0.537792
Si Si4 0.401707 0.667984 0.569013
Si Si5 0.880508 0.812177 0.966213
Si Si6 0.111038 0.318159 0.275688
Si Si7 0.130748 0.082894 0.804507
Si Si8 0.037759 0.150139 0.207265
O O1 0.455585 0.888439 0.594245
O O2 0.462605 0.749081 0.626507
O O3 0.710227 0.835538 0.818650
O O4 0.494934 0.843186 0.745109
O O5 0.935959 0.637975 0.824569
O O6 0.134210 0.728486 0.022352
O O7 0.189312 0.587306 0.064541
O O8 0.000000 0.637295 0.000000
O O9 0.225566 0.500000 0.522675
O O10 0.302716 0.639750 0.553636
O O11 0.311931 0.597689 0.675241
O O12 0.290231 0.664613 0.423047
O O13 0.547784 0.613795 0.676541
O O14 0.000000 0.820005 0.000000
O O15 0.944920 0.863677 0.071505
O O16 0.094254 0.232734 0.251823
O O17 0.078385 0.133328 0.823590
O O18 0.079942 0.000000 0.777763
#
# Coordination Sequence:
#
# PCOD8079509 Si02
#       8
#     8   8   8   8   8   8   8   8
#     4  11  17  33  58  84 111 142 183 237 280 324
#     4  10  21  36  53  78 114 149 186 229 271 332
#     4  10  19  32  53  84 117 140 172 228 289 341
#     4  10  17  32  54  85 110 139 178 235 275 327
#     4  10  21  35  56  81 112 144 190 238 275 318
#     4  10  17  31  58  84 105 138 184 236 278 312
#     4  11  21  34  56  82 112 149 182 225 285 337
#     4  10  17  33  55  82 108 138 183 232 278 328
#
# _framework density 19.029178000000002
#
# number of rings (size 3 to 8) (size 9 to 14) (size 15 to 20)
#    0.000    1.750    5.000    3.000    0.000    2.250 
#    0.000    8.125    0.000    4.875    0.000    0.000 
#    0.000    0.000    0.000    0.000    0.000    0.000 
#
# Total GULP energy -396514.981475 kJ/mol
# GULP energy per Si atom -12391.093171 kJ/mol
# Density = 1.898587 g / cm^3
# Si number density = 19.029178 Si / 1000 Ang^3
#
#
#
# Elastic Constant Matrix: (Units=GPa)
#
#
# Indices 1 2 3 4 5 6 
#
# 1 57.8142 18.9207 55.8563 -0.0054 0.1043 -0.0027
# 2 18.9207 71.5016 52.7084 -0.0164 2.7305 -0.0041
# 3 55.8563 52.7084 188.8174 -0.0440 3.3259 -0.0127
# 4 -0.0054 -0.0164 -0.0440 20.1477 -0.0058 -0.6566
# 5 0.1043 2.7305 3.3259 -0.0058 16.4806 -0.0029
# 6 -0.0027 -0.0041 -0.0127 -0.6566 -0.0029 6.0382
#
#
#
# Elastic Compliance Matrix: (Units=1/GPa)
#
#
# Indices 1 2 3 4 5 6 
#
# 1 0.024369 -0.001475 -0.006823 -0.000009 0.001467 -0.000005
# 2 -0.001475 0.017760 -0.004486 0.000004 -0.002028 0.000001
# 3 -0.006823 -0.004486 0.008583 0.000013 -0.000946 0.000013
# 4 -0.000009 0.000004 0.000013 0.049810 0.000015 0.005417
# 5 0.001467 -0.002028 -0.000946 0.000015 0.061195 0.000028
# 6 -0.000005 0.000001 0.000013 0.005417 0.000028 0.166203
#
#
# Mechanical properties :
#
#
# Convention : Reuss Voigt Hill
#
# Bulk Modulus (GPa) = 39.76907 63.67823 51.72365
# Shear Modulus (GPa) = 13.81718 21.24316 17.53017
#
# Velocity S-wave (km/s) = 2.69756 3.34480 3.03846
# Velocity P-wave (km/s) = 5.53595 6.96082 6.28887
#
# Compressibility (1/GPa) = 0.02514517
#
# Stress axis : x y z
#
# Youngs Moduli (GPa) = 41.03627 56.30590 116.50453
#
# Poissons Ratio (x) = 0.08304 0.79490
# Poissons Ratio (y) = 0.06052 0.52261
# Poissons Ratio (z) = 0.27999 0.25257
#
# Static dielectric constant tensor:
#      x y z
#    x 3.065660 0.000000 -0.125600 
#    y 0.000000 3.267290 -0.000010 
#    z -0.125600 -0.000010 4.311310 
# 
# 
# High freq. dielectric constant tensor:
#      x y z
#    x 1.687900 0.000000 0.001520 
#    y 0.000000 1.717400 0.000000 
#    z 0.001520 0.000000 1.769790 
# 
# From -- ./inp_files/317372.got.cif
#   From: 2010.06.25/outbox.cif.g09.slc.cpg/sg12_159_cif.got.tgz:317372.got - 2010.06.28 00:19:55.
