data_PCOD8079994
_publ_section_title
;
Structure prediction by ZEFSAII (Michael W. Deem and Ramdas Pophale) SiO2 
 PCOD8079994
Probable space group: C 2/M
;
_chemical_formula_sum "Si O2"
_cell_formula_units_Z 48
_cell_length_a 33.256117
_cell_length_b 9.263858
_cell_length_c 15.956845
_cell_angle_alpha 90.000000
_cell_angle_beta 34.742063
_cell_angle_gamma 90.000000
_cell_volume 2801.535365
_symmetry_space_group_name_H-M "C 2/M"
_symmetry_group_IT_number 12
_symmetry_cell_setting 'monoclinic'
loop_
_space_group_symop_operation_xyz
x,y,z
-x,y,-z
-x,-y,-z
x,-y,z
1/2+x,1/2+y,z
1/2-x,1/2+y,-z
1/2-x,1/2-y,-z
1/2+x,1/2-y,z
loop_
_atom_site_type_symbol
_atom_site_label
_atom_site_fract_x
_atom_site_fract_y
_atom_site_fract_z
Si Si1 0.948172 0.827969 0.843177
Si Si2 0.311247 0.330702 0.347151
Si Si3 0.335085 0.330375 0.607340
Si Si4 0.195591 0.828973 0.832865
Si Si5 0.977589 0.829416 0.449314
Si Si6 0.585871 0.330451 0.690609
O O1 0.871372 0.769314 0.000225
O O2 0.946336 0.000000 0.848593
O O3 0.970274 0.771078 0.713037
O O4 0.006966 0.769593 0.809287
O O5 0.296087 0.500000 0.380384
O O6 0.250000 0.250000 0.500000
O O7 0.316314 0.280558 0.242824
O O8 0.385345 0.290421 0.266447
O O9 0.318560 0.500000 0.636453
O O10 0.264599 0.245285 0.753484
O O11 0.396370 0.290079 0.568741
O O12 0.359552 0.274306 0.473760
O O13 0.203935 0.000000 0.826112
O O14 0.000000 0.759833 0.500000
O O15 0.986170 0.000000 0.437952
O O16 0.581421 0.500000 0.684396
#
# Coordination Sequence:
#
# PCOD8079994 Si02
#       6
#     8   8   8   8   8   8
#     4   8  15  27  42  63  91 115 142 183 225 257
#     4  10  18  27  42  64  88 116 151 184 215 254
#     4   9  16  28  47  66  87 116 148 181 216 258
#     4  10  19  28  42  67  94 118 142 179 227 263
#     4   8  14  27  49  71  86 109 149 187 215 254
#     4   8  14  26  43  61  82 114 151 182 210 246
#
# _framework density 17.133462999999999
#
# number of rings (size 3 to 8) (size 9 to 14) (size 15 to 20)
#    0.000    3.167    1.667    2.000    0.000    0.667 
#    0.000    4.167    0.000    5.500    0.000    2.333 
#    0.000    0.000    0.000    0.000    0.000    0.000 
#
# Total GULP energy -297400.889635 kJ/mol
# GULP energy per Si atom -12391.703735 kJ/mol
# Density = 1.709447 g / cm^3
# Si number density = 17.133463 Si / 1000 Ang^3
#
#
#
# Elastic Constant Matrix: (Units=GPa)
#
#
# Indices 1 2 3 4 5 6 
#
# 1 131.3061 22.2522 72.7973 -0.0002 -4.9033 0.0000
# 2 22.2522 16.0257 25.7582 0.0014 -3.6682 0.0000
# 3 72.7973 25.7582 149.8474 0.0006 -17.3822 -0.0001
# 4 -0.0002 0.0014 0.0006 20.7543 0.0000 -5.8377
# 5 -4.9033 -3.6682 -17.3822 0.0000 23.7292 0.0000
# 6 0.0000 0.0000 -0.0001 -5.8377 0.0000 14.4661
#
#
#
# Elastic Compliance Matrix: (Units=1/GPa)
#
#
# Indices 1 2 3 4 5 6 
#
# 1 0.011497 -0.009781 -0.004157 0.000001 -0.002181 0.000000
# 2 -0.009781 0.094703 -0.010998 -0.000007 0.004562 -0.000002
# 3 -0.004157 -0.010998 0.011242 0.000000 0.005676 0.000000
# 4 0.000001 -0.000007 0.000000 0.054352 -0.000001 0.021934
# 5 -0.002181 0.004562 0.005676 -0.000001 0.046554 0.000000
# 6 0.000000 -0.000002 0.000000 0.021934 0.000000 0.077979
#
#
# Mechanical properties :
#
#
# Convention : Reuss Voigt Hill
#
# Bulk Modulus (GPa) = 14.79967 59.86607 37.33287
# Shear Modulus (GPa) = 13.56035 23.54801 18.55418
#
# Velocity S-wave (km/s) = 2.81633 3.71129 3.29435
# Velocity P-wave (km/s) = 4.38546 7.30629 6.02553
#
# Compressibility (1/GPa) = 0.06756906
#
# Stress axis : x y z
#
# Youngs Moduli (GPa) = 86.98275 10.55931 88.95412
#
# Poissons Ratio (x) = 0.10329 0.36976
# Poissons Ratio (y) = 0.85082 0.97832
# Poissons Ratio (z) = 0.36157 0.11613
#
# Static dielectric constant tensor:
#      x y z
#    x 3.611460 0.000000 -0.080680 
#    y 0.000000 2.665470 0.000000 
#    z -0.080680 0.000000 3.364280 
# 
# 
# High freq. dielectric constant tensor:
#      x y z
#    x 1.664670 0.000000 -0.011990 
#    y 0.000000 1.602640 0.000000 
#    z -0.011990 0.000000 1.656100 
# 
# From -- ./inp_files/222056.got.cif
#   From: 2010.06.25/outbox.cif.g09.slc.cpg/sg12_112_cif.got.tgz:222056.got - 2010.06.28 00:19:55.
