data_PCOD8079464
_publ_section_title
;
Structure prediction by ZEFSAII (Michael W. Deem and Ramdas Pophale) SiO2 
 PCOD8079464
Probable space group: C 2/M
;
_chemical_formula_sum "Si O2"
_cell_formula_units_Z 64
_cell_length_a 22.720958
_cell_length_b 19.990537
_cell_length_c 9.538441
_cell_angle_alpha 90.000000
_cell_angle_beta 121.770365
_cell_angle_gamma 90.000000
_cell_volume 3683.255011
_symmetry_space_group_name_H-M "C 2/M"
_symmetry_group_IT_number 12
_symmetry_cell_setting 'monoclinic'
loop_
_space_group_symop_operation_xyz
x,y,z
-x,y,-z
-x,-y,-z
x,-y,z
1/2+x,1/2+y,z
1/2-x,1/2+y,-z
1/2-x,1/2-y,-z
1/2+x,1/2-y,z
loop_
_atom_site_type_symbol
_atom_site_label
_atom_site_fract_x
_atom_site_fract_y
_atom_site_fract_z
Si Si1 0.676039 0.700796 0.747105
Si Si2 0.931804 0.105197 0.998531
Si Si3 0.297907 0.425063 0.668472
Si Si4 0.632057 0.427354 0.813135
Si Si5 0.830532 0.688348 0.039320
Si Si6 0.179552 0.786642 0.438946
Si Si7 0.077499 0.256247 0.071165
Si Si8 0.223150 0.574834 0.849154
O O1 0.632746 0.631451 0.700395
O O2 0.650858 0.749719 0.837514
O O3 0.657595 0.728055 0.570699
O O4 0.758417 0.694008 0.866938
O O5 0.932268 0.077968 0.158843
O O6 0.869342 0.070047 0.840905
O O7 0.923845 0.184660 0.005333
O O8 0.000000 0.084534 0.000000
O O9 0.284418 0.500000 0.586533
O O10 0.305616 0.366337 0.563672
O O11 0.235500 0.407075 0.700121
O O12 0.628971 0.500000 0.734516
O O13 0.702675 0.417338 0.986958
O O14 0.831578 0.623008 0.140852
O O15 0.887520 0.688573 0.987120
O O16 0.250000 0.750000 0.500000
O O17 0.119510 0.754889 0.268080
O O18 0.000000 0.282776 0.000000
O O19 0.193683 0.500000 0.827159
#
# Coordination Sequence:
#
# PCOD8079464 Si02
#       8
#     8   8   8   8   8   8   8   8
#     4  10  19  29  49  75  97 127 170 210 252 289
#     4   9  16  28  47  69  95 135 179 205 234 294
#     4   9  18  30  45  71 105 132 163 209 254 291
#     4   9  16  26  41  67 100 128 163 209 248 285
#     4  10  17  31  53  73  97 131 167 206 250 303
#     4  11  20  33  52  78 102 133 172 212 252 299
#     4  10  20  34  52  75 103 134 168 210 254 301
#     4   8  15  27  46  72  97 124 161 207 251 298
#
# _framework density 17.375934000000001
#
# number of rings (size 3 to 8) (size 9 to 14) (size 15 to 20)
#    0.000    2.500    2.500    1.875    3.500    1.500 
#    0.000    0.625    0.000    0.375    0.000    3.500 
#    0.000    3.000    0.000    0.000    0.000    0.000 
#
# Total GULP energy -396480.840528 kJ/mol
# GULP energy per Si atom -12390.026267 kJ/mol
# Density = 1.733639 g / cm^3
# Si number density = 17.375934 Si / 1000 Ang^3
#
#
#
# Elastic Constant Matrix: (Units=GPa)
#
#
# Indices 1 2 3 4 5 6 
#
# 1 104.5880 45.5759 41.1759 0.0000 -12.6230 0.0000
# 2 45.5759 68.0351 19.5083 0.0000 -2.1041 0.0000
# 3 41.1759 19.5083 59.4991 0.0000 -9.9960 0.0000
# 4 0.0000 0.0000 0.0000 11.6777 0.0000 -2.6855
# 5 -12.6230 -2.1041 -9.9960 0.0000 19.2923 0.0000
# 6 0.0000 0.0000 0.0000 -2.6855 0.0000 21.2328
#
#
#
# Elastic Compliance Matrix: (Units=1/GPa)
#
#
# Indices 1 2 3 4 5 6 
#
# 1 0.017503 -0.009228 -0.008031 0.000000 0.006284 0.000000
# 2 -0.009228 0.021109 -0.001274 0.000000 -0.004395 0.000000
# 3 -0.008031 -0.001274 0.023962 0.000000 0.007022 0.000000
# 4 0.000000 0.000000 0.000000 0.088198 0.000000 0.011155
# 5 0.006284 -0.004395 0.007022 0.000000 0.059105 0.000000
# 6 0.000000 0.000000 0.000000 0.011155 0.000000 0.048508
#
#
# Mechanical properties :
#
#
# Convention : Reuss Voigt Hill
#
# Bulk Modulus (GPa) = 39.20211 49.40472 44.30342
# Shear Modulus (GPa) = 16.44987 18.83136 17.64061
#
# Velocity S-wave (km/s) = 3.08019 3.29562 3.18973
# Velocity P-wave (km/s) = 5.93803 6.55561 6.25445
#
# Compressibility (1/GPa) = 0.02550883
#
# Stress axis : x y z
#
# Youngs Moduli (GPa) = 57.13359 47.37301 41.73219
#
# Poissons Ratio (x) = 0.43714 0.33517
# Poissons Ratio (y) = 0.52721 0.05315
# Poissons Ratio (z) = 0.45886 0.06034
#
# Static dielectric constant tensor:
#      x y z
#    x 2.994390 0.000000 0.071860 
#    y 0.000000 3.315730 0.000000 
#    z 0.071860 0.000000 2.577590 
# 
# 
# High freq. dielectric constant tensor:
#      x y z
#    x 1.658120 0.000000 -0.027550 
#    y 0.000000 1.668400 0.000000 
#    z -0.027550 0.000000 1.631300 
# 
# From -- ./inp_files/89618.got.cif
#   From: 2010.06.25/outbox.cif.g09.slc.cpg/sg12_45_cif.got.tgz:89618.got - 2010.06.28 00:19:55.
