data_PCOD8079382
_publ_section_title
;
Structure prediction by ZEFSAII (Michael W. Deem and Ramdas Pophale) SiO2 
 PCOD8079382
Probable space group: C 2/M
;
_chemical_formula_sum "Si O2"
_cell_formula_units_Z 48
_cell_length_a 15.586598
_cell_length_b 8.618524
_cell_length_c 18.808800
_cell_angle_alpha 90.000000
_cell_angle_beta 112.936945
_cell_angle_gamma 90.000000
_cell_volume 2326.879899
_symmetry_space_group_name_H-M "C 2/M"
_symmetry_group_IT_number 12
_symmetry_cell_setting 'monoclinic'
loop_
_space_group_symop_operation_xyz
x,y,z
-x,y,-z
-x,-y,-z
x,-y,z
1/2+x,1/2+y,z
1/2-x,1/2+y,-z
1/2-x,1/2-y,-z
1/2+x,1/2-y,z
loop_
_atom_site_type_symbol
_atom_site_label
_atom_site_fract_x
_atom_site_fract_y
_atom_site_fract_z
Si Si1 0.957866 0.317257 0.913812
Si Si2 0.260813 0.321807 0.825570
Si Si3 0.064585 0.315757 0.811660
Si Si4 0.342275 0.316870 0.493383
Si Si5 0.252612 0.821271 0.342357
Si Si6 0.427643 0.818050 0.648869
O O1 0.971393 0.500000 0.917960
O O2 0.848832 0.281452 0.873703
O O3 0.014597 0.244361 0.865445
O O4 0.000000 0.246050 0.000000
O O5 0.287100 0.500000 0.848743
O O6 0.173271 0.267295 0.845537
O O7 0.227915 0.298657 0.734150
O O8 0.054926 0.500000 0.809542
O O9 0.013603 0.254859 0.723841
O O10 0.339510 0.500000 0.484542
O O11 0.250000 0.250000 0.500000
O O12 0.344132 0.238689 0.415432
O O13 0.428257 0.267120 0.571954
O O14 0.164967 0.717268 0.336042
O O15 0.231844 0.000000 0.354869
O O16 0.434629 0.000000 0.636889
#
# Coordination Sequence:
#
# PCOD8079382 Si02
#       6
#     8   8   8   8   8   8
#     4  10  21  39  62  86 113 145 181 224 277 336
#     4  10  21  37  58  83 113 147 186 229 272 327
#     4   9  19  36  57  82 113 149 184 223 277 333
#     4  10  18  28  46  74 108 143 183 229 274 320
#     4  10  18  30  50  76 106 141 185 230 272 319
#     4  10  17  30  53  75 104 146 187 226 271 323
#
# _framework density 20.62848
#
# number of rings (size 3 to 8) (size 9 to 14) (size 15 to 20)
#    0.000    2.167    1.667    4.500    0.000    1.667 
#    0.000    3.333    0.000    5.000    0.000    0.000 
#    0.000    0.000    0.000    0.000    0.000    0.000 
#
# Total GULP energy -297501.911588 kJ/mol
# GULP energy per Si atom -12395.912983 kJ/mol
# Density = 2.058153 g / cm^3
# Si number density = 20.628480 Si / 1000 Ang^3
#
#
#
# Elastic Constant Matrix: (Units=GPa)
#
#
# Indices 1 2 3 4 5 6 
#
# 1 93.4486 1.9913 51.6315 0.0000 9.6132 0.0000
# 2 1.9913 55.2314 33.3021 0.0000 0.6671 0.0000
# 3 51.6315 33.3021 154.3638 0.0000 9.0090 0.0000
# 4 0.0000 0.0000 0.0000 23.6806 0.0000 5.0168
# 5 9.6132 0.6671 9.0090 0.0000 9.4616 0.0000
# 6 0.0000 0.0000 0.0000 5.0168 0.0000 20.1391
#
#
#
# Elastic Compliance Matrix: (Units=1/GPa)
#
#
# Indices 1 2 3 4 5 6 
#
# 1 0.014307 0.002452 -0.004718 0.000000 -0.010216 0.000000
# 2 0.002452 0.021313 -0.005490 0.000000 0.001233 0.000000
# 3 -0.004718 -0.005490 0.009464 0.000000 -0.003831 0.000000
# 4 0.000000 0.000000 0.000000 0.044581 0.000000 -0.011105
# 5 -0.010216 0.001233 -0.003831 0.000000 0.119631 0.000000
# 6 0.000000 0.000000 0.000000 -0.011105 0.000000 0.052421
#
#
# Mechanical properties :
#
#
# Convention : Reuss Voigt Hill
#
# Bulk Modulus (GPa) = 33.81604 52.98819 43.40212
# Shear Modulus (GPa) = 17.41635 25.06418 21.24027
#
# Velocity S-wave (km/s) = 2.90881 3.48951 3.21231
# Velocity P-wave (km/s) = 5.26404 6.47906 5.90289
#
# Compressibility (1/GPa) = 0.02957176
#
# Stress axis : x y z
#
# Youngs Moduli (GPa) = 69.89788 46.92048 105.65994
#
# Poissons Ratio (x) = -0.11507 0.49851
# Poissons Ratio (y) = -0.17142 0.58009
# Poissons Ratio (z) = 0.32978 0.25760
#
# Static dielectric constant tensor:
#      x y z
#    x 3.390830 0.000000 -0.144910 
#    y 0.000000 3.494880 0.000000 
#    z -0.144910 0.000000 4.386910 
# 
# 
# High freq. dielectric constant tensor:
#      x y z
#    x 1.781810 0.000000 0.001660 
#    y 0.000000 1.784850 0.000000 
#    z 0.001660 0.000000 1.821720 
# 
# From -- ./inp_files/308601.got.cif
#   From: 2010.06.25/outbox.cif.g09.slc.cpg/sg12_155_cif.got.tgz:308601.got - 2010.06.28 00:19:55.
