data_PCOD8079304
_publ_section_title
;
Structure prediction by ZEFSAII (Michael W. Deem and Ramdas Pophale) SiO2 
 PCOD8079304
Probable space group: C 2/M
;
_chemical_formula_sum "Si O2"
_cell_formula_units_Z 52
_cell_length_a 19.440650
_cell_length_b 12.935633
_cell_length_c 13.993685
_cell_angle_alpha 90.000000
_cell_angle_beta 56.826942
_cell_angle_gamma 90.000000
_cell_volume 2945.555960
_symmetry_space_group_name_H-M "C 2/M"
_symmetry_group_IT_number 12
_symmetry_cell_setting 'monoclinic'
loop_
_space_group_symop_operation_xyz
x,y,z
-x,y,-z
-x,-y,-z
x,-y,z
1/2+x,1/2+y,z
1/2-x,1/2+y,-z
1/2-x,1/2-y,-z
1/2+x,1/2-y,z
loop_
_atom_site_type_symbol
_atom_site_label
_atom_site_fract_x
_atom_site_fract_y
_atom_site_fract_z
Si Si1 0.607978 0.883413 0.249914
Si Si2 0.500000 0.812641 0.500000
Si Si3 0.620118 0.803257 0.856083
Si Si4 0.793584 0.616441 0.382940
Si Si5 0.657014 0.766310 0.483695
Si Si6 0.239041 0.123197 0.749949
Si Si7 0.952122 0.376976 0.905061
O O1 0.540611 0.880908 0.385852
O O2 0.695875 0.839719 0.217901
O O3 0.576639 0.831109 0.175654
O O4 0.623166 0.000000 0.209130
O O5 0.571249 0.744180 0.494940
O O6 0.681754 0.872335 0.746341
O O7 0.653786 0.684743 0.832308
O O8 0.530791 0.809521 0.875437
O O9 0.618578 0.852284 0.963393
O O10 0.797594 0.500000 0.414051
O O11 0.700197 0.656068 0.465679
O O12 0.856708 0.681134 0.402195
O O13 0.719063 0.844562 0.381822
O O14 0.222417 0.000000 0.763526
O O15 0.973325 0.500000 0.887902
#
# Coordination Sequence:
#
# PCOD8079304 Si02
#       7
#     8   4   8   8   8   8   8
#     4   9  18  30  48  69  93 121 151 189 235 273
#     4  10  17  30  47  70  96 118 152 192 228 276
#     4  10  19  30  48  70  93 123 155 187 231 274
#     4  10  18  31  48  69  94 124 157 189 225 277
#     4   9  19  30  47  71  95 122 153 190 235 271
#     4   9  18  33  48  68  94 122 153 189 230 276
#     4  10  19  32  47  70  96 119 151 195 235 270
#
# _framework density 17.653714000000001
#
# number of rings (size 3 to 8) (size 9 to 14) (size 15 to 20)
#    0.000    2.462    0.000    3.462    0.000    3.692 
#    0.000    1.923    0.000    0.000    0.000   12.923 
#    0.000    0.000    0.000    0.000    0.000    0.000 
#
# Total GULP energy -322181.047596 kJ/mol
# GULP energy per Si atom -12391.578754 kJ/mol
# Density = 1.761353 g / cm^3
# Si number density = 17.653714 Si / 1000 Ang^3
#
#
#
# Elastic Constant Matrix: (Units=GPa)
#
#
# Indices 1 2 3 4 5 6 
#
# 1 108.4919 29.9693 44.4908 0.0000 6.6583 0.0000
# 2 29.9693 53.2029 32.5316 0.0000 -7.4505 0.0000
# 3 44.4908 32.5316 94.8751 0.0000 14.4122 0.0000
# 4 0.0000 0.0000 0.0000 18.3697 0.0000 -0.8390
# 5 6.6583 -7.4505 14.4122 0.0000 28.3970 0.0000
# 6 0.0000 0.0000 0.0000 -0.8390 0.0000 21.9573
#
#
#
# Elastic Compliance Matrix: (Units=1/GPa)
#
#
# Indices 1 2 3 4 5 6 
#
# 1 0.012242 -0.004962 -0.003690 0.000000 -0.002299 0.000000
# 2 -0.004962 0.029644 -0.009964 0.000000 0.013998 0.000000
# 3 -0.003690 -0.009964 0.017286 0.000000 -0.010522 0.000000
# 4 0.000000 0.000000 0.000000 0.054533 0.000000 0.002084
# 5 -0.002299 0.013998 -0.010522 0.000000 0.044767 0.000000
# 6 0.000000 0.000000 0.000000 0.002084 0.000000 0.045622
#
#
# Mechanical properties :
#
#
# Convention : Reuss Voigt Hill
#
# Bulk Modulus (GPa) = 45.57994 52.28371 48.93183
# Shear Modulus (GPa) = 20.10944 23.71670 21.91307
#
# Velocity S-wave (km/s) = 3.37873 3.66927 3.52699
# Velocity P-wave (km/s) = 6.41062 6.90159 6.66063
#
# Compressibility (1/GPa) = 0.02193947
#
# Stress axis : x y z
#
# Youngs Moduli (GPa) = 81.68384 33.73380 57.85123
#
# Poissons Ratio (x) = 0.16737 0.21349
# Poissons Ratio (y) = 0.40528 0.57644
# Poissons Ratio (z) = 0.30144 0.33613
#
# Static dielectric constant tensor:
#      x y z
#    x 3.454650 0.000000 0.227890 
#    y 0.000000 2.981610 0.000000 
#    z 0.227890 0.000000 3.501090 
# 
# 
# High freq. dielectric constant tensor:
#      x y z
#    x 1.683850 0.000000 0.016570 
#    y 0.000000 1.644810 0.000000 
#    z 0.016570 0.000000 1.687540 
# 
# From -- ./inp_files/231762.got.cif
#   From: 2010.06.25/outbox.cif.g09.slc.cpg/sg12_116_cif.got.tgz:231762.got - 2010.06.28 00:19:55.
