data_PCOD8079755
_publ_section_title
;
Structure prediction by ZEFSAII (Michael W. Deem and Ramdas Pophale) SiO2 
 PCOD8079755
Probable space group: C 2/M
;
_chemical_formula_sum "Si O2"
_cell_formula_units_Z 56
_cell_length_a 30.253594
_cell_length_b 16.197019
_cell_length_c 18.117716
_cell_angle_alpha 90.000000
_cell_angle_beta 161.256379
_cell_angle_gamma 90.000000
_cell_volume 2852.806033
_symmetry_space_group_name_H-M "C 2/M"
_symmetry_group_IT_number 12
_symmetry_cell_setting 'monoclinic'
loop_
_space_group_symop_operation_xyz
x,y,z
-x,y,-z
-x,-y,-z
x,-y,z
1/2+x,1/2+y,z
1/2-x,1/2+y,-z
1/2-x,1/2-y,-z
1/2+x,1/2-y,z
loop_
_atom_site_type_symbol
_atom_site_label
_atom_site_fract_x
_atom_site_fract_y
_atom_site_fract_z
Si Si1 0.647566 0.342426 0.003706
Si Si2 0.137705 0.812103 0.395690
Si Si3 0.640013 0.907961 0.760024
Si Si4 0.301038 0.258026 0.353717
Si Si5 0.129867 0.593986 0.021896
Si Si6 0.077596 0.662508 0.199293
Si Si7 0.406470 0.192596 0.176560
O O1 0.486186 0.365310 0.761978
O O2 0.677188 0.264850 0.996096
O O3 0.735102 0.413560 0.102312
O O4 0.705248 0.316899 0.174784
O O5 0.208951 0.758873 0.573405
O O6 0.073216 0.751146 0.233284
O O7 0.262367 0.866474 0.558531
O O8 0.500000 0.877230 0.500000
O O9 0.675324 0.847400 0.884207
O O10 0.619138 0.000000 0.758338
O O11 0.454792 0.234132 0.572695
O O12 0.254091 0.346664 0.245852
O O13 0.184775 0.500000 0.104792
O O14 0.070043 0.621535 0.847884
O O15 0.002555 0.596340 0.878019
O O16 0.000000 0.672864 0.000000
#
# Coordination Sequence:
#
# PCOD8079755 Si02
#       7
#     8   8   8   8   8   8   8
#     4  10  19  35  58  83 110 148 196 239 276 338
#     4  10  19  33  57  84 110 153 195 234 283 336
#     4  11  22  35  56  86 113 145 187 237 290 337
#     4  10  17  36  56  82 114 146 196 236 281 337
#     4  11  22  36  57  88 122 150 189 243 297 342
#     4  11  19  33  56  85 115 149 196 241 278 338
#     4  10  20  38  60  81 112 153 196 232 283 352
#
# _framework density 19.629795999999999
#
# number of rings (size 3 to 8) (size 9 to 14) (size 15 to 20)
#    0.000    1.571    7.143    0.857    0.000    0.286 
#    0.000    3.571    0.000    0.000    0.000   15.000 
#    0.000    0.000    0.000    0.000    0.000    0.000 
#
# Total GULP energy -346892.862212 kJ/mol
# GULP energy per Si atom -12389.030793 kJ/mol
# Density = 1.958512 g / cm^3
# Si number density = 19.629796 Si / 1000 Ang^3
#
#
#
# Elastic Constant Matrix: (Units=GPa)
#
#
# Indices 1 2 3 4 5 6 
#
# 1 102.5229 19.3461 46.7771 0.0000 12.1636 0.0000
# 2 19.3461 61.6733 17.8951 0.0000 -3.4314 0.0000
# 3 46.7771 17.8951 80.8227 0.0000 6.6790 0.0000
# 4 0.0000 0.0000 0.0000 13.8574 0.0000 2.6524
# 5 12.1636 -3.4314 6.6790 0.0000 35.0520 0.0000
# 6 0.0000 0.0000 0.0000 2.6524 0.0000 19.6918
#
#
#
# Elastic Compliance Matrix: (Units=1/GPa)
#
#
# Indices 1 2 3 4 5 6 
#
# 1 0.013959 -0.002490 -0.007221 0.000000 -0.003712 0.000000
# 2 -0.002490 0.017984 -0.002802 0.000000 0.003159 0.000000
# 3 -0.007221 -0.002802 0.017260 0.000000 -0.001057 0.000000
# 4 0.000000 0.000000 0.000000 0.074073 0.000000 -0.009977
# 5 -0.003712 0.003159 -0.001057 0.000000 0.030328 0.000000
# 6 0.000000 0.000000 0.000000 -0.009977 0.000000 0.052127
#
#
# Mechanical properties :
#
#
# Convention : Reuss Voigt Hill
#
# Bulk Modulus (GPa) = 41.36087 45.89505 43.62796
# Shear Modulus (GPa) = 20.93679 24.45362 22.69520
#
# Velocity S-wave (km/s) = 3.26940 3.53333 3.40393
# Velocity P-wave (km/s) = 5.94711 6.33064 6.14187
#
# Compressibility (1/GPa) = 0.02417744
#
# Stress axis : x y z
#
# Youngs Moduli (GPa) = 71.64007 55.60410 57.93892
#
# Poissons Ratio (x) = 0.13846 0.41836
# Poissons Ratio (y) = 0.17839 0.16233
# Poissons Ratio (z) = 0.51729 0.15579
#
# Static dielectric constant tensor:
#      x y z
#    x 3.776230 0.000000 -0.065270 
#    y 0.000000 3.153540 0.000000 
#    z -0.065270 0.000000 3.719290 
# 
# 
# High freq. dielectric constant tensor:
#      x y z
#    x 1.777400 0.000000 -0.005090 
#    y 0.000000 1.716100 0.000000 
#    z -0.005090 0.000000 1.768350 
# 
# From -- ./inp_files/296957.got.cif
#   From: 2010.06.25/outbox.cif.g09.slc.cpg/sg12_149_cif.got.tgz:296957.got - 2010.06.28 00:19:55.
