data_PCOD8079846
_publ_section_title
;
Structure prediction by ZEFSAII (Michael W. Deem and Ramdas Pophale) SiO2 
 PCOD8079846
Probable space group: C 2/M
;
_chemical_formula_sum "Si O2"
_cell_formula_units_Z 64
_cell_length_a 24.369008
_cell_length_b 9.247099
_cell_length_c 32.709813
_cell_angle_alpha 90.000000
_cell_angle_beta 151.212900
_cell_angle_gamma 90.000000
_cell_volume 3549.511155
_symmetry_space_group_name_H-M "C 2/M"
_symmetry_group_IT_number 12
_symmetry_cell_setting 'monoclinic'
loop_
_space_group_symop_operation_xyz
x,y,z
-x,y,-z
-x,-y,-z
x,-y,z
1/2+x,1/2+y,z
1/2-x,1/2+y,-z
1/2-x,1/2-y,-z
1/2+x,1/2-y,z
loop_
_atom_site_type_symbol
_atom_site_label
_atom_site_fract_x
_atom_site_fract_y
_atom_site_fract_z
Si Si1 0.812418 0.655567 0.572805
Si Si2 0.836324 0.829790 0.710117
Si Si3 0.981497 0.837330 0.727825
Si Si4 0.675938 0.169108 0.216818
Si Si5 0.325820 0.333368 0.203640
Si Si6 0.620645 0.667030 0.100035
Si Si7 0.149849 0.160461 0.542138
Si Si8 0.573023 0.665985 0.645950
O O1 0.841811 0.500000 0.572730
O O2 0.750000 0.750000 0.500000
O O3 0.928728 0.730809 0.660628
O O4 0.733740 0.636257 0.560005
O O5 0.942474 0.797742 0.748344
O O6 0.872911 0.748329 0.775142
O O7 0.714069 0.767720 0.615359
O O8 0.821835 0.000000 0.708501
O O9 0.115452 0.823196 0.803211
O O10 0.938948 0.000000 0.691003
O O11 0.617143 0.242513 0.139493
O O12 0.811848 0.192543 0.304220
O O13 0.643898 0.000000 0.197000
O O14 0.290628 0.500000 0.190159
O O15 0.214244 0.233618 0.130224
O O16 0.408459 0.279531 0.295124
O O17 0.650410 0.500000 0.128636
O O18 0.500000 0.682731 0.000000
O O19 0.033041 0.236260 0.448640
O O20 0.128263 0.000000 0.548298
O O21 0.537422 0.500000 0.625120
#
# Coordination Sequence:
#
# PCOD8079846 Si02
#       8
#     8   8   8   8   8   8   8   8
#     4  10  18  26  40  62  90 127 171 219 265 306
#     4  10  20  33  48  70 102 138 175 215 257 294
#     4   9  18  32  49  69  97 134 172 210 253 302
#     4  10  20  35  55  76  99 133 174 209 246 299
#     4   9  17  32  54  78 103 133 170 208 250 304
#     4  10  21  37  58  85 112 131 150 190 251 308
#     4   9  17  30  45  62  90 131 177 217 253 298
#     4   8  15  28  47  69  93 126 169 216 258 293
#
# _framework density 18.030653000000001
#
# number of rings (size 3 to 8) (size 9 to 14) (size 15 to 20)
#    0.000    2.625    0.000    3.000    0.000    5.000 
#    0.000    5.625    0.000    0.750    0.000    0.000 
#    0.000    0.000    0.000    0.000    0.000    0.000 
#
# Total GULP energy -396484.623125 kJ/mol
# GULP energy per Si atom -12390.144473 kJ/mol
# Density = 1.798961 g / cm^3
# Si number density = 18.030653 Si / 1000 Ang^3
#
#
#
# Elastic Constant Matrix: (Units=GPa)
#
#
# Indices 1 2 3 4 5 6 
#
# 1 95.5575 44.9127 37.4432 -0.0004 0.7832 0.0002
# 2 44.9127 108.8747 45.8189 -0.0004 -0.4178 0.0031
# 3 37.4432 45.8189 74.4807 0.0002 2.7987 -0.0002
# 4 -0.0004 -0.0004 0.0002 25.0517 -0.0003 -1.3568
# 5 0.7832 -0.4178 2.7987 -0.0003 14.8424 -0.0002
# 6 0.0002 0.0031 -0.0002 -1.3568 -0.0002 25.5290
#
#
#
# Elastic Compliance Matrix: (Units=1/GPa)
#
#
# Indices 1 2 3 4 5 6 
#
# 1 0.014124 -0.003829 -0.004747 0.000000 0.000042 0.000000
# 2 -0.003829 0.013479 -0.006435 0.000000 0.001795 -0.000002
# 3 -0.004747 -0.006435 0.019910 0.000000 -0.003685 0.000001
# 4 0.000000 0.000000 0.000000 0.040033 0.000001 0.002128
# 5 0.000042 0.001795 -0.003685 0.000001 0.068118 0.000000
# 6 0.000000 -0.000002 0.000001 0.002128 0.000000 0.039284
#
#
# Mechanical properties :
#
#
# Convention : Reuss Voigt Hill
#
# Bulk Modulus (GPa) = 57.16757 59.47360 58.32059
# Shear Modulus (GPa) = 21.66392 23.13382 22.39887
#
# Velocity S-wave (km/s) = 3.47003 3.58582 3.52840
# Velocity P-wave (km/s) = 6.91588 7.08523 7.00107
#
# Compressibility (1/GPa) = 0.01749244
#
# Stress axis : x y z
#
# Youngs Moduli (GPa) = 70.80150 74.18866 50.22699
#
# Poissons Ratio (x) = 0.28404 0.23842
# Poissons Ratio (y) = 0.27107 0.32320
# Poissons Ratio (z) = 0.33608 0.47739
#
# Static dielectric constant tensor:
#      x y z
#    x 3.242450 0.000000 0.137810 
#    y 0.000000 3.580780 0.000000 
#    z 0.137810 0.000000 2.978770 
# 
# 
# High freq. dielectric constant tensor:
#      x y z
#    x 1.697470 0.000000 0.001190 
#    y 0.000000 1.697900 0.000000 
#    z 0.001190 0.000000 1.662020 
# 
# From -- ./inp_files/243964.got.cif
#   From: 2010.06.25/outbox.cif.g09.slc.cpg/sg12_122_cif.got.tgz:243964.got - 2010.06.28 00:19:55.
