data_PCOD8079620
_publ_section_title
;
Structure prediction by ZEFSAII (Michael W. Deem and Ramdas Pophale) SiO2 
 PCOD8079620
Probable space group: C 2/M
;
_chemical_formula_sum "Si O2"
_cell_formula_units_Z 44
_cell_length_a 28.602074
_cell_length_b 17.063301
_cell_length_c 9.423172
_cell_angle_alpha 90.000000
_cell_angle_beta 31.877446
_cell_angle_gamma 90.000000
_cell_volume 2428.718819
_symmetry_space_group_name_H-M "C 2/M"
_symmetry_group_IT_number 12
_symmetry_cell_setting 'monoclinic'
loop_
_space_group_symop_operation_xyz
x,y,z
-x,y,-z
-x,-y,-z
x,-y,z
1/2+x,1/2+y,z
1/2-x,1/2+y,-z
1/2-x,1/2-y,-z
1/2+x,1/2-y,z
loop_
_atom_site_type_symbol
_atom_site_label
_atom_site_fract_x
_atom_site_fract_y
_atom_site_fract_z
Si Si1 0.653695 0.408761 0.532947
Si Si2 0.361214 0.410084 0.108361
Si Si3 0.043227 0.159832 0.576261
Si Si4 0.500000 0.800388 0.500000
Si Si5 0.790314 0.835274 0.035158
Si Si6 0.311053 0.153110 0.969065
O O1 0.623223 0.500000 0.596723
O O2 0.645878 0.377781 0.713528
O O3 0.590822 0.349607 0.606117
O O4 0.755227 0.401687 0.218866
O O5 0.337519 0.500000 0.169710
O O6 0.285987 0.369491 0.204901
O O7 0.458761 0.396353 0.793432
O O8 0.010910 0.247658 0.615729
O O9 0.115378 0.135878 0.272378
O O10 0.584938 0.857130 0.266959
O O11 0.711967 0.868197 0.136051
O O12 0.782075 0.742398 0.068896
#
# Coordination Sequence:
#
# PCOD8079620 Si02
#       6
#     8   8   8   4   8   8
#     4  10  22  34  49  75 111 141 165 205 251 303
#     4  11  20  31  49  78 111 139 164 199 252 313
#     4  10  17  33  50  76 106 133 168 199 252 300
#     4  10  18  36  58  76  96 132 172 230 248 288
#     4   9  18  32  51  74  99 136 169 213 249 296
#     4   9  18  35  53  71 100 130 176 216 251 295
#
# _framework density 18.116547000000001
#
# number of rings (size 3 to 8) (size 9 to 14) (size 15 to 20)
#    0.000    2.182    3.636    2.182    0.000    6.545 
#    0.000    0.455    0.000    0.000    0.000    2.545 
#    0.000    0.000    0.000    0.000    0.000    0.000 
#
# Total GULP energy -272601.255116 kJ/mol
# GULP energy per Si atom -12390.966142 kJ/mol
# Density = 1.807531 g / cm^3
# Si number density = 18.116547 Si / 1000 Ang^3
#
#
#
# Elastic Constant Matrix: (Units=GPa)
#
#
# Indices 1 2 3 4 5 6 
#
# 1 150.2262 34.8024 47.8253 0.0000 7.6396 0.0000
# 2 34.8024 31.2048 16.4629 0.0000 9.5493 0.0000
# 3 47.8253 16.4629 41.8496 0.0000 -9.1241 0.0000
# 4 0.0000 0.0000 0.0000 21.4189 0.0000 5.6242
# 5 7.6396 9.5493 -9.1241 0.0000 36.4760 0.0000
# 6 0.0000 0.0000 0.0000 5.6242 0.0000 17.7893
#
#
#
# Elastic Compliance Matrix: (Units=1/GPa)
#
#
# Indices 1 2 3 4 5 6 
#
# 1 0.012209 -0.005637 -0.012662 0.000000 -0.004249 0.000000
# 2 -0.005637 0.053304 -0.018311 0.000000 -0.017355 0.000000
# 3 -0.012662 -0.018311 0.049913 0.000000 0.019931 0.000000
# 4 0.000000 0.000000 0.000000 0.050914 0.000000 -0.016097
# 5 -0.004249 -0.017355 0.019931 0.000000 0.037834 0.000000
# 6 0.000000 0.000000 0.000000 -0.016097 0.000000 0.061303
#
#
# Mechanical properties :
#
#
# Convention : Reuss Voigt Hill
#
# Bulk Modulus (GPa) = 23.69206 46.82907 35.26056
# Shear Modulus (GPa) = 14.17368 23.41619 18.79493
#
# Velocity S-wave (km/s) = 2.80011 3.59908 3.22443
# Velocity P-wave (km/s) = 4.85387 6.57085 5.77651
#
# Compressibility (1/GPa) = 0.04220823
#
# Stress axis : x y z
#
# Youngs Moduli (GPa) = 81.90352 18.76017 20.03479
#
# Poissons Ratio (x) = 0.10575 0.25367
# Poissons Ratio (y) = 0.46169 0.36685
# Poissons Ratio (z) = 1.03704 0.34351
#
# Static dielectric constant tensor:
#      x y z
#    x 3.786720 0.000000 0.031360 
#    y 0.000000 3.018680 0.000000 
#    z 0.031360 0.000000 3.299540 
# 
# 
# High freq. dielectric constant tensor:
#      x y z
#    x 1.719750 0.000000 -0.000080 
#    y 0.000000 1.662750 0.000000 
#    z -0.000080 0.000000 1.676960 
# 
# From -- ./inp_files/76492.got.cif
#   From: 2010.06.25/outbox.cif.g09.slc.cpg/sg12_39_cif.got.tgz:76492.got - 2010.06.28 00:19:55.
