data_PCOD8079939
_publ_section_title
;
Structure prediction by ZEFSAII (Michael W. Deem and Ramdas Pophale) SiO2 
 PCOD8079939
Probable space group: C 2/M
;
_chemical_formula_sum "Si O2"
_cell_formula_units_Z 56
_cell_length_a 25.682024
_cell_length_b 17.419697
_cell_length_c 19.492740
_cell_angle_alpha 90.000000
_cell_angle_beta 24.168071
_cell_angle_gamma 90.000000
_cell_volume 3570.311766
_symmetry_space_group_name_H-M "C 2/M"
_symmetry_group_IT_number 12
_symmetry_cell_setting 'monoclinic'
loop_
_space_group_symop_operation_xyz
x,y,z
-x,y,-z
-x,-y,-z
x,-y,z
1/2+x,1/2+y,z
1/2-x,1/2+y,-z
1/2-x,1/2-y,-z
1/2+x,1/2-y,z
loop_
_atom_site_type_symbol
_atom_site_label
_atom_site_fract_x
_atom_site_fract_y
_atom_site_fract_z
Si Si1 0.169377 0.852126 0.763045
Si Si2 0.136528 0.171600 0.954720
Si Si3 0.143279 0.589625 0.645262
Si Si4 0.026433 0.297325 0.893163
Si Si5 0.113438 0.587603 0.310419
Si Si6 0.912609 0.915219 0.271277
Si Si7 0.074973 0.588268 0.576525
O O1 0.109377 0.863564 0.910871
O O2 0.128939 0.771134 0.777482
O O3 0.126950 0.918618 0.761513
O O4 0.322538 0.857028 0.584715
O O5 0.278319 0.151705 0.807892
O O6 0.103724 0.262432 0.985435
O O7 0.038166 0.136851 0.128875
O O8 0.135770 0.500000 0.671925
O O9 0.080079 0.635172 0.782690
O O10 0.291109 0.615773 0.460175
O O11 0.066390 0.607786 0.667587
O O12 0.000000 0.332834 0.000000
O O13 0.166601 0.500000 0.254526
O O14 0.000000 0.601019 0.500000
O O15 0.060971 0.601659 0.296540
O O16 0.948451 0.000000 0.253184
O O17 0.117380 0.500000 0.514865
#
# Coordination Sequence:
#
# PCOD8079939 Si02
#       7
#     8   8   8   8   8   8   8
#     4   9  16  26  40  62  92 119 144 176 210 255
#     4  10  18  27  40  64  96 121 147 180 207 248
#     4   9  18  33  49  64  86 111 143 189 232 272
#     4   9  19  32  47  67  86 109 145 184 236 275
#     4  10  18  27  43  64  93 131 159 176 196 237
#     4   9  17  25  39  63  89 119 147 173 212 259
#     4   9  17  28  43  66  91 122 156 177 206 248
#
# _framework density 15.684905000000001
#
# number of rings (size 3 to 8) (size 9 to 14) (size 15 to 20)
#    0.000    2.714    1.429    3.000    0.000    7.714 
#    0.000    0.714    0.000    0.000    0.000    0.000 
#    0.000    0.571    0.000    0.714    0.000    0.000 
#
# Total GULP energy -346896.120093 kJ/mol
# GULP energy per Si atom -12389.147146 kJ/mol
# Density = 1.564921 g / cm^3
# Si number density = 15.684905 Si / 1000 Ang^3
#
#
#
# Elastic Constant Matrix: (Units=GPa)
#
#
# Indices 1 2 3 4 5 6 
#
# 1 59.8841 33.3499 44.0115 0.0002 3.5437 0.0000
# 2 33.3499 51.9465 46.7351 0.0002 7.3110 -0.0001
# 3 44.0115 46.7351 94.1826 0.0002 4.8145 0.0000
# 4 0.0002 0.0002 0.0002 25.7278 -0.0001 5.8940
# 5 3.5437 7.3110 4.8145 -0.0001 26.1571 0.0000
# 6 0.0000 -0.0001 0.0000 5.8940 0.0000 18.4093
#
#
#
# Elastic Compliance Matrix: (Units=1/GPa)
#
#
# Indices 1 2 3 4 5 6 
#
# 1 0.028825 -0.011672 -0.007718 0.000000 0.000778 0.000000
# 2 -0.011672 0.040670 -0.014362 0.000000 -0.007143 0.000000
# 3 -0.007718 -0.014362 0.021293 0.000000 0.001141 0.000000
# 4 0.000000 0.000000 0.000000 0.041945 0.000000 -0.013429
# 5 0.000778 -0.007143 0.001141 0.000000 0.039912 0.000000
# 6 0.000000 0.000000 0.000000 -0.013429 0.000000 0.058620
#
#
# Mechanical properties :
#
#
# Convention : Reuss Voigt Hill
#
# Bulk Modulus (GPa) = 42.94659 50.46736 46.70697
# Shear Modulus (GPa) = 16.31161 19.51996 17.91578
#
# Velocity S-wave (km/s) = 3.22833 3.53158 3.38336
# Velocity P-wave (km/s) = 6.42934 6.99107 6.71608
#
# Compressibility (1/GPa) = 0.02328474
#
# Stress axis : x y z
#
# Youngs Moduli (GPa) = 34.69165 24.58797 46.96424
#
# Poissons Ratio (x) = 0.28698 0.36248
# Poissons Ratio (y) = 0.40491 0.67450
# Poissons Ratio (z) = 0.26776 0.35313
#
# Static dielectric constant tensor:
#      x y z
#    x 2.902790 0.000000 -0.096000 
#    y 0.000000 2.693840 0.000000 
#    z -0.096000 0.000000 2.986910 
# 
# 
# High freq. dielectric constant tensor:
#      x y z
#    x 1.580470 0.000000 -0.001380 
#    y 0.000000 1.570140 0.000000 
#    z -0.001380 0.000000 1.596350 
# 
# From -- ./inp_files/167784.got.cif
#   From: 2010.06.25/outbox.cif.g09.slc.cpg/sg12_84_cif.got.tgz:167784.got - 2010.06.28 00:19:55.
