data_PCOD8079075
_publ_section_title
;
Structure prediction by ZEFSAII (Michael W. Deem and Ramdas Pophale) SiO2 
 PCOD8079075
Probable space group: C 2/M
;
_chemical_formula_sum "Si O2"
_cell_formula_units_Z 64
_cell_length_a 25.926220
_cell_length_b 13.677347
_cell_length_c 14.872665
_cell_angle_alpha 90.000000
_cell_angle_beta 39.746082
_cell_angle_gamma 90.000000
_cell_volume 3372.044326
_symmetry_space_group_name_H-M "C 2/M"
_symmetry_group_IT_number 12
_symmetry_cell_setting 'monoclinic'
loop_
_space_group_symop_operation_xyz
x,y,z
-x,y,-z
-x,-y,-z
x,-y,z
1/2+x,1/2+y,z
1/2-x,1/2+y,-z
1/2-x,1/2-y,-z
1/2+x,1/2-y,z
loop_
_atom_site_type_symbol
_atom_site_label
_atom_site_fract_x
_atom_site_fract_y
_atom_site_fract_z
Si Si1 0.546189 0.387773 0.655181
Si Si2 0.370954 0.607226 0.937948
Si Si3 0.814142 0.889752 0.401766
Si Si4 0.091765 0.112882 0.406098
Si Si5 0.318467 0.803972 0.301889
Si Si6 0.854902 0.695018 0.047908
Si Si7 0.019168 0.609615 0.869914
Si Si8 0.722369 0.339205 0.097595
O O1 0.534324 0.500000 0.643950
O O2 0.456059 0.347105 0.790069
O O3 0.596067 0.375283 0.679812
O O4 0.593802 0.343064 0.505331
O O5 0.380930 0.500000 0.971885
O O6 0.312046 0.586920 0.931493
O O7 0.339243 0.689246 0.050074
O O8 0.752771 0.871411 0.565676
O O9 0.800377 0.811481 0.340765
O O10 0.802846 0.000000 0.379351
O O11 0.150250 0.180141 0.266276
O O12 0.000000 0.122649 0.500000
O O13 0.122109 0.000000 0.357881
O O14 0.326282 0.828020 0.186900
O O15 0.398040 0.831060 0.253168
O O16 0.801018 0.629605 0.050969
O O17 0.948144 0.664661 0.911135
O O18 0.028583 0.500000 0.818589
O O19 0.000000 0.605525 0.000000
O O20 0.750000 0.250000 0.000000
#
# Coordination Sequence:
#
# PCOD8079075 Si02
#       8
#     8   8   8   8   8   8   8   8
#     4   9  17  29  48  75 102 130 166 208 264 322
#     4  10  19  33  51  74 109 144 173 216 272 329
#     4  10  20  33  52  76 102 133 171 222 275 325
#     4  10  17  28  49  74 100 133 171 210 263 324
#     4  10  20  35  52  73 102 135 178 223 268 323
#     4  10  21  34  51  76 105 138 182 222 265 322
#     4   9  18  33  52  72  97 132 170 213 261 308
#     4  10  20  32  47  73 110 142 178 219 264 319
#
# _framework density 18.979583000000002
#
# number of rings (size 3 to 8) (size 9 to 14) (size 15 to 20)
#    0.000    2.250    1.250    2.250    0.000    2.000 
#    0.000    0.000    0.000    4.500    0.000    0.000 
#    0.000    5.250    0.000    0.875    0.000    0.000 
#
# Total GULP energy -396439.795356 kJ/mol
# GULP energy per Si atom -12388.743605 kJ/mol
# Density = 1.893639 g / cm^3
# Si number density = 18.979583 Si / 1000 Ang^3
#
#
#
# Elastic Constant Matrix: (Units=GPa)
#
#
# Indices 1 2 3 4 5 6 
#
# 1 90.5698 16.3851 18.6080 0.0000 -20.6763 0.0000
# 2 16.3851 79.3998 15.2001 0.0000 -6.1008 0.0000
# 3 18.6080 15.2001 61.6449 0.0000 -12.3084 0.0000
# 4 0.0000 0.0000 0.0000 21.1989 0.0000 -0.9627
# 5 -20.6763 -6.1008 -12.3084 0.0000 29.0809 0.0000
# 6 0.0000 0.0000 0.0000 -0.9627 0.0000 18.4681
#
#
#
# Elastic Compliance Matrix: (Units=1/GPa)
#
#
# Indices 1 2 3 4 5 6 
#
# 1 0.013725 -0.001794 -0.001996 0.000000 0.008537 0.000000
# 2 -0.001794 0.013515 -0.002708 0.000000 0.000413 0.000000
# 3 -0.001996 -0.002708 0.018674 0.000000 0.005916 0.000000
# 4 0.000000 0.000000 0.000000 0.047284 0.000000 0.002465
# 5 0.008537 0.000413 0.005916 0.000000 0.043047 0.000000
# 6 0.000000 0.000000 0.000000 0.002465 0.000000 0.054276
#
#
# Mechanical properties :
#
#
# Convention : Reuss Voigt Hill
#
# Bulk Modulus (GPa) = 30.38014 36.88900 33.63457
# Shear Modulus (GPa) = 23.31114 25.84434 24.57774
#
# Velocity S-wave (km/s) = 3.50840 3.69411 3.60245
# Velocity P-wave (km/s) = 5.69678 6.13789 5.92144
#
# Compressibility (1/GPa) = 0.03291624
#
# Stress axis : x y z
#
# Youngs Moduli (GPa) = 72.86071 73.99199 53.55176
#
# Poissons Ratio (x) = 0.13276 0.10689
# Poissons Ratio (y) = 0.13073 0.14504
# Poissons Ratio (z) = 0.14543 0.20039
#
# Static dielectric constant tensor:
#      x y z
#    x 3.658480 0.000000 -0.201450 
#    y 0.000000 3.282320 0.000000 
#    z -0.201450 0.000000 3.463100 
# 
# 
# High freq. dielectric constant tensor:
#      x y z
#    x 1.739840 0.000000 -0.015820 
#    y 0.000000 1.711180 0.000000 
#    z -0.015820 0.000000 1.729720 
# 
# From -- ./inp_files/240661.got.cif
#   From: 2010.06.25/outbox.cif.g09.slc.cpg/sg12_121_cif.got.tgz:240661.got - 2010.06.28 00:19:55.
