data_PCOD8079813
_publ_section_title
;
Structure prediction by ZEFSAII (Michael W. Deem and Ramdas Pophale) SiO2 
 PCOD8079813
Probable space group: C 2/M
;
_chemical_formula_sum "Si O2"
_cell_formula_units_Z 56
_cell_length_a 27.685381
_cell_length_b 9.254637
_cell_length_c 16.374507
_cell_angle_alpha 90.000000
_cell_angle_beta 116.909276
_cell_angle_gamma 90.000000
_cell_volume 3741.180945
_symmetry_space_group_name_H-M "C 2/M"
_symmetry_group_IT_number 12
_symmetry_cell_setting 'monoclinic'
loop_
_space_group_symop_operation_xyz
x,y,z
-x,y,-z
-x,-y,-z
x,-y,z
1/2+x,1/2+y,z
1/2-x,1/2+y,-z
1/2-x,1/2-y,-z
1/2+x,1/2-y,z
loop_
_atom_site_type_symbol
_atom_site_label
_atom_site_fract_x
_atom_site_fract_y
_atom_site_fract_z
Si Si1 0.905297 0.331815 0.317318
Si Si2 0.439831 0.659541 0.488970
Si Si3 0.813797 0.830256 0.969871
Si Si4 0.583513 0.328457 0.043871
Si Si5 0.015703 0.828461 0.138773
Si Si6 0.496257 0.671296 0.688793
Si Si7 0.692025 0.166513 0.871848
O O1 0.920120 0.500000 0.331654
O O2 0.904025 0.271003 0.409129
O O3 0.846021 0.303436 0.234680
O O4 0.948950 0.251106 0.295113
O O5 0.500000 0.654759 0.500000
O O6 0.413310 0.500000 0.462716
O O7 0.446520 0.708081 0.588853
O O8 0.856532 0.772957 0.934623
O O9 0.753364 0.788865 0.894200
O O10 0.820640 0.000000 0.988059
O O11 0.828287 0.758462 0.067140
O O12 0.582079 0.500000 0.043949
O O13 0.565705 0.271986 0.120420
O O14 0.540532 0.272594 0.943493
O O15 0.021261 0.770522 0.235436
O O16 0.016003 0.000000 0.140803
O O17 0.508343 0.500000 0.696765
O O18 0.689861 0.000000 0.896855
#
# Coordination Sequence:
#
# PCOD8079813 Si02
#       7
#     8   8   8   8   8   8   8
#     4  10  18  26  37  54  78 104 127 154 186 221
#     4   8  15  26  38  54  75  98 125 156 188 223
#     4   9  16  27  42  57  75 101 130 156 184 220
#     4   8  13  21  36  58  79  97 120 152 185 220
#     4   8  13  21  35  58  81  96 117 151 189 222
#     4   9  16  26  40  57  78 101 124 154 189 224
#     4   9  18  28  37  55  80 102 127 157 186 218
#
# _framework density 14.968536
#
# number of rings (size 3 to 8) (size 9 to 14) (size 15 to 20)
#    0.000    3.286    0.000    3.000    0.000    4.857 
#    0.000    0.000    0.000    0.857    0.000    5.000 
#    0.000    0.000    0.000    0.000    0.000    0.000 
#
# Total GULP energy -346954.468359 kJ/mol
# GULP energy per Si atom -12391.231013 kJ/mol
# Density = 1.493447 g / cm^3
# Si number density = 14.968536 Si / 1000 Ang^3
#
#
#
# Elastic Constant Matrix: (Units=GPa)
#
#
# Indices 1 2 3 4 5 6 
#
# 1 95.3694 24.3533 58.0534 0.0000 -9.4285 0.0000
# 2 24.3533 35.6963 34.4520 0.0000 2.4500 0.0000
# 3 58.0534 34.4520 131.9966 0.0000 -11.2347 0.0000
# 4 0.0000 0.0000 0.0000 17.7786 0.0000 2.7829
# 5 -9.4285 2.4500 -11.2347 0.0000 21.6838 0.0000
# 6 0.0000 0.0000 0.0000 2.7829 0.0000 11.4959
#
#
#
# Elastic Compliance Matrix: (Units=1/GPa)
#
#
# Indices 1 2 3 4 5 6 
#
# 1 0.015475 -0.006339 -0.004726 0.000000 0.004996 0.000000
# 2 -0.006339 0.042112 -0.009251 0.000000 -0.012308 0.000000
# 3 -0.004726 -0.009251 0.012536 0.000000 0.005485 0.000000
# 4 0.000000 0.000000 0.000000 0.058463 0.000000 -0.014153
# 5 0.004996 -0.012308 0.005485 0.000000 0.052523 0.000000
# 6 0.000000 0.000000 0.000000 -0.014153 0.000000 0.090414
#
#
# Mechanical properties :
#
#
# Convention : Reuss Voigt Hill
#
# Bulk Modulus (GPa) = 33.90930 55.19774 44.55352
# Shear Modulus (GPa) = 15.52863 19.93857 17.73360
#
# Velocity S-wave (km/s) = 3.22439 3.65366 3.44572
# Velocity P-wave (km/s) = 6.04691 7.39965 6.75722
#
# Compressibility (1/GPa) = 0.02949044
#
# Stress axis : x y z
#
# Youngs Moduli (GPa) = 64.61913 23.74609 79.76946
#
# Poissons Ratio (x) = 0.15053 0.37702
# Poissons Ratio (y) = 0.40963 0.73796
# Poissons Ratio (z) = 0.30541 0.21968
#
# Static dielectric constant tensor:
#      x y z
#    x 2.970640 0.000000 -0.155940 
#    y 0.000000 2.695960 0.000000 
#    z -0.155940 0.000000 3.246390 
# 
# 
# High freq. dielectric constant tensor:
#      x y z
#    x 1.545610 0.000000 -0.003140 
#    y 0.000000 1.549390 0.000000 
#    z -0.003140 0.000000 1.572440 
# 
# From -- ./inp_files/243234.got.cif
#   From: 2010.06.25/outbox.cif.g09.slc.cpg/sg12_122_cif.got.tgz:243234.got - 2010.06.28 00:19:55.
