data_PCOD8079488
_publ_section_title
;
Structure prediction by ZEFSAII (Michael W. Deem and Ramdas Pophale) SiO2 
 PCOD8079488
Probable space group: C 2/M
;
_chemical_formula_sum "Si O2"
_cell_formula_units_Z 64
_cell_length_a 28.013810
_cell_length_b 12.958755
_cell_length_c 9.478520
_cell_angle_alpha 90.000000
_cell_angle_beta 97.360155
_cell_angle_gamma 90.000000
_cell_volume 3412.579611
_symmetry_space_group_name_H-M "C 2/M"
_symmetry_group_IT_number 12
_symmetry_cell_setting 'monoclinic'
loop_
_space_group_symop_operation_xyz
x,y,z
-x,y,-z
-x,-y,-z
x,-y,z
1/2+x,1/2+y,z
1/2-x,1/2+y,-z
1/2-x,1/2-y,-z
1/2+x,1/2-y,z
loop_
_atom_site_type_symbol
_atom_site_label
_atom_site_fract_x
_atom_site_fract_y
_atom_site_fract_z
Si Si1 0.583059 0.880627 0.746804
Si Si2 0.735787 0.620692 0.896292
Si Si3 0.737237 0.780314 0.653862
Si Si4 0.616408 0.796506 0.220880
Si Si5 0.838285 0.384221 0.019795
Si Si6 0.677727 0.382297 0.147772
Si Si7 0.645387 0.882014 0.517215
Si Si8 0.985739 0.382208 0.832686
O O1 0.596050 0.868185 0.587622
O O2 0.530138 0.835064 0.758346
O O3 0.580385 0.000000 0.793419
O O4 0.625243 0.827290 0.857689
O O5 0.743787 0.500000 0.861974
O O6 0.726787 0.679594 0.745940
O O7 0.784892 0.667171 0.989097
O O8 0.691957 0.633704 0.989049
O O9 0.750000 0.750000 0.500000
O O10 0.779144 0.849744 0.733836
O O11 0.689449 0.849921 0.634054
O O12 0.637205 0.883835 0.124955
O O13 0.630214 0.684960 0.162200
O O14 0.642685 0.809130 0.380607
O O15 0.559300 0.808426 0.215955
O O16 0.830185 0.500000 0.070086
O O17 0.664321 0.500000 0.173886
O O18 0.651522 0.000000 0.471616
O O19 0.972956 0.500000 0.783264
O O20 0.000000 0.377240 0.000000
#
# Coordination Sequence:
#
# PCOD8079488 Si02
#       8
#     8   8   8   8   8   8   8   8
#     4   9  19  33  53  82 115 147 175 219 284 342
#     4  10  22  37  58  85 114 150 194 238 278 333
#     4  12  22  37  57  86 117 155 191 228 284 341
#     4  12  22  35  56  81 108 153 189 228 278 337
#     4  10  17  31  55  82 110 143 180 222 272 334
#     4  11  24  41  57  80 114 153 200 247 281 320
#     4  11  23  37  53  82 120 153 185 225 276 341
#     4  10  19  33  56  88 116 140 178 229 286 346
#
# _framework density 18.75414
#
# number of rings (size 3 to 8) (size 9 to 14) (size 15 to 20)
#    0.000    1.375    3.750    2.625    1.750    4.500 
#    0.000    1.875    0.000    0.375    0.000    2.625 
#    0.000    0.000    0.000    0.000    0.000    0.000 
#
# Total GULP energy -396758.658578 kJ/mol
# GULP energy per Si atom -12398.708081 kJ/mol
# Density = 1.871145 g / cm^3
# Si number density = 18.754140 Si / 1000 Ang^3
#
#
#
# Elastic Constant Matrix: (Units=GPa)
#
#
# Indices 1 2 3 4 5 6 
#
# 1 116.7368 41.4479 34.9036 0.0000 -5.7389 0.0000
# 2 41.4479 89.7645 38.5027 0.0000 -3.8302 0.0000
# 3 34.9036 38.5027 87.3295 0.0000 -6.0184 0.0000
# 4 0.0000 0.0000 0.0000 22.6079 0.0000 -0.6098
# 5 -5.7389 -3.8302 -6.0184 0.0000 28.7863 0.0000
# 6 0.0000 0.0000 0.0000 -0.6098 0.0000 27.1760
#
#
#
# Elastic Compliance Matrix: (Units=1/GPa)
#
#
# Indices 1 2 3 4 5 6 
#
# 1 0.010734 -0.003825 -0.002528 0.000000 0.001103 0.000000
# 2 -0.003825 0.015111 -0.005121 0.000000 0.000177 0.000000
# 3 -0.002528 -0.005121 0.014851 0.000000 0.001920 0.000000
# 4 0.000000 0.000000 0.000000 0.044259 0.000000 0.000993
# 5 0.001103 0.000177 0.001920 0.000000 0.035384 0.000000
# 6 0.000000 0.000000 0.000000 0.000993 0.000000 0.036820
#
#
# Mechanical properties :
#
#
# Convention : Reuss Voigt Hill
#
# Bulk Modulus (GPa) = 56.34376 58.17104 57.25740
# Shear Modulus (GPa) = 26.87840 27.64580 27.26210
#
# Velocity S-wave (km/s) = 3.78987 3.84359 3.81682
# Velocity P-wave (km/s) = 7.01850 7.12619 7.07255
#
# Compressibility (1/GPa) = 0.01774820
#
# Stress axis : x y z
#
# Youngs Moduli (GPa) = 93.15808 66.17845 67.33404
#
# Poissons Ratio (x) = 0.25315 0.17021
# Poissons Ratio (y) = 0.35635 0.34482
# Poissons Ratio (z) = 0.23549 0.33890
#
# Static dielectric constant tensor:
#      x y z
#    x 3.636310 0.000000 -0.066580 
#    y 0.000000 3.272280 0.000000 
#    z -0.066580 0.000000 3.430480 
# 
# 
# High freq. dielectric constant tensor:
#      x y z
#    x 1.727010 0.000000 -0.011720 
#    y 0.000000 1.692770 0.000000 
#    z -0.011720 0.000000 1.734330 
# 
# From -- ./inp_files/104630.got.cif
#   From: 2010.06.25/outbox.cif.g09.slc.cpg/sg12_53_cif.got.tgz:104630.got - 2010.06.28 00:19:55.
