data_PCOD8079972
_publ_section_title
;
Structure prediction by ZEFSAII (Michael W. Deem and Ramdas Pophale) SiO2 
 PCOD8079972
Probable space group: C 2/M
;
_chemical_formula_sum "Si O2"
_cell_formula_units_Z 64
_cell_length_a 25.167345
_cell_length_b 9.236925
_cell_length_c 21.313037
_cell_angle_alpha 90.000000
_cell_angle_beta 53.874045
_cell_angle_gamma 90.000000
_cell_volume 4001.958235
_symmetry_space_group_name_H-M "C 2/M"
_symmetry_group_IT_number 12
_symmetry_cell_setting 'monoclinic'
loop_
_space_group_symop_operation_xyz
x,y,z
-x,y,-z
-x,-y,-z
x,-y,z
1/2+x,1/2+y,z
1/2-x,1/2+y,-z
1/2-x,1/2-y,-z
1/2+x,1/2-y,z
loop_
_atom_site_type_symbol
_atom_site_label
_atom_site_fract_x
_atom_site_fract_y
_atom_site_fract_z
Si Si1 0.276719 0.170145 0.830172
Si Si2 0.776158 0.833153 0.571666
Si Si3 0.886105 0.832256 0.834151
Si Si4 0.851498 0.668726 0.417096
Si Si5 0.302440 0.335171 0.002023
Si Si6 0.459624 0.671654 0.586780
Si Si7 0.310299 0.669783 0.687465
Si Si8 0.481937 0.330717 0.321721
O O1 0.339090 0.235327 0.823683
O O2 0.208122 0.202221 0.916786
O O3 0.268304 0.246029 0.768971
O O4 0.288437 0.000000 0.812519
O O5 0.829995 0.737995 0.498075
O O6 0.703309 0.800036 0.597386
O O7 0.777684 0.792868 0.643591
O O8 0.796026 0.000000 0.547075
O O9 0.961732 0.793202 0.768258
O O10 0.873315 0.000000 0.824380
O O11 0.872826 0.805530 0.918679
O O12 0.863099 0.500000 0.419742
O O13 0.918041 0.741519 0.346053
O O14 0.282572 0.500000 0.006635
O O15 0.250000 0.250000 0.000000
O O16 0.500000 0.737411 0.500000
O O17 0.458481 0.500000 0.582958
O O18 0.385001 0.728774 0.636519
O O19 0.494003 0.722408 0.626787
O O20 0.307410 0.500000 0.704248
O O21 0.464576 0.500000 0.334304
#
# Coordination Sequence:
#
# PCOD8079972 Si02
#       8
#     8   8   8   8   8   8   8   8
#     4  10  18  27  41  66  98 122 143 182 236 275
#     4   9  19  35  53  68  85 117 159 194 225 266
#     4   9  16  29  46  63  87 123 164 188 208 261
#     4  10  20  33  49  70  93 116 147 193 240 271
#     4   8  15  26  41  61  87 120 152 184 219 261
#     4   9  16  26  42  63  85 112 149 185 214 252
#     4  10  18  31  49  66  87 119 157 190 217 263
#     4  10  18  29  46  67  90 121 156 186 219 265
#
# _framework density 15.992172
#
# number of rings (size 3 to 8) (size 9 to 14) (size 15 to 20)
#    0.000    2.625    1.250    1.500    0.000    4.000 
#    0.000    0.000    0.000    1.500    0.000    0.875 
#    0.000    7.000    0.000    0.000    0.000    0.000 
#
# Total GULP energy -396583.891149 kJ/mol
# GULP energy per Si atom -12393.246598 kJ/mol
# Density = 1.595577 g / cm^3
# Si number density = 15.992172 Si / 1000 Ang^3
#
#
#
# Elastic Constant Matrix: (Units=GPa)
#
#
# Indices 1 2 3 4 5 6 
#
# 1 66.3867 32.5589 55.0777 -0.0002 -3.9126 -0.0001
# 2 32.5589 56.6487 52.6987 -0.0010 -2.2607 0.0006
# 3 55.0777 52.6987 160.7834 -0.0003 -7.7282 0.0001
# 4 -0.0002 -0.0010 -0.0003 24.3118 0.0002 -0.8470
# 5 -3.9126 -2.2607 -7.7282 0.0002 19.3803 -0.0001
# 6 -0.0001 0.0006 0.0001 -0.8470 -0.0001 20.6276
#
#
#
# Elastic Compliance Matrix: (Units=1/GPa)
#
#
# Indices 1 2 3 4 5 6 
#
# 1 0.023766 -0.008767 -0.005186 0.000000 0.001707 0.000000
# 2 -0.008767 0.028633 -0.006429 0.000001 -0.000994 -0.000001
# 3 -0.005186 -0.006429 0.010213 0.000000 0.002276 0.000000
# 4 0.000000 0.000001 0.000000 0.041191 0.000000 0.001691
# 5 0.001707 -0.000994 0.002276 0.000000 0.052735 0.000000
# 6 0.000000 -0.000001 0.000000 0.001691 0.000000 0.048548
#
#
# Mechanical properties :
#
#
# Convention : Reuss Voigt Hill
#
# Bulk Modulus (GPa) = 45.77257 62.72106 54.24681
# Shear Modulus (GPa) = 19.75251 22.42953 21.09102
#
# Velocity S-wave (km/s) = 3.51826 3.74910 3.63552
# Velocity P-wave (km/s) = 6.72222 7.61879 7.18451
#
# Compressibility (1/GPa) = 0.02184715
#
# Stress axis : x y z
#
# Youngs Moduli (GPa) = 42.07697 34.92476 97.91902
#
# Poissons Ratio (x) = 0.30620 0.50776
# Poissons Ratio (y) = 0.36891 0.62954
# Poissons Ratio (z) = 0.21819 0.22454
#
# Static dielectric constant tensor:
#      x y z
#    x 2.757990 0.000000 -0.073690 
#    y 0.000000 2.947530 0.000000 
#    z -0.073690 0.000000 3.594830 
# 
# 
# High freq. dielectric constant tensor:
#      x y z
#    x 1.573550 0.000000 -0.004980 
#    y 0.000000 1.607150 0.000000 
#    z -0.004980 0.000000 1.628760 
# 
# From -- ./inp_files/326583.got.cif
#   From: 2010.06.25/outbox.cif.g09.slc.cpg/sg12_164_cif.got.tgz:326583.got - 2010.06.28 00:19:55.
