data_PCOD8079007
_publ_section_title
;
Structure prediction by ZEFSAII (Michael W. Deem and Ramdas Pophale) SiO2 
 PCOD8079007
Probable space group: C 2/M
;
_chemical_formula_sum "Si O2"
_cell_formula_units_Z 64
_cell_length_a 25.475425
_cell_length_b 8.693316
_cell_length_c 15.766156
_cell_angle_alpha 90.000000
_cell_angle_beta 73.237775
_cell_angle_gamma 90.000000
_cell_volume 3343.304809
_symmetry_space_group_name_H-M "C 2/M"
_symmetry_group_IT_number 12
_symmetry_cell_setting 'monoclinic'
loop_
_space_group_symop_operation_xyz
x,y,z
-x,y,-z
-x,-y,-z
x,-y,z
1/2+x,1/2+y,z
1/2-x,1/2+y,-z
1/2-x,1/2-y,-z
1/2+x,1/2-y,z
loop_
_atom_site_type_symbol
_atom_site_label
_atom_site_fract_x
_atom_site_fract_y
_atom_site_fract_z
Si Si1 0.932874 0.183289 0.872739
Si Si2 0.118142 0.179328 0.931577
Si Si3 0.765588 0.820594 0.181670
Si Si4 0.848551 0.183681 0.771331
Si Si5 0.875522 0.818049 0.393591
Si Si6 0.725190 0.822256 0.643484
Si Si7 0.350264 0.678608 0.582877
Si Si8 0.056181 0.183813 0.795136
O O1 0.895563 0.242325 0.812482
O O2 0.994225 0.245359 0.830653
O O3 0.931910 0.000000 0.875369
O O4 0.909361 0.252438 0.971696
O O5 0.183639 0.207130 0.906303
O O6 0.090770 0.249280 0.858927
O O7 0.104523 0.000000 0.937029
O O8 0.709464 0.752118 0.169667
O O9 0.783448 0.731329 0.256816
O O10 0.757969 0.000000 0.205605
O O11 0.863186 0.249828 0.669906
O O12 0.842668 0.000000 0.773178
O O13 0.813684 0.776110 0.398410
O O14 0.885936 0.756291 0.486055
O O15 0.918272 0.749816 0.304845
O O16 0.880402 0.000000 0.392184
O O17 0.787394 0.790455 0.587377
O O18 0.709217 0.000000 0.643684
O O19 0.362491 0.500000 0.586425
O O20 0.058130 0.000000 0.792719
#
# Coordination Sequence:
#
# PCOD8079007 Si02
#       8
#     8   8   8   8   8   8   8   8
#     4   9  17  29  47  68  95 128 160 197 238 278
#     4   9  16  27  45  72  98 120 155 198 239 283
#     4  10  18  30  49  73  98 126 156 194 238 280
#     4   9  18  33  48  68  97 129 161 193 232 280
#     4  10  17  28  46  69  95 124 157 195 233 275
#     4  10  18  29  45  69 100 129 154 186 236 288
#     4   8  16  28  43  64  95 127 155 189 230 279
#     4   9  16  27  45  71  97 122 157 198 238 277
#
# _framework density 19.142734999999998
#
# number of rings (size 3 to 8) (size 9 to 14) (size 15 to 20)
#    0.000    2.750    1.250    2.250    0.000    2.000 
#    0.000    3.125    0.000    5.250    0.000    0.875 
#    0.000    5.000    0.000    0.000    0.000    0.000 
#
# Total GULP energy -396508.502339 kJ/mol
# GULP energy per Si atom -12390.890698 kJ/mol
# Density = 1.909917 g / cm^3
# Si number density = 19.142735 Si / 1000 Ang^3
#
#
#
# Elastic Constant Matrix: (Units=GPa)
#
#
# Indices 1 2 3 4 5 6 
#
# 1 87.8558 142.4347 34.6266 0.0000 61.1405 0.0000
# 2 142.4347 -591.4683 212.3491 0.0000 -256.7129 0.0000
# 3 34.6266 212.3491 92.6235 0.0000 69.5202 0.0000
# 4 0.0000 0.0000 0.0000 10.7265 0.0000 -0.7133
# 5 61.1405 -256.7129 69.5202 0.0000 -83.8173 0.0000
# 6 0.0000 0.0000 0.0000 -0.7133 0.0000 17.7166
#
#
#
# Elastic Compliance Matrix: (Units=1/GPa)
#
#
# Indices 1 2 3 4 5 6 
#
# 1 0.013544 0.003094 -0.007679 0.000000 -0.005966 0.000000
# 2 0.003094 0.005841 -0.001735 0.000000 -0.017071 0.000000
# 3 -0.007679 -0.001735 0.011008 0.000000 0.008842 0.000000
# 4 0.000000 0.000000 0.000000 0.093477 0.000000 0.003764
# 5 -0.005966 -0.017071 0.008842 0.000000 0.043335 0.000000
# 6 0.000000 0.000000 0.000000 0.003764 0.000000 0.056596
#
#
# Mechanical properties :
#
#
# Convention : Reuss Voigt Hill
#
# Bulk Modulus (GPa) = 56.32574 40.87019 48.59797
# Shear Modulus (GPa) = 20.63059 -64.43480 -21.90210
#
# Velocity S-wave (km/s) = 3.28643 -5.80803 -3.38619
# Velocity P-wave (km/s) = 6.62486 4.85604 3.18651
#
# Compressibility (1/GPa) = 0.01775387
#
# Stress axis : x y z
#
# Youngs Moduli (GPa) = 73.83072 171.20853 90.84323
#
# Poissons Ratio (x) = -0.52976 0.69761
# Poissons Ratio (y) = -0.22845 0.15758
# Poissons Ratio (z) = 0.56697 0.29699
#
# Static dielectric constant tensor:
#      x y z
#    x 3.572640 0.000000 -0.011920 
#    y 0.000000 3.014000 0.000000 
#    z -0.011920 0.000000 4.003500 
# 
# 
# High freq. dielectric constant tensor:
#      x y z
#    x 1.728300 0.000000 -0.005440 
#    y 0.000000 1.686560 0.000000 
#    z -0.005440 0.000000 1.759380 
# 
# From -- ./inp_files/243997.got.cif
#   From: 2010.06.25/outbox.cif.g09.slc.cpg/sg12_122_cif.got.tgz:243997.got - 2010.06.28 00:19:55.
