data_PCOD8079298
_publ_section_title
;
Structure prediction by ZEFSAII (Michael W. Deem and Ramdas Pophale) SiO2 
 PCOD8079298
Probable space group: C 2/M
;
_chemical_formula_sum "Si O2"
_cell_formula_units_Z 52
_cell_length_a 5.289505
_cell_length_b 26.649719
_cell_length_c 23.706507
_cell_angle_alpha 90.000000
_cell_angle_beta 110.134631
_cell_angle_gamma 90.000000
_cell_volume 3137.532737
_symmetry_space_group_name_H-M "C 2/M"
_symmetry_group_IT_number 12
_symmetry_cell_setting 'monoclinic'
loop_
_space_group_symop_operation_xyz
x,y,z
-x,y,-z
-x,-y,-z
x,-y,z
1/2+x,1/2+y,z
1/2-x,1/2+y,-z
1/2-x,1/2-y,-z
1/2+x,1/2-y,z
loop_
_atom_site_type_symbol
_atom_site_label
_atom_site_fract_x
_atom_site_fract_y
_atom_site_fract_z
Si Si1 0.769546 0.134150 0.939746
Si Si2 0.208305 0.559886 0.634763
Si Si3 0.230226 0.769466 0.113290
Si Si4 0.000000 0.709575 0.000000
Si Si5 0.394645 0.559785 0.432029
Si Si6 0.982371 0.440605 0.160550
Si Si7 0.587258 0.440581 0.230082
O O1 0.861998 0.171663 0.895489
O O2 0.570503 0.170901 0.956182
O O3 0.625217 0.084792 0.904857
O O4 0.000000 0.115300 0.000000
O O5 0.207636 0.500000 0.634867
O O6 0.406999 0.580216 0.601391
O O7 0.312539 0.581283 0.702507
O O8 0.906851 0.580279 0.601178
O O9 0.551741 0.759248 0.147548
O O10 0.226460 0.745355 0.047486
O O11 0.500000 0.580181 0.500000
O O12 0.393889 0.500000 0.431512
O O13 0.970935 0.500000 0.150304
O O14 0.793949 0.423157 0.197717
O O15 0.285494 0.421360 0.194627
O O16 0.583079 0.500000 0.233360
#
# Coordination Sequence:
#
# PCOD8079298 Si02
#       7
#     8   8   8   4   8   8   8
#     4  11  20  31  49  64  85 107 129 162 225 276
#     4   9  15  24  40  52  68 103 134 160 203 246
#     4  10  17  30  47  68  86 102 123 152 193 267
#     4  10  18  32  47  70  85 104 124 156 202 284
#     4   9  15  21  32  57  83  96 116 158 211 258
#     4  10  22  34  45  60  81 105 141 186 214 243
#     4   9  18  34  46  55  72 104 149 183 204 234
#
# _framework density 16.573533999999999
#
# number of rings (size 3 to 8) (size 9 to 14) (size 15 to 20)
#    0.000    2.308    2.308    2.308    2.154    5.846 
#    0.000    0.385    0.000    0.000    0.000    0.000 
#    0.000    0.000    0.000    0.000    0.000    0.000 
#
# Total GULP energy -322152.599053 kJ/mol
# GULP energy per Si atom -12390.484579 kJ/mol
# Density = 1.653581 g / cm^3
# Si number density = 16.573534 Si / 1000 Ang^3
#
#
#
# Elastic Constant Matrix: (Units=GPa)
#
#
# Indices 1 2 3 4 5 6 
#
# 1 138.7668 20.8987 48.8263 0.0000 9.4363 0.0000
# 2 20.8987 35.0811 31.0048 0.0000 3.4543 0.0000
# 3 48.8263 31.0048 89.8584 0.0000 13.9486 0.0000
# 4 0.0000 0.0000 0.0000 -2.0386 0.0000 32.5554
# 5 9.4363 3.4543 13.9486 0.0000 26.4922 0.0000
# 6 0.0000 0.0000 0.0000 32.5554 0.0000 -297.1643
#
#
#
# Elastic Compliance Matrix: (Units=1/GPa)
#
#
# Indices 1 2 3 4 5 6 
#
# 1 0.008978 -0.001535 -0.004229 0.000000 -0.000771 0.000000
# 2 -0.001535 0.041402 -0.013829 0.000000 0.002429 0.000000
# 3 -0.004229 -0.013829 0.019258 0.000000 -0.006830 0.000000
# 4 0.000000 0.000000 0.000000 0.654474 0.000000 0.071700
# 5 -0.000771 0.002429 -0.006830 0.000000 0.041301 0.000000
# 6 0.000000 0.000000 0.000000 0.071700 0.000000 0.004490
#
#
# Mechanical properties :
#
#
# Convention : Reuss Voigt Hill
#
# Bulk Modulus (GPa) = 32.83691 51.68512 42.26102
# Shear Modulus (GPa) = 6.10322 -43.67705 -18.78692
#
# Velocity S-wave (km/s) = 1.92107 -5.13913 -3.37047
# Velocity P-wave (km/s) = 4.97760 1.99029 3.22609
#
# Compressibility (1/GPa) = 0.03045353
#
# Stress axis : x y z
#
# Youngs Moduli (GPa) = 111.38388 24.15321 51.92568
#
# Poissons Ratio (x) = 0.03707 0.21960
# Poissons Ratio (y) = 0.17095 0.71806
# Poissons Ratio (z) = 0.47105 0.33401
#
# Static dielectric constant tensor:
#      x y z
#    x 3.437950 0.000000 -0.002180 
#    y 0.000000 2.596020 0.000000 
#    z -0.002180 0.000000 2.995540 
# 
# 
# High freq. dielectric constant tensor:
#      x y z
#    x 1.666520 0.000000 -0.001070 
#    y 0.000000 1.570350 0.000000 
#    z -0.001070 0.000000 1.610760 
# 
# From -- ./inp_files/298233.got.cif
#   From: 2010.06.25/outbox.cif.g09.slc.cpg/sg12_150_cif.got.tgz:298233.got - 2010.06.28 00:19:55.
