data_PCOD8079142
_publ_section_title
;
Structure prediction by ZEFSAII (Michael W. Deem and Ramdas Pophale) SiO2 
 PCOD8079142
Probable space group: C 2/M
;
_chemical_formula_sum "Si O2"
_cell_formula_units_Z 64
_cell_length_a 27.422155
_cell_length_b 12.484913
_cell_length_c 11.965829
_cell_angle_alpha 90.000000
_cell_angle_beta 99.993769
_cell_angle_gamma 90.000000
_cell_volume 4034.499613
_symmetry_space_group_name_H-M "C 2/M"
_symmetry_group_IT_number 12
_symmetry_cell_setting 'monoclinic'
loop_
_space_group_symop_operation_xyz
x,y,z
-x,y,-z
-x,-y,-z
x,-y,z
1/2+x,1/2+y,z
1/2-x,1/2+y,-z
1/2-x,1/2-y,-z
1/2+x,1/2-y,z
loop_
_atom_site_type_symbol
_atom_site_label
_atom_site_fract_x
_atom_site_fract_y
_atom_site_fract_z
Si Si1 0.067824 0.876334 0.328020
Si Si2 0.722364 0.258986 0.321271
Si Si3 0.119494 0.208468 0.558486
Si Si4 0.863665 0.875129 0.842522
Si Si5 0.044182 0.126823 0.698986
Si Si6 0.196356 0.877999 0.747497
Si Si7 0.806955 0.373755 0.480592
Si Si8 0.123152 0.125667 0.905171
O O1 0.105722 0.819435 0.426464
O O2 0.086679 0.856384 0.209836
O O3 0.012035 0.832440 0.315965
O O4 0.067732 0.000000 0.360154
O O5 0.682237 0.317489 0.231232
O O6 0.754238 0.189351 0.247678
O O7 0.756321 0.348101 0.394749
O O8 0.696213 0.180818 0.399362
O O9 0.070196 0.198997 0.614056
O O10 0.161248 0.127979 0.623508
O O11 0.144912 0.326447 0.565925
O O12 0.850807 0.000000 0.844654
O O13 0.873612 0.824799 0.969453
O O14 0.069908 0.150936 0.828391
O O15 0.048555 0.000000 0.670514
O O16 0.166555 0.829486 0.841897
O O17 0.211711 0.000000 0.773037
O O18 0.813699 0.500000 0.495963
O O19 0.130343 0.000000 0.916738
#
# Coordination Sequence:
#
# PCOD8079142 Si02
#       8
#     8   8   8   8   8   8   8   8
#     4  10  18  27  44  70  96 122 151 186 225 270
#     4  10  19  31  46  68  89 122 155 185 223 264
#     4  10  17  29  46  68  94 119 148 186 226 269
#     4  10  19  30  44  65  96 124 149 184 226 269
#     4   9  17  29  47  70  94 122 153 185 223 268
#     4   9  17  29  47  67  91 124 156 182 217 265
#     4  10  20  32  46  67  95 121 149 185 228 276
#     4   8  16  30  44  64  94 123 149 182 224 268
#
# _framework density 15.863181000000001
#
# number of rings (size 3 to 8) (size 9 to 14) (size 15 to 20)
#    0.000    2.500    1.250    3.000    0.000    2.000 
#    0.000    2.500    0.000    1.500    0.000    3.500 
#    0.000    1.000    0.000    0.000    0.000    0.000 
#
# Total GULP energy -396665.856944 kJ/mol
# GULP energy per Si atom -12395.808029 kJ/mol
# Density = 1.582708 g / cm^3
# Si number density = 15.863181 Si / 1000 Ang^3
#
#
#
# Elastic Constant Matrix: (Units=GPa)
#
#
# Indices 1 2 3 4 5 6 
#
# 1 101.4755 39.8482 40.2405 0.0000 -7.4253 0.0000
# 2 39.8482 59.1846 32.8295 0.0000 -5.8340 0.0000
# 3 40.2405 32.8295 106.6309 0.0000 -4.3399 0.0000
# 4 0.0000 0.0000 0.0000 16.0531 0.0000 0.5386
# 5 -7.4253 -5.8340 -4.3399 0.0000 16.7226 0.0000
# 6 0.0000 0.0000 0.0000 0.5386 0.0000 21.7649
#
#
#
# Elastic Compliance Matrix: (Units=1/GPa)
#
#
# Indices 1 2 3 4 5 6 
#
# 1 0.014232 -0.007699 -0.002883 0.000000 0.002885 0.000000
# 2 -0.007699 0.025061 -0.004643 0.000000 0.004120 0.000000
# 3 -0.002883 -0.004643 0.011903 0.000000 0.000189 0.000000
# 4 0.000000 0.000000 0.000000 0.062345 0.000000 -0.001543
# 5 0.002885 0.004120 0.000189 0.000000 0.062567 0.000000
# 6 0.000000 0.000000 0.000000 -0.001543 0.000000 0.045984
#
#
# Mechanical properties :
#
#
# Convention : Reuss Voigt Hill
#
# Bulk Modulus (GPa) = 48.19911 54.79195 51.49553
# Shear Modulus (GPa) = 19.27096 21.19964 20.23530
#
# Velocity S-wave (km/s) = 3.48921 3.65965 3.57545
# Velocity P-wave (km/s) = 6.83250 7.24381 7.04116
#
# Compressibility (1/GPa) = 0.02074727
#
# Stress axis : x y z
#
# Youngs Moduli (GPa) = 70.26283 39.90248 84.00977
#
# Poissons Ratio (x) = 0.30719 0.24223
# Poissons Ratio (y) = 0.54093 0.39004
# Poissons Ratio (z) = 0.20259 0.18526
#
# Static dielectric constant tensor:
#      x y z
#    x 3.132400 0.000000 -0.125140 
#    y 0.000000 2.671800 0.000000 
#    z -0.125140 0.000000 3.213070 
# 
# 
# High freq. dielectric constant tensor:
#      x y z
#    x 1.616070 0.000000 -0.005930 
#    y 0.000000 1.562840 0.000000 
#    z -0.005930 0.000000 1.611630 
# 
# From -- ./inp_files/182033.got.cif
#   From: 2010.06.25/outbox.cif.g09.slc.cpg/sg12_92_cif.got.tgz:182033.got - 2010.06.28 00:19:55.
