data_PCOD8079804
_publ_section_title
;
Structure prediction by ZEFSAII (Michael W. Deem and Ramdas Pophale) SiO2 
 PCOD8079804
Probable space group: C 2/M
;
_chemical_formula_sum "Si O2"
_cell_formula_units_Z 56
_cell_length_a 24.576626
_cell_length_b 9.357286
_cell_length_c 23.410760
_cell_angle_alpha 90.000000
_cell_angle_beta 43.214378
_cell_angle_gamma 90.000000
_cell_volume 3686.438915
_symmetry_space_group_name_H-M "C 2/M"
_symmetry_group_IT_number 12
_symmetry_cell_setting 'monoclinic'
loop_
_space_group_symop_operation_xyz
x,y,z
-x,y,-z
-x,-y,-z
x,-y,z
1/2+x,1/2+y,z
1/2-x,1/2+y,-z
1/2-x,1/2-y,-z
1/2+x,1/2-y,z
loop_
_atom_site_type_symbol
_atom_site_label
_atom_site_fract_x
_atom_site_fract_y
_atom_site_fract_z
Si Si1 0.289379 0.663931 0.884651
Si Si2 0.086991 0.665674 0.268608
Si Si3 0.519190 0.831291 0.547129
Si Si4 0.331369 0.164698 0.498578
Si Si5 0.012899 0.660870 0.769316
Si Si6 0.354312 0.163070 0.938635
Si Si7 0.653206 0.665383 0.628318
O O1 0.313554 0.500000 0.857186
O O2 0.328294 0.753302 0.803088
O O3 0.323265 0.718726 0.918722
O O4 0.192647 0.681508 0.964814
O O5 0.106563 0.500000 0.261018
O O6 0.042039 0.728254 0.358544
O O7 0.031816 0.694206 0.255993
O O8 0.500000 0.762208 0.500000
O O9 0.609807 0.792369 0.494924
O O10 0.508417 0.000000 0.552393
O O11 0.352510 0.261026 0.428609
O O12 0.240743 0.189185 0.588310
O O13 0.345242 0.000000 0.469609
O O14 0.046088 0.500000 0.743801
O O15 0.087751 0.765682 0.720351
O O16 0.950059 0.684060 0.869681
O O17 0.338971 0.000000 0.927051
O O18 0.633589 0.500000 0.635402
#
# Coordination Sequence:
#
# PCOD8079804 Si02
#       7
#     8   8   8   8   8   8   8
#     4   9  15  23  36  53  74 101 132 160 191 233
#     4   9  16  26  39  55  76 102 132 164 198 233
#     4   9  16  28  46  61  74 101 141 174 197 230
#     4   9  17  30  42  56  78 103 132 166 200 233
#     4   9  15  25  39  54  78 107 132 160 192 229
#     4   8  15  25  35  50  74 105 133 158 189 227
#     4  10  18  25  39  60  81 104 131 161 196 239
#
# _framework density 15.190811999999999
#
# number of rings (size 3 to 8) (size 9 to 14) (size 15 to 20)
#    0.000    3.000    1.429    1.714    0.000    3.429 
#    0.000    0.000    0.000    1.714    0.000    0.000 
#    0.000    1.143    0.000   14.286    0.000    1.429 
#
# Total GULP energy -346884.325676 kJ/mol
# GULP energy per Si atom -12388.725917 kJ/mol
# Density = 1.515624 g / cm^3
# Si number density = 15.190812 Si / 1000 Ang^3
#
#
#
# Elastic Constant Matrix: (Units=GPa)
#
#
# Indices 1 2 3 4 5 6 
#
# 1 66.0715 28.7328 50.9284 0.0001 -13.0359 0.0000
# 2 28.7328 63.4132 45.4726 0.0003 -17.0798 0.0005
# 3 50.9284 45.4726 122.0258 0.0001 -29.8191 -0.0001
# 4 0.0001 0.0003 0.0001 25.3713 -0.0001 -8.1816
# 5 -13.0359 -17.0798 -29.8191 -0.0001 22.5664 0.0000
# 6 0.0000 0.0005 -0.0001 -8.1816 0.0000 11.7637
#
#
#
# Elastic Compliance Matrix: (Units=1/GPa)
#
#
# Indices 1 2 3 4 5 6 
#
# 1 0.023398 -0.005049 -0.008145 0.000000 -0.001067 0.000000
# 2 -0.005049 0.023746 -0.004523 -0.000001 0.009079 -0.000001
# 3 -0.008145 -0.004523 0.016679 0.000000 0.013912 0.000000
# 4 0.000000 -0.000001 0.000000 0.050810 0.000000 0.035338
# 5 -0.001067 0.009079 0.013912 0.000000 0.068952 -0.000001
# 6 0.000000 -0.000001 0.000000 0.035338 -0.000001 0.109585
#
#
# Mechanical properties :
#
#
# Convention : Reuss Voigt Hill
#
# Bulk Modulus (GPa) = 35.22331 55.75313 45.48822
# Shear Modulus (GPa) = 14.78996 20.36540 17.57768
#
# Velocity S-wave (km/s) = 3.12366 3.66545 3.40535
# Velocity P-wave (km/s) = 6.02057 7.39564 6.74325
#
# Compressibility (1/GPa) = 0.02839029
#
# Stress axis : x y z
#
# Youngs Moduli (GPa) = 42.73836 42.11222 59.95448
#
# Poissons Ratio (x) = 0.21261 0.48832
# Poissons Ratio (y) = 0.21578 0.27118
# Poissons Ratio (z) = 0.34810 0.19048
#
# Static dielectric constant tensor:
#      x y z
#    x 2.650330 0.000000 -0.362360 
#    y 0.000000 2.893400 0.000000 
#    z -0.362360 0.000000 3.362180 
# 
# 
# High freq. dielectric constant tensor:
#      x y z
#    x 1.519210 0.000000 -0.040730 
#    y 0.000000 1.577340 0.000000 
#    z -0.040730 0.000000 1.588260 
# 
# From -- ./inp_files/323573.got.cif
#   From: 2010.06.25/outbox.cif.g09.slc.cpg/sg12_162_cif.got.tgz:323573.got - 2010.06.28 00:19:55.
