data_PCOD8079603
_publ_section_title
;
Structure prediction by ZEFSAII (Michael W. Deem and Ramdas Pophale) SiO2 
 PCOD8079603
Probable space group: C 2/M
;
_chemical_formula_sum "Si O2"
_cell_formula_units_Z 48
_cell_length_a 13.959280
_cell_length_b 21.580954
_cell_length_c 12.095744
_cell_angle_alpha 90.000000
_cell_angle_beta 43.145312
_cell_angle_gamma 90.000000
_cell_volume 2491.883493
_symmetry_space_group_name_H-M "C 2/M"
_symmetry_group_IT_number 12
_symmetry_cell_setting 'monoclinic'
loop_
_space_group_symop_operation_xyz
x,y,z
-x,y,-z
-x,-y,-z
x,-y,z
1/2+x,1/2+y,z
1/2-x,1/2+y,-z
1/2-x,1/2-y,-z
1/2+x,1/2-y,z
loop_
_atom_site_type_symbol
_atom_site_label
_atom_site_fract_x
_atom_site_fract_y
_atom_site_fract_z
Si Si1 0.381876 0.374647 0.321815
Si Si2 0.682148 0.500000 0.971281
Si Si3 0.625625 0.500000 0.763571
Si Si4 0.846952 0.070919 0.579527
Si Si5 0.837190 0.346108 0.119522
Si Si6 0.288028 0.632401 0.003556
Si Si7 0.337886 0.710482 0.167859
O O1 0.308354 0.436337 0.334447
O O2 0.342485 0.378556 0.483986
O O3 0.548274 0.369410 0.164593
O O4 0.311170 0.318280 0.312725
O O5 0.636937 0.500000 0.883548
O O6 0.531098 0.500000 0.158134
O O7 0.767165 0.561910 0.930690
O O8 0.742085 0.095446 0.761412
O O9 0.000000 0.069874 0.500000
O O10 0.805881 0.000000 0.579183
O O11 0.803979 0.339675 0.017466
O O12 0.786374 0.281372 0.216549
O O13 0.000000 0.357684 0.000000
O O14 0.257027 0.672271 0.140070
O O15 0.500000 0.707721 0.000000
#
# Coordination Sequence:
#
# PCOD8079603 Si02
#       7
#     8   4   4   8   8   8   8
#     4  10  17  32  58  86 112 139 184 240 285 322
#     4   9  16  24  50  87 112 137 179 232 287 322
#     4   9  14  26  48  88 116 130 173 240 290 317
#     4  11  23  38  59  85 112 147 186 232 284 332
#     4  11  24  39  54  80 117 157 189 221 272 343
#     4  10  18  32  56  85 116 143 182 233 281 330
#     4   9  19  34  57  85 112 147 187 235 281 325
#
# _framework density 19.262537999999999
#
# number of rings (size 3 to 8) (size 9 to 14) (size 15 to 20)
#    0.000    2.000    4.167    0.500    1.167    1.000 
#    0.000    0.000    0.000    0.000    0.000    2.333 
#    0.000    0.000    0.000    0.000    0.000    0.000 
#
# Total GULP energy -297384.396557 kJ/mol
# GULP energy per Si atom -12391.016523 kJ/mol
# Density = 1.921870 g / cm^3
# Si number density = 19.262538 Si / 1000 Ang^3
#
#
#
# Elastic Constant Matrix: (Units=GPa)
#
#
# Indices 1 2 3 4 5 6 
#
# 1 101.9797 47.7923 24.7266 0.0002 19.7619 -0.0002
# 2 47.7923 118.9554 24.6041 0.0001 3.2272 -0.0001
# 3 24.7266 24.6041 44.8366 0.0001 10.9177 -0.0002
# 4 0.0002 0.0001 0.0001 22.7833 -0.0001 7.8179
# 5 19.7619 3.2272 10.9177 -0.0001 25.4397 0.0002
# 6 -0.0002 -0.0001 -0.0002 7.8179 0.0002 39.4538
#
#
#
# Elastic Compliance Matrix: (Units=1/GPa)
#
#
# Indices 1 2 3 4 5 6 
#
# 1 0.014749 -0.005036 -0.003055 0.000000 -0.009507 0.000000
# 2 -0.005036 0.011232 -0.004458 0.000000 0.004400 0.000000
# 3 -0.003055 -0.004458 0.028720 0.000000 -0.009387 0.000000
# 4 0.000000 0.000000 0.000000 0.047094 0.000000 -0.009332
# 5 -0.009507 0.004400 -0.009387 0.000000 0.050164 0.000000
# 6 0.000000 0.000000 0.000000 -0.009332 0.000000 0.027195
#
#
# Mechanical properties :
#
#
# Convention : Reuss Voigt Hill
#
# Bulk Modulus (GPa) = 33.78029 51.11309 42.44669
# Shear Modulus (GPa) = 23.35124 28.77861 26.06493
#
# Velocity S-wave (km/s) = 3.48553 3.86945 3.68250
# Velocity P-wave (km/s) = 5.81149 6.82320 6.33757
#
# Compressibility (1/GPa) = 0.02960306
#
# Stress axis : x y z
#
# Youngs Moduli (GPa) = 67.80104 89.02796 34.81858
#
# Poissons Ratio (x) = 0.44832 0.10639
# Poissons Ratio (y) = 0.34143 0.15522
# Poissons Ratio (z) = 0.20716 0.39690
#
# Static dielectric constant tensor:
#      x y z
#    x 3.446700 0.000000 0.336990 
#    y 0.000000 3.844270 0.000000 
#    z 0.336990 0.000000 3.123540 
# 
# 
# High freq. dielectric constant tensor:
#      x y z
#    x 1.741110 0.000000 0.038790 
#    y 0.000000 1.764490 0.000000 
#    z 0.038790 0.000000 1.697290 
# 
# From -- ./inp_files/135223.got.cif
#   From: 2010.06.25/outbox.cif.g09.slc.cpg/sg12_68_cif.got.tgz:135223.got - 2010.06.28 00:19:55.
