data_PCOD8079536
_publ_section_title
;
Structure prediction by ZEFSAII (Michael W. Deem and Ramdas Pophale) SiO2 
 PCOD8079536
Probable space group: C 2/M
;
_chemical_formula_sum "Si O2"
_cell_formula_units_Z 52
_cell_length_a 13.291449
_cell_length_b 26.376582
_cell_length_c 20.700793
_cell_angle_alpha 90.000000
_cell_angle_beta 155.321645
_cell_angle_gamma 90.000000
_cell_volume 3030.114903
_symmetry_space_group_name_H-M "C 2/M"
_symmetry_group_IT_number 12
_symmetry_cell_setting 'monoclinic'
loop_
_space_group_symop_operation_xyz
x,y,z
-x,y,-z
-x,-y,-z
x,-y,z
1/2+x,1/2+y,z
1/2-x,1/2+y,-z
1/2-x,1/2-y,-z
1/2+x,1/2-y,z
loop_
_atom_site_type_symbol
_atom_site_label
_atom_site_fract_x
_atom_site_fract_y
_atom_site_fract_z
Si Si1 0.500000 0.748619 0.000000
Si Si2 0.285489 0.866906 0.548619
Si Si3 0.851005 0.197539 0.032156
Si Si4 0.392436 0.286881 0.324462
Si Si5 0.079644 0.056399 0.620367
Si Si6 0.899471 0.676986 0.371710
Si Si7 0.898297 0.359546 0.763230
O O1 0.352968 0.708993 0.957503
O O2 0.686290 0.783440 0.148757
O O3 0.503208 0.865185 0.623222
O O4 0.390011 0.863958 0.681466
O O5 0.115818 0.819701 0.429997
O O6 0.125638 0.918596 0.453366
O O7 0.110340 0.179561 0.208871
O O8 0.750000 0.250000 0.000000
O O9 0.671120 0.151796 0.943654
O O10 0.491446 0.231978 0.402274
O O11 0.278060 0.313343 0.320895
O O12 0.320592 0.090779 0.758865
O O13 0.000000 0.054369 0.500000
O O14 0.135845 0.000000 0.679555
O O15 0.000000 0.661918 0.500000
#
# Coordination Sequence:
#
# PCOD8079536 Si02
#       7
#     4   8   8   8   8   8   8
#     4  10  20  30  44  68  98 144 174 194 246 282
#     4  10  20  30  50  73 101 129 165 209 250 295
#     4  11  21  33  46  68 105 140 170 202 240 291
#     4  10  19  29  47  70  98 134 168 204 241 294
#     4   8  16  32  55  80  99 120 158 209 264 303
#     4  11  22  32  46  69 100 139 174 200 237 296
#     4  10  17  32  50  74 101 132 161 203 256 294
#
# _framework density 17.161065000000001
#
# number of rings (size 3 to 8) (size 9 to 14) (size 15 to 20)
#    0.000    2.000    3.077    4.615    2.154    0.000 
#    0.000    0.000    0.000    1.385    0.000   23.154 
#    0.000    0.000    0.000    0.000    0.000    0.000 
#
# Total GULP energy -322157.382124 kJ/mol
# GULP energy per Si atom -12390.668543 kJ/mol
# Density = 1.712201 g / cm^3
# Si number density = 17.161065 Si / 1000 Ang^3
#
#
#
# Elastic Constant Matrix: (Units=GPa)
#
#
# Indices 1 2 3 4 5 6 
#
# 1 99.8535 39.6449 42.2224 0.0136 8.8979 -0.0024
# 2 39.6449 103.2691 38.2715 -0.0153 16.1752 0.0131
# 3 42.2224 38.2715 84.9643 -0.2571 18.0774 0.0061
# 4 0.0136 -0.0153 -0.2571 13.5259 0.0489 0.7325
# 5 8.8979 16.1752 18.0774 0.0489 31.7782 0.0223
# 6 -0.0024 0.0131 0.0061 0.7325 0.0223 14.6561
#
#
#
# Elastic Compliance Matrix: (Units=1/GPa)
#
#
# Indices 1 2 3 4 5 6 
#
# 1 0.013555 -0.003343 -0.005444 -0.000125 0.001003 0.000012
# 2 -0.003343 0.012769 -0.003307 -0.000032 -0.003682 -0.000003
# 3 -0.005444 -0.003307 0.017388 0.000357 -0.006684 -0.000013
# 4 -0.000125 -0.000032 0.000357 0.074141 -0.000264 -0.003705
# 5 0.001003 -0.003682 -0.006684 -0.000264 0.036864 -0.000037
# 6 0.000012 -0.000003 -0.000013 -0.003705 -0.000037 0.068416
#
#
# Mechanical properties :
#
#
# Convention : Reuss Voigt Hill
#
# Bulk Modulus (GPa) = 51.22063 58.70715 54.96389
# Shear Modulus (GPa) = 19.69834 23.18859 21.44346
#
# Velocity S-wave (km/s) = 3.39167 3.67990 3.53872
# Velocity P-wave (km/s) = 6.72679 7.23459 6.98531
#
# Compressibility (1/GPa) = 0.01952338
#
# Stress axis : x y z
#
# Youngs Moduli (GPa) = 73.77616 78.31306 57.51183
#
# Poissons Ratio (x) = 0.26182 0.31308
# Poissons Ratio (y) = 0.24666 0.19019
# Poissons Ratio (z) = 0.40162 0.25898
#
# Static dielectric constant tensor:
#      x y z
#    x 3.272490 -0.000040 0.129010 
#    y -0.000040 3.248810 -0.000280 
#    z 0.129010 -0.000280 3.121540 
# 
# 
# High freq. dielectric constant tensor:
#      x y z
#    x 1.666480 -0.000010 0.012810 
#    y -0.000010 1.621390 -0.000020 
#    z 0.012810 -0.000020 1.653660 
# 
# From -- ./inp_files/266155.got.cif
#   From: 2010.06.25/outbox.cif.g09.slc.cpg/sg12_134_cif.got.tgz:266155.got - 2010.06.28 00:19:55.
