data_PCOD8079377
_publ_section_title
;
Structure prediction by ZEFSAII (Michael W. Deem and Ramdas Pophale) SiO2 
 PCOD8079377
Probable space group: C 2/M
;
_chemical_formula_sum "Si O2"
_cell_formula_units_Z 56
_cell_length_a 20.390858
_cell_length_b 8.887361
_cell_length_c 17.665821
_cell_angle_alpha 90.000000
_cell_angle_beta 69.228195
_cell_angle_gamma 90.000000
_cell_volume 2993.325200
_symmetry_space_group_name_H-M "C 2/M"
_symmetry_group_IT_number 12
_symmetry_cell_setting 'monoclinic'
loop_
_space_group_symop_operation_xyz
x,y,z
-x,y,-z
-x,-y,-z
x,-y,z
1/2+x,1/2+y,z
1/2-x,1/2+y,-z
1/2-x,1/2-y,-z
1/2+x,1/2-y,z
loop_
_atom_site_type_symbol
_atom_site_label
_atom_site_fract_x
_atom_site_fract_y
_atom_site_fract_z
Si Si1 0.590517 0.823069 0.574139
Si Si2 0.582386 0.333564 0.980826
Si Si3 0.356400 0.678759 0.594435
Si Si4 0.936704 0.676473 0.696090
Si Si5 0.600861 0.824142 0.826856
Si Si6 0.956110 0.822013 0.842503
Si Si7 0.301136 0.822793 0.346722
O O1 0.594724 0.738693 0.492694
O O2 0.516215 0.784262 0.641495
O O3 0.650645 0.758063 0.605293
O O4 0.598260 0.000000 0.556265
O O5 0.614256 0.500000 0.955208
O O6 0.618888 0.220398 0.906377
O O7 0.500000 0.337603 0.000000
O O8 0.592022 0.282025 0.064227
O O9 0.358693 0.500000 0.595606
O O10 0.383432 0.741336 0.662419
O O11 0.277385 0.741315 0.614488
O O12 0.922264 0.500000 0.699565
O O13 0.921099 0.738831 0.786056
O O14 0.535021 0.734069 0.821936
O O15 0.667184 0.779776 0.748036
O O16 0.583290 0.000000 0.829072
O O17 0.958384 0.000000 0.828008
O O18 0.300457 0.000000 0.356091
#
# Coordination Sequence:
#
# PCOD8079377 Si02
#       7
#     8   8   8   8   8   8   8
#     4  10  20  38  58  76 103 138 178 222 268 311
#     4   8  16  29  45  73 110 139 165 212 268 308
#     4  11  23  37  54  78 108 140 178 219 263 317
#     4  11  22  37  57  78 106 141 177 219 266 315
#     4  10  17  30  52  78 106 140 178 213 257 312
#     4  10  19  32  51  77 109 139 172 216 266 311
#     4   9  19  36  55  77 108 143 175 216 266 310
#
# _framework density 18.708290999999999
#
# number of rings (size 3 to 8) (size 9 to 14) (size 15 to 20)
#    0.000    2.143    1.429    3.429    0.000    6.000 
#    0.000    3.571    0.000    0.857    0.000    0.000 
#    0.000    0.000    0.000    0.000    0.000    0.000 
#
# Total GULP energy -347180.626892 kJ/mol
# GULP energy per Si atom -12399.308103 kJ/mol
# Density = 1.866571 g / cm^3
# Si number density = 18.708291 Si / 1000 Ang^3
#
#
#
# Elastic Constant Matrix: (Units=GPa)
#
#
# Indices 1 2 3 4 5 6 
#
# 1 73.1527 17.7388 18.5244 0.0000 18.9435 0.0000
# 2 17.7388 47.8865 22.3166 0.0001 3.4119 0.0001
# 3 18.5244 22.3166 98.1145 0.0000 27.6019 0.0000
# 4 0.0000 0.0001 0.0000 31.0998 0.0000 8.8560
# 5 18.9435 3.4119 27.6019 0.0000 24.5173 0.0000
# 6 0.0000 0.0001 0.0000 8.8560 0.0000 22.7565
#
#
#
# Elastic Compliance Matrix: (Units=1/GPa)
#
#
# Indices 1 2 3 4 5 6 
#
# 1 0.019068 -0.007153 0.002768 0.000000 -0.016854 0.000000
# 2 -0.007153 0.026313 -0.007550 0.000000 0.010365 0.000000
# 3 0.002768 -0.007550 0.017113 0.000000 -0.020354 0.000000
# 4 0.000000 0.000000 0.000000 0.036162 0.000000 -0.014073
# 5 -0.016854 0.010365 -0.020354 0.000000 0.075283 0.000000
# 6 0.000000 0.000000 0.000000 -0.014073 0.000000 0.049420
#
#
# Mechanical properties :
#
#
# Convention : Reuss Voigt Hill
#
# Bulk Modulus (GPa) = 25.89070 37.36814 31.62942
# Shear Modulus (GPa) = 19.22315 26.37963 22.80139
#
# Velocity S-wave (km/s) = 3.20897 3.75914 3.49490
# Velocity P-wave (km/s) = 5.25350 6.23369 5.76447
#
# Compressibility (1/GPa) = 0.03862390
#
# Stress axis : x y z
#
# Youngs Moduli (GPa) = 52.44386 38.00469 58.43490
#
# Poissons Ratio (x) = 0.27184 -0.16176
# Poissons Ratio (y) = 0.37511 0.44121
# Poissons Ratio (z) = -0.14518 0.28695
#
# Static dielectric constant tensor:
#      x y z
#    x 3.364340 0.000000 0.221520 
#    y 0.000000 3.349060 0.000000 
#    z 0.221520 0.000000 3.838080 
# 
# 
# High freq. dielectric constant tensor:
#      x y z
#    x 1.695160 0.000000 0.017990 
#    y 0.000000 1.720000 0.000000 
#    z 0.017990 0.000000 1.740480 
# 
# From -- ./inp_files/280876.got.cif
#   From: 2010.06.25/outbox.cif.g09.slc.cpg/sg12_141_cif.got.tgz:280876.got - 2010.06.28 00:19:55.
