data_PCOD8079627
_publ_section_title
;
Structure prediction by ZEFSAII (Michael W. Deem and Ramdas Pophale) SiO2 
 PCOD8079627
Probable space group: C 2/M
;
_chemical_formula_sum "Si O2"
_cell_formula_units_Z 64
_cell_length_a 21.138734
_cell_length_b 19.088026
_cell_length_c 20.301620
_cell_angle_alpha 90.000000
_cell_angle_beta 152.119491
_cell_angle_gamma 90.000000
_cell_volume 3830.648102
_symmetry_space_group_name_H-M "C 2/M"
_symmetry_group_IT_number 12
_symmetry_cell_setting 'monoclinic'
loop_
_space_group_symop_operation_xyz
x,y,z
-x,y,-z
-x,-y,-z
x,-y,z
1/2+x,1/2+y,z
1/2-x,1/2+y,-z
1/2-x,1/2-y,-z
1/2+x,1/2-y,z
loop_
_atom_site_type_symbol
_atom_site_label
_atom_site_fract_x
_atom_site_fract_y
_atom_site_fract_z
Si Si1 0.412164 0.079007 0.692195
Si Si2 0.030680 0.782843 0.955258
Si Si3 0.800726 0.801224 0.489988
Si Si4 0.045582 0.579074 0.422792
Si Si5 0.380619 0.821926 0.070289
Si Si6 0.315605 0.178334 0.243849
Si Si7 0.238891 0.691862 0.657828
Si Si8 0.906320 0.220952 0.215979
O O1 0.284958 0.127897 0.592370
O O2 0.450586 0.083280 0.651670
O O3 0.545614 0.103438 0.855220
O O4 0.376059 0.000000 0.680305
O O5 0.062579 0.714665 0.942293
O O6 0.900405 0.823368 0.806563
O O7 0.161363 0.834586 0.076407
O O8 0.000000 0.754620 0.000000
O O9 0.750000 0.750000 0.500000
O O10 0.793341 0.761294 0.413550
O O11 0.955470 0.822761 0.649211
O O12 0.060946 0.500000 0.462690
O O13 0.170596 0.623287 0.565129
O O14 0.901205 0.607285 0.315787
O O15 0.421901 0.776554 0.171728
O O16 0.218255 0.831200 0.915230
O O17 0.317137 0.204743 0.320398
O O18 0.385076 0.238541 0.264762
#
# Coordination Sequence:
#
# PCOD8079627 Si02
#       8
#     8   8   8   8   8   8   8   8
#     4  11  22  36  54  78 109 143 178 217 265 319
#     4   9  19  31  51  80 104 126 175 229 255 302
#     4  12  18  33  53  80 103 134 176 225 260 306
#     4  11  22  35  50  75 112 146 178 213 259 318
#     4  10  17  33  53  74 104 135 168 213 269 306
#     4  10  19  33  48  79 108 131 176 218 260 310
#     4  11  19  31  54  76 105 139 175 215 265 307
#     4  10  19  29  53  81 101 129 171 222 259 304
#
# _framework density 16.707355
#
# number of rings (size 3 to 8) (size 9 to 14) (size 15 to 20)
#    0.000    1.500    6.250    0.375    0.000    1.000 
#    0.000    1.250    0.000    5.625    0.000    1.750 
#    0.000    0.000    0.000    0.000    0.000    0.000 
#
# Total GULP energy -396719.456783 kJ/mol
# GULP energy per Si atom -12397.483024 kJ/mol
# Density = 1.666933 g / cm^3
# Si number density = 16.707355 Si / 1000 Ang^3
#
#
#
# Elastic Constant Matrix: (Units=GPa)
#
#
# Indices 1 2 3 4 5 6 
#
# 1 82.7980 42.2925 40.5490 0.0009 2.8625 -0.0001
# 2 42.2925 105.5503 69.5258 0.0042 6.0701 0.0015
# 3 40.5490 69.5258 143.9838 -0.0015 22.2279 -0.0008
# 4 0.0009 0.0042 -0.0015 22.5746 -0.0010 4.1980
# 5 2.8625 6.0701 22.2279 -0.0010 28.0251 -0.0009
# 6 -0.0001 0.0015 -0.0008 4.1980 -0.0009 19.6760
#
#
#
# Elastic Compliance Matrix: (Units=1/GPa)
#
#
# Indices 1 2 3 4 5 6 
#
# 1 0.015611 -0.004846 -0.002248 0.000000 0.001238 0.000000
# 2 -0.004846 0.015570 -0.006506 -0.000003 0.002283 -0.000001
# 3 -0.002248 -0.006506 0.011927 0.000002 -0.007821 0.000000
# 4 0.000000 -0.000003 0.000002 0.046128 0.000001 -0.009842
# 5 0.001238 0.002283 -0.007821 0.000001 0.041265 0.000001
# 6 0.000000 -0.000001 0.000000 -0.009842 0.000001 0.052923
#
#
# Mechanical properties :
#
#
# Convention : Reuss Voigt Hill
#
# Bulk Modulus (GPa) = 62.85649 70.78518 66.82084
# Shear Modulus (GPa) = 23.15619 26.05280 24.60450
#
# Velocity S-wave (km/s) = 3.72692 3.95316 3.84171
# Velocity P-wave (km/s) = 7.49825 7.95590 7.73046
#
# Compressibility (1/GPa) = 0.01590926
#
# Stress axis : x y z
#
# Youngs Moduli (GPa) = 64.05896 64.22602 83.84198
#
# Poissons Ratio (x) = 0.31122 0.18844
# Poissons Ratio (y) = 0.31041 0.54548
# Poissons Ratio (z) = 0.14397 0.41786
#
# Static dielectric constant tensor:
#      x y z
#    x 3.347970 -0.000010 0.064560 
#    y -0.000010 2.883750 -0.000010 
#    z 0.064560 -0.000010 3.572880 
# 
# 
# High freq. dielectric constant tensor:
#      x y z
#    x 1.656040 0.000000 0.002760 
#    y 0.000000 1.591840 0.000000 
#    z 0.002760 0.000000 1.667000 
# 
# From -- ./inp_files/322448.got.cif
#   From: 2010.06.25/outbox.cif.g09.slc.cpg/sg12_162_cif.got.tgz:322448.got - 2010.06.28 00:19:55.
