data_PCOD8079484
_publ_section_title
;
Structure prediction by ZEFSAII (Michael W. Deem and Ramdas Pophale) SiO2 
 PCOD8079484
Probable space group: C 2/M
;
_chemical_formula_sum "Si O2"
_cell_formula_units_Z 56
_cell_length_a 17.013975
_cell_length_b 16.398130
_cell_length_c 20.448308
_cell_angle_alpha 90.000000
_cell_angle_beta 32.254423
_cell_angle_gamma 90.000000
_cell_volume 3044.656197
_symmetry_space_group_name_H-M "C 2/M"
_symmetry_group_IT_number 12
_symmetry_cell_setting 'monoclinic'
loop_
_space_group_symop_operation_xyz
x,y,z
-x,y,-z
-x,-y,-z
x,-y,z
1/2+x,1/2+y,z
1/2-x,1/2+y,-z
1/2-x,1/2-y,-z
1/2+x,1/2-y,z
loop_
_atom_site_type_symbol
_atom_site_label
_atom_site_fract_x
_atom_site_fract_y
_atom_site_fract_z
Si Si1 0.620379 0.591757 0.361077
Si Si2 0.871685 0.759375 0.359949
Si Si3 0.268449 0.835745 0.023106
Si Si4 0.588562 0.840394 0.791263
Si Si5 0.959221 0.093440 0.214114
Si Si6 0.603458 0.313269 0.867237
Si Si7 0.842853 0.223366 0.769332
O O1 0.500000 0.613973 0.500000
O O2 0.596598 0.500000 0.352480
O O3 0.789604 0.597758 0.267260
O O4 0.590172 0.653570 0.323930
O O5 0.750000 0.750000 0.500000
O O6 0.840366 0.695648 0.324500
O O7 0.879001 0.851003 0.325341
O O8 0.026304 0.734408 0.283095
O O9 0.425487 0.879136 0.894563
O O10 0.250000 0.750000 0.000000
O O11 0.135692 0.893629 0.092762
O O12 0.266468 0.820604 0.102673
O O13 0.549385 0.768795 0.869978
O O14 0.896600 0.114250 0.185845
O O15 0.921207 0.000000 0.256357
O O16 0.766050 0.294842 0.781322
O O17 0.500000 0.338427 0.000000
#
# Coordination Sequence:
#
# PCOD8079484 Si02
#       7
#     8   8   8   8   8   8   8
#     4  10  22  37  50  74 114 150 180 223 279 331
#     4  10  20  36  59  82 103 142 195 232 268 322
#     4  11  17  35  56  83 110 141 180 230 279 329
#     4  10  19  33  57  79 105 143 186 228 268 326
#     4  10  22  35  54  83 116 144 176 229 286 330
#     4  10  17  31  55  79 109 138 176 216 266 328
#     4  10  19  31  58  83 100 138 185 228 270 322
#
# _framework density 18.392880999999999
#
# number of rings (size 3 to 8) (size 9 to 14) (size 15 to 20)
#    0.000    1.857    5.714    0.857    0.000    3.143 
#    0.000    1.429    0.000    1.714    0.000    0.000 
#    0.000    0.000    0.000    0.000    0.000    0.000 
#
# Total GULP energy -347091.287220 kJ/mol
# GULP energy per Si atom -12396.117401 kJ/mol
# Density = 1.835102 g / cm^3
# Si number density = 18.392881 Si / 1000 Ang^3
#
#
#
# Elastic Constant Matrix: (Units=GPa)
#
#
# Indices 1 2 3 4 5 6 
#
# 1 86.4160 17.2877 18.5823 -0.0014 7.8530 0.0003
# 2 17.2877 60.6438 18.0244 -0.0007 7.9008 0.0005
# 3 18.5823 18.0244 103.9588 -0.0002 9.9738 0.0005
# 4 -0.0014 -0.0007 -0.0002 19.5832 0.0018 -1.4701
# 5 7.8530 7.9008 9.9738 0.0018 26.4098 -0.0005
# 6 0.0003 0.0005 0.0005 -1.4701 -0.0005 15.2750
#
#
#
# Elastic Compliance Matrix: (Units=1/GPa)
#
#
# Indices 1 2 3 4 5 6 
#
# 1 0.012688 -0.002852 -0.001549 0.000001 -0.002334 0.000000
# 2 -0.002852 0.018491 -0.002331 0.000001 -0.003803 -0.000001
# 3 -0.001549 -0.002331 0.010572 0.000000 -0.002835 0.000000
# 4 0.000001 0.000001 0.000000 0.051436 -0.000004 0.004950
# 5 -0.002334 -0.003803 -0.002835 -0.000004 0.040767 0.000001
# 6 0.000000 -0.000001 0.000000 0.004950 0.000001 0.065943
#
#
# Mechanical properties :
#
#
# Convention : Reuss Voigt Hill
#
# Bulk Modulus (GPa) = 35.35396 39.86748 37.61072
# Shear Modulus (GPa) = 22.44252 25.39523 23.91888
#
# Velocity S-wave (km/s) = 3.49689 3.71982 3.61008
# Velocity P-wave (km/s) = 5.96386 6.33814 6.15384
#
# Compressibility (1/GPa) = 0.02828538
#
# Stress axis : x y z
#
# Youngs Moduli (GPa) = 78.81560 54.07971 94.58686
#
# Poissons Ratio (x) = 0.15425 0.14656
# Poissons Ratio (y) = 0.22480 0.22051
# Poissons Ratio (z) = 0.12212 0.12608
#
# Static dielectric constant tensor:
#      x y z
#    x 3.763420 0.000000 -0.001140 
#    y 0.000000 2.983640 0.000000 
#    z -0.001140 0.000000 3.588040 
# 
# 
# High freq. dielectric constant tensor:
#      x y z
#    x 1.729080 0.000000 0.006110 
#    y 0.000000 1.668880 0.000000 
#    z 0.006110 0.000000 1.714910 
# 
# From -- ./inp_files/271385.got.cif
#   From: 2010.06.25/outbox.cif.g09.slc.cpg/sg12_136_cif.got.tgz:271385.got - 2010.06.28 00:19:55.
