data_PCOD8079274
_publ_section_title
;
Structure prediction by ZEFSAII (Michael W. Deem and Ramdas Pophale) SiO2 
 PCOD8079274
Probable space group: C 2/M
;
_chemical_formula_sum "Si O2"
_cell_formula_units_Z 40
_cell_length_a 9.071278
_cell_length_b 23.531703
_cell_length_c 11.843778
_cell_angle_alpha 90.000000
_cell_angle_beta 57.929932
_cell_angle_gamma 90.000000
_cell_volume 2142.398488
_symmetry_space_group_name_H-M "C 2/M"
_symmetry_group_IT_number 12
_symmetry_cell_setting 'monoclinic'
loop_
_space_group_symop_operation_xyz
x,y,z
-x,y,-z
-x,-y,-z
x,-y,z
1/2+x,1/2+y,z
1/2-x,1/2+y,-z
1/2-x,1/2-y,-z
1/2+x,1/2-y,z
loop_
_atom_site_type_symbol
_atom_site_label
_atom_site_fract_x
_atom_site_fract_y
_atom_site_fract_z
Si Si1 0.000000 0.907698 0.000000
Si Si2 0.976864 0.122372 0.255358
Si Si3 0.818528 0.689007 0.507719
Si Si4 0.313117 0.619012 0.633774
Si Si5 0.828055 0.000000 0.359359
Si Si6 0.225281 0.500000 0.157149
Si Si7 0.334121 0.000000 0.335854
O O1 0.990011 0.869813 0.891382
O O2 0.174922 0.944983 0.929254
O O3 0.809574 0.159957 0.351393
O O4 0.147974 0.144211 0.255963
O O5 0.946282 0.056733 0.306669
O O6 0.750000 0.750000 0.500000
O O7 0.827532 0.652694 0.386328
O O8 0.000000 0.693025 0.500000
O O9 0.500000 0.622036 0.500000
O O10 0.256611 0.554975 0.676952
O O11 0.692879 0.000000 0.517843
O O12 0.708803 0.000000 0.298289
O O13 0.025704 0.500000 0.203511
#
# Coordination Sequence:
#
# PCOD8079274 Si02
#       7
#     4   8   8   8   4   4   4
#     4   9  20  38  52  74 122 168 196 215 286 328
#     4  10  20  36  59  81 121 157 192 228 282 348
#     4  11  23  38  62  88 113 140 185 246 303 339
#     4  10  20  33  54  87 120 150 182 241 297 341
#     4  10  17  29  54  85 123 146 188 236 294 331
#     4   9  21  30  48  81 120 162 198 236 259 345
#     4  12  18  28  55  86 124 145 197 234 297 330
#
# _framework density 18.670663000000001
#
# number of rings (size 3 to 8) (size 9 to 14) (size 15 to 20)
#    0.000    1.800    4.000    3.600    5.600    0.000 
#    0.000    2.000    0.000    4.800    0.000    0.000 
#    0.000    0.000    0.000    0.000    0.000    0.000 
#
# Total GULP energy -247784.146876 kJ/mol
# GULP energy per Si atom -12389.207344 kJ/mol
# Density = 1.862817 g / cm^3
# Si number density = 18.670663 Si / 1000 Ang^3
#
#
#
# Elastic Constant Matrix: (Units=GPa)
#
#
# Indices 1 2 3 4 5 6 
#
# 1 143.8148 52.8477 55.0033 0.0000 28.9917 0.0000
# 2 52.8477 83.5621 26.7901 0.0000 9.5453 0.0000
# 3 55.0033 26.7901 114.8534 0.0000 22.6357 0.0000
# 4 0.0000 0.0000 0.0000 5.6967 0.0000 1.2111
# 5 28.9917 9.5453 22.6357 0.0000 24.7593 0.0000
# 6 0.0000 0.0000 0.0000 1.2111 0.0000 23.2248
#
#
#
# Elastic Compliance Matrix: (Units=1/GPa)
#
#
# Indices 1 2 3 4 5 6 
#
# 1 0.011892 -0.005634 -0.002518 0.000000 -0.009450 0.000000
# 2 -0.005634 0.015755 -0.001317 0.000000 0.001727 0.000000
# 3 -0.002518 -0.001317 0.011635 0.000000 -0.007180 0.000000
# 4 0.000000 0.000000 0.000000 0.177508 0.000000 -0.009257
# 5 -0.009450 0.001727 -0.007180 0.000000 0.057353 0.000000
# 6 0.000000 0.000000 0.000000 -0.009257 0.000000 0.043540
#
#
# Mechanical properties :
#
#
# Convention : Reuss Voigt Hill
#
# Bulk Modulus (GPa) = 49.15669 67.94583 58.55126
# Shear Modulus (GPa) = 14.56011 24.57546 19.56779
#
# Velocity S-wave (km/s) = 2.79559 3.63197 3.24087
# Velocity P-wave (km/s) = 6.06679 7.35248 6.74036
#
# Compressibility (1/GPa) = 0.02034311
#
# Stress axis : x y z
#
# Youngs Moduli (GPa) = 84.08999 63.47065 85.94578
#
# Poissons Ratio (x) = 0.35759 0.21645
# Poissons Ratio (y) = 0.47376 0.11322
# Poissons Ratio (z) = 0.21177 0.08361
#
# Static dielectric constant tensor:
#      x y z
#    x 3.795620 0.000000 0.440390 
#    y 0.000000 3.312530 0.000000 
#    z 0.440390 0.000000 3.457640 
# 
# 
# High freq. dielectric constant tensor:
#      x y z
#    x 1.734800 0.000000 0.020500 
#    y 0.000000 1.703400 0.000000 
#    z 0.020500 0.000000 1.700240 
# 
# From -- ./inp_files/120358.got.cif
#   From: 2010.06.25/outbox.cif.g09.slc.cpg/sg12_61_cif.got.tgz:120358.got - 2010.06.28 00:19:55.
