data_PCOD8079533
_publ_section_title
;
Structure prediction by ZEFSAII (Michael W. Deem and Ramdas Pophale) SiO2 
 PCOD8079533
Probable space group: C 2/M
;
_chemical_formula_sum "Si O2"
_cell_formula_units_Z 52
_cell_length_a 19.005836
_cell_length_b 19.592317
_cell_length_c 14.629076
_cell_angle_alpha 90.000000
_cell_angle_beta 33.888505
_cell_angle_gamma 90.000000
_cell_volume 3037.356375
_symmetry_space_group_name_H-M "C 2/M"
_symmetry_group_IT_number 12
_symmetry_cell_setting 'monoclinic'
loop_
_space_group_symop_operation_xyz
x,y,z
-x,y,-z
-x,-y,-z
x,-y,z
1/2+x,1/2+y,z
1/2-x,1/2+y,-z
1/2-x,1/2-y,-z
1/2+x,1/2-y,z
loop_
_atom_site_type_symbol
_atom_site_label
_atom_site_fract_x
_atom_site_fract_y
_atom_site_fract_z
Si Si1 0.428025 0.806279 0.771092
Si Si2 0.500000 0.777005 0.500000
Si Si3 0.125180 0.922254 0.306055
Si Si4 0.659290 0.346946 0.095480
Si Si5 0.637760 0.782289 0.675416
Si Si6 0.747473 0.197779 0.743241
Si Si7 0.441223 0.689344 0.974635
O O1 0.456655 0.823006 0.633357
O O2 0.393667 0.726045 0.814241
O O3 0.548363 0.826660 0.704391
O O4 0.311181 0.849950 0.934555
O O5 0.385089 0.731406 0.586233
O O6 0.100732 0.904158 0.225518
O O7 0.238410 0.872949 0.217014
O O8 0.000000 0.909550 0.500000
O O9 0.170406 0.000000 0.266089
O O10 0.622511 0.362178 0.028947
O O11 0.750000 0.750000 0.500000
O O12 0.692395 0.823686 0.703444
O O13 0.561602 0.718671 0.794688
O O14 0.654155 0.248889 0.897508
O O15 0.500000 0.651022 0.000000
#
# Coordination Sequence:
#
# PCOD8079533 Si02
#       7
#     8   4   8   8   8   8   8
#     4  10  18  28  48  74  98 132 161 192 262 304
#     4  12  16  26  49  74 101 130 152 196 256 308
#     4  11  22  33  49  72  96 135 179 207 237 284
#     4  10  17  32  50  67 100 133 160 206 245 300
#     4  10  19  26  42  70 100 130 159 188 243 300
#     4  11  18  32  46  69 110 130 152 205 246 299
#     4   9  19  30  48  76 104 128 155 196 262 312
#
# _framework density 17.120152000000001
#
# number of rings (size 3 to 8) (size 9 to 14) (size 15 to 20)
#    0.000    1.692    5.385    1.846    2.154    0.000 
#    0.000    0.000    0.000   12.000    0.000    0.538 
#    0.000    0.000    0.000    0.000    0.000    0.000 
#
# Total GULP energy -322153.324384 kJ/mol
# GULP energy per Si atom -12390.512476 kJ/mol
# Density = 1.708119 g / cm^3
# Si number density = 17.120152 Si / 1000 Ang^3
#
#
#
# Elastic Constant Matrix: (Units=GPa)
#
#
# Indices 1 2 3 4 5 6 
#
# 1 163.6565 26.6448 50.2187 0.0004 13.2816 -0.0002
# 2 26.6448 41.7105 22.6951 0.0002 5.0172 -0.0002
# 3 50.2187 22.6951 108.3715 0.0007 5.6480 -0.0007
# 4 0.0004 0.0002 0.0007 11.0871 -0.0005 2.1317
# 5 13.2816 5.0172 5.6480 -0.0005 35.6069 0.0004
# 6 -0.0002 -0.0002 -0.0007 2.1317 0.0004 10.0316
#
#
#
# Elastic Compliance Matrix: (Units=1/GPa)
#
#
# Indices 1 2 3 4 5 6 
#
# 1 0.007632 -0.003127 -0.002779 0.000000 -0.001965 0.000000
# 2 -0.003127 0.028647 -0.004438 0.000000 -0.002166 0.000000
# 3 -0.002779 -0.004438 0.011453 -0.000001 -0.000155 0.000001
# 4 0.000000 0.000000 -0.000001 0.094037 0.000002 -0.019982
# 5 -0.001965 -0.002166 -0.000155 0.000002 0.029147 -0.000002
# 6 0.000000 0.000000 0.000001 -0.019982 -0.000002 0.103931
#
#
# Mechanical properties :
#
#
# Convention : Reuss Voigt Hill
#
# Bulk Modulus (GPa) = 36.97556 56.98397 46.97977
# Shear Modulus (GPa) = 16.41774 25.62378 21.02076
#
# Velocity S-wave (km/s) = 3.10009 3.87292 3.50785
# Velocity P-wave (km/s) = 5.87015 7.30454 6.62627
#
# Compressibility (1/GPa) = 0.02704489
#
# Stress axis : x y z
#
# Youngs Moduli (GPa) = 131.03200 34.90753 87.31487
#
# Poissons Ratio (x) = 0.10914 0.24268
# Poissons Ratio (y) = 0.40967 0.38746
# Poissons Ratio (z) = 0.36418 0.15490
#
# Static dielectric constant tensor:
#      x y z
#    x 4.074780 0.000000 0.045890 
#    y 0.000000 2.535720 0.000000 
#    z 0.045890 0.000000 3.476510 
# 
# 
# High freq. dielectric constant tensor:
#      x y z
#    x 1.686810 0.000000 0.007950 
#    y 0.000000 1.562500 0.000000 
#    z 0.007950 0.000000 1.684620 
# 
# From -- ./inp_files/235051.got.cif
#   From: 2010.06.25/outbox.cif.g09.slc.cpg/sg12_118_cif.got.tgz:235051.got - 2010.06.28 00:19:55.
