data_PCOD8079857
_publ_section_title
;
Structure prediction by ZEFSAII (Michael W. Deem and Ramdas Pophale) SiO2 
 PCOD8079857
Probable space group: C 2/M
;
_chemical_formula_sum "Si O2"
_cell_formula_units_Z 64
_cell_length_a 31.049548
_cell_length_b 21.631337
_cell_length_c 18.543710
_cell_angle_alpha 90.000000
_cell_angle_beta 160.930728
_cell_angle_gamma 90.000000
_cell_volume 4069.107134
_symmetry_space_group_name_H-M "C 2/M"
_symmetry_group_IT_number 12
_symmetry_cell_setting 'monoclinic'
loop_
_space_group_symop_operation_xyz
x,y,z
-x,y,-z
-x,-y,-z
x,-y,z
1/2+x,1/2+y,z
1/2-x,1/2+y,-z
1/2-x,1/2-y,-z
1/2+x,1/2-y,z
loop_
_atom_site_type_symbol
_atom_site_label
_atom_site_fract_x
_atom_site_fract_y
_atom_site_fract_z
Si Si1 0.317561 0.069457 0.560792
Si Si2 0.477700 0.567960 0.888360
Si Si3 0.110709 0.234578 0.364016
Si Si4 0.353693 0.148452 0.481510
Si Si5 0.714507 0.068892 0.836860
Si Si6 0.874373 0.853499 0.989929
Si Si7 0.618320 0.819190 0.242966
Si Si8 0.018598 0.430718 0.646291
O O1 0.301017 0.096442 0.453709
O O2 0.398746 0.116551 0.739933
O O3 0.175501 0.065470 0.372347
O O4 0.380805 0.000000 0.658968
O O5 0.540582 0.500000 0.997080
O O6 0.500000 0.604219 0.000000
O O7 0.546246 0.596442 0.928800
O O8 0.117925 0.288218 0.433726
O O9 0.238730 0.189088 0.569958
O O10 0.100577 0.260752 0.267274
O O11 0.973438 0.201479 0.165384
O O12 0.249218 0.166598 0.254511
O O13 0.487706 0.119566 0.659396
O O14 0.827434 0.116959 0.991611
O O15 0.604737 0.066737 0.601856
O O16 0.649425 0.090261 0.809644
O O17 0.774651 0.000000 0.940933
O O18 0.500000 0.816938 0.000000
O O19 0.039521 0.500000 0.711671
#
# Coordination Sequence:
#
# PCOD8079857 Si02
#       8
#     8   8   8   8   8   8   8   8
#     4  10  19  30  44  67  90 112 148 186 221 266
#     4  10  18  26  41  67  94 114 138 178 225 267
#     4  10  21  32  43  65  86 117 160 192 213 256
#     4  10  19  29  46  65  88 120 151 185 222 261
#     4   8  15  26  44  69  92 114 139 172 223 280
#     4  11  18  29  46  64  90 121 148 183 223 263
#     4  10  20  34  47  59  86 124 155 187 222 260
#     4   8  14  27  45  67  92 114 139 174 223 275
#
# _framework density 15.728267000000001
#
# number of rings (size 3 to 8) (size 9 to 14) (size 15 to 20)
#    0.000    2.375    2.500    2.250    0.000    1.750 
#    0.000    0.625    0.000    0.000    0.000    0.000 
#    0.000    0.000    0.000   26.250    0.000    2.250 
#
# Total GULP energy -396549.212756 kJ/mol
# GULP energy per Si atom -12392.162899 kJ/mol
# Density = 1.569247 g / cm^3
# Si number density = 15.728267 Si / 1000 Ang^3
#
#
#
# Elastic Constant Matrix: (Units=GPa)
#
#
# Indices 1 2 3 4 5 6 
#
# 1 80.0093 39.9336 31.0539 0.0000 20.8137 0.0000
# 2 39.9336 87.1663 35.6722 0.0000 10.5550 0.0000
# 3 31.0539 35.6722 66.8873 0.0000 3.5370 0.0000
# 4 0.0000 0.0000 0.0000 20.9547 0.0000 6.1911
# 5 20.8137 10.5550 3.5370 0.0000 23.4674 0.0000
# 6 0.0000 0.0000 0.0000 6.1911 0.0000 25.5747
#
#
#
# Elastic Compliance Matrix: (Units=1/GPa)
#
#
# Indices 1 2 3 4 5 6 
#
# 1 0.021861 -0.005467 -0.006389 0.000000 -0.015967 0.000000
# 2 -0.005467 0.016772 -0.006315 0.000000 -0.001743 0.000000
# 3 -0.006389 -0.006315 0.021002 0.000000 0.005342 0.000000
# 4 0.000000 0.000000 0.000000 0.051398 0.000000 -0.012442
# 5 -0.015967 -0.001743 0.005342 0.000000 0.056753 0.000000
# 6 0.000000 0.000000 0.000000 -0.012442 0.000000 0.042113
#
#
# Mechanical properties :
#
#
# Convention : Reuss Voigt Hill
#
# Bulk Modulus (GPa) = 42.93077 49.70914 46.31995
# Shear Modulus (GPa) = 19.68466 22.49291 21.08879
#
# Velocity S-wave (km/s) = 3.54156 3.78576 3.66569
# Velocity P-wave (km/s) = 6.63913 7.12621 6.88698
#
# Compressibility (1/GPa) = 0.02329331
#
# Stress axis : x y z
#
# Youngs Moduli (GPa) = 45.74438 59.62270 47.61406
#
# Poissons Ratio (x) = 0.32594 0.30423
# Poissons Ratio (y) = 0.25007 0.30067
# Poissons Ratio (z) = 0.29228 0.37650
#
# Static dielectric constant tensor:
#      x y z
#    x 3.088930 0.000000 0.155680 
#    y 0.000000 3.107370 0.000000 
#    z 0.155680 0.000000 2.928710 
# 
# 
# High freq. dielectric constant tensor:
#      x y z
#    x 1.595190 0.000000 0.016500 
#    y 0.000000 1.601760 0.000000 
#    z 0.016500 0.000000 1.568850 
# 
# From -- ./inp_files/297061.got.cif
#   From: 2010.06.25/outbox.cif.g09.slc.cpg/sg12_149_cif.got.tgz:297061.got - 2010.06.28 00:19:55.
