data_PCOD8079331
_publ_section_title
;
Structure prediction by ZEFSAII (Michael W. Deem and Ramdas Pophale) SiO2 
 PCOD8079331
Probable space group: C 2/M
;
_chemical_formula_sum "Si O2"
_cell_formula_units_Z 48
_cell_length_a 19.920984
_cell_length_b 17.752162
_cell_length_c 21.603420
_cell_angle_alpha 90.000000
_cell_angle_beta 20.933074
_cell_angle_gamma 90.000000
_cell_volume 2729.542507
_symmetry_space_group_name_H-M "C 2/M"
_symmetry_group_IT_number 12
_symmetry_cell_setting 'monoclinic'
loop_
_space_group_symop_operation_xyz
x,y,z
-x,y,-z
-x,-y,-z
x,-y,z
1/2+x,1/2+y,z
1/2-x,1/2+y,-z
1/2-x,1/2-y,-z
1/2+x,1/2-y,z
loop_
_atom_site_type_symbol
_atom_site_label
_atom_site_fract_x
_atom_site_fract_y
_atom_site_fract_z
Si Si1 0.768317 0.208840 0.549415
Si Si2 0.100176 0.770931 0.079078
Si Si3 0.408484 0.582920 0.238394
Si Si4 0.877363 0.697871 0.744774
Si Si5 0.867484 0.413678 0.411207
Si Si6 0.196616 0.583120 0.297764
O O1 0.750000 0.250000 0.500000
O O2 0.597916 0.226942 0.743628
O O3 0.756758 0.120146 0.539512
O O4 0.964803 0.238740 0.409813
O O5 0.068420 0.859219 0.118756
O O6 0.250000 0.750000 0.000000
O O7 0.196703 0.758299 0.928806
O O8 0.495194 0.500000 0.169849
O O9 0.233703 0.591797 0.435249
O O10 0.349280 0.600427 0.218921
O O11 0.801008 0.651101 0.752491
O O12 0.950236 0.639082 0.734962
O O13 0.919268 0.500000 0.350512
O O14 0.236252 0.500000 0.233118
O O15 0.000000 0.578696 0.500000
#
# Coordination Sequence:
#
# PCOD8079331 Si02
#       6
#     8   8   8   8   8   8
#     4  10  18  34  49  69  96 127 169 214 250 289
#     4  12  20  33  50  69  92 133 172 209 251 289
#     4  10  20  32  48  73 106 134 167 207 240 287
#     4  11  20  31  52  69  98 138 172 199 246 294
#     4  10  17  30  50  71  97 131 165 203 247 290
#     4  10  18  31  50  73 104 143 175 199 235 294
#
# _framework density 17.585363999999998
#
# number of rings (size 3 to 8) (size 9 to 14) (size 15 to 20)
#    0.000    1.500    8.333    0.500    0.000    2.000 
#    0.000    1.667    0.000    0.000    0.000    0.000 
#    0.000    7.333    0.000   20.833    0.000    0.000 
#
# Total GULP energy -297326.184884 kJ/mol
# GULP energy per Si atom -12388.591037 kJ/mol
# Density = 1.754534 g / cm^3
# Si number density = 17.585364 Si / 1000 Ang^3
#
#
#
# Elastic Constant Matrix: (Units=GPa)
#
#
# Indices 1 2 3 4 5 6 
#
# 1 66.6470 42.7004 23.3415 0.0529 8.6648 0.0323
# 2 42.7004 82.3397 23.8347 0.0675 -4.2683 -0.0647
# 3 23.3415 23.8347 86.0233 -0.0113 16.2510 -0.0660
# 4 0.0529 0.0675 -0.0113 21.7076 -0.0308 -2.0178
# 5 8.6648 -4.2683 16.2510 -0.0308 17.9018 -0.0077
# 6 0.0323 -0.0647 -0.0660 -2.0178 -0.0077 34.8292
#
#
#
# Elastic Compliance Matrix: (Units=1/GPa)
#
#
# Indices 1 2 3 4 5 6 
#
# 1 0.026449 -0.014527 -0.000095 -0.000048 -0.016179 -0.000058
# 2 -0.014527 0.022154 -0.005459 -0.000007 0.017269 0.000048
# 3 -0.000095 -0.005459 0.016174 0.000005 -0.015938 0.000017
# 4 -0.000048 -0.000007 0.000005 0.046317 0.000098 0.002683
# 5 -0.016179 0.017269 -0.015938 0.000098 0.082277 0.000041
# 6 -0.000058 0.000048 0.000017 0.002683 0.000041 0.028867
#
#
# Mechanical properties :
#
#
# Convention : Reuss Voigt Hill
#
# Bulk Modulus (GPa) = 40.62643 46.08477 43.35560
# Shear Modulus (GPa) = 18.47719 24.56327 21.52023
#
# Velocity S-wave (km/s) = 3.24499 3.74144 3.50202
# Velocity P-wave (km/s) = 6.09857 6.70281 6.40781
#
# Compressibility (1/GPa) = 0.02461452
#
# Stress axis : x y z
#
# Youngs Moduli (GPa) = 37.80900 45.13908 61.82802
#
# Poissons Ratio (x) = 0.65574 0.00588
# Poissons Ratio (y) = 0.54926 0.33750
# Poissons Ratio (z) = 0.00360 0.24640
#
# Static dielectric constant tensor:
#      x y z
#    x 2.517330 -0.000300 -0.163840 
#    y -0.000300 3.657810 0.000840 
#    z -0.163840 0.000840 3.404930 
# 
# 
# High freq. dielectric constant tensor:
#      x y z
#    x 1.640240 -0.000010 0.010220 
#    y -0.000010 1.664100 0.000040 
#    z 0.010220 0.000040 1.686140 
# 
# From -- ./inp_files/317875.got.cif
#   From: 2010.06.25/outbox.cif.g09.slc.cpg/sg12_159_cif.got.tgz:317875.got - 2010.06.28 00:19:55.
