data_PCOD8079204
_publ_section_title
;
Structure prediction by ZEFSAII (Michael W. Deem and Ramdas Pophale) SiO2 
 PCOD8079204
Probable space group: C 2/M
;
_chemical_formula_sum "Si O2"
_cell_formula_units_Z 40
_cell_length_a 18.089147
_cell_length_b 20.372990
_cell_length_c 9.586254
_cell_angle_alpha 90.000000
_cell_angle_beta 139.641913
_cell_angle_gamma 90.000000
_cell_volume 2287.723756
_symmetry_space_group_name_H-M "C 2/M"
_symmetry_group_IT_number 12
_symmetry_cell_setting 'monoclinic'
loop_
_space_group_symop_operation_xyz
x,y,z
-x,y,-z
-x,-y,-z
x,-y,z
1/2+x,1/2+y,z
1/2-x,1/2+y,-z
1/2-x,1/2-y,-z
1/2+x,1/2-y,z
loop_
_atom_site_type_symbol
_atom_site_label
_atom_site_fract_x
_atom_site_fract_y
_atom_site_fract_z
Si Si1 0.285478 0.658950 0.953877
Si Si2 0.634323 0.425225 0.687581
Si Si3 0.165669 0.315702 0.518223
Si Si4 0.266759 0.171902 0.687370
Si Si5 0.408092 0.786413 0.137288
O O1 0.238869 0.640063 0.732620
O O2 0.178077 0.696813 0.863596
O O3 0.315889 0.595943 0.090061
O O4 0.396602 0.707043 0.103676
O O5 0.500000 0.416540 0.500000
O O6 0.671076 0.500000 0.714507
O O7 0.681621 0.382414 0.627524
O O8 0.202991 0.240614 0.583662
O O9 0.189469 0.348528 0.402391
O O10 0.031333 0.313346 0.356892
O O11 0.375107 0.178702 0.944664
#
# Coordination Sequence:
#
# PCOD8079204 Si02
#       5
#     8   8   8   8   8
#     4   9  18  29  48  75  97 124 164 202 233 281
#     4  10  20  36  54  68  92 131 167 199 237 288
#     4  10  17  29  49  75 104 125 151 202 255 288
#     4   9  19  30  47  75 101 128 160 195 242 299
#     4   9  16  28  48  73 102 130 154 192 247 294
#
# _framework density 17.484627
#
# number of rings (size 3 to 8) (size 9 to 14) (size 15 to 20)
#    0.000    2.600    0.000    3.600    0.000    0.000 
#    0.000    4.000    0.000   21.600    0.000    0.000 
#    0.000    0.000    0.000    0.000    0.000    0.000 
#
# Total GULP energy -247873.691298 kJ/mol
# GULP energy per Si atom -12393.684565 kJ/mol
# Density = 1.744483 g / cm^3
# Si number density = 17.484627 Si / 1000 Ang^3
#
#
#
# Elastic Constant Matrix: (Units=GPa)
#
#
# Indices 1 2 3 4 5 6 
#
# 1 77.7377 28.7327 34.7275 0.0000 -12.2434 0.0000
# 2 28.7327 64.0983 22.5821 0.0000 -0.1114 0.0000
# 3 34.7275 22.5821 79.6199 0.0000 -7.8319 0.0000
# 4 0.0000 0.0000 0.0000 18.1438 0.0000 1.5119
# 5 -12.2434 -0.1114 -7.8319 0.0000 35.2902 0.0000
# 6 0.0000 0.0000 0.0000 1.5119 0.0000 19.4478
#
#
#
# Elastic Compliance Matrix: (Units=1/GPa)
#
#
# Indices 1 2 3 4 5 6 
#
# 1 0.018594 -0.006274 -0.005825 0.000000 0.005138 0.000000
# 2 -0.006274 0.019489 -0.003066 0.000000 -0.002795 0.000000
# 3 -0.005825 -0.003066 0.016122 0.000000 0.001547 0.000000
# 4 0.000000 0.000000 0.000000 0.055475 0.000000 -0.004313
# 5 0.005138 -0.002795 0.001547 0.000000 0.030454 0.000000
# 6 0.000000 0.000000 0.000000 -0.004313 0.000000 0.051755
#
#
# Mechanical properties :
#
#
# Convention : Reuss Voigt Hill
#
# Bulk Modulus (GPa) = 41.88506 43.72672 42.80589
# Shear Modulus (GPa) = 21.72240 23.60393 22.66317
#
# Velocity S-wave (km/s) = 3.52855 3.67820 3.60415
# Velocity P-wave (km/s) = 6.37246 6.56520 6.46955
#
# Compressibility (1/GPa) = 0.02387486
#
# Stress axis : x y z
#
# Youngs Moduli (GPa) = 53.78007 51.31186 62.02599
#
# Poissons Ratio (x) = 0.32192 0.36132
# Poissons Ratio (y) = 0.33741 0.19017
# Poissons Ratio (z) = 0.31329 0.15732
#
# Static dielectric constant tensor:
#      x y z
#    x 3.318830 0.000000 -0.259480 
#    y 0.000000 2.906760 0.000000 
#    z -0.259480 0.000000 3.516780 
# 
# 
# High freq. dielectric constant tensor:
#      x y z
#    x 1.676120 0.000000 -0.007100 
#    y 0.000000 1.625160 0.000000 
#    z -0.007100 0.000000 1.691420 
# 
# From -- ./inp_files/46901.got.cif
#   From: 2010.06.25/outbox.cif.g09.slc.cpg/sg12_24_cif.got.tgz:46901.got - 2010.06.28 00:19:55.
