data_PCOD8079231
_publ_section_title
;
Structure prediction by ZEFSAII (Michael W. Deem and Ramdas Pophale) SiO2 
 PCOD8079231
Probable space group: C 2/M
;
_chemical_formula_sum "Si O2"
_cell_formula_units_Z 44
_cell_length_a 16.512145
_cell_length_b 15.249711
_cell_length_c 29.923964
_cell_angle_alpha 90.000000
_cell_angle_beta 159.224323
_cell_angle_gamma 90.000000
_cell_volume 2672.746459
_symmetry_space_group_name_H-M "C 2/M"
_symmetry_group_IT_number 12
_symmetry_cell_setting 'monoclinic'
loop_
_space_group_symop_operation_xyz
x,y,z
-x,y,-z
-x,-y,-z
x,-y,z
1/2+x,1/2+y,z
1/2-x,1/2+y,-z
1/2-x,1/2-y,-z
1/2+x,1/2-y,z
loop_
_atom_site_type_symbol
_atom_site_label
_atom_site_fract_x
_atom_site_fract_y
_atom_site_fract_z
Si Si1 0.152785 0.898555 0.908387
Si Si2 0.645445 0.696117 0.817480
Si Si3 0.500000 0.659246 0.000000
Si Si4 0.823696 0.398670 0.829778
Si Si5 0.173883 0.901274 0.180962
Si Si6 0.012893 0.245260 0.352777
O O1 0.045191 0.847346 0.810389
O O2 0.018857 0.870158 0.883534
O O3 0.119546 0.000000 0.880612
O O4 0.419554 0.876796 0.053264
O O5 0.804806 0.625819 0.872748
O O6 0.448422 0.728340 0.680754
O O7 0.789766 0.780399 0.906583
O O8 0.565187 0.599547 0.075638
O O9 0.759245 0.500000 0.787947
O O10 0.648197 0.334797 0.711987
O O11 0.388866 0.837686 0.296417
O O12 0.256853 0.000000 0.234170
O O13 0.250000 0.250000 0.500000
#
# Coordination Sequence:
#
# PCOD8079231 Si02
#       6
#     8   8   4   8   8   8
#     4  10  17  29  50  82 106 122 157 210 268 307
#     4   9  16  29  49  74 100 133 161 205 247 296
#     4  10  17  32  47  74 100 138 165 196 249 304
#     4   9  17  29  51  77 102 131 159 206 260 304
#     4  10  21  33  51  74 105 136 164 205 251 305
#     4   9  20  35  48  67  98 138 178 202 236 295
#
# _framework density 16.462465999999999
#
# number of rings (size 3 to 8) (size 9 to 14) (size 15 to 20)
#    1.091    1.455    1.818    0.818    0.000    5.091 
#    0.000    0.909    0.000    2.182    0.000    0.000 
#    0.000   14.545    0.000    0.000    0.000    0.000 
#
# Total GULP energy -272554.958613 kJ/mol
# GULP energy per Si atom -12388.861755 kJ/mol
# Density = 1.642500 g / cm^3
# Si number density = 16.462466 Si / 1000 Ang^3
#
#
#
# Elastic Constant Matrix: (Units=GPa)
#
#
# Indices 1 2 3 4 5 6 
#
# 1 101.0018 38.0592 46.0747 0.0074 0.8974 0.0037
# 2 38.0592 95.4288 53.9787 -0.0023 -1.4821 0.0043
# 3 46.0747 53.9787 116.2318 -0.0029 -11.2116 0.0001
# 4 0.0074 -0.0023 -0.0029 17.3566 -0.0129 1.2793
# 5 0.8974 -1.4821 -11.2116 -0.0129 11.2079 -0.0042
# 6 0.0037 0.0043 0.0001 1.2793 -0.0042 23.4482
#
#
#
# Elastic Compliance Matrix: (Units=1/GPa)
#
#
# Indices 1 2 3 4 5 6 
#
# 1 0.013023 -0.002774 -0.004438 -0.000011 -0.005849 -0.000002
# 2 -0.002774 0.015086 -0.006300 -0.000001 -0.004085 -0.000003
# 3 -0.004438 -0.006300 0.014657 0.000014 0.014184 0.000004
# 4 -0.000011 -0.000001 0.000014 0.057848 0.000080 -0.003156
# 5 -0.005849 -0.004085 0.014184 0.000080 0.103340 0.000016
# 6 -0.000002 -0.000003 0.000004 -0.003156 0.000016 0.042819
#
#
# Mechanical properties :
#
#
# Convention : Reuss Voigt Hill
#
# Bulk Modulus (GPa) = 63.53194 65.43196 64.48195
# Shear Modulus (GPa) = 17.91834 22.03918 19.97876
#
# Velocity S-wave (km/s) = 3.30272 3.66287 3.48745
# Velocity P-wave (km/s) = 7.29519 7.59745 7.44785
#
# Compressibility (1/GPa) = 0.01574011
#
# Stress axis : x y z
#
# Youngs Moduli (GPa) = 76.78898 66.28804 68.22778
#
# Poissons Ratio (x) = 0.18390 0.30280
# Poissons Ratio (y) = 0.21303 0.42985
# Poissons Ratio (z) = 0.34080 0.41763
#
# Static dielectric constant tensor:
#      x y z
#    x 3.007950 0.000010 -0.058590 
#    y 0.000010 3.141950 -0.000030 
#    z -0.058590 -0.000030 2.715250 
# 
# 
# High freq. dielectric constant tensor:
#      x y z
#    x 1.617180 0.000000 -0.009790 
#    y 0.000000 1.645240 0.000000 
#    z -0.009790 0.000000 1.598100 
# 
# From -- ./inp_files/361828.got.cif
#   From: 2010.06.25/outbox.cif.g09.slc.cpg/sg12_181_cif.got.tgz:361828.got - 2010.06.28 00:19:55.
