data_PCOD8079362
_publ_section_title
;
Structure prediction by ZEFSAII (Michael W. Deem and Ramdas Pophale) SiO2 
 PCOD8079362
Probable space group: C 2/M
;
_chemical_formula_sum "Si O2"
_cell_formula_units_Z 56
_cell_length_a 21.804662
_cell_length_b 14.563477
_cell_length_c 14.926139
_cell_angle_alpha 90.000000
_cell_angle_beta 143.477110
_cell_angle_gamma 90.000000
_cell_volume 2820.875315
_symmetry_space_group_name_H-M "C 2/M"
_symmetry_group_IT_number 12
_symmetry_cell_setting 'monoclinic'
loop_
_space_group_symop_operation_xyz
x,y,z
-x,y,-z
-x,-y,-z
x,-y,z
1/2+x,1/2+y,z
1/2-x,1/2+y,-z
1/2-x,1/2-y,-z
1/2+x,1/2-y,z
loop_
_atom_site_type_symbol
_atom_site_label
_atom_site_fract_x
_atom_site_fract_y
_atom_site_fract_z
Si Si1 0.671034 0.104860 0.853770
Si Si2 0.619715 0.768748 0.641916
Si Si3 0.754102 0.393828 0.500106
Si Si4 0.275818 0.748885 0.674967
Si Si5 0.780202 0.100671 0.163615
Si Si6 0.987165 0.603237 0.754137
Si Si7 0.414951 0.149921 0.963276
O O1 0.688711 0.165121 0.786371
O O2 0.550947 0.120557 0.738700
O O3 0.694158 0.000000 0.855477
O O4 0.741658 0.135413 0.020784
O O5 0.500000 0.796247 0.500000
O O6 0.670375 0.775644 0.603427
O O7 0.630865 0.666644 0.695530
O O8 0.715166 0.500000 0.461949
O O9 0.690127 0.333140 0.352876
O O10 0.752569 0.344619 0.594924
O O11 0.868050 0.388886 0.592606
O O12 0.371010 0.762575 0.855962
O O13 0.685079 0.092952 0.122563
O O14 0.829400 0.000000 0.212634
O O15 0.014187 0.500000 0.821737
O O16 0.021788 0.675805 0.871988
O O17 0.500000 0.097909 0.000000
#
# Coordination Sequence:
#
# PCOD8079362 Si02
#       7
#     8   8   8   8   8   8   8
#     4   9  18  34  55  79 108 136 173 217 263 315
#     4  11  22  35  53  78 108 145 177 214 256 302
#     4  10  20  36  55  75 109 141 169 215 269 318
#     4  10  22  35  51  83 107 137 179 211 261 320
#     4   9  20  35  52  77 106 140 179 214 255 311
#     4   9  17  29  53  85 105 130 167 216 277 320
#     4  10  17  30  51  83 107 129 160 222 273 310
#
# _framework density 19.851993
#
# number of rings (size 3 to 8) (size 9 to 14) (size 15 to 20)
#    0.000    2.286    1.429    2.571    0.000    5.143 
#    0.000    0.000    0.000    0.429    0.000    0.000 
#    0.000    0.000    0.000    0.000    0.000    0.000 
#
# Total GULP energy -346868.976041 kJ/mol
# GULP energy per Si atom -12388.177716 kJ/mol
# Density = 1.980681 g / cm^3
# Si number density = 19.851993 Si / 1000 Ang^3
#
#
#
# Elastic Constant Matrix: (Units=GPa)
#
#
# Indices 1 2 3 4 5 6 
#
# 1 59.6223 22.1278 9.6512 0.0000 -13.4601 0.0000
# 2 22.1278 89.9570 33.2217 0.0000 -24.2546 0.0000
# 3 9.6512 33.2217 64.2006 0.0000 -13.8999 0.0000
# 4 0.0000 0.0000 0.0000 24.1665 0.0000 -3.8177
# 5 -13.4601 -24.2546 -13.8999 0.0000 23.0976 0.0000
# 6 0.0000 0.0000 0.0000 -3.8177 0.0000 18.1301
#
#
#
# Elastic Compliance Matrix: (Units=1/GPa)
#
#
# Indices 1 2 3 4 5 6 
#
# 1 0.019694 -0.002527 0.000296 0.000000 0.009002 0.000000
# 2 -0.002527 0.017484 -0.005762 0.000000 0.013420 0.000000
# 3 0.000296 -0.005762 0.019824 0.000000 0.006051 0.000000
# 4 0.000000 0.000000 0.000000 0.042803 0.000000 0.009013
# 5 0.009002 0.013420 0.006051 0.000000 0.066274 0.000000
# 6 0.000000 0.000000 0.000000 0.009013 0.000000 0.057055
#
#
# Mechanical properties :
#
#
# Convention : Reuss Voigt Hill
#
# Bulk Modulus (GPa) = 24.38061 38.19791 31.28926
# Shear Modulus (GPa) = 19.77905 22.99746 21.38826
#
# Velocity S-wave (km/s) = 3.15989 3.40729 3.28592
# Velocity P-wave (km/s) = 5.06172 5.89598 5.49471
#
# Compressibility (1/GPa) = 0.04101620
#
# Stress axis : x y z
#
# Youngs Moduli (GPa) = 50.77621 57.19411 50.44501
#
# Poissons Ratio (x) = 0.14450 -0.01492
# Poissons Ratio (y) = 0.12829 0.29067
# Poissons Ratio (z) = -0.01502 0.32956
#
# Static dielectric constant tensor:
#      x y z
#    x 3.554690 0.000000 -0.137540 
#    y 0.000000 3.509010 0.000000 
#    z -0.137540 0.000000 3.468200 
# 
# 
# High freq. dielectric constant tensor:
#      x y z
#    x 1.766380 0.000000 -0.020510 
#    y 0.000000 1.748490 0.000000 
#    z -0.020510 0.000000 1.764100 
# 
# From -- ./inp_files/240437.got.cif
#   From: 2010.06.25/outbox.cif.g09.slc.cpg/sg12_121_cif.got.tgz:240437.got - 2010.06.28 00:19:55.
