data_PCOD8079662
_publ_section_title
;
Structure prediction by ZEFSAII (Michael W. Deem and Ramdas Pophale) SiO2 
 PCOD8079662
Probable space group: C 2/M
;
_chemical_formula_sum "Si O2"
_cell_formula_units_Z 56
_cell_length_a 21.582274
_cell_length_b 17.747764
_cell_length_c 14.469259
_cell_angle_alpha 90.000000
_cell_angle_beta 30.943353
_cell_angle_gamma 90.000000
_cell_volume 2849.778263
_symmetry_space_group_name_H-M "C 2/M"
_symmetry_group_IT_number 12
_symmetry_cell_setting 'monoclinic'
loop_
_space_group_symop_operation_xyz
x,y,z
-x,y,-z
-x,-y,-z
x,-y,z
1/2+x,1/2+y,z
1/2-x,1/2+y,-z
1/2-x,1/2-y,-z
1/2+x,1/2-y,z
loop_
_atom_site_type_symbol
_atom_site_label
_atom_site_fract_x
_atom_site_fract_y
_atom_site_fract_z
Si Si1 0.140647 0.581893 0.315523
Si Si2 0.464986 0.199310 0.147245
Si Si3 0.257321 0.915049 0.367283
Si Si4 0.722591 0.661825 0.020045
Si Si5 0.389720 0.771416 0.569587
Si Si6 0.218645 0.645140 0.856546
Si Si7 0.957586 0.816255 0.306611
O O1 0.205382 0.500000 0.247347
O O2 0.165901 0.643639 0.363535
O O3 0.000000 0.566485 0.500000
O O4 0.179142 0.620206 0.169148
O O5 0.357310 0.139390 0.282606
O O6 0.428176 0.275552 0.247437
O O7 0.500000 0.224620 0.000000
O O8 0.577362 0.159934 0.054467
O O9 0.260822 0.916172 0.250386
O O10 0.128138 0.887787 0.569180
O O11 0.279851 0.000000 0.372778
O O12 0.724145 0.620428 0.118516
O O13 0.592931 0.652116 0.138288
O O14 0.750000 0.750000 0.000000
O O15 0.500000 0.765888 0.500000
O O16 0.278839 0.721804 0.744742
O O17 0.436778 0.747599 0.410103
#
# Coordination Sequence:
#
# PCOD8079662 Si02
#       7
#     8   8   8   8   8   8   8
#     4  10  21  33  47  75 121 159 183 227 283 352
#     4  10  21  38  60  86 114 154 212 256 288 339
#     4  10  24  42  58  84 126 162 202 253 300 350
#     4  12  19  35  61  92 120 150 203 245 303 369
#     4  10  17  33  56  86 122 149 190 238 295 366
#     4  10  20  34  61  90 113 155 197 250 303 355
#     4  11  21  36  67  90 114 158 202 248 302 358
#
# _framework density 19.650652000000001
#
# number of rings (size 3 to 8) (size 9 to 14) (size 15 to 20)
#    0.000    1.571    4.286    1.286    0.000    3.714 
#    0.000    1.429    0.000    0.429    0.000    0.000 
#    0.000    0.000    0.000    0.000    0.000    0.000 
#
# Total GULP energy -347053.748706 kJ/mol
# GULP energy per Si atom -12394.776740 kJ/mol
# Density = 1.960593 g / cm^3
# Si number density = 19.650652 Si / 1000 Ang^3
#
#
#
# Elastic Constant Matrix: (Units=GPa)
#
#
# Indices 1 2 3 4 5 6 
#
# 1 82.8182 27.0835 31.7382 0.0000 -0.3462 0.0000
# 2 27.0835 90.8317 35.7802 0.0000 1.4572 0.0000
# 3 31.7382 35.7802 109.8943 -0.0001 -3.0471 0.0000
# 4 0.0000 0.0000 -0.0001 -38.1219 0.0000 -20.0101
# 5 -0.3462 1.4572 -3.0471 0.0000 32.1601 0.0000
# 6 0.0000 0.0000 0.0000 -20.0101 0.0000 8.9715
#
#
#
# Elastic Compliance Matrix: (Units=1/GPa)
#
#
# Indices 1 2 3 4 5 6 
#
# 1 0.014264 -0.003017 -0.003137 0.000000 -0.000007 0.000000
# 2 -0.003017 0.013297 -0.003485 0.000000 -0.000965 0.000000
# 3 -0.003137 -0.003485 0.011173 0.000000 0.001183 0.000000
# 4 0.000000 0.000000 0.000000 -0.012084 0.000000 -0.026953
# 5 -0.000007 -0.000965 0.001183 0.000000 0.031250 0.000000
# 6 0.000000 0.000000 0.000000 -0.026953 0.000000 0.051349
#
#
# Mechanical properties :
#
#
# Convention : Reuss Voigt Hill
#
# Bulk Modulus (GPa) = 51.39918 52.52755 51.96337
# Shear Modulus (GPa) = 37.03381 13.19811 25.11596
#
# Velocity S-wave (km/s) = 4.34592 2.59441 3.57896
# Velocity P-wave (km/s) = 7.16910 5.98024 6.60149
#
# Compressibility (1/GPa) = 0.01945556
#
# Stress axis : x y z
#
# Youngs Moduli (GPa) = 70.10878 75.20387 89.50041
#
# Poissons Ratio (x) = 0.22689 0.28079
# Poissons Ratio (y) = 0.21152 0.31189
# Poissons Ratio (z) = 0.21995 0.26207
#
# Static dielectric constant tensor:
#      x y z
#    x 3.795330 0.000000 0.121080 
#    y 0.000000 3.617760 0.000000 
#    z 0.121080 0.000000 3.841940 
# 
# 
# High freq. dielectric constant tensor:
#      x y z
#    x 1.745420 0.000000 0.004640 
#    y 0.000000 1.745370 0.000000 
#    z 0.004640 0.000000 1.783580 
# 
# From -- ./inp_files/216423.got.cif
#   From: 2010.06.25/outbox.cif.g09.slc.cpg/sg12_109_cif.got.tgz:216423.got - 2010.06.28 00:19:55.
