data_PCOD8079159
_publ_section_title
;
Structure prediction by ZEFSAII (Michael W. Deem and Ramdas Pophale) SiO2 
 PCOD8079159
Probable space group: C 2/M
;
_chemical_formula_sum "Si O2"
_cell_formula_units_Z 56
_cell_length_a 28.121549
_cell_length_b 8.974565
_cell_length_c 16.939898
_cell_angle_alpha 90.000000
_cell_angle_beta 132.262202
_cell_angle_gamma 90.000000
_cell_volume 3164.019302
_symmetry_space_group_name_H-M "C 2/M"
_symmetry_group_IT_number 12
_symmetry_cell_setting 'monoclinic'
loop_
_space_group_symop_operation_xyz
x,y,z
-x,y,-z
-x,-y,-z
x,-y,z
1/2+x,1/2+y,z
1/2-x,1/2+y,-z
1/2-x,1/2-y,-z
1/2+x,1/2-y,z
loop_
_atom_site_type_symbol
_atom_site_label
_atom_site_fract_x
_atom_site_fract_y
_atom_site_fract_z
Si Si1 0.469717 0.176137 0.848428
Si Si2 0.320567 0.666409 0.424304
Si Si3 0.268655 0.675136 0.783564
Si Si4 0.928510 0.323102 0.632095
Si Si5 0.980783 0.174660 0.391186
Si Si6 0.157390 0.164870 0.722923
Si Si7 0.098881 0.323612 0.071829
O O1 0.447665 0.239854 0.739555
O O2 0.420790 0.229112 0.861991
O O3 0.469111 0.000000 0.846532
O O4 0.542386 0.226970 0.949122
O O5 0.303795 0.500000 0.436115
O O6 0.254567 0.751668 0.325872
O O7 0.358922 0.755076 0.534182
O O8 0.364953 0.658238 0.394793
O O9 0.270928 0.500000 0.776963
O O10 0.217692 0.720947 0.796311
O O11 0.337787 0.737308 0.884490
O O12 0.922985 0.500000 0.624079
O O13 0.982759 0.272354 0.632014
O O14 0.000000 0.225573 0.500000
O O15 0.904570 0.211564 0.295289
O O16 0.994685 0.000000 0.392830
O O17 0.181242 0.000000 0.775062
O O18 0.111327 0.500000 0.082227
#
# Coordination Sequence:
#
# PCOD8079159 Si02
#       7
#     8   8   8   8   8   8   8
#     4   8  18  34  54  77  97 126 166 205 240 291
#     4   9  17  31  47  67  96 135 169 192 229 290
#     4  10  18  29  49  78 103 122 156 210 256 285
#     4  11  20  30  47  76 108 128 157 208 255 283
#     4  10  17  29  47  67  96 136 173 197 228 289
#     4   8  16  29  46  67  94 130 172 196 221 283
#     4   9  16  35  60  73  91 129 171 199 238 299
#
# _framework density 17.699007000000002
#
# number of rings (size 3 to 8) (size 9 to 14) (size 15 to 20)
#    0.857    1.857    1.429    2.571    0.000    0.857 
#    0.000    5.000    0.000    0.857    0.000    0.000 
#    0.000    0.000    0.000    0.000    0.000    0.000 
#
# Total GULP energy -346933.696281 kJ/mol
# GULP energy per Si atom -12390.489153 kJ/mol
# Density = 1.765872 g / cm^3
# Si number density = 17.699007 Si / 1000 Ang^3
#
#
#
# Elastic Constant Matrix: (Units=GPa)
#
#
# Indices 1 2 3 4 5 6 
#
# 1 19.8719 10.9169 1.2060 0.0000 13.1719 0.0000
# 2 10.9169 82.0572 15.7696 0.0000 13.1241 0.0000
# 3 1.2060 15.7696 45.7488 0.0000 11.8917 0.0000
# 4 0.0000 0.0000 0.0000 22.1523 0.0000 6.3537
# 5 13.1719 13.1241 11.8917 0.0000 29.2927 0.0000
# 6 0.0000 0.0000 0.0000 6.3537 0.0000 15.9782
#
#
#
# Elastic Compliance Matrix: (Units=1/GPa)
#
#
# Indices 1 2 3 4 5 6 
#
# 1 0.076756 -0.006340 0.009386 0.000000 -0.035484 0.000000
# 2 -0.006340 0.014127 -0.004246 0.000000 -0.001754 0.000000
# 3 0.009386 -0.004246 0.026471 0.000000 -0.013064 0.000000
# 4 0.000000 0.000000 0.000000 0.050954 0.000000 -0.020262
# 5 -0.035484 -0.001754 -0.013064 0.000000 0.056184 0.000000
# 6 0.000000 0.000000 0.000000 -0.020262 0.000000 0.070642
#
#
# Mechanical properties :
#
#
# Convention : Reuss Voigt Hill
#
# Bulk Modulus (GPa) = 8.69930 22.60700 15.65315
# Shear Modulus (GPa) = 14.88752 21.47033 18.17892
#
# Velocity S-wave (km/s) = 2.90340 3.48671 3.20834
# Velocity P-wave (km/s) = 4.02063 5.38612 4.75267
#
# Compressibility (1/GPa) = 0.11495180
#
# Stress axis : x y z
#
# Youngs Moduli (GPa) = 13.02829 70.78768 37.77785
#
# Poissons Ratio (x) = 0.44880 -0.35457
# Poissons Ratio (y) = 0.08260 0.16042
# Poissons Ratio (z) = -0.12228 0.30058
#
# Static dielectric constant tensor:
#      x y z
#    x 3.135550 0.000000 0.029020 
#    y 0.000000 3.046540 0.000000 
#    z 0.029020 0.000000 3.288000 
# 
# 
# High freq. dielectric constant tensor:
#      x y z
#    x 1.664610 0.000000 0.023090 
#    y 0.000000 1.671490 0.000000 
#    z 0.023090 0.000000 1.665590 
# 
# From -- ./inp_files/291959.got.cif
#   From: 2010.06.25/outbox.cif.g09.slc.cpg/sg12_146_cif.got.tgz:291959.got - 2010.06.28 00:19:55.
