data_PCOD8079190
_publ_section_title
;
Structure prediction by ZEFSAII (Michael W. Deem and Ramdas Pophale) SiO2 
 PCOD8079190
Probable space group: C 2/M
;
_chemical_formula_sum "Si O2"
_cell_formula_units_Z 56
_cell_length_a 11.887295
_cell_length_b 19.606185
_cell_length_c 19.187259
_cell_angle_alpha 90.000000
_cell_angle_beta 132.999211
_cell_angle_gamma 90.000000
_cell_volume 3270.559958
_symmetry_space_group_name_H-M "C 2/M"
_symmetry_group_IT_number 12
_symmetry_cell_setting 'monoclinic'
loop_
_space_group_symop_operation_xyz
x,y,z
-x,y,-z
-x,-y,-z
x,-y,z
1/2+x,1/2+y,z
1/2-x,1/2+y,-z
1/2-x,1/2-y,-z
1/2+x,1/2-y,z
loop_
_atom_site_type_symbol
_atom_site_label
_atom_site_fract_x
_atom_site_fract_y
_atom_site_fract_z
Si Si1 0.200474 0.677575 0.264270
Si Si2 0.117768 0.574866 0.729301
Si Si3 0.698800 0.317401 0.016738
Si Si4 0.556001 0.924086 0.865291
Si Si5 0.969230 0.203234 0.565829
Si Si6 0.856833 0.330797 0.600546
Si Si7 0.647433 0.313443 0.154737
O O1 0.384269 0.662267 0.341219
O O2 0.145079 0.690847 0.319495
O O3 0.160464 0.744020 0.203021
O O4 0.109943 0.612473 0.195073
O O5 0.152741 0.500000 0.712403
O O6 0.103805 0.569117 0.805829
O O7 0.254129 0.626943 0.766433
O O8 0.954508 0.600660 0.629707
O O9 0.812088 0.378908 0.041864
O O10 0.710921 0.301062 0.103926
O O11 0.750000 0.250000 0.000000
O O12 0.528078 0.338817 0.921762
O O13 0.547130 0.000000 0.895052
O O14 0.946160 0.270799 0.600142
O O15 0.814651 0.156979 0.502722
O O16 0.000000 0.226671 0.500000
#
# Coordination Sequence:
#
# PCOD8079190 Si02
#       7
#     8   8   8   8   8   8   8
#     4  10  17  29  49  71  95 121 160 196 230 280
#     4   9  17  30  47  69  98 125 155 193 235 282
#     4  10  19  31  47  70  98 122 157 200 236 275
#     4   9  18  31  47  68  97 127 154 192 240 279
#     4   9  17  28  46  73  97 118 156 198 230 274
#     4   9  17  29  46  72  97 123 153 191 242 271
#     4  10  19  29  48  74  93 122 163 195 235 276
#
# _framework density 17.122450000000001
#
# number of rings (size 3 to 8) (size 9 to 14) (size 15 to 20)
#    0.000    2.571    2.857    0.000    0.000    0.571 
#    0.000    3.571    0.000    6.429    0.000    3.000 
#    0.000    0.000    0.000    0.000    0.000    0.000 
#
# Total GULP energy -347041.806664 kJ/mol
# GULP energy per Si atom -12394.350238 kJ/mol
# Density = 1.708348 g / cm^3
# Si number density = 17.122450 Si / 1000 Ang^3
#
#
#
# Elastic Constant Matrix: (Units=GPa)
#
#
# Indices 1 2 3 4 5 6 
#
# 1 61.4459 44.8214 37.1668 0.0000 25.8702 0.0000
# 2 44.8214 146.9006 59.7354 0.0000 23.8129 0.0000
# 3 37.1668 59.7354 90.6591 0.0000 32.5658 0.0000
# 4 0.0000 0.0000 0.0000 21.0767 0.0000 4.7298
# 5 25.8702 23.8129 32.5658 0.0000 30.0384 0.0000
# 6 0.0000 0.0000 0.0000 4.7298 0.0000 21.8599
#
#
#
# Elastic Compliance Matrix: (Units=1/GPa)
#
#
# Indices 1 2 3 4 5 6 
#
# 1 0.029075 -0.005077 -0.001680 0.000000 -0.019195 0.000000
# 2 -0.005077 0.010211 -0.005421 0.000000 0.002154 0.000000
# 3 -0.001680 -0.005421 0.021664 0.000000 -0.017743 0.000000
# 4 0.000000 0.000000 0.000000 0.049867 0.000000 -0.010790
# 5 -0.019195 0.002154 -0.017743 0.000000 0.067351 0.000000
# 6 0.000000 0.000000 0.000000 -0.010790 0.000000 0.048080
#
#
# Mechanical properties :
#
#
# Convention : Reuss Voigt Hill
#
# Bulk Modulus (GPa) = 27.32482 64.71698 46.02090
# Shear Modulus (GPa) = 19.02571 25.08047 22.05309
#
# Velocity S-wave (km/s) = 3.33702 3.83139 3.59271
# Velocity P-wave (km/s) = 5.55344 7.57966 6.64425
#
# Compressibility (1/GPa) = 0.03659676
#
# Stress axis : x y z
#
# Youngs Moduli (GPa) = 34.39354 97.92936 46.15904
#
# Poissons Ratio (x) = 0.49716 0.07753
# Poissons Ratio (y) = 0.17461 0.25022
# Poissons Ratio (z) = 0.05776 0.53086
#
# Static dielectric constant tensor:
#      x y z
#    x 3.223050 0.000000 0.338290 
#    y 0.000000 3.284720 0.000000 
#    z 0.338290 0.000000 3.415780 
# 
# 
# High freq. dielectric constant tensor:
#      x y z
#    x 1.648160 0.000000 0.027910 
#    y 0.000000 1.639470 0.000000 
#    z 0.027910 0.000000 1.663080 
# 
# From -- ./inp_files/263825.got.cif
#   From: 2010.06.25/outbox.cif.g09.slc.cpg/sg12_132_cif.got.tgz:263825.got - 2010.06.28 00:19:55.
