data_PCOD8079705
_publ_section_title
;
Structure prediction by ZEFSAII (Michael W. Deem and Ramdas Pophale) SiO2 
 PCOD8079705
Probable space group: C 2/M
;
_chemical_formula_sum "Si O2"
_cell_formula_units_Z 64
_cell_length_a 11.699898
_cell_length_b 29.482485
_cell_length_c 9.422633
_cell_angle_alpha 90.000000
_cell_angle_beta 89.069079
_cell_angle_gamma 90.000000
_cell_volume 3249.833504
_symmetry_space_group_name_H-M "C 2/M"
_symmetry_group_IT_number 12
_symmetry_cell_setting 'monoclinic'
loop_
_space_group_symop_operation_xyz
x,y,z
-x,y,-z
-x,-y,-z
x,-y,z
1/2+x,1/2+y,z
1/2-x,1/2+y,-z
1/2-x,1/2-y,-z
1/2+x,1/2-y,z
loop_
_atom_site_type_symbol
_atom_site_label
_atom_site_fract_x
_atom_site_fract_y
_atom_site_fract_z
Si Si1 0.625614 0.782918 0.824134
Si Si2 0.227192 0.625767 0.763678
Si Si3 0.608494 0.816591 0.132100
Si Si4 0.510832 0.087440 0.148931
Si Si5 0.262609 0.947147 0.740752
Si Si6 0.869946 0.111270 0.483946
Si Si7 0.663725 0.318933 0.740481
Si Si8 0.374460 0.392348 0.037056
O O1 0.695297 0.821515 0.738773
O O2 0.491452 0.787547 0.795885
O O3 0.650094 0.734331 0.758881
O O4 0.653618 0.789535 0.991670
O O5 0.308050 0.610717 0.635219
O O6 0.111765 0.594896 0.771379
O O7 0.301639 0.621684 0.903124
O O8 0.563037 0.865521 0.088737
O O9 0.701072 0.826247 0.250015
O O10 0.600873 0.063350 0.252966
O O11 0.500000 0.059147 0.000000
O O12 0.203690 0.922318 0.610619
O O13 0.197988 0.931217 0.883885
O O14 0.244564 0.000000 0.719325
O O15 0.875208 0.161552 0.411337
O O16 0.000000 0.093734 0.500000
O O17 0.603321 0.347635 0.866780
O O18 0.500000 0.412007 0.000000
#
# Coordination Sequence:
#
# PCOD8079705 Si02
#       8
#     8   8   8   8   8   8   8   8
#     4  10  20  31  60  94 123 165 211 270 311 365
#     4  11  21  39  64  91 131 173 210 256 320 381
#     4  10  17  34  57  91 126 158 206 262 322 364
#     4  11  17  40  68  97 128 154 203 261 332 385
#     4  11  24  45  70  95 125 163 209 271 333 388
#     4  11  26  46  61  86 132 181 213 258 319 387
#     4  11  21  37  58  87 127 166 223 265 308 368
#     4  11  22  38  64  95 123 169 217 264 320 377
#
# _framework density 19.693317
#
# number of rings (size 3 to 8) (size 9 to 14) (size 15 to 20)
#    0.000    1.250    7.500    1.875    1.750    2.750 
#    0.000    1.875    0.000    0.000    0.000    0.000 
#    0.000    0.000    0.000    0.000    0.000    0.000 
#
# Total GULP energy -396565.033737 kJ/mol
# GULP energy per Si atom -12392.657304 kJ/mol
# Density = 1.964849 g / cm^3
# Si number density = 19.693317 Si / 1000 Ang^3
#
#
#
# Elastic Constant Matrix: (Units=GPa)
#
#
# Indices 1 2 3 4 5 6 
#
# 1 120.7467 13.2254 25.0307 0.0000 -6.1133 0.0000
# 2 13.2254 65.5696 14.3514 0.0000 -14.8644 0.0000
# 3 25.0307 14.3514 74.9194 0.0000 -12.5957 0.0000
# 4 0.0000 0.0000 0.0000 6.5151 0.0000 0.7833
# 5 -6.1133 -14.8644 -12.5957 0.0000 31.0714 0.0000
# 6 0.0000 0.0000 0.0000 0.7833 0.0000 17.3518
#
#
#
# Elastic Compliance Matrix: (Units=1/GPa)
#
#
# Indices 1 2 3 4 5 6 
#
# 1 0.008989 -0.001191 -0.002762 0.000000 0.000079 0.000000
# 2 -0.001191 0.017559 -0.001709 0.000000 0.007473 0.000000
# 3 -0.002762 -0.001709 0.015420 0.000000 0.004890 0.000000
# 4 0.000000 0.000000 0.000000 0.154327 0.000000 -0.006967
# 5 0.000079 0.007473 0.004890 0.000000 0.037757 0.000000
# 6 0.000000 0.000000 0.000000 -0.006967 0.000000 0.057945
#
#
# Mechanical properties :
#
#
# Convention : Reuss Voigt Hill
#
# Bulk Modulus (GPa) = 32.63224 40.71672 36.67448
# Shear Modulus (GPa) = 15.94715 24.89620 20.42167
#
# Velocity S-wave (km/s) = 2.84874 3.55941 3.22372
# Velocity P-wave (km/s) = 5.23704 6.13293 5.70261
#
# Compressibility (1/GPa) = 0.03064454
#
# Stress axis : x y z
#
# Youngs Moduli (GPa) = 111.25043 56.94956 64.85118
#
# Poissons Ratio (x) = 0.06780 0.17910
# Poissons Ratio (y) = 0.13245 0.11086
# Poissons Ratio (z) = 0.30724 0.09735
#
# Static dielectric constant tensor:
#      x y z
#    x 7.145130 0.000000 0.453730 
#    y 0.000000 3.513840 0.000000 
#    z 0.453730 0.000000 3.500770 
# 
# 
# High freq. dielectric constant tensor:
#      x y z
#    x 1.787800 0.000000 0.010990 
#    y 0.000000 1.743820 0.000000 
#    z 0.010990 0.000000 1.747950 
# 
# From -- ./inp_files/54728.got.cif
#   From: 2010.06.25/outbox.cif.g09.slc.cpg/sg12_28_cif.got.tgz:54728.got - 2010.06.28 00:19:55.
