data_PCOD8079833
_publ_section_title
;
Structure prediction by ZEFSAII (Michael W. Deem and Ramdas Pophale) SiO2 
 PCOD8079833
Probable space group: C 2/M
;
_chemical_formula_sum "Si O2"
_cell_formula_units_Z 64
_cell_length_a 32.046905
_cell_length_b 8.896225
_cell_length_c 19.600123
_cell_angle_alpha 90.000000
_cell_angle_beta 123.905559
_cell_angle_gamma 90.000000
_cell_volume 4637.744842
_symmetry_space_group_name_H-M "C 2/M"
_symmetry_group_IT_number 12
_symmetry_cell_setting 'monoclinic'
loop_
_space_group_symop_operation_xyz
x,y,z
-x,y,-z
-x,-y,-z
x,-y,z
1/2+x,1/2+y,z
1/2-x,1/2+y,-z
1/2-x,1/2-y,-z
1/2+x,1/2-y,z
loop_
_atom_site_type_symbol
_atom_site_label
_atom_site_fract_x
_atom_site_fract_y
_atom_site_fract_z
Si Si1 0.946845 0.169890 0.914397
Si Si2 0.981670 0.177809 0.276948
Si Si3 0.006537 0.675957 0.164484
Si Si4 0.793537 0.826115 0.125943
Si Si5 0.984168 0.329148 0.412756
Si Si6 0.191731 0.826014 0.019648
Si Si7 0.109397 0.670673 0.751545
Si Si8 0.097527 0.675872 0.003183
O O1 0.905522 0.246292 0.925440
O O2 0.950733 0.261604 0.847358
O O3 0.930146 0.000000 0.883240
O O4 0.000000 0.175204 0.000000
O O5 0.013652 0.241492 0.243223
O O6 0.007867 0.231110 0.372208
O O7 0.924902 0.246909 0.221931
O O8 0.978752 0.000000 0.270376
O O9 0.014673 0.500000 0.181809
O O10 0.951555 0.715242 0.085583
O O11 0.742765 0.738958 0.098857
O O12 0.838574 0.758027 0.212428
O O13 0.786249 0.000000 0.137069
O O14 0.807896 0.799567 0.060672
O O15 0.004476 0.500000 0.425565
O O16 0.923049 0.326746 0.348627
O O17 0.000000 0.258859 0.500000
O O18 0.145381 0.736027 0.007223
O O19 0.187028 0.000000 0.034659
O O20 0.120098 0.500000 0.785394
O O21 0.102813 0.500000 0.020175
#
# Coordination Sequence:
#
# PCOD8079833 Si02
#       8
#     8   8   8   8   8   8   8   8
#     4   9  17  28  41  56  75  99 129 167 208 245
#     4  10  18  26  39  60  81 104 134 166 199 234
#     4  10  18  28  41  57  78 104 135 169 203 242
#     4  10  19  30  42  58  77 101 134 173 211 242
#     4   8  16  30  44  59  81 109 137 164 199 243
#     4  10  20  30  41  55  76 104 135 172 210 245
#     4   9  17  28  42  58  78 105 135 165 199 240
#     4  10  19  29  41  56  75 102 136 171 207 246
#
# _framework density 13.799811
#
# number of rings (size 3 to 8) (size 9 to 14) (size 15 to 20)
#    0.750    1.750    0.000    3.750    0.000    6.750 
#    0.000    0.000    0.000    0.000    0.000    0.000 
#    0.000    0.000    0.000    1.125    0.000   14.250 
#
# Total GULP energy -396646.784577 kJ/mol
# GULP energy per Si atom -12395.212018 kJ/mol
# Density = 1.376840 g / cm^3
# Si number density = 13.799811 Si / 1000 Ang^3
#
#
#
# Elastic Constant Matrix: (Units=GPa)
#
#
# Indices 1 2 3 4 5 6 
#
# 1 42.9777 21.8547 18.9642 0.0000 -9.1453 0.0000
# 2 21.8547 69.4703 34.0214 0.0000 -9.9597 0.0000
# 3 18.9642 34.0214 60.9954 0.0000 -10.3902 0.0000
# 4 0.0000 0.0000 0.0000 17.1177 0.0000 -2.7292
# 5 -9.1453 -9.9597 -10.3902 0.0000 17.2539 0.0000
# 6 0.0000 0.0000 0.0000 -2.7292 0.0000 26.3539
#
#
#
# Elastic Compliance Matrix: (Units=1/GPa)
#
#
# Indices 1 2 3 4 5 6 
#
# 1 0.030375 -0.005959 -0.004417 0.000000 0.010001 0.000000
# 2 -0.005959 0.021423 -0.009502 0.000000 0.003485 0.000000
# 3 -0.004417 -0.009502 0.024219 0.000000 0.006758 0.000000
# 4 0.000000 0.000000 0.000000 0.059400 0.000000 0.006151
# 5 0.010001 0.003485 0.006758 0.000000 0.069340 0.000000
# 6 0.000000 0.000000 0.000000 0.006151 0.000000 0.038582
#
#
# Mechanical properties :
#
#
# Convention : Reuss Voigt Hill
#
# Bulk Modulus (GPa) = 27.57812 35.90268 31.74040
# Shear Modulus (GPa) = 16.93868 18.71863 17.82865
#
# Velocity S-wave (km/s) = 3.50731 3.68699 3.59827
# Velocity P-wave (km/s) = 6.03568 6.64819 6.34932
#
# Compressibility (1/GPa) = 0.03626064
#
# Stress axis : x y z
#
# Youngs Moduli (GPa) = 32.92179 46.67978 41.28932
#
# Poissons Ratio (x) = 0.27816 0.18236
# Poissons Ratio (y) = 0.19618 0.39235
# Poissons Ratio (z) = 0.14541 0.44357
#
# Static dielectric constant tensor:
#      x y z
#    x 2.583120 0.000000 -0.094780 
#    y 0.000000 2.825920 0.000000 
#    z -0.094780 0.000000 2.523890 
# 
# 
# High freq. dielectric constant tensor:
#      x y z
#    x 1.500340 0.000000 -0.013280 
#    y 0.000000 1.546100 0.000000 
#    z -0.013280 0.000000 1.488250 
# 
# From -- ./inp_files/294584.got.cif
#   From: 2010.06.25/outbox.cif.g09.slc.cpg/sg12_148_cif.got.tgz:294584.got - 2010.06.28 00:19:55.
