data_PCOD8079797
_publ_section_title
;
Structure prediction by ZEFSAII (Michael W. Deem and Ramdas Pophale) SiO2 
 PCOD8079797
Probable space group: C 2/M
;
_chemical_formula_sum "Si O2"
_cell_formula_units_Z 52
_cell_length_a 15.296541
_cell_length_b 12.173614
_cell_length_c 23.168296
_cell_angle_alpha 90.000000
_cell_angle_beta 146.603434
_cell_angle_gamma 90.000000
_cell_volume 2374.704121
_symmetry_space_group_name_H-M "C 2/M"
_symmetry_group_IT_number 12
_symmetry_cell_setting 'monoclinic'
loop_
_space_group_symop_operation_xyz
x,y,z
-x,y,-z
-x,-y,-z
x,-y,z
1/2+x,1/2+y,z
1/2-x,1/2+y,-z
1/2-x,1/2-y,-z
1/2+x,1/2-y,z
loop_
_atom_site_type_symbol
_atom_site_label
_atom_site_fract_x
_atom_site_fract_y
_atom_site_fract_z
Si Si1 0.868230 0.876893 0.808387
Si Si2 0.861781 0.000000 0.377912
Si Si3 0.866502 0.764539 0.380034
Si Si4 0.609531 0.763069 0.004029
Si Si5 0.036756 0.000000 0.698031
Si Si6 0.075160 0.225934 0.382427
Si Si7 0.840223 0.500000 0.947462
Si Si8 0.649279 0.122852 0.800178
O O1 0.766392 0.829952 0.698169
O O2 0.762801 0.881496 0.807382
O O3 0.926865 0.000000 0.824706
O O4 0.017511 0.796116 0.900877
O O5 0.775809 0.882151 0.342438
O O6 0.000000 0.000000 0.500000
O O7 0.922774 0.000000 0.346726
O O8 0.000000 0.731174 0.500000
O O9 0.952995 0.777488 0.367176
O O10 0.661373 0.887859 0.015127
O O11 0.766509 0.692187 0.103138
O O12 0.500000 0.768124 0.000000
O O13 0.932202 0.108339 0.654263
O O14 0.195186 0.000000 0.823021
O O15 0.250000 0.250000 0.500000
O O16 0.019390 0.321218 0.307927
O O17 0.000000 0.500000 0.000000
O O18 0.615343 0.000000 0.803962
#
# Coordination Sequence:
#
# PCOD8079797 Si02
#       8
#     8   4   8   8   4   8   4   8
#     4   9  17  27  42  64  91 125 156 191 235 287
#     4   8  16  28  46  66  88 123 155 189 241 286
#     4   9  18  32  49  69  96 125 159 201 241 283
#     4   9  16  25  39  62  91 120 152 190 241 292
#     4  10  18  32  46  66 103 126 157 208 242 287
#     4  10  20  31  47  69  96 129 162 195 238 288
#     4  10  18  24  42  68  94 125 153 193 255 299
#     4   9  16  27  41  60  91 120 153 191 233 282
#
# _framework density 21.897465
#
# number of rings (size 3 to 8) (size 9 to 14) (size 15 to 20)
#    0.000    2.769    1.538    0.462    7.538    2.154 
#    0.000    0.000    0.000    0.000    0.000    1.077 
#    0.000    0.000    0.000    0.000    0.000    0.000 
#
# Total GULP energy -322113.001212 kJ/mol
# GULP energy per Si atom -12388.961585 kJ/mol
# Density = 2.184763 g / cm^3
# Si number density = 21.897465 Si / 1000 Ang^3
#
#
#
# Elastic Constant Matrix: (Units=GPa)
#
#
# Indices 1 2 3 4 5 6 
#
# 1 4.0846 4.8210 -0.2142 0.0000 -3.3464 0.0000
# 2 4.8210 251.9081 120.7832 0.0001 -4.8984 0.0000
# 3 -0.2142 120.7832 193.0152 0.0006 -0.2609 0.0002
# 4 0.0000 0.0001 0.0006 44.8961 0.0002 -2.5179
# 5 -3.3464 -4.8984 -0.2609 0.0002 19.7325 0.0000
# 6 0.0000 0.0000 0.0002 -2.5179 0.0000 4.5681
#
#
#
# Elastic Compliance Matrix: (Units=1/GPa)
#
#
# Indices 1 2 3 4 5 6 
#
# 1 0.292536 -0.006933 0.004728 0.000000 0.047952 0.000000
# 2 -0.006933 0.005872 -0.003682 0.000000 0.000233 0.000000
# 3 0.004728 -0.003682 0.007490 0.000000 -0.000013 0.000000
# 4 0.000000 0.000000 0.000000 0.022984 0.000000 0.012669
# 5 0.047952 0.000233 -0.000013 0.000000 0.058868 0.000000
# 6 0.000000 0.000000 0.000000 0.012669 0.000000 0.225893
#
#
# Mechanical properties :
#
#
# Convention : Reuss Voigt Hill
#
# Bulk Modulus (GPa) = 3.39992 77.75423 40.57707
# Shear Modulus (GPa) = 6.91123 35.41386 21.16255
#
# Velocity S-wave (km/s) = 1.77849 4.02588 3.11213
# Velocity P-wave (km/s) = 2.40279 7.56278 5.61111
#
# Compressibility (1/GPa) = 0.29412469
#
# Stress axis : x y z
#
# Youngs Moduli (GPa) = 3.41838 170.28741 133.50491
#
# Poissons Ratio (x) = 1.18061 -0.63121
# Poissons Ratio (y) = 0.02370 0.49159
# Poissons Ratio (z) = -0.01616 0.62703
#
# Static dielectric constant tensor:
#      x y z
#    x 3.171940 0.000000 -0.061530 
#    y 0.000000 4.926710 0.000000 
#    z -0.061530 0.000000 4.445520 
# 
# 
# High freq. dielectric constant tensor:
#      x y z
#    x 1.787030 0.000000 -0.012140 
#    y 0.000000 1.888430 0.000000 
#    z -0.012140 0.000000 1.866860 
# 
# From -- ./inp_files/363685.got.cif
#   From: 2010.06.25/outbox.cif.g09.slc.cpg/sg12_182_cif.got.tgz:363685.got - 2010.06.28 00:19:55.
