data_PCOD8079429
_publ_section_title
;
Structure prediction by ZEFSAII (Michael W. Deem and Ramdas Pophale) SiO2 
 PCOD8079429
Probable space group: C 2/M
;
_chemical_formula_sum "Si O2"
_cell_formula_units_Z 60
_cell_length_a 12.711312
_cell_length_b 29.275221
_cell_length_c 21.378933
_cell_angle_alpha 90.000000
_cell_angle_beta 154.224736
_cell_angle_gamma 90.000000
_cell_volume 3459.461010
_symmetry_space_group_name_H-M "C 2/M"
_symmetry_group_IT_number 12
_symmetry_cell_setting 'monoclinic'
loop_
_space_group_symop_operation_xyz
x,y,z
-x,y,-z
-x,-y,-z
x,-y,z
1/2+x,1/2+y,z
1/2-x,1/2+y,-z
1/2-x,1/2-y,-z
1/2+x,1/2-y,z
loop_
_atom_site_type_symbol
_atom_site_label
_atom_site_fract_x
_atom_site_fract_y
_atom_site_fract_z
Si Si1 0.988065 0.141115 0.642258
Si Si2 0.015399 0.223309 0.269100
Si Si3 0.248689 0.181814 0.598937
Si Si4 0.992291 0.638857 0.843631
Si Si5 0.393015 0.049659 0.040092
Si Si6 0.406447 0.294624 0.080632
Si Si7 0.000000 0.764462 0.000000
Si Si8 0.113195 0.050675 0.770599
O O1 0.918085 0.180573 0.652918
O O2 0.263316 0.147516 0.766086
O O3 0.948814 0.091053 0.652526
O O4 0.798436 0.147718 0.484148
O O5 0.093650 0.209749 0.239353
O O6 0.728621 0.231384 0.117197
O O7 0.148256 0.268776 0.365293
O O8 0.440004 0.156133 0.745779
O O9 0.000000 0.191985 0.500000
O O10 0.070829 0.585775 0.884657
O O11 0.227183 0.663462 0.996873
O O12 0.636050 0.048474 0.130759
O O13 0.345587 0.000000 0.045293
O O14 0.171044 0.062136 0.874374
O O15 0.532159 0.296572 0.079302
O O16 0.250000 0.250000 0.000000
O O17 0.988179 0.000000 0.698272
#
# Coordination Sequence:
#
# PCOD8079429 Si02
#       8
#     8   8   8   8   8   8   4   8
#     4  10  19  29  46  67  92 135 156 182 231 276
#     4  11  20  32  48  69  93 122 164 193 229 278
#     4  10  21  32  43  61  98 135 159 187 218 272
#     4  10  17  31  45  66  98 123 158 192 230 287
#     4   8  14  24  44  68  91 118 148 194 240 273
#     4  10  18  30  46  68  88 117 153 197 233 271
#     4  10  20  30  50  68  92 120 152 204 242 264
#     4   8  14  26  42  66  93 116 151 191 233 281
#
# _framework density 17.343741999999999
#
# number of rings (size 3 to 8) (size 9 to 14) (size 15 to 20)
#    0.000    2.400    2.667    3.600    1.867    2.133 
#    0.000    0.667    0.000    4.000    0.000    0.467 
#    0.000    0.533    0.000    0.133    0.000    0.000 
#
# Total GULP energy -371681.675106 kJ/mol
# GULP energy per Si atom -12389.389170 kJ/mol
# Density = 1.730427 g / cm^3
# Si number density = 17.343742 Si / 1000 Ang^3
#
#
#
# Elastic Constant Matrix: (Units=GPa)
#
#
# Indices 1 2 3 4 5 6 
#
# 1 58.2795 34.2342 13.9590 0.0070 -18.9708 0.0049
# 2 34.2342 152.6761 44.5073 -0.0073 -24.4959 -0.0011
# 3 13.9590 44.5073 50.2443 0.0488 -16.9177 0.0473
# 4 0.0070 -0.0073 0.0488 26.6193 0.0046 -3.7055
# 5 -18.9708 -24.4959 -16.9177 0.0046 20.1888 0.0055
# 6 0.0049 -0.0011 0.0473 -3.7055 0.0055 18.8115
#
#
#
# Elastic Compliance Matrix: (Units=1/GPa)
#
#
# Indices 1 2 3 4 5 6 
#
# 1 0.025715 -0.003005 0.003380 -0.000021 0.023350 -0.000026
# 2 -0.003005 0.009696 -0.006608 0.000018 0.003404 0.000020
# 3 0.003380 -0.006608 0.032301 -0.000080 0.022226 -0.000105
# 4 -0.000021 0.000018 -0.000080 0.038626 -0.000077 0.007609
# 5 0.023350 0.003404 0.022226 -0.000077 0.094228 -0.000104
# 6 -0.000026 0.000020 -0.000105 0.007609 -0.000104 0.054658
#
#
# Mechanical properties :
#
#
# Convention : Reuss Voigt Hill
#
# Bulk Modulus (GPa) = 18.10101 49.62233 33.86167
# Shear Modulus (GPa) = 17.47605 24.35721 20.91663
#
# Velocity S-wave (km/s) = 3.17776 3.75157 3.47652
# Velocity P-wave (km/s) = 4.89116 6.88759 5.97337
#
# Compressibility (1/GPa) = 0.05524552
#
# Stress axis : x y z
#
# Youngs Moduli (GPa) = 38.88781 103.13493 30.95872
#
# Poissons Ratio (x) = 0.30991 -0.10463
# Poissons Ratio (y) = 0.11686 0.20458
# Poissons Ratio (z) = -0.13143 0.68153
#
# Static dielectric constant tensor:
#      x y z
#    x 3.499450 0.000240 -0.450590 
#    y 0.000240 3.349650 0.000030 
#    z -0.450590 0.000030 3.105820 
# 
# 
# High freq. dielectric constant tensor:
#      x y z
#    x 1.641120 0.000000 -0.031290 
#    y 0.000000 1.667240 -0.000010 
#    z -0.031290 -0.000010 1.644100 
# 
# From -- ./inp_files/307607.got.cif
#   From: 2010.06.25/outbox.cif.g09.slc.cpg/sg12_154_cif.got.tgz:307607.got - 2010.06.28 00:19:55.
