data_PCOD8079182
_publ_section_title
;
Structure prediction by ZEFSAII (Michael W. Deem and Ramdas Pophale) SiO2 
 PCOD8079182
Probable space group: C 2/M
;
_chemical_formula_sum "Si O2"
_cell_formula_units_Z 64
_cell_length_a 25.298943
_cell_length_b 9.213007
_cell_length_c 17.689431
_cell_angle_alpha 90.000000
_cell_angle_beta 77.395485
_cell_angle_gamma 90.000000
_cell_volume 4023.673821
_symmetry_space_group_name_H-M "C 2/M"
_symmetry_group_IT_number 12
_symmetry_cell_setting 'monoclinic'
loop_
_space_group_symop_operation_xyz
x,y,z
-x,y,-z
-x,-y,-z
x,-y,z
1/2+x,1/2+y,z
1/2-x,1/2+y,-z
1/2-x,1/2-y,-z
1/2+x,1/2-y,z
loop_
_atom_site_type_symbol
_atom_site_label
_atom_site_fract_x
_atom_site_fract_y
_atom_site_fract_z
Si Si1 0.819818 0.828114 0.588614
Si Si2 0.196870 0.334724 0.998702
Si Si3 0.490752 0.328081 0.419322
Si Si4 0.400698 0.672006 0.693229
Si Si5 0.871796 0.172389 0.417541
Si Si6 0.298353 0.169964 0.327045
Si Si7 0.772173 0.331886 0.168508
Si Si8 0.338290 0.170644 0.834527
O O1 0.859167 0.770598 0.642306
O O2 0.839898 0.769792 0.501414
O O3 0.759027 0.773317 0.622459
O O4 0.822900 0.000000 0.588633
O O5 0.213040 0.500000 0.004998
O O6 0.152580 0.296656 0.077580
O O7 0.250000 0.250000 0.000000
O O8 0.183810 0.305398 0.913740
O O9 0.500000 0.261295 0.500000
O O10 0.489935 0.500000 0.427465
O O11 0.538983 0.279119 0.348950
O O12 0.433803 0.273936 0.403475
O O13 0.396367 0.500000 0.705637
O O14 0.387149 0.750559 0.776163
O O15 0.846595 0.243885 0.351308
O O16 0.867694 0.000000 0.411749
O O17 0.301984 0.207246 0.237040
O O18 0.305513 0.000000 0.340544
O O19 0.752815 0.500000 0.176911
O O20 0.719135 0.233832 0.175272
O O21 0.339639 0.000000 0.816399
#
# Coordination Sequence:
#
# PCOD8079182 Si02
#       8
#     8   8   8   8   8   8   8   8
#     4   9  16  28  46  65  87 116 151 183 214 258
#     4   8  15  26  41  62  88 118 147 178 216 262
#     4   9  16  29  51  70  83 109 155 199 227 256
#     4  10  17  29  49  68  87 118 155 186 218 266
#     4  10  19  31  47  67  88 114 151 193 228 256
#     4  10  19  30  44  65  92 122 151 177 213 268
#     4   9  16  29  47  63  86 123 158 180 209 263
#     4  10  18  27  41  67  98 118 141 182 230 269
#
# _framework density 15.905863
#
# number of rings (size 3 to 8) (size 9 to 14) (size 15 to 20)
#    0.000    2.625    2.500    0.750    0.000    1.000 
#    0.000    1.250    0.000    0.750    0.000    0.875 
#    0.000    7.000    0.000    0.000    0.000    0.000 
#
# Total GULP energy -396524.353478 kJ/mol
# GULP energy per Si atom -12391.386046 kJ/mol
# Density = 1.586966 g / cm^3
# Si number density = 15.905863 Si / 1000 Ang^3
#
#
#
# Elastic Constant Matrix: (Units=GPa)
#
#
# Indices 1 2 3 4 5 6 
#
# 1 104.8294 26.3205 68.2600 0.0000 -0.8828 0.0000
# 2 26.3205 34.2916 39.8031 0.0000 -3.1941 0.0000
# 3 68.2600 39.8031 160.1376 0.0000 -8.4702 0.0000
# 4 0.0000 0.0000 0.0000 22.4065 0.0000 1.2070
# 5 -0.8828 -3.1941 -8.4702 0.0000 16.6931 0.0000
# 6 0.0000 0.0000 0.0000 1.2070 0.0000 17.8938
#
#
#
# Elastic Compliance Matrix: (Units=1/GPa)
#
#
# Indices 1 2 3 4 5 6 
#
# 1 0.013979 -0.005481 -0.004740 0.000000 -0.002714 0.000000
# 2 -0.005481 0.043258 -0.008214 0.000000 0.003819 0.000000
# 3 -0.004740 -0.008214 0.010492 0.000000 0.003501 0.000000
# 4 0.000000 0.000000 0.000000 0.044793 0.000000 -0.003022
# 5 -0.002714 0.003819 0.003501 0.000000 0.062269 0.000000
# 6 0.000000 0.000000 0.000000 -0.003022 0.000000 0.056089
#
#
# Mechanical properties :
#
#
# Convention : Reuss Voigt Hill
#
# Bulk Modulus (GPa) = 32.40440 63.11400 47.75920
# Shear Modulus (GPa) = 17.98335 22.39036 20.18686
#
# Velocity S-wave (km/s) = 3.36610 3.75598 3.56637
# Velocity P-wave (km/s) = 5.96023 7.65347 6.85930
#
# Compressibility (1/GPa) = 0.03086001
#
# Stress axis : x y z
#
# Youngs Moduli (GPa) = 71.53601 23.11712 95.31157
#
# Poissons Ratio (x) = 0.12669 0.45178
# Poissons Ratio (y) = 0.39206 0.78288
# Poissons Ratio (z) = 0.33908 0.18988
#
# Static dielectric constant tensor:
#      x y z
#    x 2.815010 0.000000 -0.121740 
#    y 0.000000 2.764150 0.000000 
#    z -0.121740 0.000000 3.599470 
# 
# 
# High freq. dielectric constant tensor:
#      x y z
#    x 1.571840 0.000000 -0.006800 
#    y 0.000000 1.589060 0.000000 
#    z -0.006800 0.000000 1.627100 
# 
# From -- ./inp_files/287539.got.cif
#   From: 2010.06.25/outbox.cif.g09.slc.cpg/sg12_144_cif.got.tgz:287539.got - 2010.06.28 00:19:55.
