data_PCOD8079098
_publ_section_title
;
Structure prediction by ZEFSAII (Michael W. Deem and Ramdas Pophale) SiO2 
 PCOD8079098
Probable space group: C 2/M
;
_chemical_formula_sum "Si O2"
_cell_formula_units_Z 56
_cell_length_a 17.690472
_cell_length_b 16.376137
_cell_length_c 15.345758
_cell_angle_alpha 90.000000
_cell_angle_beta 41.401772
_cell_angle_gamma 90.000000
_cell_volume 2940.091037
_symmetry_space_group_name_H-M "C 2/M"
_symmetry_group_IT_number 12
_symmetry_cell_setting 'monoclinic'
loop_
_space_group_symop_operation_xyz
x,y,z
-x,y,-z
-x,-y,-z
x,-y,z
1/2+x,1/2+y,z
1/2-x,1/2+y,-z
1/2-x,1/2-y,-z
1/2+x,1/2-y,z
loop_
_atom_site_type_symbol
_atom_site_label
_atom_site_fract_x
_atom_site_fract_y
_atom_site_fract_z
Si Si1 0.316412 0.248344 0.712632
Si Si2 0.852561 0.410531 0.778259
Si Si3 0.731367 0.309211 0.435262
Si Si4 0.917714 0.253762 0.993573
Si Si5 0.989627 0.168692 0.677276
Si Si6 0.477106 0.163504 0.251875
Si Si7 0.614107 0.592180 0.069672
O O1 0.353250 0.154476 0.698742
O O2 0.282071 0.256547 0.641787
O O3 0.212050 0.266853 0.866952
O O4 0.416380 0.311924 0.653446
O O5 0.845043 0.500000 0.741362
O O6 0.968613 0.406475 0.734807
O O7 0.749094 0.397039 0.936426
O O8 0.750000 0.250000 0.500000
O O9 0.617218 0.365986 0.543301
O O10 0.848886 0.361893 0.331174
O O11 0.947542 0.161091 0.935792
O O12 0.000000 0.274560 0.000000
O O13 0.941392 0.321757 0.900811
O O14 0.919038 0.107690 0.800513
O O15 0.019607 0.253633 0.696322
O O16 0.574285 0.500000 0.078787
#
# Coordination Sequence:
#
# PCOD8079098 Si02
#       7
#     8   8   8   8   8   8   8
#     4  10  18  31  53  78 101 132 178 217 258 305
#     4   9  18  33  55  80 109 137 166 212 267 316
#     4  10  19  31  50  72 101 134 171 219 257 296
#     4  10  17  28  50  79 108 131 166 216 264 306
#     4   9  18  31  51  73  97 134 181 214 247 300
#     4   9  17  31  50  76 104 134 169 214 258 306
#     4   9  18  32  50  75 106 137 168 207 261 317
#
# _framework density 19.047029999999999
#
# number of rings (size 3 to 8) (size 9 to 14) (size 15 to 20)
#    0.000    2.571    1.429    1.286    0.000    3.714 
#    0.000    0.714    0.000   18.429    0.000    0.000 
#    0.000    0.000    0.000    0.000    0.000    0.000 
#
# Total GULP energy -346880.587750 kJ/mol
# GULP energy per Si atom -12388.592420 kJ/mol
# Density = 1.900368 g / cm^3
# Si number density = 19.047030 Si / 1000 Ang^3
#
#
#
# Elastic Constant Matrix: (Units=GPa)
#
#
# Indices 1 2 3 4 5 6 
#
# 1 101.5628 3.1131 31.6646 0.0000 0.5786 0.0000
# 2 3.1131 21.3161 6.9405 0.0000 1.2468 0.0000
# 3 31.6646 6.9405 76.9661 0.0000 -0.9392 0.0000
# 4 0.0000 0.0000 0.0000 13.7661 0.0000 -0.1145
# 5 0.5786 1.2468 -0.9392 0.0000 34.0353 0.0000
# 6 0.0000 0.0000 0.0000 -0.1145 0.0000 15.2168
#
#
#
# Elastic Compliance Matrix: (Units=1/GPa)
#
#
# Indices 1 2 3 4 5 6 
#
# 1 0.011299 -0.000120 -0.004641 0.000000 -0.000316 0.000000
# 2 -0.000120 0.048455 -0.004343 0.000000 -0.001893 0.000000
# 3 -0.004641 -0.004343 0.015302 0.000000 0.000660 0.000000
# 4 0.000000 0.000000 0.000000 0.072647 0.000000 0.000546
# 5 -0.000316 -0.001893 0.000660 0.000000 0.029474 0.000000
# 6 0.000000 0.000000 0.000000 0.000546 0.000000 0.065721
#
#
# Mechanical properties :
#
#
# Convention : Reuss Voigt Hill
#
# Bulk Modulus (GPa) = 17.59133 31.47571 24.53352
# Shear Modulus (GPa) = 17.85354 23.14542 20.49948
#
# Velocity S-wave (km/s) = 3.06492 3.48971 3.28419
# Velocity P-wave (km/s) = 4.66699 5.72701 5.22395
#
# Compressibility (1/GPa) = 0.05684620
#
# Stress axis : x y z
#
# Youngs Moduli (GPa) = 88.50599 20.63755 65.35119
#
# Poissons Ratio (x) = 0.00249 0.30332
# Poissons Ratio (y) = 0.01066 0.28383
# Poissons Ratio (z) = 0.41079 0.08963
#
# Static dielectric constant tensor:
#      x y z
#    x 3.815140 0.000000 -0.704110 
#    y 0.000000 3.075740 0.000000 
#    z -0.704110 0.000000 4.686390 
# 
# 
# High freq. dielectric constant tensor:
#      x y z
#    x 1.741790 0.000000 -0.010890 
#    y 0.000000 1.684990 0.000000 
#    z -0.010890 0.000000 1.751880 
# 
# From -- ./inp_files/146249.got.cif
#   From: 2010.06.25/outbox.cif.g09.slc.cpg/sg12_74_cif.got.tgz:146249.got - 2010.06.28 00:19:55.
