data_PCOD8079722
_publ_section_title
;
Structure prediction by ZEFSAII (Michael W. Deem and Ramdas Pophale) SiO2 
 PCOD8079722
Probable space group: C 2/M
;
_chemical_formula_sum "Si O2"
_cell_formula_units_Z 56
_cell_length_a 22.535915
_cell_length_b 15.114513
_cell_length_c 15.064527
_cell_angle_alpha 90.000000
_cell_angle_beta 143.136464
_cell_angle_gamma 90.000000
_cell_volume 3078.306104
_symmetry_space_group_name_H-M "C 2/M"
_symmetry_group_IT_number 12
_symmetry_cell_setting 'monoclinic'
loop_
_space_group_symop_operation_xyz
x,y,z
-x,y,-z
-x,-y,-z
x,-y,z
1/2+x,1/2+y,z
1/2-x,1/2+y,-z
1/2-x,1/2-y,-z
1/2+x,1/2-y,z
loop_
_atom_site_type_symbol
_atom_site_label
_atom_site_fract_x
_atom_site_fract_y
_atom_site_fract_z
Si Si1 0.251136 0.847628 0.539773
Si Si2 0.891385 0.398578 0.407536
Si Si3 0.403955 0.245084 0.135781
Si Si4 0.328596 0.602318 0.380282
Si Si5 0.457395 0.596867 0.692293
Si Si6 0.800977 0.242724 0.199593
Si Si7 0.564041 0.099196 0.342452
O O1 0.250000 0.750000 0.500000
O O2 0.253185 0.854368 0.650316
O O3 0.148402 0.892710 0.383421
O O4 0.347411 0.898992 0.621847
O O5 0.857560 0.500000 0.352914
O O6 0.813877 0.335341 0.265965
O O7 0.891375 0.370301 0.510183
O O8 0.000000 0.382298 0.500000
O O9 0.463945 0.332300 0.179700
O O10 0.368225 0.255549 0.193278
O O11 0.473616 0.160637 0.206019
O O12 0.313803 0.232549 0.960876
O O13 0.302068 0.500000 0.326394
O O14 0.434531 0.607330 0.558783
O O15 0.334371 0.658711 0.297578
O O16 0.501301 0.500000 0.765534
O O17 0.521339 0.000000 0.298611
#
# Coordination Sequence:
#
# PCOD8079722 Si02
#       7
#     8   8   8   8   8   8   8
#     4  10  17  34  63  89 112 140 187 238 280 336
#     4  10  20  35  57  82 106 139 189 242 283 328
#     4  11  23  36  53  83 112 154 193 226 284 347
#     4   9  20  37  58  86 115 144 187 236 281 338
#     4   9  19  36  57  83 111 141 185 235 279 336
#     4  11  23  37  55  78 117 153 189 234 283 336
#     4  11  20  35  61  86 111 143 186 239 286 331
#
# _framework density 18.191822999999999
#
# number of rings (size 3 to 8) (size 9 to 14) (size 15 to 20)
#    0.857    1.000    2.857    2.571    0.000    1.714 
#    0.000    5.000    0.000    1.714    0.000    4.000 
#    0.000    0.000    0.000    0.000    0.000    0.000 
#
# Total GULP energy -347060.527993 kJ/mol
# GULP energy per Si atom -12395.018857 kJ/mol
# Density = 1.815042 g / cm^3
# Si number density = 18.191823 Si / 1000 Ang^3
#
#
#
# Elastic Constant Matrix: (Units=GPa)
#
#
# Indices 1 2 3 4 5 6 
#
# 1 38.4249 6.6199 12.9481 0.0000 11.2375 0.0000
# 2 6.6199 119.5072 34.3292 0.0000 3.9355 0.0000
# 3 12.9481 34.3292 45.3950 0.0000 11.9350 0.0000
# 4 0.0000 0.0000 0.0000 -54.7897 0.0000 -76.7901
# 5 11.2375 3.9355 11.9350 0.0000 25.5901 0.0000
# 6 0.0000 0.0000 0.0000 -76.7901 0.0000 -56.7966
#
#
#
# Elastic Compliance Matrix: (Units=1/GPa)
#
#
# Indices 1 2 3 4 5 6 
#
# 1 0.031272 0.000472 -0.006437 0.000000 -0.010803 0.000000
# 2 0.000472 0.010831 -0.008927 0.000000 0.002291 0.000000
# 3 -0.006437 -0.008927 0.033636 0.000000 -0.011488 0.000000
# 4 0.000000 0.000000 0.000000 0.020395 0.000000 -0.027574
# 5 -0.010803 0.002291 -0.011488 0.000000 0.048828 0.000000
# 6 0.000000 0.000000 0.000000 -0.027574 0.000000 0.019674
#
#
# Mechanical properties :
#
#
# Convention : Reuss Voigt Hill
#
# Bulk Modulus (GPa) = 21.76015 34.56906 28.16460
# Shear Modulus (GPa) = 23.83936 -7.23725 8.30106
#
# Velocity S-wave (km/s) = 3.62393 -1.99673 2.13845
# Velocity P-wave (km/s) = 5.43120 3.70511 4.64897
#
# Compressibility (1/GPa) = 0.04595557
#
# Stress axis : x y z
#
# Youngs Moduli (GPa) = 31.97769 92.33146 29.72966
#
# Poissons Ratio (x) = -0.04362 0.19136
# Poissons Ratio (y) = -0.01511 0.26541
# Poissons Ratio (z) = 0.20583 0.82428
#
# Static dielectric constant tensor:
#      x y z
#    x 3.396380 0.000000 0.016020 
#    y 0.000000 3.399730 0.000000 
#    z 0.016020 0.000000 3.069140 
# 
# 
# High freq. dielectric constant tensor:
#      x y z
#    x 1.700200 0.000000 0.006110 
#    y 0.000000 1.722070 0.000000 
#    z 0.006110 0.000000 1.671080 
# 
# From -- ./inp_files/233715.got.cif
#   From: 2010.06.25/outbox.cif.g09.slc.cpg/sg12_117_cif.got.tgz:233715.got - 2010.06.28 00:19:55.
