data_PCOD8079379
_publ_section_title
;
Structure prediction by ZEFSAII (Michael W. Deem and Ramdas Pophale) SiO2 
 PCOD8079379
Probable space group: C 2/M
;
_chemical_formula_sum "Si O2"
_cell_formula_units_Z 56
_cell_length_a 23.978008
_cell_length_b 8.633541
_cell_length_c 14.135534
_cell_angle_alpha 90.000000
_cell_angle_beta 72.562193
_cell_angle_gamma 90.000000
_cell_volume 2791.786051
_symmetry_space_group_name_H-M "C 2/M"
_symmetry_group_IT_number 12
_symmetry_cell_setting 'monoclinic'
loop_
_space_group_symop_operation_xyz
x,y,z
-x,y,-z
-x,-y,-z
x,-y,z
1/2+x,1/2+y,z
1/2-x,1/2+y,-z
1/2-x,1/2-y,-z
1/2+x,1/2-y,z
loop_
_atom_site_type_symbol
_atom_site_label
_atom_site_fract_x
_atom_site_fract_y
_atom_site_fract_z
Si Si1 0.262426 0.681571 0.889692
Si Si2 0.067419 0.674601 0.987248
Si Si3 0.837899 0.821359 0.180471
Si Si4 0.934482 0.185652 0.509831
Si Si5 0.412210 0.683432 0.312554
Si Si6 0.129395 0.172920 0.280393
Si Si7 0.466225 0.673488 0.819119
O O1 0.269246 0.500000 0.903195
O O2 0.211246 0.714223 0.840485
O O3 0.320890 0.754545 0.810473
O O4 0.250000 0.750000 0.000000
O O5 0.090092 0.500000 0.958118
O O6 0.102908 0.797416 0.908091
O O7 0.073726 0.718984 0.093849
O O8 0.000000 0.696219 0.000000
O O9 0.853809 0.773341 0.281540
O O10 0.818461 0.000000 0.184313
O O11 0.911254 0.248446 0.420036
O O12 0.886147 0.250518 0.610058
O O13 0.000000 0.247562 0.500000
O O14 0.935043 0.000000 0.513794
O O15 0.419904 0.500000 0.313043
O O16 0.469751 0.748937 0.229797
O O17 0.066316 0.168537 0.263854
O O18 0.153515 0.000000 0.285563
O O19 0.470916 0.500000 0.859598
#
# Coordination Sequence:
#
# PCOD8079379 Si02
#       7
#     8   8   8   8   8   8   8
#     4  11  23  40  59  83 113 150 193 235 280 333
#     4  11  22  33  48  76 110 144 180 225 285 345
#     4  11  22  37  55  78 110 151 191 231 277 332
#     4   9  14  26  50  83 117 142 173 227 287 336
#     4   9  17  28  49  81 113 141 176 224 280 335
#     4   9  18  31  53  82 111 141 181 232 283 331
#     4  10  17  30  52  81 110 140 178 225 279 338
#
# _framework density 20.058843
#
# number of rings (size 3 to 8) (size 9 to 14) (size 15 to 20)
#    0.000    2.000    2.857    2.143    0.000    1.714 
#    0.000    1.429    0.000    0.000    0.000    9.000 
#    0.000    0.000    0.000    0.000    0.000    0.000 
#
# Total GULP energy -346918.829264 kJ/mol
# GULP energy per Si atom -12389.958188 kJ/mol
# Density = 2.001319 g / cm^3
# Si number density = 20.058843 Si / 1000 Ang^3
#
#
#
# Elastic Constant Matrix: (Units=GPa)
#
#
# Indices 1 2 3 4 5 6 
#
# 1 98.4550 13.4476 54.3334 0.0000 10.0540 0.0000
# 2 13.4476 25.1919 11.2930 0.0000 0.3560 0.0000
# 3 54.3334 11.2930 149.6224 0.0000 6.5685 0.0000
# 4 0.0000 0.0000 0.0000 11.9636 0.0000 2.3470
# 5 10.0540 0.3560 6.5685 0.0000 34.2405 0.0000
# 6 0.0000 0.0000 0.0000 2.3470 0.0000 21.7173
#
#
#
# Elastic Compliance Matrix: (Units=1/GPa)
#
#
# Indices 1 2 3 4 5 6 
#
# 1 0.013628 -0.005251 -0.004416 0.000000 -0.003100 0.000000
# 2 -0.005251 0.043110 -0.001407 0.000000 0.001363 0.000000
# 3 -0.004416 -0.001407 0.008407 0.000000 -0.000301 0.000000
# 4 0.000000 0.000000 0.000000 0.085398 0.000000 -0.009229
# 5 -0.003100 0.001363 -0.000301 0.000000 0.030159 0.000000
# 6 0.000000 0.000000 0.000000 -0.009229 0.000000 0.047044
#
#
# Mechanical properties :
#
#
# Convention : Reuss Voigt Hill
#
# Bulk Modulus (GPa) = 23.25805 47.93523 35.59664
# Shear Modulus (GPa) = 18.92328 26.53064 22.72696
#
# Velocity S-wave (km/s) = 3.07480 3.64076 3.36968
# Velocity P-wave (km/s) = 4.92198 6.45156 5.73797
#
# Compressibility (1/GPa) = 0.04299586
#
# Stress axis : x y z
#
# Youngs Moduli (GPa) = 73.37875 23.19659 118.95341
#
# Poissons Ratio (x) = 0.12181 0.52534
# Poissons Ratio (y) = 0.38532 0.16734
# Poissons Ratio (z) = 0.32407 0.03263
#
# Static dielectric constant tensor:
#      x y z
#    x 3.650340 0.000000 0.128790 
#    y 0.000000 3.167040 0.000000 
#    z 0.128790 0.000000 3.987120 
# 
# 
# High freq. dielectric constant tensor:
#      x y z
#    x 1.776230 0.000000 0.012000 
#    y 0.000000 1.730830 0.000000 
#    z 0.012000 0.000000 1.790070 
# 
# From -- ./inp_files/243645.got.cif
#   From: 2010.06.25/outbox.cif.g09.slc.cpg/sg12_122_cif.got.tgz:243645.got - 2010.06.28 00:19:55.
