data_PCOD8079726
_publ_section_title
;
Structure prediction by ZEFSAII (Michael W. Deem and Ramdas Pophale) SiO2 
 PCOD8079726
Probable space group: C 2/M
;
_chemical_formula_sum "Si O2"
_cell_formula_units_Z 48
_cell_length_a 13.226073
_cell_length_b 14.336251
_cell_length_c 20.093203
_cell_angle_alpha 90.000000
_cell_angle_beta 140.071986
_cell_angle_gamma 90.000000
_cell_volume 2445.299595
_symmetry_space_group_name_H-M "C 2/M"
_symmetry_group_IT_number 12
_symmetry_cell_setting 'monoclinic'
loop_
_space_group_symop_operation_xyz
x,y,z
-x,y,-z
-x,-y,-z
x,-y,z
1/2+x,1/2+y,z
1/2-x,1/2+y,-z
1/2-x,1/2-y,-z
1/2+x,1/2-y,z
loop_
_atom_site_type_symbol
_atom_site_label
_atom_site_fract_x
_atom_site_fract_y
_atom_site_fract_z
Si Si1 0.917794 0.775641 0.895282
Si Si2 0.941326 0.605731 0.731444
Si Si3 0.969798 0.897753 0.167164
Si Si4 0.938539 0.226381 0.277345
Si Si5 0.343540 0.846214 0.041741
Si Si6 0.101990 0.892939 0.616444
O O1 0.740574 0.754419 0.824165
O O2 0.931958 0.842393 0.838831
O O3 0.004836 0.675571 0.927600
O O4 0.000000 0.826100 0.000000
O O5 0.932172 0.500000 0.698701
O O6 0.784220 0.629753 0.693720
O O7 0.958665 0.678317 0.678645
O O8 0.093809 0.615506 0.856130
O O9 0.991979 0.844252 0.247213
O O10 0.045771 0.000000 0.212941
O O11 0.784572 0.914571 0.055450
O O12 0.964465 0.177307 0.361326
O O13 0.250000 0.750000 0.000000
O O14 0.000000 0.873979 0.500000
O O15 0.083391 0.000000 0.631261
#
# Coordination Sequence:
#
# PCOD8079726 Si02
#       6
#     8   8   8   8   8   8
#     4  11  20  34  55  77 118 158 188 230 281 336
#     4  11  22  38  61  87 116 155 197 235 284 347
#     4  11  22  34  53  83 114 153 198 234 276 335
#     4  12  20  38  61  83 115 151 189 243 289 338
#     4  10  17  35  52  79 116 155 185 232 271 335
#     4  10  23  42  63  88 115 147 192 244 300 352
#
# _framework density 19.629496
#
# number of rings (size 3 to 8) (size 9 to 14) (size 15 to 20)
#    0.000    1.167    6.667    2.000    0.000    1.667 
#    0.000    0.833    0.000    0.500    0.000    0.000 
#    0.000    0.000    0.000    0.000    0.000    0.000 
#
# Total GULP energy -297485.595719 kJ/mol
# GULP energy per Si atom -12395.233155 kJ/mol
# Density = 1.958482 g / cm^3
# Si number density = 19.629496 Si / 1000 Ang^3
#
#
#
# Elastic Constant Matrix: (Units=GPa)
#
#
# Indices 1 2 3 4 5 6 
#
# 1 76.0980 41.4240 13.4113 0.0000 -27.9976 0.0000
# 2 41.4240 109.9543 20.1213 0.0000 -23.5654 0.0000
# 3 13.4113 20.1213 63.7706 0.0000 -16.5720 0.0000
# 4 0.0000 0.0000 0.0000 20.0971 0.0000 -5.7517
# 5 -27.9976 -23.5654 -16.5720 0.0000 24.8421 0.0000
# 6 0.0000 0.0000 0.0000 -5.7517 0.0000 27.3352
#
#
#
# Elastic Compliance Matrix: (Units=1/GPa)
#
#
# Indices 1 2 3 4 5 6 
#
# 1 0.024194 -0.004245 0.002771 0.000000 0.025089 0.000000
# 2 -0.004245 0.012208 -0.001443 0.000000 0.005834 0.000000
# 3 0.002771 -0.001443 0.019367 0.000000 0.014674 0.000000
# 4 0.000000 0.000000 0.000000 0.052947 0.000000 0.011141
# 5 0.025089 0.005834 0.014674 0.000000 0.083853 0.000000
# 6 0.000000 0.000000 0.000000 0.011141 0.000000 0.038927
#
#
# Mechanical properties :
#
#
# Convention : Reuss Voigt Hill
#
# Bulk Modulus (GPa) = 20.02583 44.41513 32.22048
# Shear Modulus (GPa) = 19.68695 26.11263 22.89979
#
# Velocity S-wave (km/s) = 3.17034 3.65125 3.41926
# Velocity P-wave (km/s) = 4.86060 6.36014 5.66025
#
# Compressibility (1/GPa) = 0.04993550
#
# Stress axis : x y z
#
# Youngs Moduli (GPa) = 41.33281 81.91109 51.63403
#
# Poissons Ratio (x) = 0.34769 -0.14308
# Poissons Ratio (y) = 0.17545 0.07452
# Poissons Ratio (z) = -0.11454 0.11822
#
# Static dielectric constant tensor:
#      x y z
#    x 3.822290 0.000000 0.125290 
#    y 0.000000 3.792660 0.000000 
#    z 0.125290 0.000000 3.418550 
# 
# 
# High freq. dielectric constant tensor:
#      x y z
#    x 1.767100 0.000000 -0.001160 
#    y 0.000000 1.760500 0.000000 
#    z -0.001160 0.000000 1.736490 
# 
# From -- ./inp_files/310600.got.cif
#   From: 2010.06.25/outbox.cif.g09.slc.cpg/sg12_156_cif.got.tgz:310600.got - 2010.06.28 00:19:55.
