data_PCOD8079232
_publ_section_title
;
Structure prediction by ZEFSAII (Michael W. Deem and Ramdas Pophale) SiO2 
 PCOD8079232
Probable space group: C 2/M
;
_chemical_formula_sum "Si O2"
_cell_formula_units_Z 56
_cell_length_a 26.823577
_cell_length_b 14.960491
_cell_length_c 9.128464
_cell_angle_alpha 90.000000
_cell_angle_beta 128.107556
_cell_angle_gamma 90.000000
_cell_volume 2882.399711
_symmetry_space_group_name_H-M "C 2/M"
_symmetry_group_IT_number 12
_symmetry_cell_setting 'monoclinic'
loop_
_space_group_symop_operation_xyz
x,y,z
-x,y,-z
-x,-y,-z
x,-y,z
1/2+x,1/2+y,z
1/2-x,1/2+y,-z
1/2-x,1/2-y,-z
1/2+x,1/2-y,z
loop_
_atom_site_type_symbol
_atom_site_label
_atom_site_fract_x
_atom_site_fract_y
_atom_site_fract_z
Si Si1 0.616812 0.103443 0.002279
Si Si2 0.003078 0.710965 0.180995
Si Si3 0.767448 0.712907 0.874769
Si Si4 0.826580 0.901702 0.483685
Si Si5 0.878379 0.398413 0.644895
Si Si6 0.256118 0.335107 0.613300
Si Si7 0.026430 0.902293 0.210853
O O1 0.675333 0.142024 0.014739
O O2 0.629926 0.118453 0.197093
O O3 0.608860 0.000000 0.947373
O O4 0.552271 0.154412 0.842769
O O5 0.070358 0.665269 0.340949
O O6 0.996084 0.813322 0.229411
O O7 0.000000 0.709238 0.000000
O O8 0.705454 0.668711 0.685363
O O9 0.790396 0.799659 0.822745
O O10 0.750000 0.750000 0.000000
O O11 0.795989 0.905570 0.591379
O O12 0.899378 0.879878 0.646958
O O13 0.817940 0.000000 0.398273
O O14 0.899326 0.500000 0.652425
O O15 0.810215 0.377150 0.453368
O O16 0.250000 0.250000 0.500000
O O17 0.012277 0.000000 0.261384
O O18 0.000000 0.909134 0.000000
#
# Coordination Sequence:
#
# PCOD8079232 Si02
#       7
#     8   8   8   8   8   8   8
#     4  10  19  33  54  80 114 155 193 236 296 359
#     4   9  17  27  49  80 115 146 180 233 293 348
#     4  11  23  36  54  81 117 162 201 237 293 361
#     4  10  19  35  59  83 112 150 195 250 309 358
#     4  10  17  29  50  83 114 141 183 242 298 348
#     4  10  18  30  54  78 107 144 191 245 297 343
#     4   9  18  30  52  86 117 144 183 244 314 362
#
# _framework density 19.428255
#
# number of rings (size 3 to 8) (size 9 to 14) (size 15 to 20)
#    0.000    2.143    2.857    3.000    4.000    1.714 
#    0.000    2.857    0.000    5.143    0.000    7.000 
#    0.000    0.000    0.000    0.000    0.000    0.000 
#
# Total GULP energy -346892.376499 kJ/mol
# GULP energy per Si atom -12389.013446 kJ/mol
# Density = 1.938404 g / cm^3
# Si number density = 19.428255 Si / 1000 Ang^3
#
#
#
# Elastic Constant Matrix: (Units=GPa)
#
#
# Indices 1 2 3 4 5 6 
#
# 1 81.7616 56.4908 39.1360 0.0000 13.6253 0.0000
# 2 56.4908 147.0792 32.8295 0.0000 7.8262 0.0000
# 3 39.1360 32.8295 56.4942 0.0000 3.9839 0.0000
# 4 0.0000 0.0000 0.0000 21.7615 0.0000 12.5907
# 5 13.6253 7.8262 3.9839 0.0000 29.8396 0.0000
# 6 0.0000 0.0000 0.0000 12.5907 0.0000 29.8655
#
#
#
# Elastic Compliance Matrix: (Units=1/GPa)
#
#
# Indices 1 2 3 4 5 6 
#
# 1 0.023402 -0.005847 -0.012284 0.000000 -0.007512 0.000000
# 2 -0.005847 0.009336 -0.001404 0.000000 0.000408 0.000000
# 3 -0.012284 -0.001404 0.026858 0.000000 0.002392 0.000000
# 4 0.000000 0.000000 0.000000 0.060777 0.000000 -0.025622
# 5 -0.007512 0.000408 0.002392 0.000000 0.036516 0.000000
# 6 0.000000 0.000000 0.000000 -0.025622 0.000000 0.044285
#
#
# Mechanical properties :
#
#
# Convention : Reuss Voigt Hill
#
# Bulk Modulus (GPa) = 48.71760 60.24974 54.48367
# Shear Modulus (GPa) = 20.23570 26.75190 23.49380
#
# Velocity S-wave (km/s) = 3.23082 3.71476 3.48121
# Velocity P-wave (km/s) = 6.24882 7.03406 6.65303
#
# Compressibility (1/GPa) = 0.02052646
#
# Stress axis : x y z
#
# Youngs Moduli (GPa) = 42.73085 107.10837 37.23264
#
# Poissons Ratio (x) = 0.62623 0.45738
# Poissons Ratio (y) = 0.24983 0.05227
# Poissons Ratio (z) = 0.52493 0.15038
#
# Static dielectric constant tensor:
#      x y z
#    x 3.478540 0.000000 0.238430 
#    y 0.000000 4.104480 0.000000 
#    z 0.238430 0.000000 3.776130 
# 
# 
# High freq. dielectric constant tensor:
#      x y z
#    x 1.727910 0.000000 0.041700 
#    y 0.000000 1.780290 0.000000 
#    z 0.041700 0.000000 1.709830 
# 
# From -- ./inp_files/104736.got.cif
#   From: 2010.06.25/outbox.cif.g09.slc.cpg/sg12_53_cif.got.tgz:104736.got - 2010.06.28 00:19:55.
