data_PCOD8079444
_publ_section_title
;
Structure prediction by ZEFSAII (Michael W. Deem and Ramdas Pophale) SiO2 
 PCOD8079444
Probable space group: C 2/M
;
_chemical_formula_sum "Si O2"
_cell_formula_units_Z 64
_cell_length_a 17.561091
_cell_length_b 25.250385
_cell_length_c 17.957625
_cell_angle_alpha 90.000000
_cell_angle_beta 150.320504
_cell_angle_gamma 90.000000
_cell_volume 3942.786288
_symmetry_space_group_name_H-M "C 2/M"
_symmetry_group_IT_number 12
_symmetry_cell_setting 'monoclinic'
loop_
_space_group_symop_operation_xyz
x,y,z
-x,y,-z
-x,-y,-z
x,-y,z
1/2+x,1/2+y,z
1/2-x,1/2+y,-z
1/2-x,1/2-y,-z
1/2+x,1/2-y,z
loop_
_atom_site_type_symbol
_atom_site_label
_atom_site_fract_x
_atom_site_fract_y
_atom_site_fract_z
Si Si1 0.279395 0.560566 0.117943
Si Si2 0.400134 0.267596 0.346265
Si Si3 0.121100 0.151914 0.894211
Si Si4 0.624625 0.704044 0.046655
Si Si5 0.532291 0.106955 0.111199
Si Si6 0.152990 0.113047 0.672796
Si Si7 0.077332 0.296821 0.898699
Si Si8 0.576414 0.269567 0.348758
O O1 0.328660 0.500000 0.150802
O O2 0.346269 0.591424 0.102378
O O3 0.359637 0.587004 0.257085
O O4 0.093368 0.563395 0.969865
O O5 0.500000 0.245684 0.500000
O O6 0.279266 0.222083 0.220576
O O7 0.318337 0.323551 0.296732
O O8 0.521903 0.279863 0.385537
O O9 0.955366 0.176133 0.726708
O O10 0.149329 0.156586 0.007344
O O11 0.242724 0.189180 0.953374
O O12 0.500000 0.683643 0.000000
O O13 0.553208 0.752765 0.940726
O O14 0.708050 0.086411 0.257442
O O15 0.524667 0.153747 0.164104
O O16 0.500000 0.127886 0.000000
O O17 0.000000 0.098451 0.500000
O O18 0.019953 0.278186 0.769657
O O19 0.750000 0.250000 0.500000
#
# Coordination Sequence:
#
# PCOD8079444 Si02
#       8
#     8   8   8   8   8   8   8   8
#     4  10  20  36  56  71  91 128 174 221 257 286
#     4  11  21  32  44  72 110 136 167 192 234 297
#     4  10  19  36  50  69 100 129 169 208 250 293
#     4  11  19  30  49  71  97 133 166 200 240 296
#     4   9  18  30  48  74  95 126 169 203 242 295
#     4  10  20  31  48  72 108 139 160 200 245 300
#     4  10  17  31  50  65  97 138 165 198 240 289
#     4  11  21  30  46  72 102 137 166 198 235 290
#
# _framework density 16.232175999999999
#
# number of rings (size 3 to 8) (size 9 to 14) (size 15 to 20)
#    0.000    1.750    3.750    3.375    7.000    2.500 
#    0.000    0.000    0.000    0.375    0.000    0.000 
#    0.000    0.500    0.000    0.125    0.000    0.000 
#
# Total GULP energy -396608.051306 kJ/mol
# GULP energy per Si atom -12394.001603 kJ/mol
# Density = 1.619523 g / cm^3
# Si number density = 16.232176 Si / 1000 Ang^3
#
#
#
# Elastic Constant Matrix: (Units=GPa)
#
#
# Indices 1 2 3 4 5 6 
#
# 1 81.5087 30.9183 31.4142 0.0000 -4.7866 0.0000
# 2 30.9183 69.8054 34.1349 0.0000 -6.4208 0.0000
# 3 31.4142 34.1349 106.0967 0.0000 0.3114 0.0000
# 4 0.0000 0.0000 0.0000 9.7887 0.0000 0.0575
# 5 -4.7866 -6.4208 0.3114 0.0000 27.4685 0.0000
# 6 0.0000 0.0000 0.0000 0.0575 0.0000 14.3715
#
#
#
# Elastic Compliance Matrix: (Units=1/GPa)
#
#
# Indices 1 2 3 4 5 6 
#
# 1 0.015481 -0.005312 -0.002879 0.000000 0.001489 0.000000
# 2 -0.005312 0.019282 -0.004642 0.000000 0.003634 0.000000
# 3 -0.002879 -0.004642 0.011776 0.000000 -0.001720 0.000000
# 4 0.000000 0.000000 0.000000 0.102161 0.000000 -0.000409
# 5 0.001489 0.003634 -0.001720 0.000000 0.037534 0.000000
# 6 0.000000 0.000000 0.000000 -0.000409 0.000000 0.069584
#
#
# Mechanical properties :
#
#
# Convention : Reuss Voigt Hill
#
# Bulk Modulus (GPa) = 47.90637 50.03840 48.97239
# Shear Modulus (GPa) = 17.33457 21.05529 19.19493
#
# Velocity S-wave (km/s) = 3.27144 3.60548 3.44251
# Velocity P-wave (km/s) = 6.62171 6.94451 6.78503
#
# Compressibility (1/GPa) = 0.02087405
#
# Stress axis : x y z
#
# Youngs Moduli (GPa) = 64.59703 51.86083 84.91681
#
# Poissons Ratio (x) = 0.27548 0.24448
# Poissons Ratio (y) = 0.34313 0.39415
# Poissons Ratio (z) = 0.18597 0.24072
#
# Static dielectric constant tensor:
#      x y z
#    x 3.194020 0.000000 -0.009940 
#    y 0.000000 2.724090 0.000000 
#    z -0.009940 0.000000 3.194290 
# 
# 
# High freq. dielectric constant tensor:
#      x y z
#    x 1.622870 0.000000 -0.000160 
#    y 0.000000 1.574810 0.000000 
#    z -0.000160 0.000000 1.625950 
# 
# From -- ./inp_files/279380.got.cif
#   From: 2010.06.25/outbox.cif.g09.slc.cpg/sg12_140_cif.got.tgz:279380.got - 2010.06.28 00:19:55.
