data_PCOD8079340
_publ_section_title
;
Structure prediction by ZEFSAII (Michael W. Deem and Ramdas Pophale) SiO2 
 PCOD8079340
Probable space group: C 2/M
;
_chemical_formula_sum "Si O2"
_cell_formula_units_Z 48
_cell_length_a 19.640424
_cell_length_b 10.190523
_cell_length_c 26.512466
_cell_angle_alpha 90.000000
_cell_angle_beta 30.369453
_cell_angle_gamma 90.000000
_cell_volume 2682.761450
_symmetry_space_group_name_H-M "C 2/M"
_symmetry_group_IT_number 12
_symmetry_cell_setting 'monoclinic'
loop_
_space_group_symop_operation_xyz
x,y,z
-x,y,-z
-x,-y,-z
x,-y,z
1/2+x,1/2+y,z
1/2-x,1/2+y,-z
1/2-x,1/2-y,-z
1/2+x,1/2-y,z
loop_
_atom_site_type_symbol
_atom_site_label
_atom_site_fract_x
_atom_site_fract_y
_atom_site_fract_z
Si Si1 0.660631 0.750624 0.779758
Si Si2 0.221756 0.000000 0.872416
Si Si3 0.527451 0.500000 0.901163
Si Si4 0.852845 0.849973 0.578111
Si Si5 0.143636 0.153788 0.542612
Si Si6 0.970255 0.500000 0.101566
Si Si7 0.848040 0.756440 0.757203
Si Si8 0.710053 0.000000 0.882389
O O1 0.564212 0.624716 0.843437
O O2 0.743083 0.756373 0.674859
O O3 0.560682 0.873236 0.845595
O O4 0.767215 0.754009 0.756817
O O5 0.118071 0.000000 0.892828
O O6 0.321182 0.124231 0.805962
O O7 0.130578 0.000000 0.981725
O O8 0.831634 0.840042 0.532503
O O9 0.000000 0.799153 0.500000
O O10 0.834766 0.000000 0.609062
O O11 0.250000 0.250000 0.500000
O O12 0.002393 0.219879 0.646040
O O13 0.152474 0.000000 0.554743
O O14 0.885567 0.500000 0.104697
O O15 0.127128 0.500000 0.987178
O O16 0.801625 0.871946 0.823568
#
# Coordination Sequence:
#
# PCOD8079340 Si02
#       8
#     8   4   4   8   8   4   8   4
#     4  10  17  30  50  81 110 144 177 223 276 325
#     4   9  18  30  48  73 114 157 175 211 278 337
#     4   9  18  30  44  76 122 148 173 215 276 336
#     4  10  19  34  59  83 108 144 185 227 280 324
#     4  11  24  40  57  81 112 147 188 231 272 327
#     4   9  16  24  46  76 110 132 175 225 274 326
#     4  10  18  31  52  76 108 145 185 223 272 323
#     4   9  16  26  44  77 106 137 173 227 276 319
#
# _framework density 17.892012000000001
#
# number of rings (size 3 to 8) (size 9 to 14) (size 15 to 20)
#    0.000    2.167    3.333    1.000    1.167    4.000 
#    1.500    0.417    0.000    0.000    0.000    7.000 
#    0.000    0.000    0.000    0.000    0.000    0.000 
#
# Total GULP energy -297521.142669 kJ/mol
# GULP energy per Si atom -12396.714278 kJ/mol
# Density = 1.785129 g / cm^3
# Si number density = 17.892012 Si / 1000 Ang^3
#
#
#
# Elastic Constant Matrix: (Units=GPa)
#
#
# Indices 1 2 3 4 5 6 
#
# 1 34.9257 24.3373 20.6955 -0.0001 1.9191 0.0000
# 2 24.3373 162.4477 84.9718 -0.0007 2.4469 0.0003
# 3 20.6955 84.9718 166.0290 0.0005 11.6123 -0.0019
# 4 -0.0001 -0.0007 0.0005 34.9172 -0.0003 -1.1202
# 5 1.9191 2.4469 11.6123 -0.0003 13.7899 0.0007
# 6 0.0000 0.0003 -0.0019 -1.1202 0.0007 28.7207
#
#
#
# Elastic Compliance Matrix: (Units=1/GPa)
#
#
# Indices 1 2 3 4 5 6 
#
# 1 0.032575 -0.003829 -0.001946 0.000000 -0.002215 0.000000
# 2 -0.003829 0.008923 -0.004267 0.000000 0.002543 0.000000
# 3 -0.001946 -0.004267 0.008902 0.000000 -0.006468 0.000001
# 4 0.000000 0.000000 0.000000 0.028675 0.000001 0.001118
# 5 -0.002215 0.002543 -0.006468 0.000001 0.077821 -0.000002
# 6 0.000000 0.000000 0.000001 0.001118 -0.000002 0.034862
#
#
# Mechanical properties :
#
#
# Convention : Reuss Voigt Hill
#
# Bulk Modulus (GPa) = 32.98612 69.26796 51.12704
# Shear Modulus (GPa) = 22.52778 31.04541 26.78660
#
# Velocity S-wave (km/s) = 3.55223 4.17004 3.87347
# Velocity P-wave (km/s) = 5.94144 7.87300 6.97441
#
# Compressibility (1/GPa) = 0.03031578
#
# Stress axis : x y z
#
# Youngs Moduli (GPa) = 30.69817 112.06531 112.33388
#
# Poissons Ratio (x) = 0.42911 0.21859
# Poissons Ratio (y) = 0.11755 0.47938
# Poissons Ratio (z) = 0.05973 0.47823
#
# Static dielectric constant tensor:
#      x y z
#    x 2.720820 0.000000 0.049090 
#    y 0.000000 3.516000 0.000000 
#    z 0.049090 0.000000 3.475620 
# 
# 
# High freq. dielectric constant tensor:
#      x y z
#    x 1.625610 0.000000 0.004860 
#    y 0.000000 1.700340 0.000000 
#    z 0.004860 0.000000 1.715080 
# 
# From -- ./inp_files/365422.got.cif
#   From: 2010.06.25/outbox.cif.g09.slc.cpg/sg12_183_cif.got.tgz:365422.got - 2010.06.28 00:19:55.
