data_PCOD8079516
_publ_section_title
;
Structure prediction by ZEFSAII (Michael W. Deem and Ramdas Pophale) SiO2 
 PCOD8079516
Probable space group: C 2/M
;
_chemical_formula_sum "Si O2"
_cell_formula_units_Z 56
_cell_length_a 21.793430
_cell_length_b 21.400091
_cell_length_c 9.121985
_cell_angle_alpha 90.000000
_cell_angle_beta 127.823857
_cell_angle_gamma 90.000000
_cell_volume 3360.489420
_symmetry_space_group_name_H-M "C 2/M"
_symmetry_group_IT_number 12
_symmetry_cell_setting 'monoclinic'
loop_
_space_group_symop_operation_xyz
x,y,z
-x,y,-z
-x,-y,-z
x,-y,z
1/2+x,1/2+y,z
1/2-x,1/2+y,-z
1/2-x,1/2-y,-z
1/2+x,1/2-y,z
loop_
_atom_site_type_symbol
_atom_site_label
_atom_site_fract_x
_atom_site_fract_y
_atom_site_fract_z
Si Si1 0.447220 0.245566 0.295471
Si Si2 0.470655 0.631077 0.680907
Si Si3 0.131873 0.928457 0.918666
Si Si4 0.735380 0.185686 0.396268
Si Si5 0.915397 0.277577 0.941846
Si Si6 0.140569 0.140931 0.222115
Si Si7 0.839700 0.839137 0.280228
O O1 0.500000 0.212353 0.500000
O O2 0.498047 0.298460 0.287935
O O3 0.371703 0.274558 0.260995
O O4 0.420194 0.201299 0.121220
O O5 0.539849 0.582199 0.758472
O O6 0.432918 0.622555 0.785260
O O7 0.406437 0.621708 0.462111
O O8 0.184647 0.886234 0.886321
O O9 0.153507 0.000000 0.923461
O O10 0.152302 0.910088 0.114412
O O11 0.750000 0.250000 0.500000
O O12 0.642803 0.176296 0.234640
O O13 0.779529 0.136477 0.565521
O O14 0.770663 0.181846 0.284563
O O15 0.877875 0.208331 0.876606
O O16 0.000000 0.283544 0.000000
#
# Coordination Sequence:
#
# PCOD8079516 Si02
#       7
#     8   8   8   8   8   8   8
#     4   9  16  25  42  65  90 124 155 190 227 271
#     4   9  16  28  44  60  93 137 163 192 223 258
#     4  11  20  29  46  71  94 128 168 198 233 269
#     4   9  21  32  47  67  88 129 167 190 233 290
#     4  11  17  30  49  67  93 126 161 192 235 282
#     4  10  17  32  44  65 101 130 160 201 227 270
#     4   9  18  32  43  61  99 126 160 203 230 266
#
# _framework density 16.664239999999999
#
# number of rings (size 3 to 8) (size 9 to 14) (size 15 to 20)
#    0.000    2.286    4.286    1.714    2.000    2.857 
#    0.000    2.143    0.000    0.000    0.000    0.000 
#    0.000    3.429    0.000    0.000    0.000    0.000 
#
# Total GULP energy -346872.087859 kJ/mol
# GULP energy per Si atom -12388.288852 kJ/mol
# Density = 1.662631 g / cm^3
# Si number density = 16.664240 Si / 1000 Ang^3
#
#
#
# Elastic Constant Matrix: (Units=GPa)
#
#
# Indices 1 2 3 4 5 6 
#
# 1 75.6263 19.8652 45.7220 0.0000 -2.9348 0.0000
# 2 19.8652 20.6444 4.2463 0.0000 -0.8912 0.0000
# 3 45.7220 4.2463 106.3711 0.0000 -0.7210 0.0000
# 4 0.0000 0.0000 0.0000 14.5749 0.0000 -1.5023
# 5 -2.9348 -0.8912 -0.7210 0.0000 32.6240 0.0000
# 6 0.0000 0.0000 0.0000 -1.5023 0.0000 10.2822
#
#
#
# Elastic Compliance Matrix: (Units=1/GPa)
#
#
# Indices 1 2 3 4 5 6 
#
# 1 0.025018 -0.021982 -0.009866 0.000000 0.001432 0.000000
# 2 -0.021982 0.068210 0.006726 0.000000 0.000034 0.000000
# 3 -0.009866 0.006726 0.013371 0.000000 -0.000408 0.000000
# 4 0.000000 0.000000 0.000000 0.069660 0.000000 0.010178
# 5 0.001432 0.000034 -0.000408 0.000000 0.030773 0.000000
# 6 0.000000 0.000000 0.000000 0.010178 0.000000 0.098743
#
#
# Mechanical properties :
#
#
# Convention : Reuss Voigt Hill
#
# Bulk Modulus (GPa) = 17.74515 38.03429 27.88972
# Shear Modulus (GPa) = 13.34034 20.35010 16.84522
#
# Velocity S-wave (km/s) = 2.83245 3.49833 3.18285
# Velocity P-wave (km/s) = 4.62263 6.26029 5.50273
#
# Compressibility (1/GPa) = 0.05635342
#
# Stress axis : x y z
#
# Youngs Moduli (GPa) = 39.97198 14.66063 74.79093
#
# Poissons Ratio (x) = 0.32227 0.73790
# Poissons Ratio (y) = 0.87867 -0.50304
# Poissons Ratio (z) = 0.39437 -0.09861
#
# Static dielectric constant tensor:
#      x y z
#    x 3.148580 0.000000 -0.069520 
#    y 0.000000 2.510600 0.000000 
#    z -0.069520 0.000000 3.716580 
# 
# 
# High freq. dielectric constant tensor:
#      x y z
#    x 1.633220 0.000000 -0.021600 
#    y 0.000000 1.554390 0.000000 
#    z -0.021600 0.000000 1.666790 
# 
# From -- ./inp_files/90093.got.cif
#   From: 2010.06.25/outbox.cif.g09.slc.cpg/sg12_46_cif.got.tgz:90093.got - 2010.06.28 00:19:55.
