data_PCOD8079273
_publ_section_title
;
Structure prediction by ZEFSAII (Michael W. Deem and Ramdas Pophale) SiO2 
 PCOD8079273
Probable space group: C 2/M
;
_chemical_formula_sum "Si O2"
_cell_formula_units_Z 64
_cell_length_a 9.569184
_cell_length_b 28.837036
_cell_length_c 15.412082
_cell_angle_alpha 90.000000
_cell_angle_beta 128.381040
_cell_angle_gamma 90.000000
_cell_volume 3333.856673
_symmetry_space_group_name_H-M "C 2/M"
_symmetry_group_IT_number 12
_symmetry_cell_setting 'monoclinic'
loop_
_space_group_symop_operation_xyz
x,y,z
-x,y,-z
-x,-y,-z
x,-y,z
1/2+x,1/2+y,z
1/2-x,1/2+y,-z
1/2-x,1/2-y,-z
1/2+x,1/2-y,z
loop_
_atom_site_type_symbol
_atom_site_label
_atom_site_fract_x
_atom_site_fract_y
_atom_site_fract_z
Si Si1 0.950242 0.551384 0.785962
Si Si2 0.396353 0.795212 0.241578
Si Si3 0.621680 0.551384 0.785962
Si Si4 0.209345 0.196630 1.000000
Si Si5 0.209120 0.631482 0.370550
Si Si6 0.468019 0.631482 0.629450
Si Si7 0.659991 0.897995 1.000000
Si Si8 0.586804 0.704789 0.241578
O O1 0.008139 0.500000 0.776405
O O2 0.802699 0.546524 0.802699
O O3 0.870672 0.580131 0.674525
O O4 0.120762 0.579067 0.890907
O O5 0.546590 0.833334 0.312491
O O6 0.496783 0.750000 0.246782
O O7 0.292302 0.786014 0.292301
O O8 0.242416 0.811696 0.114701
O O9 0.544669 0.500000 0.776404
O O10 0.478377 0.580132 0.674527
O O11 0.661053 0.579066 0.890910
O O12 0.013013 0.188304 0.885300
O O13 0.250000 0.250000 0.000000
O O14 0.331988 0.158120 0.999999
O O15 0.309161 0.631943 0.500000
O O16 0.343469 0.644836 0.343468
O O17 0.421607 0.666667 0.687508
O O18 0.500000 0.911466 0.000000
#
# Coordination Sequence:
#
# PCOD8079273 Si02
#       8
#     8   8   8   8   8   8   8   8
#     4   9  17  30  52  84 117 148 186 235 288 337
#     4  11  23  39  60  85 115 149 187 231 283 342
#     4   9  17  30  52  84 117 148 186 235 288 337
#     4  10  21  34  54  85 115 148 184 224 279 344
#     4  10  21  37  57  83 115 152 194 238 282 330
#     4  10  21  37  57  83 115 152 194 238 282 330
#     4  10  17  29  54  84 118 151 184 231 287 342
#     4  11  23  39  60  85 115 149 187 231 283 342
#
# _framework density 19.196985999999999
#
# number of rings (size 3 to 8) (size 9 to 14) (size 15 to 20)
#    0.000    2.000    2.500    1.500    0.000    7.000 
#    0.000    2.500    0.000    0.750    0.000    3.500 
#    0.000    0.000    0.000    0.000    0.000    0.000 
#
# Total GULP energy -396425.015889 kJ/mol
# GULP energy per Si atom -12388.281747 kJ/mol
# Density = 1.915329 g / cm^3
# Si number density = 19.196986 Si / 1000 Ang^3
#
#
#
# Elastic Constant Matrix: (Units=GPa)
#
#
# Indices 1 2 3 4 5 6 
#
# 1 87.7677 53.4835 49.2576 0.0000 -1.1984 0.0000
# 2 53.4835 158.6596 75.1517 0.0000 1.3399 0.0000
# 3 49.2576 75.1517 132.1699 0.0000 3.9437 0.0000
# 4 0.0000 0.0000 0.0000 24.5837 0.0000 0.1123
# 5 -1.1984 1.3399 3.9437 0.0000 9.8810 0.0000
# 6 0.0000 0.0000 0.0000 0.1123 0.0000 22.7656
#
#
#
# Elastic Compliance Matrix: (Units=1/GPa)
#
#
# Indices 1 2 3 4 5 6 
#
# 1 0.015826 -0.003447 -0.004058 0.000000 0.004006 0.000000
# 2 -0.003447 0.009383 -0.004048 0.000000 -0.000075 0.000000
# 3 -0.004058 -0.004048 0.011516 0.000000 -0.004539 0.000000
# 4 0.000000 0.000000 0.000000 0.040678 0.000000 -0.000201
# 5 0.004006 -0.000075 -0.004539 0.000000 0.103512 0.000000
# 6 0.000000 0.000000 0.000000 -0.000201 0.000000 0.043927
#
#
# Mechanical properties :
#
#
# Convention : Reuss Voigt Hill
#
# Bulk Modulus (GPa) = 73.42784 81.59809 77.51297
# Shear Modulus (GPa) = 19.80294 24.82634 22.31464
#
# Velocity S-wave (km/s) = 3.21528 3.60007 3.41310
# Velocity P-wave (km/s) = 7.21919 7.73813 7.48316
#
# Compressibility (1/GPa) = 0.01361881
#
# Stress axis : x y z
#
# Youngs Moduli (GPa) = 63.18654 106.57752 86.83814
#
# Poissons Ratio (x) = 0.36734 0.35238
# Poissons Ratio (y) = 0.21778 0.35155
# Poissons Ratio (z) = 0.25641 0.43146
#
# Static dielectric constant tensor:
#      x y z
#    x 3.110170 0.000000 0.040270 
#    y 0.000000 3.815650 0.000000 
#    z 0.040270 0.000000 3.761520 
# 
# 
# High freq. dielectric constant tensor:
#      x y z
#    x 1.699370 0.000000 0.003360 
#    y 0.000000 1.754180 0.000000 
#    z 0.003360 0.000000 1.753680 
# 
# From -- ./inp_files/200932.got.cif
#   From: 2010.06.25/outbox.cif.g09.slc.cpg/sg12_101_cif.got.tgz:200932.got - 2010.06.28 00:19:55.
