data_PCOD8079561
_publ_section_title
;
Structure prediction by ZEFSAII (Michael W. Deem and Ramdas Pophale) SiO2 
 PCOD8079561
Probable space group: C 2/M
;
_chemical_formula_sum "Si O2"
_cell_formula_units_Z 56
_cell_length_a 8.028953
_cell_length_b 21.325767
_cell_length_c 21.378104
_cell_angle_alpha 90.000000
_cell_angle_beta 55.492807
_cell_angle_gamma 90.000000
_cell_volume 3016.400466
_symmetry_space_group_name_H-M "C 2/M"
_symmetry_group_IT_number 12
_symmetry_cell_setting 'monoclinic'
loop_
_space_group_symop_operation_xyz
x,y,z
-x,y,-z
-x,-y,-z
x,-y,z
1/2+x,1/2+y,z
1/2-x,1/2+y,-z
1/2-x,1/2-y,-z
1/2+x,1/2-y,z
loop_
_atom_site_type_symbol
_atom_site_label
_atom_site_fract_x
_atom_site_fract_y
_atom_site_fract_z
Si Si1 0.539697 0.756271 0.176883
Si Si2 0.430992 0.182665 0.084452
Si Si3 0.058258 0.620336 0.734744
Si Si4 0.454790 0.800538 0.579970
Si Si5 0.681946 0.638142 0.736823
Si Si6 0.756224 0.928165 0.815129
Si Si7 0.832896 0.164772 0.579201
O O1 0.594183 0.793134 0.099981
O O2 0.749771 0.724904 0.150027
O O3 0.463701 0.806353 0.243454
O O4 0.379051 0.699099 0.209306
O O5 0.365678 0.110096 0.105329
O O6 0.500000 0.196651 0.000000
O O7 0.848139 0.600233 0.744394
O O8 0.123388 0.578484 0.779910
O O9 0.248586 0.615041 0.647240
O O10 0.500000 0.823706 0.500000
O O11 0.273637 0.840403 0.650438
O O12 0.654330 0.810890 0.575396
O O13 0.424470 0.726180 0.592451
O O14 0.488169 0.595087 0.761333
O O15 0.757412 0.000000 0.835543
O O16 0.000000 0.130858 0.500000
#
# Coordination Sequence:
#
# PCOD8079561 Si02
#       7
#     8   8   8   8   8   8   8
#     4  10  17  32  53  82 118 138 170 208 277 328
#     4  10  20  33  56  83 112 140 170 218 272 334
#     4  10  20  34  56  81 111 146 180 227 265 324
#     4  10  19  27  45  77 115 146 170 213 275 330
#     4  10  20  34  56  81 111 146 180 227 265 324
#     4  10  24  39  58  78 102 148 192 228 268 312
#     4  10  19  27  45  77 115 146 170 213 275 330
#
# _framework density 18.565175
#
# number of rings (size 3 to 8) (size 9 to 14) (size 15 to 20)
#    0.000    2.000    2.857    2.143    4.000    0.857 
#    0.000    0.000    0.000    0.857    0.000    4.000 
#    0.000    0.000    0.000    0.000    0.000    0.000 
#
# Total GULP energy -346882.526434 kJ/mol
# GULP energy per Si atom -12388.661658 kJ/mol
# Density = 1.852292 g / cm^3
# Si number density = 18.565175 Si / 1000 Ang^3
#
#
#
# Elastic Constant Matrix: (Units=GPa)
#
#
# Indices 1 2 3 4 5 6 
#
# 1 48.7991 11.4071 12.4418 0.0000 3.4136 0.0000
# 2 11.4071 71.5595 11.0445 0.0000 -3.1320 0.0000
# 3 12.4418 11.0445 76.7162 0.0000 8.2230 0.0000
# 4 0.0000 0.0000 0.0000 10.6019 0.0000 2.3834
# 5 3.4136 -3.1320 8.2230 0.0000 22.6902 0.0000
# 6 0.0000 0.0000 0.0000 2.3834 0.0000 15.7782
#
#
#
# Elastic Compliance Matrix: (Units=1/GPa)
#
#
# Indices 1 2 3 4 5 6 
#
# 1 0.022159 -0.003215 -0.002836 0.000000 -0.002750 0.000000
# 2 -0.003215 0.014935 -0.001978 0.000000 0.003262 0.000000
# 3 -0.002836 -0.001978 0.014320 0.000000 -0.005036 0.000000
# 4 0.000000 0.000000 0.000000 0.097639 0.000000 -0.014749
# 5 -0.002750 0.003262 -0.005036 0.000000 0.046761 0.000000
# 6 0.000000 0.000000 0.000000 -0.014749 0.000000 0.065607
#
#
# Mechanical properties :
#
#
# Convention : Reuss Voigt Hill
#
# Bulk Modulus (GPa) = 28.28472 29.65126 28.96799
# Shear Modulus (GPa) = 17.28525 20.62615 18.95570
#
# Velocity S-wave (km/s) = 3.05463 3.33680 3.19883
# Velocity P-wave (km/s) = 5.26398 5.55444 5.41116
#
# Compressibility (1/GPa) = 0.03535477
#
# Stress axis : x y z
#
# Youngs Moduli (GPa) = 45.12806 66.95686 69.83416
#
# Poissons Ratio (x) = 0.21526 0.19806
# Poissons Ratio (y) = 0.14508 0.13816
# Poissons Ratio (z) = 0.12799 0.13247
#
# Static dielectric constant tensor:
#      x y z
#    x 3.583210 0.000000 0.110420 
#    y 0.000000 3.016450 0.000000 
#    z 0.110420 0.000000 4.410410 
# 
# 
# High freq. dielectric constant tensor:
#      x y z
#    x 1.736520 0.000000 -0.001310 
#    y 0.000000 1.668570 0.000000 
#    z -0.001310 0.000000 1.720560 
# 
# From -- ./inp_files/301394.got.cif
#   From: 2010.06.25/outbox.cif.g09.slc.cpg/sg12_151_cif.got.tgz:301394.got - 2010.06.28 00:19:55.
