data_PCOD8079538
_publ_section_title
;
Structure prediction by ZEFSAII (Michael W. Deem and Ramdas Pophale) SiO2 
 PCOD8079538
Probable space group: C 2/M
;
_chemical_formula_sum "Si O2"
_cell_formula_units_Z 56
_cell_length_a 7.485667
_cell_length_b 23.284704
_cell_length_c 14.497289
_cell_angle_alpha 90.000000
_cell_angle_beta 107.078074
_cell_angle_gamma 90.000000
_cell_volume 2415.477340
_symmetry_space_group_name_H-M "C 2/M"
_symmetry_group_IT_number 12
_symmetry_cell_setting 'monoclinic'
loop_
_space_group_symop_operation_xyz
x,y,z
-x,y,-z
-x,-y,-z
x,-y,z
1/2+x,1/2+y,z
1/2-x,1/2+y,-z
1/2-x,1/2-y,-z
1/2+x,1/2-y,z
loop_
_atom_site_type_symbol
_atom_site_label
_atom_site_fract_x
_atom_site_fract_y
_atom_site_fract_z
Si Si1 0.296013 0.237520 0.112836
Si Si2 0.233032 0.814478 0.395121
Si Si3 0.064154 0.639209 0.193246
Si Si4 0.695223 0.566852 0.117216
Si Si5 0.650183 0.182663 0.394239
Si Si6 0.983731 0.161341 0.807569
Si Si7 0.289261 0.062914 0.931726
O O1 0.488533 0.200153 0.143568
O O2 0.145379 0.200258 0.144451
O O3 0.326804 0.299934 0.167305
O O4 0.250000 0.250000 0.000000
O O5 0.213491 0.834710 0.499349
O O6 0.439141 0.826212 0.392274
O O7 0.187728 0.748093 0.375536
O O8 0.092039 0.848287 0.307326
O O9 0.177087 0.644743 0.306896
O O10 0.224370 0.611850 0.149853
O O11 0.890965 0.595051 0.179415
O O12 0.697447 0.500000 0.144580
O O13 0.519645 0.597697 0.144745
O O14 0.662598 0.575380 0.002720
O O15 0.242993 0.000000 0.883916
O O16 0.500000 0.064560 0.000000
#
# Coordination Sequence:
#
# PCOD8079538 Si02
#       7
#     8   8   8   8   8   8   8
#     4  11  23  34  50  79 114 146 177 223 284 340
#     4  10  18  34  51  78 103 151 179 230 274 345
#     4  10  17  32  50  76 106 144 180 233 272 326
#     4   9  18  32  53  78 107 155 197 227 270 329
#     4  10  19  31  54  74 112 139 190 223 281 338
#     4  11  20  37  55  78 115 148 187 228 281 337
#     4   8  15  28  48  73 102 142 190 224 260 316
#
# _framework density 23.183824000000001
#
# number of rings (size 3 to 8) (size 9 to 14) (size 15 to 20)
#    0.000    2.143    4.286    1.714    0.000    5.714 
#    0.000    0.000    0.000   10.286    0.000    5.000 
#    0.000    0.000    0.000   22.286    0.000    0.143 
#
# Total GULP energy -347112.515578 kJ/mol
# GULP energy per Si atom -12396.875556 kJ/mol
# Density = 2.313106 g / cm^3
# Si number density = 23.183824 Si / 1000 Ang^3
#
#
#
# Elastic Constant Matrix: (Units=GPa)
#
#
# Indices 1 2 3 4 5 6 
#
# 1 71.1664 21.5748 9.9622 0.0000 -6.4529 0.0000
# 2 21.5748 156.4034 78.2829 0.0000 -0.8194 0.0000
# 3 9.9622 78.2829 204.3267 0.0000 0.2811 0.0000
# 4 0.0000 0.0000 0.0000 28.6409 0.0000 -1.5592
# 5 -6.4529 -0.8194 0.2811 0.0000 23.6675 0.0000
# 6 0.0000 0.0000 0.0000 -1.5592 0.0000 23.5544
#
#
#
# Elastic Compliance Matrix: (Units=1/GPa)
#
#
# Indices 1 2 3 4 5 6 
#
# 1 0.015040 -0.002083 0.000059 0.000000 0.004028 0.000000
# 2 -0.002083 0.008202 -0.003040 0.000000 -0.000248 0.000000
# 3 0.000059 -0.003040 0.006056 0.000000 -0.000161 0.000000
# 4 0.000000 0.000000 0.000000 0.035041 0.000000 0.002320
# 5 0.004028 -0.000248 -0.000161 0.000000 0.043343 0.000000
# 6 0.000000 0.000000 0.000000 0.002320 0.000000 0.042609
#
#
# Mechanical properties :
#
#
# Convention : Reuss Voigt Hill
#
# Bulk Modulus (GPa) = 52.16665 72.39295 62.27980
# Shear Modulus (GPa) = 29.97431 36.64433 33.30932
#
# Velocity S-wave (km/s) = 3.59959 3.97999 3.79456
# Velocity P-wave (km/s) = 6.31080 7.23974 6.79117
#
# Compressibility (1/GPa) = 0.01916933
#
# Stress axis : x y z
#
# Youngs Moduli (GPa) = 66.48917 121.92849 165.11800
#
# Poissons Ratio (x) = 0.25401 -0.00979
# Poissons Ratio (y) = 0.13851 0.50201
# Poissons Ratio (z) = -0.00394 0.37070
#
# Static dielectric constant tensor:
#      x y z
#    x 4.946660 0.000000 -0.093270 
#    y 0.000000 4.278270 0.000000 
#    z -0.093270 0.000000 4.588660 
# 
# 
# High freq. dielectric constant tensor:
#      x y z
#    x 1.964990 0.000000 0.004150 
#    y 0.000000 1.895190 0.000000 
#    z 0.004150 0.000000 1.906810 
# 
# From -- ./inp_files/198524.got.cif
#   From: 2010.06.25/outbox.cif.g09.slc.cpg/sg12_100_cif.got.tgz:198524.got - 2010.06.28 00:19:55.
