data_PCOD8079608
_publ_section_title
;
Structure prediction by ZEFSAII (Michael W. Deem and Ramdas Pophale) SiO2 
 PCOD8079608
Probable space group: C 2/M
;
_chemical_formula_sum "Si O2"
_cell_formula_units_Z 32
_cell_length_a 15.722962
_cell_length_b 12.221695
_cell_length_c 8.744780
_cell_angle_alpha 90.000000
_cell_angle_beta 129.485594
_cell_angle_gamma 90.000000
_cell_volume 1296.912693
_symmetry_space_group_name_H-M "C 2/M"
_symmetry_group_IT_number 12
_symmetry_cell_setting 'monoclinic'
loop_
_space_group_symop_operation_xyz
x,y,z
-x,y,-z
-x,-y,-z
x,-y,z
1/2+x,1/2+y,z
1/2-x,1/2+y,-z
1/2-x,1/2-y,-z
1/2+x,1/2-y,z
loop_
_atom_site_type_symbol
_atom_site_label
_atom_site_fract_x
_atom_site_fract_y
_atom_site_fract_z
Si Si1 0.960978 0.500000 0.747317
Si Si2 0.398090 0.500000 0.696981
Si Si3 0.277247 0.000000 0.769855
Si Si4 0.783274 0.500000 0.280847
Si Si5 0.064022 0.123637 0.723513
Si Si6 0.656231 0.845968 0.910044
O O1 0.903062 0.500000 0.847689
O O2 0.865319 0.500000 0.514330
O O3 0.033809 0.391528 0.802250
O O4 0.307920 0.500000 0.461817
O O5 0.343289 0.500000 0.801092
O O6 0.474143 0.607643 0.756809
O O7 0.266278 0.111315 0.860747
O O8 0.798766 0.392304 0.198210
O O9 0.000000 0.167473 0.500000
O O10 0.152990 0.213207 0.888345
O O11 0.115898 0.000000 0.747014
#
# Coordination Sequence:
#
# PCOD8079608 Si02
#       6
#     4   4   4   4   8   8
#     4   9  16  30  55  84 119 149 195 239 295 347
#     4   9  19  38  59  88 121 151 192 244 300 347
#     4   9  19  34  58  90 120 146 194 257 299 329
#     4   9  17  30  58  92 115 138 202 258 283 325
#     4   9  19  36  61  80 117 161 205 222 287 369
#     4  10  17  32  59  90 110 153 200 245 283 352
#
# _framework density 24.673981999999999
#
# number of rings (size 3 to 8) (size 9 to 14) (size 15 to 20)
#    0.750    2.250    0.000    4.500    0.000    0.000 
#    0.000   12.500    0.000   24.000    9.750    1.750 
#    0.000    0.000    0.000    0.000    0.000    0.000 
#
# Total GULP energy -198323.880278 kJ/mol
# GULP energy per Si atom -12395.242517 kJ/mol
# Density = 2.461782 g / cm^3
# Si number density = 24.673982 Si / 1000 Ang^3
#
#
#
# Elastic Constant Matrix: (Units=GPa)
#
#
# Indices 1 2 3 4 5 6 
#
# 1 125.5336 82.1654 30.2888 0.0000 -31.7125 0.0000
# 2 82.1654 183.0947 59.6593 0.0000 -4.6905 0.0000
# 3 30.2888 59.6593 84.5174 0.0000 1.0978 0.0000
# 4 0.0000 0.0000 0.0000 34.5643 0.0000 21.8848
# 5 -31.7125 -4.6905 1.0978 0.0000 46.5779 0.0000
# 6 0.0000 0.0000 0.0000 21.8848 0.0000 18.3836
#
#
#
# Elastic Compliance Matrix: (Units=1/GPa)
#
#
# Indices 1 2 3 4 5 6 
#
# 1 0.014414 -0.005856 -0.001152 0.000000 0.009251 0.000000
# 2 -0.005856 0.009505 -0.004573 0.000000 -0.002922 0.000000
# 3 -0.001152 -0.004573 0.015493 0.000000 -0.001610 0.000000
# 4 0.000000 0.000000 0.000000 0.117488 0.000000 -0.139864
# 5 0.009251 -0.002922 -0.001610 0.000000 0.027512 0.000000
# 6 0.000000 0.000000 0.000000 -0.139864 0.000000 0.220898
#
#
# Mechanical properties :
#
#
# Convention : Reuss Voigt Hill
#
# Bulk Modulus (GPa) = 61.53608 81.93031 71.73320
# Shear Modulus (GPa) = 11.52371 34.64063 23.08217
#
# Velocity S-wave (km/s) = 2.16345 3.75098 3.06189
# Velocity P-wave (km/s) = 5.58878 7.21367 6.45258
#
# Compressibility (1/GPa) = 0.01625063
#
# Stress axis : x y z
#
# Youngs Moduli (GPa) = 69.37735 105.21171 64.54374
#
# Poissons Ratio (x) = 0.61612 0.07436
# Poissons Ratio (y) = 0.40627 0.29513
# Poissons Ratio (z) = 0.07993 0.48109
#
# Static dielectric constant tensor:
#      x y z
#    x 5.451440 0.000000 -0.047290 
#    y 0.000000 4.407870 0.000000 
#    z -0.047290 0.000000 4.335690 
# 
# 
# High freq. dielectric constant tensor:
#      x y z
#    x 2.034420 0.000000 0.019190 
#    y 0.000000 1.953050 0.000000 
#    z 0.019190 0.000000 1.991180 
# 
# From -- ./inp_files/70611.got.cif
#   From: 2010.06.25/outbox.cif.g09.slc.cpg/sg12_36_cif.got.tgz:70611.got - 2010.06.28 00:19:55.
