data_PCOD8079147
_publ_section_title
;
Structure prediction by ZEFSAII (Michael W. Deem and Ramdas Pophale) SiO2 
 PCOD8079147
Probable space group: C 2/M
;
_chemical_formula_sum "Si O2"
_cell_formula_units_Z 56
_cell_length_a 26.375666
_cell_length_b 24.037952
_cell_length_c 9.416033
_cell_angle_alpha 90.000000
_cell_angle_beta 147.847930
_cell_angle_gamma 90.000000
_cell_volume 3177.004315
_symmetry_space_group_name_H-M "C 2/M"
_symmetry_group_IT_number 12
_symmetry_cell_setting 'monoclinic'
loop_
_space_group_symop_operation_xyz
x,y,z
-x,y,-z
-x,-y,-z
x,-y,z
1/2+x,1/2+y,z
1/2-x,1/2+y,-z
1/2-x,1/2-y,-z
1/2+x,1/2-y,z
loop_
_atom_site_type_symbol
_atom_site_label
_atom_site_fract_x
_atom_site_fract_y
_atom_site_fract_z
Si Si1 0.036494 0.587810 0.837658
Si Si2 0.662608 0.858866 0.373280
Si Si3 0.795186 0.438004 0.956804
Si Si4 0.169892 0.439245 0.635460
Si Si5 0.748888 0.329689 0.694461
Si Si6 0.960591 0.295474 0.258485
Si Si7 0.928110 0.752931 0.720184
O O1 0.995997 0.644460 0.673585
O O2 0.943852 0.552063 0.652205
O O3 0.093067 0.601352 0.117100
O O4 0.102479 0.557664 0.878077
O O5 0.707822 0.894108 0.610939
O O6 0.745712 0.837593 0.463996
O O7 0.604899 0.806655 0.297239
O O8 0.748363 0.500000 0.833314
O O9 0.734026 0.389828 0.734485
O O10 0.805267 0.420565 0.145475
O O11 0.215464 0.500000 0.711630
O O12 0.661264 0.291314 0.527808
O O13 0.845485 0.299420 0.977521
O O14 0.000000 0.274330 0.500000
O O15 0.005728 0.251296 0.259795
O O16 0.000000 0.782556 0.000000
#
# Coordination Sequence:
#
# PCOD8079147 Si02
#       7
#     8   8   8   8   8   8   8
#     4  10  17  29  46  71 103 144 172 205 250 320
#     4  10  20  32  46  72 106 140 171 217 256 305
#     4   9  19  34  48  69 103 137 174 220 263 311
#     4  11  19  28  47  74 102 138 178 212 259 317
#     4  10  23  35  55  79 101 148 182 213 265 319
#     4  10  20  34  51  78 111 139 176 215 253 309
#     4  12  20  37  56  74 110 142 179 221 268 307
#
# _framework density 17.626667999999999
#
# number of rings (size 3 to 8) (size 9 to 14) (size 15 to 20)
#    0.000    2.000    4.286    3.429    0.000    5.143 
#    0.000    0.000    0.000    0.429    0.000    0.000 
#    0.000    2.857    0.000    0.000    0.000    0.000 
#
# Total GULP energy -346936.404252 kJ/mol
# GULP energy per Si atom -12390.585866 kJ/mol
# Density = 1.758655 g / cm^3
# Si number density = 17.626668 Si / 1000 Ang^3
#
#
#
# Elastic Constant Matrix: (Units=GPa)
#
#
# Indices 1 2 3 4 5 6 
#
# 1 68.4486 38.3129 49.5362 0.0000 -21.4324 0.0000
# 2 38.3129 71.7546 47.7394 0.0000 -0.6320 0.0000
# 3 49.5362 47.7394 70.5384 0.0000 -6.9185 0.0000
# 4 0.0000 0.0000 0.0000 16.4269 0.0000 -1.1265
# 5 -21.4324 -0.6320 -6.9185 0.0000 29.2221 0.0000
# 6 0.0000 0.0000 0.0000 -1.1265 0.0000 18.0812
#
#
#
# Elastic Compliance Matrix: (Units=1/GPa)
#
#
# Indices 1 2 3 4 5 6 
#
# 1 0.044001 -0.008082 -0.022812 0.000000 0.026696 0.000000
# 2 -0.008082 0.027211 -0.013579 0.000000 -0.008554 0.000000
# 3 -0.022812 -0.013579 0.038614 0.000000 -0.007883 0.000000
# 4 0.000000 0.000000 0.000000 0.061137 0.000000 0.003809
# 5 0.026696 -0.008554 -0.007883 0.000000 0.051749 0.000000
# 6 0.000000 0.000000 0.000000 0.003809 0.000000 0.055543
#
#
# Mechanical properties :
#
#
# Convention : Reuss Voigt Hill
#
# Bulk Modulus (GPa) = 47.89441 53.54650 50.72045
# Shear Modulus (GPa) = 13.36318 17.75624 15.55971
#
# Velocity S-wave (km/s) = 2.75639 3.17732 2.97431
# Velocity P-wave (km/s) = 6.11235 6.62605 6.37438
#
# Compressibility (1/GPa) = 0.02087926
#
# Stress axis : x y z
#
# Youngs Moduli (GPa) = 22.72659 36.75019 25.89730
#
# Poissons Ratio (x) = 0.29700 0.59078
# Poissons Ratio (y) = 0.18367 0.35167
# Poissons Ratio (z) = 0.51845 0.49905
#
# Static dielectric constant tensor:
#      x y z
#    x 3.339410 0.000000 -0.313750 
#    y 0.000000 3.146490 0.000000 
#    z -0.313750 0.000000 2.940750 
# 
# 
# High freq. dielectric constant tensor:
#      x y z
#    x 1.679040 0.000000 -0.036080 
#    y 0.000000 1.669190 0.000000 
#    z -0.036080 0.000000 1.641340 
# 
# From -- ./inp_files/99705.got.cif
#   From: 2010.06.25/outbox.cif.g09.slc.cpg/sg12_50_cif.got.tgz:99705.got - 2010.06.28 00:19:55.
