data_PCOD8079706
_publ_section_title
;
Structure prediction by ZEFSAII (Michael W. Deem and Ramdas Pophale) SiO2 
 PCOD8079706
Probable space group: C 2/M
;
_chemical_formula_sum "Si O2"
_cell_formula_units_Z 56
_cell_length_a 20.153212
_cell_length_b 16.710818
_cell_length_c 11.565864
_cell_angle_alpha 90.000000
_cell_angle_beta 130.556835
_cell_angle_gamma 90.000000
_cell_volume 2959.356393
_symmetry_space_group_name_H-M "C 2/M"
_symmetry_group_IT_number 12
_symmetry_cell_setting 'monoclinic'
loop_
_space_group_symop_operation_xyz
x,y,z
-x,y,-z
-x,-y,-z
x,-y,z
1/2+x,1/2+y,z
1/2-x,1/2+y,-z
1/2-x,1/2-y,-z
1/2+x,1/2-y,z
loop_
_atom_site_type_symbol
_atom_site_label
_atom_site_fract_x
_atom_site_fract_y
_atom_site_fract_z
Si Si1 0.193856 0.664083 0.151659
Si Si2 0.932055 0.806814 0.019924
Si Si3 0.771629 0.908500 0.796600
Si Si4 0.079090 0.415443 0.176780
Si Si5 0.294390 0.228456 0.425852
Si Si6 0.979875 0.295865 0.708545
Si Si7 0.857461 0.593260 0.139572
O O1 0.168527 0.589863 0.204417
O O2 0.276661 0.708603 0.300889
O O3 0.111969 0.724369 0.069547
O O4 0.202771 0.633032 0.029797
O O5 0.978873 0.786770 0.195478
O O6 0.861070 0.876782 0.956145
O O7 0.000000 0.835640 0.000000
O O8 0.746427 0.857592 0.654642
O O9 0.694871 0.899573 0.802098
O O10 0.784461 0.000000 0.772912
O O11 0.081119 0.500000 0.247510
O O12 0.074395 0.341059 0.254854
O O13 0.000000 0.414872 0.000000
O O14 0.250000 0.250000 0.500000
O O15 0.399984 0.227340 0.534562
O O16 0.052749 0.356710 0.740733
O O17 0.878791 0.500000 0.134808
#
# Coordination Sequence:
#
# PCOD8079706 Si02
#       7
#     8   8   8   8   8   8   8
#     4  10  18  33  56  81 113 151 185 233 281 328
#     4  10  17  34  58  78 106 143 195 237 273 326
#     4  10  24  41  58  81 115 153 189 237 287 338
#     4  11  17  26  49  86 114 144 189 235 285 329
#     4  11  22  38  55  81 119 151 186 231 286 346
#     4  11  19  32  55  84 114 153 182 234 287 336
#     4  10  21  38  58  85 114 146 193 239 284 342
#
# _framework density 18.923034000000001
#
# number of rings (size 3 to 8) (size 9 to 14) (size 15 to 20)
#    0.000    1.571    5.714    1.714    0.000    7.143 
#    0.000    1.429    0.000    1.714    0.000    2.000 
#    0.000    0.000    0.000    0.000    0.000    0.000 
#
# Total GULP energy -346892.660019 kJ/mol
# GULP energy per Si atom -12389.023572 kJ/mol
# Density = 1.887996 g / cm^3
# Si number density = 18.923034 Si / 1000 Ang^3
#
#
#
# Elastic Constant Matrix: (Units=GPa)
#
#
# Indices 1 2 3 4 5 6 
#
# 1 66.8377 40.1474 25.5442 0.0000 5.1029 0.0000
# 2 40.1474 108.0308 56.4756 0.0000 8.1660 0.0000
# 3 25.5442 56.4756 115.4270 0.0000 20.6197 0.0000
# 4 0.0000 0.0000 0.0000 24.8607 0.0000 1.4536
# 5 5.1029 8.1660 20.6197 0.0000 27.5168 0.0000
# 6 0.0000 0.0000 0.0000 1.4536 0.0000 31.1607
#
#
#
# Elastic Compliance Matrix: (Units=1/GPa)
#
#
# Indices 1 2 3 4 5 6 
#
# 1 0.019374 -0.006686 -0.000841 0.000000 -0.000978 0.000000
# 2 -0.006686 0.014770 -0.005987 0.000000 0.001343 0.000000
# 3 -0.000841 -0.005987 0.013201 0.000000 -0.007959 0.000000
# 4 0.000000 0.000000 0.000000 0.040334 0.000000 -0.001882
# 5 -0.000978 0.001343 -0.007959 0.000000 0.042089 0.000000
# 6 0.000000 0.000000 0.000000 -0.001882 0.000000 0.032180
#
#
# Mechanical properties :
#
#
# Convention : Reuss Voigt Hill
#
# Bulk Modulus (GPa) = 49.22267 59.40332 54.31299
# Shear Modulus (GPa) = 25.54321 27.91618 26.72969
#
# Velocity S-wave (km/s) = 3.67801 3.84506 3.76247
# Velocity P-wave (km/s) = 6.64120 7.15352 6.90212
#
# Compressibility (1/GPa) = 0.02031584
#
# Stress axis : x y z
#
# Youngs Moduli (GPa) = 51.61552 67.70708 75.75406
#
# Poissons Ratio (x) = 0.45270 0.06374
# Poissons Ratio (y) = 0.34511 0.45351
# Poissons Ratio (z) = 0.04343 0.40534
#
# Static dielectric constant tensor:
#      x y z
#    x 3.248190 0.000000 0.167010 
#    y 0.000000 3.744190 0.000000 
#    z 0.167010 0.000000 3.464030 
# 
# 
# High freq. dielectric constant tensor:
#      x y z
#    x 1.719920 0.000000 0.004350 
#    y 0.000000 1.729430 0.000000 
#    z 0.004350 0.000000 1.724250 
# 
# From -- ./inp_files/158317.got.cif
#   From: 2010.06.25/outbox.cif.g09.slc.cpg/sg12_80_cif.got.tgz:158317.got - 2010.06.28 00:19:55.
