data_PCOD8079831
_publ_section_title
;
Structure prediction by ZEFSAII (Michael W. Deem and Ramdas Pophale) SiO2 
 PCOD8079831
Probable space group: C 2/M
;
_chemical_formula_sum "Si O2"
_cell_formula_units_Z 40
_cell_length_a 19.953043
_cell_length_b 25.850917
_cell_length_c 5.124324
_cell_angle_alpha 90.000000
_cell_angle_beta 84.186423
_cell_angle_gamma 90.000000
_cell_volume 2629.554747
_symmetry_space_group_name_H-M "C 2/M"
_symmetry_group_IT_number 12
_symmetry_cell_setting 'monoclinic'
loop_
_space_group_symop_operation_xyz
x,y,z
-x,y,-z
-x,-y,-z
x,-y,z
1/2+x,1/2+y,z
1/2-x,1/2+y,-z
1/2-x,1/2-y,-z
1/2+x,1/2-y,z
loop_
_atom_site_type_symbol
_atom_site_label
_atom_site_fract_x
_atom_site_fract_y
_atom_site_fract_z
Si Si1 0.354674 0.224504 0.472264
Si Si2 0.154728 0.138832 0.052842
Si Si3 0.076630 0.754163 0.050990
Si Si4 0.223379 0.168277 0.522673
Si Si5 0.956460 0.058676 0.759807
O O1 0.411312 0.225974 0.676708
O O2 0.302751 0.177475 0.544170
O O3 0.314221 0.277461 0.472062
O O4 0.389758 0.217340 0.179218
O O5 0.107591 0.188869 0.055555
O O6 0.213504 0.142630 0.244819
O O7 0.110913 0.090167 0.157983
O O8 0.191833 0.131582 0.760121
O O9 0.000000 0.761281 0.000000
O O10 0.000000 0.081843 0.500000
O O11 0.935240 0.000000 0.699992
O O12 0.000000 0.061440 0.000000
#
# Coordination Sequence:
#
# PCOD8079831 Si02
#       5
#     8   8   8   8   8
#     4   9  17  28  39  55  79 102 131 166 201 236
#     4  10  18  28  43  59  76 101 140 174 198 232
#     4  10  18  26  39  58  80 106 135 167 198 231
#     4   9  17  28  42  57  74 101 133 170 202 231
#     4  10  20  32  44  59  82 109 136 171 213 247
#
# _framework density 15.2117
#
# number of rings (size 3 to 8) (size 9 to 14) (size 15 to 20)
#    0.000    2.400    0.000    3.600    0.000    8.000 
#    0.000    0.000    0.000    0.000    0.000    0.000 
#    0.000    0.000    0.000    0.000    0.000   70.000 
#
# Total GULP energy -247898.505602 kJ/mol
# GULP energy per Si atom -12394.925280 kJ/mol
# Density = 1.517708 g / cm^3
# Si number density = 15.211700 Si / 1000 Ang^3
#
#
#
# Elastic Constant Matrix: (Units=GPa)
#
#
# Indices 1 2 3 4 5 6 
#
# 1 67.2082 23.9113 33.2346 0.0000 14.4762 0.0000
# 2 23.9113 34.9578 22.7620 0.0000 -4.6076 0.0000
# 3 33.2346 22.7620 113.6830 0.0000 4.6278 0.0000
# 4 0.0000 0.0000 0.0000 20.5202 0.0000 -3.6922
# 5 14.4762 -4.6076 4.6278 0.0000 27.5450 0.0000
# 6 0.0000 0.0000 0.0000 -3.6922 0.0000 23.3980
#
#
#
# Elastic Compliance Matrix: (Units=1/GPa)
#
#
# Indices 1 2 3 4 5 6 
#
# 1 0.026556 -0.018059 -0.003480 0.000000 -0.016392 0.000000
# 2 -0.018059 0.046433 -0.004753 0.000000 0.018056 0.000000
# 3 -0.003480 -0.004753 0.010797 0.000000 -0.000780 0.000000
# 4 0.000000 0.000000 0.000000 0.050157 0.000000 0.007915
# 5 -0.016392 0.018056 -0.000780 0.000000 0.048071 0.000000
# 6 0.000000 0.000000 0.000000 0.007915 0.000000 0.043988
#
#
# Mechanical properties :
#
#
# Convention : Reuss Voigt Hill
#
# Bulk Modulus (GPa) = 32.04892 41.74054 36.89473
# Shear Modulus (GPa) = 17.30193 23.35537 20.32865
#
# Velocity S-wave (km/s) = 3.37621 3.92261 3.65962
# Velocity P-wave (km/s) = 6.02600 6.92930 6.49338
#
# Compressibility (1/GPa) = 0.03120230
#
# Stress axis : x y z
#
# Youngs Moduli (GPa) = 37.65627 21.53653 92.61671
#
# Poissons Ratio (x) = 0.38893 0.32234
# Poissons Ratio (y) = 0.68003 0.44017
# Poissons Ratio (z) = 0.13106 0.10235
#
# Static dielectric constant tensor:
#      x y z
#    x 2.852670 0.000000 0.042200 
#    y 0.000000 2.597170 0.000000 
#    z 0.042200 0.000000 3.315600 
# 
# 
# High freq. dielectric constant tensor:
#      x y z
#    x 1.572210 0.000000 0.008320 
#    y 0.000000 1.519680 0.000000 
#    z 0.008320 0.000000 1.610260 
# 
# From -- ./inp_files/11327.got.cif
#   From: 2010.06.25/outbox.cif.g09.slc.cpg/sg12_6_cif.got.tgz:11327.got - 2010.06.28 00:19:55.
