data_PCOD8079213
_publ_section_title
;
Structure prediction by ZEFSAII (Michael W. Deem and Ramdas Pophale) SiO2 
 PCOD8079213
Probable space group: C 2/M
;
_chemical_formula_sum "Si O2"
_cell_formula_units_Z 64
_cell_length_a 25.323546
_cell_length_b 9.134526
_cell_length_c 23.565944
_cell_angle_alpha 90.000000
_cell_angle_beta 133.904289
_cell_angle_gamma 90.000000
_cell_volume 3927.614743
_symmetry_space_group_name_H-M "C 2/M"
_symmetry_group_IT_number 12
_symmetry_cell_setting 'monoclinic'
loop_
_space_group_symop_operation_xyz
x,y,z
-x,y,-z
-x,-y,-z
x,-y,z
1/2+x,1/2+y,z
1/2-x,1/2+y,-z
1/2-x,1/2-y,-z
1/2+x,1/2-y,z
loop_
_atom_site_type_symbol
_atom_site_label
_atom_site_fract_x
_atom_site_fract_y
_atom_site_fract_z
Si Si1 0.831598 0.673361 0.338690
Si Si2 0.056766 0.831276 0.659268
Si Si3 0.695501 0.173247 0.195297
Si Si4 0.224824 0.326330 0.089963
Si Si5 0.030081 0.326735 0.081459
Si Si6 0.913148 0.673788 0.084163
Si Si7 0.945102 0.338612 0.511551
Si Si8 0.115787 0.831099 0.825035
O O1 0.828603 0.500000 0.326720
O O2 0.878976 0.742117 0.323230
O O3 0.751006 0.743239 0.278420
O O4 0.866963 0.710494 0.426830
O O5 0.064314 0.810774 0.732076
O O6 0.975869 0.774077 0.581225
O O7 0.064850 0.000000 0.647450
O O8 0.708397 0.230745 0.140965
O O9 0.614093 0.218915 0.153925
O O10 0.708476 0.000000 0.209773
O O11 0.225243 0.500000 0.092569
O O12 0.303141 0.266776 0.127153
O O13 0.162060 0.269653 0.000702
O O14 0.022600 0.500000 0.071907
O O15 0.981174 0.268841 0.097159
O O16 0.000000 0.259256 0.000000
O O17 0.913540 0.500000 0.089774
O O18 0.921523 0.741805 0.152371
O O19 0.939222 0.500000 0.535063
O O20 0.000000 0.344722 0.500000
O O21 0.121517 0.000000 0.847052
#
# Coordination Sequence:
#
# PCOD8079213 Si02
#       8
#     8   8   8   8   8   8   8   8
#     4  10  19  30  44  67  99 127 152 187 234 284
#     4  10  18  29  47  68  92 125 161 191 226 276
#     4  10  17  29  50  71  92 123 159 197 235 274
#     4   9  16  29  47  66  92 122 157 194 230 271
#     4   9  16  29  51  72  90 117 158 204 243 274
#     4  10  19  31  49  70  89 121 165 199 231 276
#     4   8  16  29  43  63  95 127 150 182 231 282
#     4  10  20  32  44  65  98 129 155 189 232 276
#
# _framework density 16.294875999999999
#
# number of rings (size 3 to 8) (size 9 to 14) (size 15 to 20)
#    0.000    2.500    2.500    1.875    0.000    3.750 
#    0.000    1.250    0.000    0.750    0.000    0.875 
#    0.000    0.000    0.000    0.000    0.000    0.000 
#
# Total GULP energy -396722.860643 kJ/mol
# GULP energy per Si atom -12397.589395 kJ/mol
# Density = 1.625779 g / cm^3
# Si number density = 16.294876 Si / 1000 Ang^3
#
#
#
# Elastic Constant Matrix: (Units=GPa)
#
#
# Indices 1 2 3 4 5 6 
#
# 1 101.7634 32.3022 56.1421 0.0000 0.9258 0.0000
# 2 32.3022 54.9840 51.0822 0.0000 3.1414 0.0000
# 3 56.1421 51.0822 129.7436 0.0000 10.8023 0.0000
# 4 0.0000 0.0000 0.0000 22.1606 0.0000 -3.4915
# 5 0.9258 3.1414 10.8023 0.0000 16.5409 0.0000
# 6 0.0000 0.0000 0.0000 -3.4915 0.0000 16.8662
#
#
#
# Elastic Compliance Matrix: (Units=1/GPa)
#
#
# Indices 1 2 3 4 5 6 
#
# 1 0.013562 -0.003871 -0.004592 0.000000 0.002975 0.000000
# 2 -0.003871 0.029846 -0.010175 0.000000 0.001193 0.000000
# 3 -0.004592 -0.010175 0.014296 0.000000 -0.007147 0.000000
# 4 0.000000 0.000000 0.000000 0.046646 0.000000 0.009656
# 5 0.002975 0.001193 -0.007147 0.000000 0.064730 0.000000
# 6 0.000000 0.000000 0.000000 0.009656 0.000000 0.061289
#
#
# Mechanical properties :
#
#
# Convention : Reuss Voigt Hill
#
# Bulk Modulus (GPa) = 48.95460 62.83822 55.89641
# Shear Modulus (GPa) = 18.21789 20.91119 19.56454
#
# Velocity S-wave (km/s) = 3.34730 3.58620 3.46881
# Velocity P-wave (km/s) = 6.71173 7.46958 7.10078
#
# Compressibility (1/GPa) = 0.02042709
#
# Stress axis : x y z
#
# Youngs Moduli (GPa) = 73.73648 33.50484 69.95113
#
# Poissons Ratio (x) = 0.12971 0.32121
# Poissons Ratio (y) = 0.28545 0.71177
# Poissons Ratio (z) = 0.33859 0.34092
#
# Static dielectric constant tensor:
#      x y z
#    x 2.908440 0.000000 0.155230 
#    y 0.000000 2.869020 0.000000 
#    z 0.155230 0.000000 3.371190 
# 
# 
# High freq. dielectric constant tensor:
#      x y z
#    x 1.591290 0.000000 0.007780 
#    y 0.000000 1.606170 0.000000 
#    z 0.007780 0.000000 1.634970 
# 
# From -- ./inp_files/348592.got.cif
#   From: 2010.06.25/outbox.cif.g09.slc.cpg/sg12_175_cif.got.tgz:348592.got - 2010.06.28 00:19:55.
