data_PCOD8079042
_publ_section_title
;
Structure prediction by ZEFSAII (Michael W. Deem and Ramdas Pophale) SiO2 
 PCOD8079042
Probable space group: C 2/M
;
_chemical_formula_sum "Si O2"
_cell_formula_units_Z 48
_cell_length_a 9.999783
_cell_length_b 18.529553
_cell_length_c 19.317599
_cell_angle_alpha 90.000000
_cell_angle_beta 133.232912
_cell_angle_gamma 90.000000
_cell_volume 2607.852965
_symmetry_space_group_name_H-M "C 2/M"
_symmetry_group_IT_number 12
_symmetry_cell_setting 'monoclinic'
loop_
_space_group_symop_operation_xyz
x,y,z
-x,y,-z
-x,-y,-z
x,-y,z
1/2+x,1/2+y,z
1/2-x,1/2+y,-z
1/2-x,1/2-y,-z
1/2+x,1/2-y,z
loop_
_atom_site_type_symbol
_atom_site_label
_atom_site_fract_x
_atom_site_fract_y
_atom_site_fract_z
Si Si1 0.878016 0.080746 0.173153
Si Si2 0.193666 0.578552 0.702911
Si Si3 0.567337 0.710006 0.718206
Si Si4 0.250790 0.837867 0.149703
Si Si5 0.830431 0.170538 0.028365
Si Si6 0.652500 0.783487 0.608396
O O1 0.770010 0.120203 0.071483
O O2 0.089651 0.074514 0.229083
O O3 0.863061 0.129497 0.237182
O O4 0.796892 0.000000 0.156848
O O5 0.103960 0.500000 0.657631
O O6 0.153483 0.601987 0.767945
O O7 0.104742 0.636096 0.618914
O O8 0.637873 0.763133 0.803740
O O9 0.650705 0.728849 0.672852
O O10 0.347225 0.716745 0.639034
O O11 0.048255 0.821087 0.105845
O O12 0.245255 0.866544 0.069041
O O13 0.750000 0.250000 0.000000
O O14 0.500000 0.758480 0.500000
#
# Coordination Sequence:
#
# PCOD8079042 Si02
#       6
#     8   8   8   8   8   8
#     4   9  17  30  48  71  98 132 169 201 241 291
#     4   8  16  30  47  71 102 129 159 202 254 300
#     4  10  19  34  53  74 101 133 164 206 252 297
#     4   9  18  28  47  74  97 136 168 202 246 290
#     4  10  17  28  47  73 101 132 172 208 238 283
#     4  10  20  33  54  80  99 125 166 209 254 301
#
# _framework density 18.405944999999999
#
# number of rings (size 3 to 8) (size 9 to 14) (size 15 to 20)
#    0.000    2.667    1.667    1.500    0.000    1.000 
#    0.000    3.333    0.000    6.500    0.000    0.000 
#    0.000    0.000    0.000    0.000    0.000    0.000 
#
# Total GULP energy -297441.901276 kJ/mol
# GULP energy per Si atom -12393.412553 kJ/mol
# Density = 1.836405 g / cm^3
# Si number density = 18.405945 Si / 1000 Ang^3
#
#
#
# Elastic Constant Matrix: (Units=GPa)
#
#
# Indices 1 2 3 4 5 6 
#
# 1 29.6559 16.1223 6.2205 0.0000 -12.5236 0.0000
# 2 16.1223 127.9238 23.6228 0.0000 -17.4610 0.0000
# 3 6.2205 23.6228 72.3994 0.0000 -13.3768 0.0000
# 4 0.0000 0.0000 0.0000 17.2679 0.0000 0.4345
# 5 -12.5236 -17.4610 -13.3768 0.0000 21.1974 0.0000
# 6 0.0000 0.0000 0.0000 0.4345 0.0000 17.0679
#
#
#
# Elastic Compliance Matrix: (Units=1/GPa)
#
#
# Indices 1 2 3 4 5 6 
#
# 1 0.045718 -0.002527 0.001701 0.000000 0.026002 0.000000
# 2 -0.002527 0.009144 -0.001868 0.000000 0.004860 0.000000
# 3 0.001701 -0.001868 0.016048 0.000000 0.009593 0.000000
# 4 0.000000 0.000000 0.000000 0.057948 0.000000 -0.001475
# 5 0.026002 0.004860 0.009593 0.000000 0.072595 0.000000
# 6 0.000000 0.000000 0.000000 -0.001475 0.000000 0.058627
#
#
# Mechanical properties :
#
#
# Convention : Reuss Voigt Hill
#
# Bulk Modulus (GPa) = 15.26231 35.76782 25.51507
# Shear Modulus (GPa) = 17.40283 23.37419 20.38851
#
# Velocity S-wave (km/s) = 3.07824 3.56747 3.33184
# Velocity P-wave (km/s) = 4.57647 6.03689 5.35668
#
# Compressibility (1/GPa) = 0.06552087
#
# Stress axis : x y z
#
# Youngs Moduli (GPa) = 21.87344 109.36078 62.31204
#
# Poissons Ratio (x) = 0.27632 -0.10597
# Poissons Ratio (y) = 0.05527 0.11643
# Poissons Ratio (z) = -0.03720 0.20434
#
# Static dielectric constant tensor:
#      x y z
#    x 3.136590 0.000000 -0.193640 
#    y 0.000000 3.713490 0.000000 
#    z -0.193640 0.000000 3.384970 
# 
# 
# High freq. dielectric constant tensor:
#      x y z
#    x 1.683110 0.000000 -0.016130 
#    y 0.000000 1.704230 0.000000 
#    z -0.016130 0.000000 1.708830 
# 
# From -- ./inp_files/205332.got.cif
#   From: 2010.06.25/outbox.cif.g09.slc.cpg/sg12_103_cif.got.tgz:205332.got - 2010.06.28 00:19:55.
