data_PCOD8079198
_publ_section_title
;
Structure prediction by ZEFSAII (Michael W. Deem and Ramdas Pophale) SiO2 
 PCOD8079198
Probable space group: C 2/M
;
_chemical_formula_sum "Si O2"
_cell_formula_units_Z 56
_cell_length_a 19.967907
_cell_length_b 28.089814
_cell_length_c 10.003188
_cell_angle_alpha 90.000000
_cell_angle_beta 144.999083
_cell_angle_gamma 90.000000
_cell_volume 3218.259557
_symmetry_space_group_name_H-M "C 2/M"
_symmetry_group_IT_number 12
_symmetry_cell_setting 'monoclinic'
loop_
_space_group_symop_operation_xyz
x,y,z
-x,y,-z
-x,-y,-z
x,-y,z
1/2+x,1/2+y,z
1/2-x,1/2+y,-z
1/2-x,1/2-y,-z
1/2+x,1/2-y,z
loop_
_atom_site_type_symbol
_atom_site_label
_atom_site_fract_x
_atom_site_fract_y
_atom_site_fract_z
Si Si1 0.749216 0.852725 0.182369
Si Si2 0.470764 0.709074 0.600707
Si Si3 0.369884 0.209733 0.819830
Si Si4 0.403014 0.447475 0.152346
Si Si5 0.198182 0.848586 0.036675
Si Si6 0.310018 0.788496 0.435032
Si Si7 0.344081 0.551537 0.365148
O O1 0.868863 0.829941 0.431941
O O2 0.638374 0.829376 0.075415
O O3 0.748940 0.907411 0.231648
O O4 0.740326 0.846865 0.008121
O O5 0.500000 0.726063 0.500000
O O6 0.427384 0.756638 0.606038
O O7 0.583631 0.685043 0.853276
O O8 0.312945 0.189606 0.588908
O O9 0.304084 0.255996 0.765497
O O10 0.500000 0.224495 0.000000
O O11 0.361565 0.500000 0.030389
O O12 0.541901 0.441743 0.354561
O O13 0.384444 0.444763 0.279122
O O14 0.334662 0.402927 0.974495
O O15 0.294413 0.830000 0.299689
O O16 0.286350 0.500000 0.300158
#
# Coordination Sequence:
#
# PCOD8079198 Si02
#       7
#     8   8   8   8   8   8   8
#     4   9  17  29  47  70  92 124 156 187 231 275
#     4   9  17  28  45  67  96 120 153 193 231 270
#     4  10  21  36  47  60  91 126 165 196 223 273
#     4   8  13  22  43  73 101 123 143 180 239 290
#     4  10  17  29  49  73  99 120 149 196 236 275
#     4  10  21  32  47  68  89 125 163 188 235 281
#     4   8  12  22  43  71  97 120 150 185 228 284
#
# _framework density 17.40071
#
# number of rings (size 3 to 8) (size 9 to 14) (size 15 to 20)
#    0.000    2.857    1.429    1.714    0.000    6.286 
#    0.000    0.000    0.000    1.286    0.000    2.000 
#    0.000    5.143    0.000    0.000    0.000    0.000 
#
# Total GULP energy -346914.854694 kJ/mol
# GULP energy per Si atom -12389.816239 kJ/mol
# Density = 1.736110 g / cm^3
# Si number density = 17.400710 Si / 1000 Ang^3
#
#
#
# Elastic Constant Matrix: (Units=GPa)
#
#
# Indices 1 2 3 4 5 6 
#
# 1 63.4949 35.6699 9.0849 0.0000 2.0955 0.0000
# 2 35.6699 111.8245 34.3268 0.0000 -8.5316 0.0000
# 3 9.0849 34.3268 27.3946 0.0000 -10.2818 0.0000
# 4 0.0000 0.0000 0.0000 19.1180 0.0000 3.6339
# 5 2.0955 -8.5316 -10.2818 0.0000 24.0495 0.0000
# 6 0.0000 0.0000 0.0000 3.6339 0.0000 10.5524
#
#
#
# Elastic Compliance Matrix: (Units=1/GPa)
#
#
# Indices 1 2 3 4 5 6 
#
# 1 0.019562 -0.006658 0.000392 0.000000 -0.003899 0.000000
# 2 -0.006658 0.016999 -0.019787 0.000000 -0.001849 0.000000
# 3 0.000392 -0.019787 0.069705 0.000000 0.022747 0.000000
# 4 0.000000 0.000000 0.000000 0.055970 0.000000 -0.019274
# 5 -0.003899 -0.001849 0.022747 0.000000 0.050990 0.000000
# 6 0.000000 0.000000 0.000000 -0.019274 0.000000 0.101402
#
#
# Mechanical properties :
#
#
# Convention : Reuss Voigt Hill
#
# Bulk Modulus (GPa) = 18.46355 40.09744 29.28050
# Shear Modulus (GPa) = 12.99416 18.98615 15.99016
#
# Velocity S-wave (km/s) = 2.73566 3.30678 3.03469
# Velocity P-wave (km/s) = 4.54007 6.13786 5.39841
#
# Compressibility (1/GPa) = 0.05416077
#
# Stress axis : x y z
#
# Youngs Moduli (GPa) = 51.11955 58.82654 14.34612
#
# Poissons Ratio (x) = 0.39164 -0.00562
# Poissons Ratio (y) = 0.34033 0.28386
# Poissons Ratio (z) = -0.02002 1.16399
#
# Static dielectric constant tensor:
#      x y z
#    x 3.160620 0.000000 -0.030070 
#    y 0.000000 3.502950 0.000000 
#    z -0.030070 0.000000 2.885030 
# 
# 
# High freq. dielectric constant tensor:
#      x y z
#    x 1.647060 0.000000 -0.004230 
#    y 0.000000 1.666500 0.000000 
#    z -0.004230 0.000000 1.637180 
# 
# From -- ./inp_files/54140.got.cif
#   From: 2010.06.25/outbox.cif.g09.slc.cpg/sg12_28_cif.got.tgz:54140.got - 2010.06.28 00:19:55.
