data_PCOD8079922
_publ_section_title
;
Structure prediction by ZEFSAII (Michael W. Deem and Ramdas Pophale) SiO2 
 PCOD8079922
Probable space group: C 2/M
;
_chemical_formula_sum "Si O2"
_cell_formula_units_Z 64
_cell_length_a 27.703076
_cell_length_b 9.058373
_cell_length_c 30.809215
_cell_angle_alpha 90.000000
_cell_angle_beta 148.183338
_cell_angle_gamma 90.000000
_cell_volume 4076.023128
_symmetry_space_group_name_H-M "C 2/M"
_symmetry_group_IT_number 12
_symmetry_cell_setting 'monoclinic'
loop_
_space_group_symop_operation_xyz
x,y,z
-x,y,-z
-x,-y,-z
x,-y,z
1/2+x,1/2+y,z
1/2-x,1/2+y,-z
1/2-x,1/2-y,-z
1/2+x,1/2-y,z
loop_
_atom_site_type_symbol
_atom_site_label
_atom_site_fract_x
_atom_site_fract_y
_atom_site_fract_z
Si Si1 0.570592 0.173224 0.149018
Si Si2 0.637376 0.828037 0.031166
Si Si3 0.739260 0.333334 0.558282
Si Si4 0.778785 0.826257 0.065957
Si Si5 0.606498 0.666359 0.091859
Si Si6 0.610751 0.833925 0.402055
Si Si7 0.983224 0.172136 0.243437
Si Si8 0.127626 0.173577 0.280213
O O1 0.624284 0.238238 0.148580
O O2 0.610403 0.251856 0.221294
O O3 0.589577 0.000000 0.166262
O O4 0.462963 0.208881 0.063838
O O5 0.710191 0.775219 0.051255
O O6 0.659652 0.739560 0.092170
O O7 0.646614 0.000000 0.049154
O O8 0.717555 0.500000 0.556772
O O9 0.645633 0.256665 0.470581
O O10 0.811324 0.333641 0.574564
O O11 0.779351 0.240715 0.629027
O O12 0.880281 0.774853 0.156308
O O13 0.774179 0.000000 0.054921
O O14 0.750000 0.750000 0.000000
O O15 0.642514 0.500000 0.126391
O O16 0.500000 0.667691 0.000000
O O17 0.519866 0.758642 0.313427
O O18 0.587168 0.000000 0.398593
O O19 0.042074 0.210748 0.245841
O O20 0.989421 0.000000 0.259137
O O21 0.140829 0.000000 0.284231
#
# Coordination Sequence:
#
# PCOD8079922 Si02
#       8
#     8   8   8   8   8   8   8   8
#     4  10  18  28  43  62  85 112 141 174 216 261
#     4   9  18  31  45  61  83 112 145 181 217 253
#     4   9  16  26  40  58  81 109 139 171 211 256
#     4  10  20  32  45  62  86 116 150 184 216 249
#     4   9  17  29  45  63  81 104 137 176 217 260
#     4   9  16  26  41  59  79 106 141 178 212 249
#     4   9  18  30  42  58  83 116 149 180 213 249
#     4  10  18  27  40  60  87 115 144 176 210 251
#
# _framework density 15.701579000000001
#
# number of rings (size 3 to 8) (size 9 to 14) (size 15 to 20)
#    0.000    2.625    0.000    2.625    0.000    6.500 
#    0.000    0.000    0.000    0.000    0.000    0.000 
#    0.000    1.000    0.000   10.750    0.000    5.250 
#
# Total GULP energy -396823.834697 kJ/mol
# GULP energy per Si atom -12400.744834 kJ/mol
# Density = 1.566584 g / cm^3
# Si number density = 15.701579 Si / 1000 Ang^3
#
#
#
# Elastic Constant Matrix: (Units=GPa)
#
#
# Indices 1 2 3 4 5 6 
#
# 1 84.0651 46.8701 56.5852 0.0001 -15.9183 0.0001
# 2 46.8701 101.9799 66.6327 0.0001 -17.1056 0.0022
# 3 56.5852 66.6327 124.8453 -0.0001 -16.7807 0.0001
# 4 0.0001 0.0001 -0.0001 30.8578 0.0000 -9.0327
# 5 -15.9183 -17.1056 -16.7807 0.0000 19.3704 0.0000
# 6 0.0001 0.0022 0.0001 -9.0327 0.0000 21.2733
#
#
#
# Elastic Compliance Matrix: (Units=1/GPa)
#
#
# Indices 1 2 3 4 5 6 
#
# 1 0.019306 -0.003924 -0.005647 0.000000 0.007508 0.000000
# 2 -0.003924 0.016788 -0.006363 -0.000001 0.006088 -0.000002
# 3 -0.005647 -0.006363 0.014245 0.000000 0.002081 0.000001
# 4 0.000000 -0.000001 0.000000 0.037006 0.000000 0.015713
# 5 0.007508 0.006088 0.002081 0.000000 0.064974 -0.000001
# 6 0.000000 -0.000002 0.000001 0.015713 -0.000001 0.053679
#
#
# Mechanical properties :
#
#
# Convention : Reuss Voigt Hill
#
# Bulk Modulus (GPa) = 54.13877 72.34069 63.23973
# Shear Modulus (GPa) = 20.48973 23.68713 22.08843
#
# Velocity S-wave (km/s) = 3.61632 3.88826 3.75476
# Velocity P-wave (km/s) = 7.21053 8.14434 7.69162
#
# Compressibility (1/GPa) = 0.01847105
#
# Stress axis : x y z
#
# Youngs Moduli (GPa) = 51.79722 59.56502 70.19881
#
# Poissons Ratio (x) = 0.23374 0.39639
# Poissons Ratio (y) = 0.20326 0.44670
# Poissons Ratio (z) = 0.29248 0.37904
#
# Static dielectric constant tensor:
#      x y z
#    x 2.774010 0.000000 -0.097180 
#    y 0.000000 3.143910 0.000000 
#    z -0.097180 0.000000 2.984970 
# 
# 
# High freq. dielectric constant tensor:
#      x y z
#    x 1.561270 0.000000 -0.019880 
#    y 0.000000 1.617220 0.000000 
#    z -0.019880 0.000000 1.594070 
# 
# From -- ./inp_files/384579.got.cif
#   From: 2010.06.25/outbox.cif.g09.slc.cpg/sg12_193_cif.got.tgz:384579.got - 2010.06.28 00:19:55.
