data_PCOD8079006
_publ_section_title
;
Structure prediction by ZEFSAII (Michael W. Deem and Ramdas Pophale) SiO2 
 PCOD8079006
Probable space group: C 2/M
;
_chemical_formula_sum "Si O2"
_cell_formula_units_Z 56
_cell_length_a 25.536328
_cell_length_b 8.660546
_cell_length_c 16.995171
_cell_angle_alpha 90.000000
_cell_angle_beta 120.976682
_cell_angle_gamma 90.000000
_cell_volume 3222.559956
_symmetry_space_group_name_H-M "C 2/M"
_symmetry_group_IT_number 12
_symmetry_cell_setting 'monoclinic'
loop_
_space_group_symop_operation_xyz
x,y,z
-x,y,-z
-x,-y,-z
x,-y,z
1/2+x,1/2+y,z
1/2-x,1/2+y,-z
1/2-x,1/2-y,-z
1/2+x,1/2-y,z
loop_
_atom_site_type_symbol
_atom_site_label
_atom_site_fract_x
_atom_site_fract_y
_atom_site_fract_z
Si Si1 0.694515 0.680533 0.795127
Si Si2 0.533386 0.818620 0.416539
Si Si3 0.169539 0.683223 0.093014
Si Si4 0.554645 0.815950 0.097656
Si Si5 0.585355 0.319857 0.601679
Si Si6 0.007373 0.683314 0.225213
Si Si7 0.629426 0.182912 0.892628
O O1 0.693326 0.500000 0.812622
O O2 0.763066 0.736799 0.827565
O O3 0.651693 0.721513 0.687719
O O4 0.672933 0.764828 0.856543
O O5 0.464861 0.778008 0.390333
O O6 0.583150 0.728421 0.508027
O O7 0.541490 0.766373 0.331994
O O8 0.543584 0.000000 0.434857
O O9 0.164581 0.500000 0.088117
O O10 0.119110 0.749026 0.115002
O O11 0.155968 0.747578 0.995236
O O12 0.544602 0.753002 0.178672
O O13 0.554435 0.000000 0.097219
O O14 0.500000 0.755012 0.000000
O O15 0.570082 0.500000 0.598813
O O16 0.002903 0.500000 0.217602
O O17 0.938664 0.751127 0.171709
O O18 0.627382 0.000000 0.892240
#
# Coordination Sequence:
#
# PCOD8079006 Si02
#       7
#     8   8   8   8   8   8   8
#     4  10  20  31  43  66  97 126 153 183 221 273
#     4  10  18  29  46  68  92 113 145 191 233 268
#     4   9  17  28  44  66  94 125 155 185 222 266
#     4   9  14  24  43  67  93 119 147 187 229 261
#     4  10  19  30  44  63  91 122 153 182 220 274
#     4   9  16  25  42  70  96 114 142 187 233 267
#     4  10  17  28  46  69  95 122 151 184 223 270
#
# _framework density 17.377490999999999
#
# number of rings (size 3 to 8) (size 9 to 14) (size 15 to 20)
#    0.000    2.429    2.857    2.143    0.000    0.571 
#    0.000    0.000    0.000    0.857    0.000    7.000 
#    0.000    0.000    0.000    0.000    0.000    1.143 
#
# Total GULP energy -347085.738085 kJ/mol
# GULP energy per Si atom -12395.919217 kJ/mol
# Density = 1.733794 g / cm^3
# Si number density = 17.377491 Si / 1000 Ang^3
#
#
#
# Elastic Constant Matrix: (Units=GPa)
#
#
# Indices 1 2 3 4 5 6 
#
# 1 132.5441 6.7571 78.1396 0.0000 -1.4414 0.0000
# 2 6.7571 14.3415 14.4014 0.0000 0.3166 0.0000
# 3 78.1396 14.4014 152.0025 0.0000 -7.0762 0.0000
# 4 0.0000 0.0000 0.0000 13.7114 0.0000 1.3770
# 5 -1.4414 0.3166 -7.0762 0.0000 29.7402 0.0000
# 6 0.0000 0.0000 0.0000 1.3770 0.0000 11.9554
#
#
#
# Elastic Compliance Matrix: (Units=1/GPa)
#
#
# Indices 1 2 3 4 5 6 
#
# 1 0.010849 0.000603 -0.005673 0.000000 -0.000830 0.000000
# 2 0.000603 0.077290 -0.007756 0.000000 -0.002639 0.000000
# 3 -0.005673 -0.007756 0.010336 0.000000 0.002267 0.000000
# 4 0.000000 0.000000 0.000000 0.073786 0.000000 -0.008498
# 5 -0.000830 -0.002639 0.002267 0.000000 0.034152 0.000000
# 6 0.000000 0.000000 0.000000 -0.008498 0.000000 0.084623
#
#
# Mechanical properties :
#
#
# Convention : Reuss Voigt Hill
#
# Bulk Modulus (GPa) = 13.73179 55.27603 34.50391
# Shear Modulus (GPa) = 14.66443 24.38740 19.52591
#
# Velocity S-wave (km/s) = 2.90810 3.75025 3.35570
# Velocity P-wave (km/s) = 4.38124 7.11551 5.90872
#
# Compressibility (1/GPa) = 0.07282372
#
# Stress axis : x y z
#
# Youngs Moduli (GPa) = 92.17108 12.93830 96.75322
#
# Poissons Ratio (x) = -0.00781 0.54890
# Poissons Ratio (y) = -0.05562 0.75040
# Poissons Ratio (z) = 0.52290 0.10035
#
# Static dielectric constant tensor:
#      x y z
#    x 3.320000 0.000000 -0.041360 
#    y 0.000000 2.843980 0.000000 
#    z -0.041360 0.000000 3.588640 
# 
# 
# High freq. dielectric constant tensor:
#      x y z
#    x 1.651680 0.000000 -0.003220 
#    y 0.000000 1.632630 0.000000 
#    z -0.003220 0.000000 1.680110 
# 
# From -- ./inp_files/291678.got.cif
#   From: 2010.06.25/outbox.cif.g09.slc.cpg/sg12_146_cif.got.tgz:291678.got - 2010.06.28 00:19:55.
