data_PCOD8079202
_publ_section_title
;
Structure prediction by ZEFSAII (Michael W. Deem and Ramdas Pophale) SiO2 
 PCOD8079202
Probable space group: C 2/M
;
_chemical_formula_sum "Si O2"
_cell_formula_units_Z 56
_cell_length_a 26.229592
_cell_length_b 20.759840
_cell_length_c 5.370189
_cell_angle_alpha 90.000000
_cell_angle_beta 78.185841
_cell_angle_gamma 90.000000
_cell_volume 2862.243206
_symmetry_space_group_name_H-M "C 2/M"
_symmetry_group_IT_number 12
_symmetry_cell_setting 'monoclinic'
loop_
_space_group_symop_operation_xyz
x,y,z
-x,y,-z
-x,-y,-z
x,-y,z
1/2+x,1/2+y,z
1/2-x,1/2+y,-z
1/2-x,1/2-y,-z
1/2+x,1/2-y,z
loop_
_atom_site_type_symbol
_atom_site_label
_atom_site_fract_x
_atom_site_fract_y
_atom_site_fract_z
Si Si1 0.313605 0.625658 0.936398
Si Si2 0.968767 0.348752 0.281233
Si Si3 0.137822 0.424569 0.612181
Si Si4 0.856631 0.860154 0.393372
Si Si5 0.968932 0.198683 0.281068
Si Si6 0.888302 0.000000 0.361702
Si Si7 0.800800 0.424593 0.949198
Si Si8 0.115322 0.000000 0.134673
O O1 0.328602 0.666350 0.672083
O O2 0.347582 0.561239 0.902423
O O3 0.328602 0.666349 0.170722
O O4 0.252584 0.614013 0.997415
O O5 0.916150 0.388003 0.333851
O O6 0.954636 0.273647 0.295363
O O7 0.000000 0.367454 0.500000
O O8 0.000000 0.367454 0.000000
O O9 0.125842 0.500000 0.624161
O O10 0.168515 0.404562 0.331430
O O11 0.168514 0.404562 0.831548
O O12 0.916932 0.842626 0.333068
O O13 0.850364 0.938008 0.399641
O O14 0.000000 0.179933 0.500000
O O15 0.000000 0.179932 0.000000
O O16 0.921919 0.000000 0.583403
O O17 0.921919 0.000000 0.072768
O O18 0.788646 0.500000 0.961354
#
# Coordination Sequence:
#
# PCOD8079202 Si02
#       8
#     8   8   8   8   8   4   8   4
#     4  10  17  29  49  74 105 138 176 211 246 302
#     4  10  21  38  60  79 100 138 180 215 258 317
#     4  10  21  34  53  83 113 137 165 214 268 306
#     4  10  19  31  51  76 103 134 179 220 256 304
#     4  10  21  38  57  76  99 134 181 224 265 314
#     4   8  16  26  42  69  96 124 158 207 254 290
#     4  10  19  32  51  79 115 145 171 206 255 312
#     4   8  14  24  40  65  94 126 162 205 232 280
#
# _framework density 19.565075
#
# number of rings (size 3 to 8) (size 9 to 14) (size 15 to 20)
#    0.000    2.286    0.714    2.571    0.000    0.571 
#    0.000    0.714    0.000    5.143    0.000    0.000 
#    0.000    0.000    0.000    0.000    0.000    0.000 
#
# Total GULP energy -346881.072045 kJ/mol
# GULP energy per Si atom -12388.609716 kJ/mol
# Density = 1.952054 g / cm^3
# Si number density = 19.565075 Si / 1000 Ang^3
#
#
#
# Elastic Constant Matrix: (Units=GPa)
#
#
# Indices 1 2 3 4 5 6 
#
# 1 149.5849 37.6739 96.9061 0.0000 5.1847 0.0000
# 2 37.6739 25.7068 27.1507 0.0000 -3.6929 0.0000
# 3 96.9061 27.1507 255.0444 0.0000 31.8250 0.0000
# 4 0.0000 0.0000 0.0000 14.5783 0.0000 -17.0584
# 5 5.1847 -3.6929 31.8250 0.0000 43.0752 0.0000
# 6 0.0000 0.0000 0.0000 -17.0584 0.0000 63.1878
#
#
#
# Elastic Compliance Matrix: (Units=1/GPa)
#
#
# Indices 1 2 3 4 5 6 
#
# 1 0.012517 -0.015174 -0.003073 0.000000 -0.000537 0.000000
# 2 -0.015174 0.064834 -0.002267 0.000000 0.009060 0.000000
# 3 -0.003073 -0.002267 0.005847 0.000000 -0.004144 0.000000
# 4 0.000000 0.000000 0.000000 0.100270 0.000000 0.027069
# 5 -0.000537 0.009060 -0.004144 0.000000 0.027118 0.000000
# 6 0.000000 0.000000 0.000000 0.027069 0.000000 0.023134
#
#
# Mechanical properties :
#
#
# Convention : Reuss Voigt Hill
#
# Bulk Modulus (GPa) = 23.71424 83.75527 53.73475
# Shear Modulus (GPa) = 17.31272 42.07529 29.69401
#
# Velocity S-wave (km/s) = 2.97792 4.64241 3.90000
# Velocity P-wave (km/s) = 4.89602 8.46389 6.91406
#
# Compressibility (1/GPa) = 0.04216876
#
# Stress axis : x y z
#
# Youngs Moduli (GPa) = 79.89380 15.42395 171.02494
#
# Poissons Ratio (x) = 0.23405 0.52563
# Poissons Ratio (y) = 1.21235 0.38766
# Poissons Ratio (z) = 0.24555 0.03496
#
# Static dielectric constant tensor:
#      x y z
#    x 3.375890 0.000000 0.527080 
#    y 0.000000 3.211720 0.000000 
#    z 0.527080 0.000000 4.877840 
# 
# 
# High freq. dielectric constant tensor:
#      x y z
#    x 1.745420 0.000000 0.020360 
#    y 0.000000 1.722490 0.000000 
#    z 0.020360 0.000000 1.803450 
# 
# From -- ./inp_files/21945.got.cif
#   From: 2010.06.25/outbox.cif.g09.slc.cpg/sg12_11_cif.got.tgz:21945.got - 2010.06.28 00:19:55.
