data_PCOD8079931
_publ_section_title
;
Structure prediction by ZEFSAII (Michael W. Deem and Ramdas Pophale) SiO2 
 PCOD8079931
Probable space group: C 2/M
;
_chemical_formula_sum "Si O2"
_cell_formula_units_Z 56
_cell_length_a 27.096115
_cell_length_b 9.010301
_cell_length_c 16.108725
_cell_angle_alpha 90.000000
_cell_angle_beta 113.444536
_cell_angle_gamma 90.000000
_cell_volume 3608.177030
_symmetry_space_group_name_H-M "C 2/M"
_symmetry_group_IT_number 12
_symmetry_cell_setting 'monoclinic'
loop_
_space_group_symop_operation_xyz
x,y,z
-x,y,-z
-x,-y,-z
x,-y,z
1/2+x,1/2+y,z
1/2-x,1/2+y,-z
1/2-x,1/2-y,-z
1/2+x,1/2-y,z
loop_
_atom_site_type_symbol
_atom_site_label
_atom_site_fract_x
_atom_site_fract_y
_atom_site_fract_z
Si Si1 0.668941 0.827048 0.972747
Si Si2 0.065266 0.175752 0.954650
Si Si3 0.847513 0.174934 0.694039
Si Si4 0.241944 0.825162 0.697200
Si Si5 0.699333 0.670277 0.501597
Si Si6 0.242065 0.326980 0.866430
Si Si7 0.054050 0.175358 0.134358
O O1 0.609060 0.761426 0.929086
O O2 0.695360 0.795316 0.901363
O O3 0.667861 0.000000 0.993038
O O4 0.702107 0.745530 0.067184
O O5 0.006298 0.229128 0.883835
O O6 0.073332 0.000000 0.949481
O O7 0.071835 0.227130 0.054647
O O8 0.799004 0.261673 0.705080
O O9 0.849899 0.205955 0.595038
O O10 0.903458 0.235397 0.769492
O O11 0.840085 0.000000 0.707634
O O12 0.194738 0.789385 0.596601
O O13 0.222780 0.745802 0.767933
O O14 0.247928 0.000000 0.717100
O O15 0.714108 0.500000 0.505324
O O16 0.750000 0.750000 0.500000
O O17 0.252742 0.500000 0.860554
O O18 0.052448 0.000000 0.132766
#
# Coordination Sequence:
#
# PCOD8079931 Si02
#       7
#     8   8   8   8   8   8   8
#     4  10  20  32  45  63  85 107 136 174 209 243
#     4   9  16  28  44  62  86 113 140 169 202 242
#     4   9  15  26  43  61  85 118 148 170 202 248
#     4  10  18  27  40  62  89 112 139 176 212 244
#     4   8  15  25  38  58  84 112 140 172 207 244
#     4  10  20  32  45  61  82 111 142 168 203 252
#     4   8  15  26  42  63  84 111 145 171 194 239
#
# _framework density 15.520303999999999
#
# number of rings (size 3 to 8) (size 9 to 14) (size 15 to 20)
#    0.000    2.857    0.000    3.000    0.000    3.429 
#    0.000    2.143    0.000    0.000    0.000    1.000 
#    0.000    8.000    0.000    0.000    0.000    0.000 
#
# Total GULP energy -346918.615445 kJ/mol
# GULP energy per Si atom -12389.950552 kJ/mol
# Density = 1.548498 g / cm^3
# Si number density = 15.520304 Si / 1000 Ang^3
#
#
#
# Elastic Constant Matrix: (Units=GPa)
#
#
# Indices 1 2 3 4 5 6 
#
# 1 81.8561 31.3972 47.9742 0.0000 7.4374 0.0000
# 2 31.3972 56.5348 41.2497 0.0000 -2.5307 0.0000
# 3 47.9742 41.2497 139.6041 0.0000 9.0165 0.0000
# 4 0.0000 0.0000 0.0000 20.4332 0.0000 -2.4958
# 5 7.4374 -2.5307 9.0165 0.0000 20.7106 0.0000
# 6 0.0000 0.0000 0.0000 -2.4958 0.0000 21.8688
#
#
#
# Elastic Compliance Matrix: (Units=1/GPa)
#
#
# Indices 1 2 3 4 5 6 
#
# 1 0.017664 -0.007534 -0.003473 0.000000 -0.005752 0.000000
# 2 -0.007534 0.026466 -0.005777 0.000000 0.008454 0.000000
# 3 -0.003473 -0.005777 0.010319 0.000000 -0.003951 0.000000
# 4 0.000000 0.000000 0.000000 0.049632 0.000000 0.005664
# 5 -0.005752 0.008454 -0.003951 0.000000 0.053103 0.000000
# 6 0.000000 0.000000 0.000000 0.005664 0.000000 0.046374
#
#
# Mechanical properties :
#
#
# Convention : Reuss Voigt Hill
#
# Bulk Modulus (GPa) = 47.88901 57.69303 52.79102
# Shear Modulus (GPa) = 20.48468 23.09411 21.78940
#
# Velocity S-wave (km/s) = 3.63693 3.86164 3.75097
# Velocity P-wave (km/s) = 6.96843 7.55886 7.26964
#
# Compressibility (1/GPa) = 0.02088162
#
# Stress axis : x y z
#
# Youngs Moduli (GPa) = 56.61199 37.78463 96.91172
#
# Poissons Ratio (x) = 0.28466 0.33654
# Poissons Ratio (y) = 0.42650 0.55987
# Poissons Ratio (z) = 0.19659 0.21829
#
# Static dielectric constant tensor:
#      x y z
#    x 2.788390 0.000000 0.182180 
#    y 0.000000 2.864880 0.000000 
#    z 0.182180 0.000000 3.605810 
# 
# 
# High freq. dielectric constant tensor:
#      x y z
#    x 1.560160 0.000000 0.003990 
#    y 0.000000 1.592710 0.000000 
#    z 0.003990 0.000000 1.600930 
# 
# From -- ./inp_files/243257.got.cif
#   From: 2010.06.25/outbox.cif.g09.slc.cpg/sg12_122_cif.got.tgz:243257.got - 2010.06.28 00:19:55.
