data_PCOD8079556
_publ_section_title
;
Structure prediction by ZEFSAII (Michael W. Deem and Ramdas Pophale) SiO2 
 PCOD8079556
Probable space group: C 2/M
;
_chemical_formula_sum "Si O2"
_cell_formula_units_Z 56
_cell_length_a 24.949057
_cell_length_b 9.194430
_cell_length_c 25.503441
_cell_angle_alpha 90.000000
_cell_angle_beta 34.821108
_cell_angle_gamma 90.000000
_cell_volume 3340.612004
_symmetry_space_group_name_H-M "C 2/M"
_symmetry_group_IT_number 12
_symmetry_cell_setting 'monoclinic'
loop_
_space_group_symop_operation_xyz
x,y,z
-x,y,-z
-x,-y,-z
x,-y,z
1/2+x,1/2+y,z
1/2-x,1/2+y,-z
1/2-x,1/2-y,-z
1/2+x,1/2-y,z
loop_
_atom_site_type_symbol
_atom_site_label
_atom_site_fract_x
_atom_site_fract_y
_atom_site_fract_z
Si Si1 0.086984 0.326425 0.595675
Si Si2 0.614032 0.171238 0.281082
Si Si3 0.788635 0.829200 0.587126
Si Si4 0.888784 0.331959 0.908739
Si Si5 0.891467 0.330471 0.595874
Si Si6 0.585719 0.830336 0.714806
Si Si7 0.760107 0.331928 0.912210
O O1 0.098009 0.500000 0.581365
O O2 0.168221 0.250520 0.497448
O O3 0.097254 0.268514 0.646766
O O4 0.988096 0.268409 0.652440
O O5 0.637962 0.212295 0.321531
O O6 0.694938 0.232450 0.177572
O O7 0.609002 0.000000 0.276908
O O8 0.827938 0.766354 0.609504
O O9 0.677220 0.797674 0.675919
O O10 0.810131 0.000000 0.566379
O O11 0.890495 0.500000 0.922947
O O12 0.835909 0.305236 0.896640
O O13 0.993790 0.265909 0.817820
O O14 0.836716 0.250183 0.997900
O O15 0.873549 0.500000 0.598168
O O16 0.000000 0.292412 0.500000
O O17 0.566261 0.000000 0.723305
O O18 0.734562 0.500000 0.926833
#
# Coordination Sequence:
#
# PCOD8079556 Si02
#       7
#     8   8   8   8   8   8   8
#     4  10  17  32  53  71  94 132 170 195 228 287
#     4   9  16  29  52  74  93 122 163 202 235 279
#     4  11  22  33  46  72 104 131 160 201 247 284
#     4   9  16  29  49  71  97 127 156 188 235 295
#     4  10  19  34  54  71  89 126 175 206 231 282
#     4   9  18  32  51  71  98 135 167 192 233 295
#     4   9  16  28  48  74  98 120 152 199 246 280
#
# _framework density 16.763394999999999
#
# number of rings (size 3 to 8) (size 9 to 14) (size 15 to 20)
#    0.000    2.429    2.857    0.857    0.000    0.286 
#    0.000    4.286    0.000    0.857    0.000    6.000 
#    0.000    0.000    0.000    0.000    0.000    0.000 
#
# Total GULP energy -347150.681373 kJ/mol
# GULP energy per Si atom -12398.238620 kJ/mol
# Density = 1.672524 g / cm^3
# Si number density = 16.763395 Si / 1000 Ang^3
#
#
#
# Elastic Constant Matrix: (Units=GPa)
#
#
# Indices 1 2 3 4 5 6 
#
# 1 88.2290 35.4764 53.2448 -0.0006 -7.8347 0.0002
# 2 35.4764 46.4601 46.0792 -0.0034 -4.5032 0.0023
# 3 53.2448 46.0792 154.9826 -0.0013 -3.7901 0.0011
# 4 -0.0006 -0.0034 -0.0013 25.3757 0.0008 0.1964
# 5 -7.8347 -4.5032 -3.7901 0.0008 23.2098 -0.0004
# 6 0.0002 0.0023 0.0011 0.1964 -0.0004 19.7562
#
#
#
# Elastic Compliance Matrix: (Units=1/GPa)
#
#
# Indices 1 2 3 4 5 6 
#
# 1 0.017463 -0.010116 -0.002907 -0.000001 0.003457 0.000001
# 2 -0.010116 0.036852 -0.007420 0.000004 0.002524 -0.000004
# 3 -0.002907 -0.007420 0.009636 -0.000001 -0.000847 0.000000
# 4 -0.000001 0.000004 -0.000001 0.039411 -0.000001 -0.000392
# 5 0.003457 0.002524 -0.000847 -0.000001 0.044604 0.000001
# 6 0.000001 -0.000004 0.000000 -0.000392 0.000001 0.050621
#
#
# Mechanical properties :
#
#
# Convention : Reuss Voigt Hill
#
# Bulk Modulus (GPa) = 43.35493 62.14138 52.74815
# Shear Modulus (GPa) = 20.22968 23.99309 22.11138
#
# Velocity S-wave (km/s) = 3.47764 3.78733 3.63578
# Velocity P-wave (km/s) = 6.48416 7.50169 7.01141
#
# Compressibility (1/GPa) = 0.02306543
#
# Stress axis : x y z
#
# Youngs Moduli (GPa) = 57.26286 27.13568 103.77318
#
# Poissons Ratio (x) = 0.27451 0.30170
# Poissons Ratio (y) = 0.57928 0.76995
# Poissons Ratio (z) = 0.16648 0.20133
#
# Static dielectric constant tensor:
#      x y z
#    x 3.023550 0.000000 0.038940 
#    y 0.000000 2.889770 0.000000 
#    z 0.038940 0.000000 3.402610 
# 
# 
# High freq. dielectric constant tensor:
#      x y z
#    x 1.628340 0.000000 0.001350 
#    y 0.000000 1.616980 0.000000 
#    z 0.001350 0.000000 1.655180 
# 
# From -- ./inp_files/237318.got.cif
#   From: 2010.06.25/outbox.cif.g09.slc.cpg/sg12_119_cif.got.tgz:237318.got - 2010.06.28 00:19:55.
