data_PCOD8079905
_publ_section_title
;
Structure prediction by ZEFSAII (Michael W. Deem and Ramdas Pophale) SiO2 
 PCOD8079905
Probable space group: C 2/M
;
_chemical_formula_sum "Si O2"
_cell_formula_units_Z 64
_cell_length_a 30.301479
_cell_length_b 8.986311
_cell_length_c 15.376437
_cell_angle_alpha 90.000000
_cell_angle_beta 101.160248
_cell_angle_gamma 90.000000
_cell_volume 4107.803796
_symmetry_space_group_name_H-M "C 2/M"
_symmetry_group_IT_number 12
_symmetry_cell_setting 'monoclinic'
loop_
_space_group_symop_operation_xyz
x,y,z
-x,y,-z
-x,-y,-z
x,-y,z
1/2+x,1/2+y,z
1/2-x,1/2+y,-z
1/2-x,1/2-y,-z
1/2+x,1/2-y,z
loop_
_atom_site_type_symbol
_atom_site_label
_atom_site_fract_x
_atom_site_fract_y
_atom_site_fract_z
Si Si1 0.877233 0.675524 0.746053
Si Si2 0.532132 0.176838 0.889553
Si Si3 0.807807 0.173460 0.440509
Si Si4 0.461896 0.822656 0.300067
Si Si5 0.060416 0.677126 0.384562
Si Si6 0.707325 0.827084 0.385466
Si Si7 0.894744 0.676626 0.420679
Si Si8 0.564077 0.176857 0.080462
O O1 0.884152 0.500000 0.749952
O O2 0.908227 0.740731 0.680582
O O3 0.824940 0.715971 0.708144
O O4 0.893807 0.738925 0.846313
O O5 0.547565 0.238600 0.801343
O O6 0.481425 0.230602 0.889398
O O7 0.533038 0.000000 0.887480
O O8 0.564671 0.235631 0.980408
O O9 0.758823 0.207431 0.379646
O O10 0.808881 0.232362 0.538949
O O11 0.844882 0.255094 0.396160
O O12 0.818408 0.000000 0.445972
O O13 0.509843 0.761980 0.352679
O O14 0.422435 0.764840 0.347846
O O15 0.463244 0.000000 0.301224
O O16 0.060476 0.500000 0.384070
O O17 0.079832 0.735035 0.483543
O O18 0.701212 0.000000 0.408751
O O19 0.890451 0.500000 0.419173
O O20 0.564846 0.000000 0.077764
#
# Coordination Sequence:
#
# PCOD8079905 Si02
#       8
#     8   8   8   8   8   8   8   8
#     4   9  13  20  36  56  76 100 128 157 191 234
#     4   8  12  18  27  47  79 107 126 150 193 239
#     4  10  19  29  41  58  80 104 131 166 203 235
#     4   9  15  22  34  54  78 106 139 167 189 222
#     4   9  14  21  34  54  77 101 135 167 185 217
#     4   9  17  29  44  60  78 101 132 166 198 235
#     4  10  18  27  40  57  79 109 141 166 189 224
#     4   8  12  17  29  49  77 106 124 149 196 243
#
# _framework density 15.580102
#
# number of rings (size 3 to 8) (size 9 to 14) (size 15 to 20)
#    0.000    3.000    2.500    1.500    0.000    2.000 
#    0.000    0.000    0.000    1.500    0.000    0.875 
#    0.000    1.000    0.000    4.500    0.000    3.750 
#
# Total GULP energy -396486.021933 kJ/mol
# GULP energy per Si atom -12390.188185 kJ/mol
# Density = 1.554464 g / cm^3
# Si number density = 15.580102 Si / 1000 Ang^3
#
#
#
# Elastic Constant Matrix: (Units=GPa)
#
#
# Indices 1 2 3 4 5 6 
#
# 1 122.4498 18.1041 75.8236 0.0000 10.3158 0.0000
# 2 18.1041 13.3732 12.2793 0.0000 0.8174 0.0000
# 3 75.8236 12.2793 135.4962 0.0000 13.7200 0.0000
# 4 0.0000 0.0000 0.0000 5.3578 0.0000 -0.3515
# 5 10.3158 0.8174 13.7200 0.0000 25.8770 0.0000
# 6 0.0000 0.0000 0.0000 -0.3515 0.0000 16.0801
#
#
#
# Elastic Compliance Matrix: (Units=1/GPa)
#
#
# Indices 1 2 3 4 5 6 
#
# 1 0.014419 -0.013272 -0.006685 0.000000 -0.001784 0.000000
# 2 -0.013272 0.093829 -0.001386 0.000000 0.003062 0.000000
# 3 -0.006685 -0.001386 0.011595 0.000000 -0.003439 0.000000
# 4 0.000000 0.000000 0.000000 0.186912 0.000000 0.004086
# 5 -0.001784 0.003062 -0.003439 0.000000 0.041082 0.000000
# 6 0.000000 0.000000 0.000000 0.004086 0.000000 0.062278
#
#
# Mechanical properties :
#
#
# Convention : Reuss Voigt Hill
#
# Bulk Modulus (GPa) = 12.96076 53.74814 33.35445
# Shear Modulus (GPa) = 10.44884 20.47046 15.45965
#
# Velocity S-wave (km/s) = 2.59251 3.62869 3.15345
# Velocity P-wave (km/s) = 4.15912 7.22006 5.89184
#
# Compressibility (1/GPa) = 0.07715598
#
# Stress axis : x y z
#
# Youngs Moduli (GPa) = 69.35312 10.65765 86.24220
#
# Poissons Ratio (x) = 0.14145 0.57656
# Poissons Ratio (y) = 0.92047 0.11955
# Poissons Ratio (z) = 0.46365 0.01477
#
# Static dielectric constant tensor:
#      x y z
#    x 3.071840 0.000000 0.177690 
#    y 0.000000 2.440430 0.000000 
#    z 0.177690 0.000000 3.320110 
# 
# 
# High freq. dielectric constant tensor:
#      x y z
#    x 1.587050 0.000000 0.014660 
#    y 0.000000 1.538720 0.000000 
#    z 0.014660 0.000000 1.590410 
# 
# From -- ./inp_files/248446.got.cif
#   From: 2010.06.25/outbox.cif.g09.slc.cpg/sg12_125_cif.got.tgz:248446.got - 2010.06.28 00:19:55.
