data_PCOD8079880
_publ_section_title
;
Structure prediction by ZEFSAII (Michael W. Deem and Ramdas Pophale) SiO2 
 PCOD8079880
Probable space group: C 2/M
;
_chemical_formula_sum "Si O2"
_cell_formula_units_Z 64
_cell_length_a 28.586668
_cell_length_b 12.438100
_cell_length_c 11.886225
_cell_angle_alpha 90.000000
_cell_angle_beta 98.451768
_cell_angle_gamma 90.000000
_cell_volume 4180.413748
_symmetry_space_group_name_H-M "C 2/M"
_symmetry_group_IT_number 12
_symmetry_cell_setting 'monoclinic'
loop_
_space_group_symop_operation_xyz
x,y,z
-x,y,-z
-x,-y,-z
x,-y,z
1/2+x,1/2+y,z
1/2-x,1/2+y,-z
1/2-x,1/2-y,-z
1/2+x,1/2-y,z
loop_
_atom_site_type_symbol
_atom_site_label
_atom_site_fract_x
_atom_site_fract_y
_atom_site_fract_z
Si Si1 0.814840 0.377693 0.791256
Si Si2 0.935945 0.372288 0.202962
Si Si3 0.130577 0.310391 0.404245
Si Si4 0.404682 0.873007 0.952328
Si Si5 0.801799 0.874879 0.541007
Si Si6 0.958160 0.372801 0.751448
Si Si7 0.144970 0.377103 0.660781
Si Si8 0.235230 0.747676 0.676362
O O1 0.800737 0.500000 0.813891
O O2 0.837472 0.374473 0.674305
O O3 0.853055 0.331633 0.894039
O O4 0.768394 0.302631 0.782480
O O5 0.937874 0.500000 0.193492
O O6 0.900958 0.333579 0.288972
O O7 0.988644 0.331243 0.250580
O O8 0.918580 0.322584 0.077602
O O9 0.149085 0.188028 0.419314
O O10 0.075742 0.311449 0.348647
O O11 0.136458 0.369171 0.525134
O O12 0.444111 0.841696 0.874050
O O13 0.401825 0.000000 0.961005
O O14 0.780252 0.842320 0.413451
O O15 0.763279 0.846603 0.622065
O O16 0.813468 0.000000 0.547597
O O17 0.952408 0.500000 0.728988
O O18 0.154673 0.500000 0.697905
O O19 0.189577 0.306408 0.717418
#
# Coordination Sequence:
#
# PCOD8079880 Si02
#       8
#     8   8   8   8   8   8   8   8
#     4   9  15  25  42  60  80 103 132 168 195 224
#     4   9  17  26  38  57  80 109 134 154 194 242
#     4   9  17  26  39  61  83 104 130 157 196 236
#     4   8  14  25  40  58  80 103 128 161 196 229
#     4   9  16  26  40  58  82 106 131 164 193 228
#     4   9  15  25  42  61  82 104 129 162 193 229
#     4  10  18  27  37  53  84 113 131 156 191 237
#     4   9  17  25  38  59  79 105 137 159 192 233
#
# _framework density 15.309488999999999
#
# number of rings (size 3 to 8) (size 9 to 14) (size 15 to 20)
#    0.000    3.000    0.000    3.750    0.000    2.000 
#    0.000    2.500    0.000    0.000    0.000    7.875 
#    0.000   44.000    0.000    0.000    0.000    0.000 
#
# Total GULP energy -396680.932662 kJ/mol
# GULP energy per Si atom -12396.279146 kJ/mol
# Density = 1.527464 g / cm^3
# Si number density = 15.309489 Si / 1000 Ang^3
#
#
#
# Elastic Constant Matrix: (Units=GPa)
#
#
# Indices 1 2 3 4 5 6 
#
# 1 134.0611 34.2070 43.0595 0.0000 15.2251 0.0000
# 2 34.2070 59.2974 9.2098 0.0000 5.4349 0.0000
# 3 43.0595 9.2098 43.9405 0.0000 8.5936 0.0000
# 4 0.0000 0.0000 0.0000 9.0011 0.0000 4.3687
# 5 15.2251 5.4349 8.5936 0.0000 21.5229 0.0000
# 6 0.0000 0.0000 0.0000 4.3687 0.0000 21.9250
#
#
#
# Elastic Compliance Matrix: (Units=1/GPa)
#
#
# Indices 1 2 3 4 5 6 
#
# 1 0.012590 -0.005315 -0.010570 0.000000 -0.003344 0.000000
# 2 -0.005315 0.019880 0.001397 0.000000 -0.001818 0.000000
# 3 -0.010570 0.001397 0.034092 0.000000 -0.006488 0.000000
# 4 0.000000 0.000000 0.000000 0.122992 0.000000 -0.024507
# 5 -0.003344 -0.001818 -0.006488 0.000000 0.051877 0.000000
# 6 0.000000 0.000000 0.000000 -0.024507 0.000000 0.050493
#
#
# Mechanical properties :
#
#
# Convention : Reuss Voigt Hill
#
# Bulk Modulus (GPa) = 26.60505 45.58350 36.09427
# Shear Modulus (GPa) = 14.99578 20.54467 17.77022
#
# Velocity S-wave (km/s) = 3.13311 3.66725 3.41065
# Velocity P-wave (km/s) = 5.52307 6.91165 6.25601
#
# Compressibility (1/GPa) = 0.03758685
#
# Stress axis : x y z
#
# Youngs Moduli (GPa) = 79.42774 50.30250 29.33251
#
# Poissons Ratio (x) = 0.26734 0.31004
# Poissons Ratio (y) = 0.42214 -0.04098
# Poissons Ratio (z) = 0.83953 -0.07028
#
# Static dielectric constant tensor:
#      x y z
#    x 3.120350 0.000000 0.158380 
#    y 0.000000 2.544430 0.000000 
#    z 0.158380 0.000000 2.926490 
# 
# 
# High freq. dielectric constant tensor:
#      x y z
#    x 1.592750 0.000000 0.013590 
#    y 0.000000 1.536720 0.000000 
#    z 0.013590 0.000000 1.572510 
# 
# From -- ./inp_files/174623.got.cif
#   From: 2010.06.25/outbox.cif.g09.slc.cpg/sg12_88_cif.got.tgz:174623.got - 2010.06.28 00:19:55.
