data_PCOD8079648
_publ_section_title
;
Structure prediction by ZEFSAII (Michael W. Deem and Ramdas Pophale) SiO2 
 PCOD8079648
Probable space group: C 2/M
;
_chemical_formula_sum "Si O2"
_cell_formula_units_Z 52
_cell_length_a 17.095303
_cell_length_b 14.853293
_cell_length_c 21.307573
_cell_angle_alpha 90.000000
_cell_angle_beta 149.862419
_cell_angle_gamma 90.000000
_cell_volume 2716.469342
_symmetry_space_group_name_H-M "C 2/M"
_symmetry_group_IT_number 12
_symmetry_cell_setting 'monoclinic'
loop_
_space_group_symop_operation_xyz
x,y,z
-x,y,-z
-x,-y,-z
x,-y,z
1/2+x,1/2+y,z
1/2-x,1/2+y,-z
1/2-x,1/2-y,-z
1/2+x,1/2-y,z
loop_
_atom_site_type_symbol
_atom_site_label
_atom_site_fract_x
_atom_site_fract_y
_atom_site_fract_z
Si Si1 0.740296 0.397985 0.381916
Si Si2 0.500000 0.670245 0.000000
Si Si3 0.152549 0.240721 0.227776
Si Si4 0.809070 0.153852 0.519311
Si Si5 0.029472 0.726006 0.609451
Si Si6 0.682526 0.899283 0.816614
Si Si7 0.553152 0.900202 0.244954
O O1 0.768232 0.500000 0.377666
O O2 0.624843 0.347083 0.252850
O O3 0.660940 0.402276 0.396147
O O4 0.901189 0.342458 0.493325
O O5 0.572840 0.732187 0.104885
O O6 0.630612 0.609058 0.057032
O O7 0.340023 0.250736 0.351307
O O8 0.081211 0.328773 0.210028
O O9 0.750000 0.250000 0.500000
O O10 0.682607 0.103982 0.389316
O O11 0.963075 0.176483 0.585711
O O12 0.107169 0.675697 0.721292
O O13 0.616672 0.883570 0.841346
O O14 0.635774 0.000000 0.761649
O O15 0.559815 0.000000 0.219671
#
# Coordination Sequence:
#
# PCOD8079648 Si02
#       7
#     8   4   8   8   8   8   8
#     4  11  20  32  56  87 115 146 183 226 284 345
#     4  10  25  40  57  76 112 154 188 244 290 320
#     4  11  23  39  55  82 115 150 194 234 279 332
#     4  10  17  33  55  84 119 144 176 224 279 344
#     4  10  19  33  56  82 120 152 181 229 277 336
#     4  10  19  35  59  85 112 147 190 231 282 342
#     4  11  21  37  61  85 112 151 190 230 282 341
#
# _framework density 19.142493999999999
#
# number of rings (size 3 to 8) (size 9 to 14) (size 15 to 20)
#    0.000    1.538    6.154    1.615    0.000    4.923 
#    0.000    2.692    0.000    0.000    0.000    0.000 
#    0.000    0.000    0.000    0.000    0.000    0.000 
#
# Total GULP energy -322229.313907 kJ/mol
# GULP energy per Si atom -12393.435150 kJ/mol
# Density = 1.909893 g / cm^3
# Si number density = 19.142494 Si / 1000 Ang^3
#
#
#
# Elastic Constant Matrix: (Units=GPa)
#
#
# Indices 1 2 3 4 5 6 
#
# 1 124.2503 67.8981 39.8019 -0.0069 4.6359 -0.0008
# 2 67.8981 106.4523 37.7431 0.0052 7.6192 0.0011
# 3 39.8019 37.7431 70.8590 0.0056 -5.8911 0.0000
# 4 -0.0069 0.0052 0.0056 13.4042 -0.0050 2.2272
# 5 4.6359 7.6192 -5.8911 -0.0050 33.1608 -0.0014
# 6 -0.0008 0.0011 0.0000 2.2272 -0.0014 22.6536
#
#
#
# Elastic Compliance Matrix: (Units=1/GPa)
#
#
# Indices 1 2 3 4 5 6 
#
# 1 0.013073 -0.006959 -0.003710 0.000011 -0.000888 0.000000
# 2 -0.006959 0.015781 -0.004788 -0.000009 -0.003504 0.000000
# 3 -0.003710 -0.004788 0.019164 -0.000006 0.005023 0.000001
# 4 0.000011 -0.000009 -0.000006 0.075842 0.000011 -0.007456
# 5 -0.000888 -0.003504 0.005023 0.000011 0.031978 0.000001
# 6 0.000000 0.000000 0.000001 -0.007456 0.000001 0.044876
#
#
# Mechanical properties :
#
#
# Convention : Reuss Voigt Hill
#
# Bulk Modulus (GPa) = 58.46677 65.82752 62.14714
# Shear Modulus (GPa) = 21.06770 24.25164 22.65967
#
# Velocity S-wave (km/s) = 3.32109 3.56322 3.44428
# Velocity P-wave (km/s) = 6.73167 7.16879 6.95366
#
# Compressibility (1/GPa) = 0.01710373
#
# Stress axis : x y z
#
# Youngs Moduli (GPa) = 76.49470 63.36722 52.17992
#
# Poissons Ratio (x) = 0.44099 0.19359
# Poissons Ratio (y) = 0.53234 0.24984
# Poissons Ratio (z) = 0.28380 0.30340
#
# Static dielectric constant tensor:
#      x y z
#    x 4.242390 0.000060 0.223510 
#    y 0.000060 3.598980 0.000020 
#    z 0.223510 0.000020 3.437840 
# 
# 
# High freq. dielectric constant tensor:
#      x y z
#    x 1.756520 0.000000 -0.000510 
#    y 0.000000 1.730670 0.000000 
#    z -0.000510 0.000000 1.716250 
# 
# From -- ./inp_files/316541.got.cif
#   From: 2010.06.25/outbox.cif.g09.slc.cpg/sg12_159_cif.got.tgz:316541.got - 2010.06.28 00:19:55.
