data_PCOD8079917
_publ_section_title
;
Structure prediction by ZEFSAII (Michael W. Deem and Ramdas Pophale) SiO2 
 PCOD8079917
Probable space group: C 2/M
;
_chemical_formula_sum "Si O2"
_cell_formula_units_Z 56
_cell_length_a 28.129021
_cell_length_b 9.043457
_cell_length_c 18.386141
_cell_angle_alpha 90.000000
_cell_angle_beta 131.366405
_cell_angle_gamma 90.000000
_cell_volume 3510.181911
_symmetry_space_group_name_H-M "C 2/M"
_symmetry_group_IT_number 12
_symmetry_cell_setting 'monoclinic'
loop_
_space_group_symop_operation_xyz
x,y,z
-x,y,-z
-x,-y,-z
x,-y,z
1/2+x,1/2+y,z
1/2-x,1/2+y,-z
1/2-x,1/2-y,-z
1/2+x,1/2-y,z
loop_
_atom_site_type_symbol
_atom_site_label
_atom_site_fract_x
_atom_site_fract_y
_atom_site_fract_z
Si Si1 0.066120 0.338768 0.607338
Si Si2 0.992301 0.826190 0.160712
Si Si3 0.566491 0.833361 0.026746
Si Si4 0.621273 0.327335 0.211230
Si Si5 0.374935 0.176398 0.473111
Si Si6 0.500521 0.822983 0.679600
Si Si7 0.748122 0.674862 0.420687
O O1 0.095001 0.500000 0.653813
O O2 0.112914 0.256597 0.596643
O O3 0.051505 0.262563 0.670646
O O4 0.000000 0.359342 0.500000
O O5 0.981363 0.753486 0.227373
O O6 0.062581 0.786306 0.203873
O O7 0.981665 0.000000 0.155183
O O8 0.939419 0.759396 0.053390
O O9 0.618180 0.758694 0.131668
O O10 0.587837 0.000000 0.030036
O O11 0.500000 0.830778 0.000000
O O12 0.621573 0.500000 0.193206
O O13 0.684715 0.275662 0.315566
O O14 0.429861 0.227376 0.584413
O O15 0.307693 0.233340 0.434182
O O16 0.376844 0.000000 0.468561
O O17 0.504087 0.000000 0.690791
O O18 0.751025 0.500000 0.434723
O O19 0.750000 0.750000 0.500000
#
# Coordination Sequence:
#
# PCOD8079917 Si02
#       7
#     8   8   8   8   8   8   8
#     4   7  11  21  38  59  80 103 135 174 209 237
#     4  10  18  27  40  59  86 113 133 161 206 253
#     4   9  17  29  45  62  78 101 137 175 206 241
#     4   9  18  30  41  57  84 115 140 164 200 243
#     4   8  14  25  41  60  82 111 144 173 200 234
#     4   9  15  24  41  63  84 106 137 175 207 237
#     4  10  19  29  42  61  86 115 145 171 195 232
#
# _framework density 15.95359
#
# number of rings (size 3 to 8) (size 9 to 14) (size 15 to 20)
#    0.000    3.143    0.000    3.429    0.000    2.857 
#    0.000    0.000    0.000    4.714    0.000    1.000 
#    0.000    0.000    0.000    0.000    0.000    0.000 
#
# Total GULP energy -346947.073961 kJ/mol
# GULP energy per Si atom -12390.966927 kJ/mol
# Density = 1.591728 g / cm^3
# Si number density = 15.953590 Si / 1000 Ang^3
#
#
#
# Elastic Constant Matrix: (Units=GPa)
#
#
# Indices 1 2 3 4 5 6 
#
# 1 111.6540 31.9900 66.1787 0.0000 -20.8964 0.0000
# 2 31.9900 46.0404 43.3536 0.0000 -11.6229 0.0000
# 3 66.1787 43.3536 128.6370 0.0000 -21.9790 0.0000
# 4 0.0000 0.0000 0.0000 23.0704 0.0000 -4.6643
# 5 -20.8964 -11.6229 -21.9790 0.0000 26.2820 0.0000
# 6 0.0000 0.0000 0.0000 -4.6643 0.0000 10.6595
#
#
#
# Elastic Compliance Matrix: (Units=1/GPa)
#
#
# Indices 1 2 3 4 5 6 
#
# 1 0.013987 -0.003603 -0.005080 0.000000 0.005280 0.000000
# 2 -0.003603 0.033565 -0.008647 0.000000 0.004748 0.000000
# 3 -0.005080 -0.008647 0.013951 0.000000 0.003804 0.000000
# 4 0.000000 0.000000 0.000000 0.047552 0.000000 0.020808
# 5 0.005280 0.004748 0.003804 0.000000 0.047528 0.000000
# 6 0.000000 0.000000 0.000000 0.020808 0.000000 0.102918
#
#
# Mechanical properties :
#
#
# Convention : Reuss Voigt Hill
#
# Bulk Modulus (GPa) = 37.25232 63.26400 50.25816
# Shear Modulus (GPa) = 16.49571 21.65631 19.07601
#
# Velocity S-wave (km/s) = 3.21905 3.68837 3.46167
# Velocity P-wave (km/s) = 6.10061 7.60788 6.89555
#
# Compressibility (1/GPa) = 0.02684397
#
# Stress axis : x y z
#
# Youngs Moduli (GPa) = 71.49311 29.79331 71.67697
#
# Poissons Ratio (x) = 0.10733 0.36409
# Poissons Ratio (y) = 0.25756 0.61982
# Poissons Ratio (z) = 0.36316 0.25764
#
# Static dielectric constant tensor:
#      x y z
#    x 3.243280 0.000000 -0.154530 
#    y 0.000000 2.792330 0.000000 
#    z -0.154530 0.000000 2.992830 
# 
# 
# High freq. dielectric constant tensor:
#      x y z
#    x 1.598070 0.000000 -0.022800 
#    y 0.000000 1.587690 0.000000 
#    z -0.022800 0.000000 1.599820 
# 
# From -- ./inp_files/291434.got.cif
#   From: 2010.06.25/outbox.cif.g09.slc.cpg/sg12_146_cif.got.tgz:291434.got - 2010.06.28 00:19:55.
