data_PCOD8079950
_publ_section_title
;
Structure prediction by ZEFSAII (Michael W. Deem and Ramdas Pophale) SiO2 
 PCOD8079950
Probable space group: C 2/M
;
_chemical_formula_sum "Si O2"
_cell_formula_units_Z 56
_cell_length_a 29.748827
_cell_length_b 9.125129
_cell_length_c 29.439972
_cell_angle_alpha 90.000000
_cell_angle_beta 22.318497
_cell_angle_gamma 90.000000
_cell_volume 3034.936131
_symmetry_space_group_name_H-M "C 2/M"
_symmetry_group_IT_number 12
_symmetry_cell_setting 'monoclinic'
loop_
_space_group_symop_operation_xyz
x,y,z
-x,y,-z
-x,-y,-z
x,-y,z
1/2+x,1/2+y,z
1/2-x,1/2+y,-z
1/2-x,1/2-y,-z
1/2+x,1/2-y,z
loop_
_atom_site_type_symbol
_atom_site_label
_atom_site_fract_x
_atom_site_fract_y
_atom_site_fract_z
Si Si1 0.014644 0.672401 0.269773
Si Si2 0.197950 0.325287 0.225136
Si Si3 0.304235 0.674546 0.300133
Si Si4 0.554181 0.825907 0.566516
Si Si5 0.014737 0.825849 0.792517
Si Si6 0.374607 0.674882 0.135651
Si Si7 0.229877 0.826757 0.939631
O O1 0.999781 0.500000 0.276170
O O2 0.951951 0.757045 0.287159
O O3 0.153191 0.718185 0.141740
O O4 0.952605 0.723468 0.374515
O O5 0.199145 0.500000 0.223947
O O6 0.269392 0.264888 0.201722
O O7 0.261414 0.266769 0.120068
O O8 0.061364 0.269517 0.353235
O O9 0.301855 0.500000 0.300999
O O10 0.172719 0.737755 0.432661
O O11 0.390256 0.729283 0.259553
O O12 0.351095 0.735819 0.208212
O O13 0.555755 0.000000 0.563800
O O14 0.015614 0.000000 0.787234
O O15 0.886849 0.762815 0.927355
O O16 0.375868 0.500000 0.134498
O O17 0.500000 0.734747 0.000000
O O18 0.219183 0.000000 0.947080
#
# Coordination Sequence:
#
# PCOD8079950 Si02
#       7
#     8   8   8   8   8   8   8
#     4   9  17  29  44  59  79 110 144 174 203 242
#     4   8  13  22  37  54  76 108 138 164 200 248
#     4   9  17  26  36  54  81 108 134 168 206 244
#     4   8  15  27  39  53  75 105 139 170 204 244
#     4  10  18  27  41  61  85 111 137 170 212 247
#     4   9  15  22  34  54  80 108 135 164 203 250
#     4   8  14  25  40  59  82 107 136 170 209 249
#
# _framework density 18.451788000000001
#
# number of rings (size 3 to 8) (size 9 to 14) (size 15 to 20)
#    0.000    3.286    0.000    3.000    0.000    4.571 
#    0.000    2.857    0.000    0.000    0.000    0.000 
#    0.000    9.714    0.000    6.429    0.000    7.143 
#
# Total GULP energy -347025.006225 kJ/mol
# GULP energy per Si atom -12393.750222 kJ/mol
# Density = 1.840979 g / cm^3
# Si number density = 18.451788 Si / 1000 Ang^3
#
#
#
# Elastic Constant Matrix: (Units=GPa)
#
#
# Indices 1 2 3 4 5 6 
#
# 1 177.8839 17.3271 80.4791 -0.0026 1.5079 -0.0019
# 2 17.3271 7.7310 9.3305 0.0196 0.1217 -0.0282
# 3 80.4791 9.3305 152.2232 0.0045 2.3768 -0.0112
# 4 -0.0026 0.0196 0.0045 6.7712 -0.0015 3.1161
# 5 1.5079 0.1217 2.3768 -0.0015 21.1357 0.0054
# 6 -0.0019 -0.0282 -0.0112 3.1161 0.0054 17.3647
#
#
#
# Elastic Compliance Matrix: (Units=1/GPa)
#
#
# Indices 1 2 3 4 5 6 
#
# 1 0.008782 -0.015204 -0.003709 0.000067 -0.000122 -0.000038
# 2 -0.015204 0.166010 -0.002143 -0.000661 0.000369 0.000385
# 3 -0.003709 -0.002143 0.008672 -0.000002 -0.000698 0.000002
# 4 0.000067 -0.000661 -0.000002 0.160981 0.000018 -0.028889
# 5 -0.000122 0.000369 -0.000698 0.000018 0.047398 -0.000018
# 6 -0.000038 0.000385 0.000002 -0.028889 -0.000018 0.062773
#
#
# Mechanical properties :
#
#
# Convention : Reuss Voigt Hill
#
# Bulk Modulus (GPa) = 7.07454 61.34570 34.21012
# Shear Modulus (GPa) = 9.19379 24.43442 16.81411
#
# Velocity S-wave (km/s) = 2.23460 3.64295 3.02196
# Velocity P-wave (km/s) = 3.24041 7.14237 5.54588
#
# Compressibility (1/GPa) = 0.14135193
#
# Stress axis : x y z
#
# Youngs Moduli (GPa) = 113.87341 6.02374 115.30754
#
# Poissons Ratio (x) = 0.09159 0.42767
# Poissons Ratio (y) = 1.73134 0.24710
# Poissons Ratio (z) = 0.42235 0.01291
#
# Static dielectric constant tensor:
#      x y z
#    x 3.586860 -0.000020 -0.053310 
#    y -0.000020 2.542700 0.000040 
#    z -0.053310 0.000040 3.769730 
# 
# 
# High freq. dielectric constant tensor:
#      x y z
#    x 1.727620 0.000000 -0.001100 
#    y 0.000000 1.623470 0.000000 
#    z -0.001100 0.000000 1.723290 
# 
# From -- ./inp_files/173889.got.cif
#   From: 2010.06.25/outbox.cif.g09.slc.cpg/sg12_87_cif.got.tgz:173889.got - 2010.06.28 00:19:55.
