data_PCOD8079699
_publ_section_title
;
Structure prediction by ZEFSAII (Michael W. Deem and Ramdas Pophale) SiO2 
 PCOD8079699
Probable space group: C 2/M
;
_chemical_formula_sum "Si O2"
_cell_formula_units_Z 48
_cell_length_a 10.042882
_cell_length_b 23.286990
_cell_length_c 13.524877
_cell_angle_alpha 90.000000
_cell_angle_beta 51.339202
_cell_angle_gamma 90.000000
_cell_volume 2469.887174
_symmetry_space_group_name_H-M "C 2/M"
_symmetry_group_IT_number 12
_symmetry_cell_setting 'monoclinic'
loop_
_space_group_symop_operation_xyz
x,y,z
-x,y,-z
-x,-y,-z
x,-y,z
1/2+x,1/2+y,z
1/2-x,1/2+y,-z
1/2-x,1/2-y,-z
1/2+x,1/2-y,z
loop_
_atom_site_type_symbol
_atom_site_label
_atom_site_fract_x
_atom_site_fract_y
_atom_site_fract_z
Si Si1 0.508618 0.434278 0.110829
Si Si2 0.185184 0.433648 0.895876
Si Si3 0.111610 0.371564 0.602236
Si Si4 0.832260 0.065465 0.627252
Si Si5 0.797679 0.768192 0.586583
Si Si6 0.735970 0.149169 0.323514
O O1 0.445735 0.500000 0.160072
O O2 0.702135 0.426385 0.057763
O O3 0.399646 0.387944 0.221404
O O4 0.500000 0.419369 0.000000
O O5 0.153426 0.500000 0.884257
O O6 0.282109 0.405725 0.756208
O O7 0.000000 0.404261 0.000000
O O8 0.173738 0.431151 0.622518
O O9 0.193938 0.327468 0.646145
O O10 0.182333 0.366180 0.459189
O O11 0.908099 0.366802 0.690824
O O12 0.000000 0.095705 0.500000
O O13 0.879673 0.000000 0.625914
O O14 0.750000 0.750000 0.500000
O O15 0.735164 0.718486 0.692589
O O16 0.000000 0.776465 0.500000
#
# Coordination Sequence:
#
# PCOD8079699 Si02
#       6
#     8   8   8   8   8   8
#     4  10  22  38  59  81 112 158 195 230 287 344
#     4   9  19  36  55  78 109 147 194 232 265 339
#     4  10  20  33  56  86 114 150 182 228 296 348
#     4  10  20  33  52  82 117 146 181 233 291 341
#     4  10  17  34  55  80 111 146 186 226 279 340
#     4  10  20  35  54  84 117 141 190 243 275 338
#
# _framework density 19.434085
#
# number of rings (size 3 to 8) (size 9 to 14) (size 15 to 20)
#    0.000    2.167    3.333    1.500    2.333    4.000 
#    0.000    1.667    0.000    2.000    0.000    0.000 
#    0.000    0.000    0.000    0.000    0.000    0.000 
#
# Total GULP energy -297332.570275 kJ/mol
# GULP energy per Si atom -12388.857095 kJ/mol
# Density = 1.938985 g / cm^3
# Si number density = 19.434085 Si / 1000 Ang^3
#
#
#
# Elastic Constant Matrix: (Units=GPa)
#
#
# Indices 1 2 3 4 5 6 
#
# 1 141.6246 20.6560 46.0737 0.0000 0.6707 0.0000
# 2 20.6560 47.9970 23.5435 0.0000 -8.5743 0.0000
# 3 46.0737 23.5435 94.9506 0.0000 -6.6230 0.0000
# 4 0.0000 0.0000 0.0000 16.7461 0.0000 -1.0176
# 5 0.6707 -8.5743 -6.6230 0.0000 30.4809 0.0000
# 6 0.0000 0.0000 0.0000 -1.0176 0.0000 28.5451
#
#
#
# Elastic Compliance Matrix: (Units=1/GPa)
#
#
# Indices 1 2 3 4 5 6 
#
# 1 0.008603 -0.002148 -0.003754 0.000000 -0.001609 0.000000
# 2 -0.002148 0.025192 -0.004779 0.000000 0.006095 0.000000
# 3 -0.003754 -0.004779 0.013657 0.000000 0.001706 0.000000
# 4 0.000000 0.000000 0.000000 0.059845 0.000000 0.002133
# 5 -0.001609 0.006095 0.001706 0.000000 0.034928 0.000000
# 6 0.000000 0.000000 0.000000 0.002133 0.000000 0.035108
#
#
# Mechanical properties :
#
#
# Convention : Reuss Voigt Hill
#
# Bulk Modulus (GPa) = 38.32903 51.67986 45.00445
# Shear Modulus (GPa) = 24.10869 28.10768 26.10819
#
# Velocity S-wave (km/s) = 3.52595 3.80716 3.66925
# Velocity P-wave (km/s) = 6.02842 6.78057 6.41552
#
# Compressibility (1/GPa) = 0.02608988
#
# Stress axis : x y z
#
# Youngs Moduli (GPa) = 116.23574 39.69466 73.22049
#
# Poissons Ratio (x) = 0.08528 0.27488
# Poissons Ratio (y) = 0.24973 0.34991
# Poissons Ratio (z) = 0.43636 0.18970
#
# Static dielectric constant tensor:
#      x y z
#    x 3.779310 0.000000 -0.014400 
#    y 0.000000 4.759900 0.000000 
#    z -0.014400 0.000000 3.422090 
# 
# 
# High freq. dielectric constant tensor:
#      x y z
#    x 1.778190 0.000000 0.007490 
#    y 0.000000 1.736420 0.000000 
#    z 0.007490 0.000000 1.722020 
# 
# From -- ./inp_files/123479.got.cif
#   From: 2010.06.25/outbox.cif.g09.slc.cpg/sg12_62_cif.got.tgz:123479.got - 2010.06.28 00:19:55.
