data_PCOD8079430
_publ_section_title
;
Structure prediction by ZEFSAII (Michael W. Deem and Ramdas Pophale) SiO2 
 PCOD8079430
Probable space group: C 2/M
;
_chemical_formula_sum "Si O2"
_cell_formula_units_Z 52
_cell_length_a 14.947485
_cell_length_b 22.504306
_cell_length_c 10.907551
_cell_angle_alpha 90.000000
_cell_angle_beta 60.041750
_cell_angle_gamma 90.000000
_cell_volume 3178.880403
_symmetry_space_group_name_H-M "C 2/M"
_symmetry_group_IT_number 12
_symmetry_cell_setting 'monoclinic'
loop_
_space_group_symop_operation_xyz
x,y,z
-x,y,-z
-x,-y,-z
x,-y,z
1/2+x,1/2+y,z
1/2-x,1/2+y,-z
1/2-x,1/2-y,-z
1/2+x,1/2-y,z
loop_
_atom_site_type_symbol
_atom_site_label
_atom_site_fract_x
_atom_site_fract_y
_atom_site_fract_z
Si Si1 0.083372 0.352039 0.348614
Si Si2 0.699841 0.155691 0.494661
Si Si3 0.118519 0.761928 0.177268
Si Si4 0.610855 0.273100 0.660551
Si Si5 0.447009 0.931534 0.287679
Si Si6 0.000000 0.378240 0.000000
Si Si7 0.833339 0.721851 0.114982
O O1 0.183470 0.365829 0.364588
O O2 0.110340 0.307121 0.221265
O O3 0.000000 0.324218 0.500000
O O4 0.035785 0.411759 0.322540
O O5 0.634214 0.215961 0.561472
O O6 0.820567 0.170646 0.430872
O O7 0.658920 0.105756 0.616863
O O8 0.209885 0.793082 0.193984
O O9 0.007968 0.793173 0.275099
O O10 0.142806 0.764963 0.016047
O O11 0.637145 0.256893 0.782917
O O12 0.421306 0.000000 0.325905
O O13 0.489482 0.920956 0.123036
O O14 0.102161 0.338290 0.940318
#
# Coordination Sequence:
#
# PCOD8079430 Si02
#       7
#     8   8   8   8   8   4   8
#     4  10  17  31  45  68 101 132 165 206 251 302
#     4  10  20  30  50  70 102 135 168 209 255 311
#     4  11  19  29  47  77 104 139 168 201 255 318
#     4  11  18  32  48  74 108 137 166 210 260 313
#     4  11  22  35  53  74 100 139 179 217 260 303
#     4  12  19  38  50  76 108 134 173 216 258 310
#     4  11  19  29  52  72 106 142 166 203 261 311
#
# _framework density 16.357959999999999
#
# number of rings (size 3 to 8) (size 9 to 14) (size 15 to 20)
#    0.000    1.231    9.231    0.231    0.000    2.769 
#    0.000    0.000    0.000    0.000    0.000    3.231 
#    0.000    2.462    0.000    0.000    0.000    0.000 
#
# Total GULP energy -322219.965582 kJ/mol
# GULP energy per Si atom -12393.075599 kJ/mol
# Density = 1.632073 g / cm^3
# Si number density = 16.357960 Si / 1000 Ang^3
#
#
#
# Elastic Constant Matrix: (Units=GPa)
#
#
# Indices 1 2 3 4 5 6 
#
# 1 113.8550 34.7441 38.4081 0.0000 -24.6350 0.0000
# 2 34.7441 81.9630 29.7641 0.0000 -10.2022 0.0000
# 3 38.4081 29.7641 75.5988 0.0000 -2.3009 0.0000
# 4 0.0000 0.0000 0.0000 18.5740 0.0000 -2.5372
# 5 -24.6350 -10.2022 -2.3009 0.0000 35.3291 0.0000
# 6 0.0000 0.0000 0.0000 -2.5372 0.0000 15.1014
#
#
#
# Elastic Compliance Matrix: (Units=1/GPa)
#
#
# Indices 1 2 3 4 5 6 
#
# 1 0.013147 -0.002606 -0.005408 0.000000 0.008063 0.000000
# 2 -0.002606 0.015267 -0.004617 0.000000 0.002291 0.000000
# 3 -0.005408 -0.004617 0.017673 0.000000 -0.003954 0.000000
# 4 0.000000 0.000000 0.000000 0.055103 0.000000 0.009258
# 5 0.008063 0.002291 -0.003954 0.000000 0.034332 0.000000
# 6 0.000000 0.000000 0.000000 0.009258 0.000000 0.067775
#
#
# Mechanical properties :
#
#
# Convention : Reuss Voigt Hill
#
# Bulk Modulus (GPa) = 48.01915 53.02770 50.52343
# Shear Modulus (GPa) = 21.23135 25.03426 23.13280
#
# Velocity S-wave (km/s) = 3.60658 3.91628 3.76461
# Velocity P-wave (km/s) = 6.83828 7.27579 7.06043
#
# Compressibility (1/GPa) = 0.02082502
#
# Stress axis : x y z
#
# Youngs Moduli (GPa) = 76.06163 65.50061 56.58366
#
# Poissons Ratio (x) = 0.17066 0.30602
# Poissons Ratio (y) = 0.19818 0.26126
# Poissons Ratio (z) = 0.41136 0.30244
#
# Static dielectric constant tensor:
#      x y z
#    x 3.454680 0.000000 0.061110 
#    y 0.000000 2.608140 0.000000 
#    z 0.061110 0.000000 3.365610 
# 
# 
# High freq. dielectric constant tensor:
#      x y z
#    x 1.636270 0.000000 0.012440 
#    y 0.000000 1.563830 0.000000 
#    z 0.012440 0.000000 1.646990 
# 
# From -- ./inp_files/146990.got.cif
#   From: 2010.06.25/outbox.cif.g09.slc.cpg/sg12_74_cif.got.tgz:146990.got - 2010.06.28 00:19:55.
