data_PCOD8079628
_publ_section_title
;
Structure prediction by ZEFSAII (Michael W. Deem and Ramdas Pophale) SiO2 
 PCOD8079628
Probable space group: C 2/M
;
_chemical_formula_sum "Si O2"
_cell_formula_units_Z 64
_cell_length_a 17.890184
_cell_length_b 17.856530
_cell_length_c 11.571919
_cell_angle_alpha 90.000000
_cell_angle_beta 83.715275
_cell_angle_gamma 90.000000
_cell_volume 3674.509308
_symmetry_space_group_name_H-M "C 2/M"
_symmetry_group_IT_number 12
_symmetry_cell_setting 'monoclinic'
loop_
_space_group_symop_operation_xyz
x,y,z
-x,y,-z
-x,-y,-z
x,-y,z
1/2+x,1/2+y,z
1/2-x,1/2+y,-z
1/2-x,1/2-y,-z
1/2+x,1/2-y,z
loop_
_atom_site_type_symbol
_atom_site_label
_atom_site_fract_x
_atom_site_fract_y
_atom_site_fract_z
Si Si1 0.826053 0.832086 0.692704
Si Si2 0.254200 0.413783 0.287480
Si Si3 0.282021 0.166198 0.475719
Si Si4 0.070571 0.086407 0.156927
Si Si5 0.369021 0.706663 0.024072
Si Si6 0.703724 0.798934 0.130657
Si Si7 0.918213 0.752304 0.478227
Si Si8 0.915084 0.154796 0.245520
O O1 0.755022 0.866680 0.634860
O O2 0.869011 0.897820 0.752491
O O3 0.790572 0.772317 0.786003
O O4 0.884159 0.794535 0.594146
O O5 0.237963 0.500000 0.273207
O O6 0.238938 0.390496 0.420598
O O7 0.194699 0.371930 0.212771
O O8 0.340791 0.395668 0.243793
O O9 0.250000 0.250000 0.500000
O O10 0.371892 0.177129 0.452682
O O11 0.987452 0.102812 0.218574
O O12 0.076261 0.000000 0.118440
O O13 0.087597 0.138169 0.043890
O O14 0.280428 0.687989 0.046818
O O15 0.408766 0.717000 0.142469
O O16 0.367665 0.782848 0.944317
O O17 0.919268 0.807067 0.368624
O O18 0.000000 0.724465 0.500000
#
# Coordination Sequence:
#
# PCOD8079628 Si02
#       8
#     8   8   8   8   8   8   8   8
#     4  10  18  35  56  76 106 148 185 221 269 319
#     4  11  20  30  52  81 108 142 184 227 279 329
#     4  10  17  33  53  75 107 140 177 229 269 315
#     4  11  23  35  49  76 122 157 179 216 263 328
#     4   9  20  33  53  70  98 149 196 223 263 302
#     4   9  17  35  53  73  96 133 191 246 263 304
#     4  11  19  33  57  83 106 138 180 227 277 321
#     4  11  20  34  50  79 114 151 184 214 258 332
#
# _framework density 17.417290999999999
#
# number of rings (size 3 to 8) (size 9 to 14) (size 15 to 20)
#    0.000    1.750    6.250    1.500    0.000    3.500 
#    0.000    0.625    0.000    0.375    0.000    0.000 
#    0.000   13.000    0.000    0.000    0.000    0.000 
#
# Total GULP energy -396497.445431 kJ/mol
# GULP energy per Si atom -12390.545170 kJ/mol
# Density = 1.737765 g / cm^3
# Si number density = 17.417291 Si / 1000 Ang^3
#
#
#
# Elastic Constant Matrix: (Units=GPa)
#
#
# Indices 1 2 3 4 5 6 
#
# 1 81.0150 31.4862 18.6306 0.0000 1.3167 0.0000
# 2 31.4862 78.9047 22.7350 0.0000 0.7438 0.0000
# 3 18.6306 22.7350 75.9119 0.0000 -1.9307 0.0000
# 4 0.0000 0.0000 0.0000 14.8850 0.0000 -0.6772
# 5 1.3167 0.7438 -1.9307 0.0000 29.0041 0.0000
# 6 0.0000 0.0000 0.0000 -0.6772 0.0000 15.8491
#
#
#
# Elastic Compliance Matrix: (Units=1/GPa)
#
#
# Indices 1 2 3 4 5 6 
#
# 1 0.014909 -0.005345 -0.002076 0.000000 -0.000678 0.000000
# 2 -0.005345 0.015798 -0.003430 0.000000 -0.000391 0.000000
# 3 -0.002076 -0.003430 0.014739 0.000000 0.001163 0.000000
# 4 0.000000 0.000000 0.000000 0.067313 0.000000 0.002876
# 5 -0.000678 -0.000391 0.001163 0.000000 0.034596 0.000000
# 6 0.000000 0.000000 0.000000 0.002876 0.000000 0.063218
#
#
# Mechanical properties :
#
#
# Convention : Reuss Voigt Hill
#
# Bulk Modulus (GPa) = 42.11157 42.39281 42.25219
# Shear Modulus (GPa) = 20.81696 22.81295 21.81495
#
# Velocity S-wave (km/s) = 3.46090 3.62302 3.54289
# Velocity P-wave (km/s) = 6.34042 6.47256 6.40683
#
# Compressibility (1/GPa) = 0.02374644
#
# Stress axis : x y z
#
# Youngs Moduli (GPa) = 67.07368 63.29835 67.84594
#
# Poissons Ratio (x) = 0.33832 0.14082
# Poissons Ratio (y) = 0.35850 0.23269
# Poissons Ratio (z) = 0.13921 0.21709
#
# Static dielectric constant tensor:
#      x y z
#    x 3.653110 0.000000 0.194680 
#    y 0.000000 2.928250 0.000000 
#    z 0.194680 0.000000 3.651240 
# 
# 
# High freq. dielectric constant tensor:
#      x y z
#    x 1.668690 0.000000 0.008580 
#    y 0.000000 1.621860 0.000000 
#    z 0.008580 0.000000 1.697510 
# 
# From -- ./inp_files/157815.got.cif
#   From: 2010.06.25/outbox.cif.g09.slc.cpg/sg12_79_cif.got.tgz:157815.got - 2010.06.28 00:19:55.
