data_PCOD8079032
_publ_section_title
;
Structure prediction by ZEFSAII (Michael W. Deem and Ramdas Pophale) SiO2 
 PCOD8079032
Probable space group: C 2/M
;
_chemical_formula_sum "Si O2"
_cell_formula_units_Z 64
_cell_length_a 25.256802
_cell_length_b 8.988806
_cell_length_c 23.928094
_cell_angle_alpha 90.000000
_cell_angle_beta 46.435778
_cell_angle_gamma 90.000000
_cell_volume 3936.300186
_symmetry_space_group_name_H-M "C 2/M"
_symmetry_group_IT_number 12
_symmetry_cell_setting 'monoclinic'
loop_
_space_group_symop_operation_xyz
x,y,z
-x,y,-z
-x,-y,-z
x,-y,z
1/2+x,1/2+y,z
1/2-x,1/2+y,-z
1/2-x,1/2-y,-z
1/2+x,1/2-y,z
loop_
_atom_site_type_symbol
_atom_site_label
_atom_site_fract_x
_atom_site_fract_y
_atom_site_fract_z
Si Si1 0.554554 0.176206 0.329117
Si Si2 0.029589 0.323654 0.920163
Si Si3 0.193270 0.676295 0.809241
Si Si4 0.827827 0.324262 0.661965
Si Si5 0.225255 0.676341 0.909950
Si Si6 0.910592 0.323275 0.918806
Si Si7 0.386647 0.676593 0.821014
Si Si8 0.558649 0.826623 0.504031
O O1 0.620387 0.216928 0.323350
O O2 0.563742 0.265566 0.265515
O O3 0.476123 0.232458 0.412362
O O4 0.553552 0.000000 0.318261
O O5 0.025865 0.500000 0.927389
O O6 0.112600 0.271210 0.849440
O O7 0.979066 0.269368 0.906112
O O8 0.000000 0.255755 0.000000
O O9 0.200961 0.500000 0.802252
O O10 0.250241 0.744774 0.724157
O O11 0.209171 0.738972 0.859807
O O12 0.815971 0.500000 0.668094
O O13 0.864311 0.264545 0.576638
O O14 0.223001 0.500000 0.909050
O O15 0.303660 0.734797 0.873663
O O16 0.163590 0.733556 0.997502
O O17 0.909884 0.500000 0.910908
O O18 0.919376 0.243596 0.853465
O O19 0.389995 0.500000 0.820581
O O20 0.500000 0.790577 0.500000
O O21 0.568817 0.000000 0.504023
#
# Coordination Sequence:
#
# PCOD8079032 Si02
#       8
#     8   8   8   8   8   8   8   8
#     4   9  16  28  46  66  89 122 158 185 212 260
#     4   9  16  29  51  70  84 112 158 201 230 258
#     4  10  17  28  47  70  93 119 150 188 231 269
#     4   9  16  27  44  68  95 121 149 182 223 271
#     4   9  17  29  46  65  90 120 152 187 224 265
#     4  10  19  33  50  66  84 118 165 199 220 258
#     4  11  21  31  43  66  98 126 148 182 233 278
#     4   7  12  24  42  63  89 119 150 182 215 258
#
# _framework density 16.258921999999998
#
# number of rings (size 3 to 8) (size 9 to 14) (size 15 to 20)
#    0.000    2.750    2.500    2.250    0.000    0.000 
#    0.000    2.500    0.000    3.000    0.000    0.875 
#    0.000    0.000    0.000    0.000    0.000    0.000 
#
# Total GULP energy -396527.876863 kJ/mol
# GULP energy per Si atom -12391.496152 kJ/mol
# Density = 1.622192 g / cm^3
# Si number density = 16.258922 Si / 1000 Ang^3
#
#
#
# Elastic Constant Matrix: (Units=GPa)
#
#
# Indices 1 2 3 4 5 6 
#
# 1 102.4940 25.2228 72.3666 0.0038 1.2316 -0.0011
# 2 25.2228 28.7895 35.1388 0.0079 0.3984 -0.0065
# 3 72.3666 35.1388 169.5870 0.0011 -8.0341 -0.0042
# 4 0.0038 0.0079 0.0011 22.6078 -0.0011 -1.5092
# 5 1.2316 0.3984 -8.0341 -0.0011 19.5028 0.0017
# 6 -0.0011 -0.0065 -0.0042 -1.5092 0.0017 15.5719
#
#
#
# Elastic Compliance Matrix: (Units=1/GPa)
#
#
# Indices 1 2 3 4 5 6 
#
# 1 0.015144 -0.006919 -0.005168 0.000000 -0.002944 -0.000003
# 2 -0.006919 0.050140 -0.007613 -0.000015 -0.003724 0.000017
# 3 -0.005168 -0.007613 0.009895 0.000003 0.004558 -0.000001
# 4 0.000000 -0.000015 0.000003 0.044521 0.000004 0.004315
# 5 -0.002944 -0.003724 0.004558 0.000004 0.053414 -0.000006
# 6 -0.000003 0.000017 -0.000001 0.004315 -0.000006 0.064636
#
#
# Mechanical properties :
#
#
# Convention : Reuss Voigt Hill
#
# Bulk Modulus (GPa) = 27.94924 62.92521 45.43722
# Shear Modulus (GPa) = 17.29643 22.74600 20.02121
#
# Velocity S-wave (km/s) = 3.26515 3.74436 3.51294
# Velocity P-wave (km/s) = 5.60735 7.58153 6.66791
#
# Compressibility (1/GPa) = 0.03577915
#
# Stress axis : x y z
#
# Youngs Moduli (GPa) = 66.03436 19.94404 101.05762
#
# Poissons Ratio (x) = 0.13799 0.52226
# Poissons Ratio (y) = 0.45690 0.76936
# Poissons Ratio (z) = 0.34126 0.15184
#
# Static dielectric constant tensor:
#      x y z
#    x 2.933330 -0.000010 -0.127480 
#    y -0.000010 2.672690 0.000010 
#    z -0.127480 0.000010 3.433050 
# 
# 
# High freq. dielectric constant tensor:
#      x y z
#    x 1.591990 0.000000 -0.007070 
#    y 0.000000 1.589430 0.000000 
#    z -0.007070 0.000000 1.640390 
# 
# From -- ./inp_files/350920.got.cif
#   From: 2010.06.25/outbox.cif.g09.slc.cpg/sg12_176_cif.got.tgz:350920.got - 2010.06.28 00:19:55.
