data_PCOD8079733
_publ_section_title
;
Structure prediction by ZEFSAII (Michael W. Deem and Ramdas Pophale) SiO2 
 PCOD8079733
Probable space group: C 2/M
;
_chemical_formula_sum "Si O2"
_cell_formula_units_Z 56
_cell_length_a 17.801979
_cell_length_b 20.268183
_cell_length_c 18.292031
_cell_angle_alpha 90.000000
_cell_angle_beta 151.108588
_cell_angle_gamma 90.000000
_cell_volume 3188.805662
_symmetry_space_group_name_H-M "C 2/M"
_symmetry_group_IT_number 12
_symmetry_cell_setting 'monoclinic'
loop_
_space_group_symop_operation_xyz
x,y,z
-x,y,-z
-x,-y,-z
x,-y,z
1/2+x,1/2+y,z
1/2-x,1/2+y,-z
1/2-x,1/2-y,-z
1/2+x,1/2-y,z
loop_
_atom_site_type_symbol
_atom_site_label
_atom_site_fract_x
_atom_site_fract_y
_atom_site_fract_z
Si Si1 0.864052 0.074253 0.033852
Si Si2 0.774348 0.923647 0.683885
Si Si3 0.613771 0.169970 0.446088
Si Si4 0.109983 0.739989 0.303061
Si Si5 0.275929 0.851311 0.210340
Si Si6 0.329565 0.689101 0.109981
Si Si7 0.408529 0.224562 0.988325
O O1 0.800011 0.121162 0.042813
O O2 0.043882 0.087721 0.171286
O O3 0.835687 0.000000 0.035943
O O4 0.766377 0.086706 0.877067
O O5 0.683663 0.899604 0.533840
O O6 0.716865 0.877821 0.701227
O O7 0.733432 0.000000 0.663391
O O8 0.719755 0.230327 0.566609
O O9 0.616171 0.173836 0.358947
O O10 0.440781 0.180029 0.329221
O O11 0.012503 0.793974 0.268818
O O12 0.030247 0.727738 0.158118
O O13 0.143010 0.796639 0.084033
O O14 0.244794 0.683735 0.116809
O O15 0.250000 0.750000 0.000000
O O16 0.500000 0.188590 0.000000
#
# Coordination Sequence:
#
# PCOD8079733 Si02
#       7
#     8   8   8   8   8   8   8
#     4  11  21  36  57  78 105 151 194 225 272 329
#     4  11  24  37  50  77 120 159 186 214 262 338
#     4  11  21  33  52  72 107 155 183 226 269 310
#     4  10  19  36  54  76 105 143 187 235 273 319
#     4  12  20  32  52  81 114 152 184 223 265 323
#     4  10  17  35  55  79 104 136 182 237 267 317
#     4  11  20  33  57  82 109 138 180 233 288 326
#
# _framework density 17.561433999999998
#
# number of rings (size 3 to 8) (size 9 to 14) (size 15 to 20)
#    0.000    1.143    5.714    3.857    0.000    2.857 
#    0.000    0.000    0.000    0.429    0.000    0.000 
#    0.000    2.286    0.000    0.000    0.000    0.000 
#
# Total GULP energy -347061.782642 kJ/mol
# GULP energy per Si atom -12395.063666 kJ/mol
# Density = 1.752146 g / cm^3
# Si number density = 17.561434 Si / 1000 Ang^3
#
#
#
# Elastic Constant Matrix: (Units=GPa)
#
#
# Indices 1 2 3 4 5 6 
#
# 1 119.5232 42.8206 39.5356 -0.0017 0.0315 0.0013
# 2 42.8206 74.4572 27.1036 -0.0124 -5.6743 -0.0065
# 3 39.5356 27.1036 97.6442 -0.0160 -3.5265 -0.0078
# 4 -0.0017 -0.0124 -0.0160 24.1242 -0.0041 -1.8411
# 5 0.0315 -5.6743 -3.5265 -0.0041 28.3837 -0.0002
# 6 0.0013 -0.0065 -0.0078 -1.8411 -0.0002 26.7346
#
#
#
# Elastic Compliance Matrix: (Units=1/GPa)
#
#
# Indices 1 2 3 4 5 6 
#
# 1 0.011380 -0.005520 -0.003130 -0.000005 -0.001505 -0.000003
# 2 -0.005520 0.017794 -0.002587 0.000008 0.003242 0.000004
# 3 -0.003130 -0.002587 0.012263 0.000007 0.001010 0.000004
# 4 -0.000005 0.000008 0.000007 0.041671 0.000009 0.002870
# 5 -0.001505 0.003242 0.001010 0.000009 0.036007 0.000002
# 6 -0.000003 0.000004 0.000004 0.002870 0.000002 0.037602
#
#
# Mechanical properties :
#
#
# Convention : Reuss Voigt Hill
#
# Bulk Modulus (GPa) = 52.73378 56.72714 54.73046
# Shear Modulus (GPa) = 26.95245 27.99280 27.47263
#
# Velocity S-wave (km/s) = 3.92184 3.99682 3.95951
# Velocity P-wave (km/s) = 7.11345 7.32609 7.22055
#
# Compressibility (1/GPa) = 0.01896318
#
# Stress axis : x y z
#
# Youngs Moduli (GPa) = 87.87469 56.19903 81.54564
#
# Poissons Ratio (x) = 0.31022 0.25522
# Poissons Ratio (y) = 0.48507 0.21096
# Poissons Ratio (z) = 0.27503 0.14539
#
# Static dielectric constant tensor:
#      x y z
#    x 3.676500 0.000000 0.215360 
#    y 0.000000 3.062460 0.000000 
#    z 0.215360 0.000000 3.516480 
# 
# 
# High freq. dielectric constant tensor:
#      x y z
#    x 1.675750 0.000000 0.013700 
#    y 0.000000 1.637470 0.000000 
#    z 0.013700 0.000000 1.693400 
# 
# From -- ./inp_files/279024.got.cif
#   From: 2010.06.25/outbox.cif.g09.slc.cpg/sg12_140_cif.got.tgz:279024.got - 2010.06.28 00:19:55.
