data_PCOD8079824
_publ_section_title
;
Structure prediction by ZEFSAII (Michael W. Deem and Ramdas Pophale) SiO2 
 PCOD8079824
Probable space group: C 2/M
;
_chemical_formula_sum "Si O2"
_cell_formula_units_Z 64
_cell_length_a 27.508109
_cell_length_b 9.229337
_cell_length_c 22.407599
_cell_angle_alpha 90.000000
_cell_angle_beta 133.204395
_cell_angle_gamma 90.000000
_cell_volume 4146.714322
_symmetry_space_group_name_H-M "C 2/M"
_symmetry_group_IT_number 12
_symmetry_cell_setting 'monoclinic'
loop_
_space_group_symop_operation_xyz
x,y,z
-x,y,-z
-x,-y,-z
x,-y,z
1/2+x,1/2+y,z
1/2-x,1/2+y,-z
1/2-x,1/2-y,-z
1/2+x,1/2-y,z
loop_
_atom_site_type_symbol
_atom_site_label
_atom_site_fract_x
_atom_site_fract_y
_atom_site_fract_z
Si Si1 0.710223 0.330100 0.223442
Si Si2 0.651572 0.330009 0.647623
Si Si3 0.819189 0.170596 0.565822
Si Si4 0.013514 0.337870 0.106849
Si Si5 0.605847 0.836242 0.069255
Si Si6 0.089316 0.832420 0.467898
Si Si7 0.381526 0.668248 0.741433
Si Si8 0.030867 0.336376 0.591228
O O1 0.723877 0.500000 0.227399
O O2 0.778367 0.243473 0.281011
O O3 0.667165 0.273656 0.130694
O O4 0.672204 0.294209 0.252889
O O5 0.655462 0.500000 0.664807
O O6 0.632042 0.299740 0.562851
O O7 0.598355 0.257364 0.647627
O O8 0.750000 0.250000 0.500000
O O9 0.866643 0.213945 0.551233
O O10 0.853249 0.226600 0.655196
O O11 0.805413 0.000000 0.556411
O O12 0.008936 0.500000 0.128390
O O13 0.059685 0.333374 0.088059
O O14 0.046387 0.239671 0.185627
O O15 0.939049 0.284906 0.025224
O O16 0.632492 0.000000 0.081388
O O17 0.022024 0.737941 0.408806
O O18 0.068218 0.000000 0.447795
O O19 0.396073 0.500000 0.750364
O O20 0.045961 0.500000 0.625509
O O21 0.000000 0.336622 0.500000
#
# Coordination Sequence:
#
# PCOD8079824 Si02
#       8
#     8   8   8   8   8   8   8   8
#     4  10  18  26  38  59  86 113 140 170 206 248
#     4  10  18  28  43  61  82 109 139 171 208 250
#     4  10  20  32  44  60  84 114 147 180 210 240
#     4   8  14  25  41  57  75 103 139 174 205 243
#     4   8  14  25  39  56  78 105 136 169 206 246
#     4   9  18  31  45  60  80 109 144 177 208 244
#     4   9  18  29  40  57  83 113 143 176 211 243
#     4   9  17  29  45  63  81 102 131 170 214 255
#
# _framework density 15.433906
#
# number of rings (size 3 to 8) (size 9 to 14) (size 15 to 20)
#    0.000    2.875    0.000    2.625    0.000    4.000 
#    0.000    2.500    0.000    0.000    0.000    0.000 
#    0.000    1.000    0.000    3.000    0.000    4.625 
#
# Total GULP energy -396695.948262 kJ/mol
# GULP energy per Si atom -12396.748383 kJ/mol
# Density = 1.539878 g / cm^3
# Si number density = 15.433906 Si / 1000 Ang^3
#
#
#
# Elastic Constant Matrix: (Units=GPa)
#
#
# Indices 1 2 3 4 5 6 
#
# 1 74.5339 48.8060 53.0780 0.0000 12.6908 0.0000
# 2 48.8060 87.7973 63.2374 0.0000 17.4360 0.0000
# 3 53.0780 63.2374 124.5338 0.0000 15.2234 0.0000
# 4 0.0000 0.0000 0.0000 29.4688 0.0000 7.8283
# 5 12.6908 17.4360 15.2234 0.0000 17.1076 0.0000
# 6 0.0000 0.0000 0.0000 7.8283 0.0000 20.3756
#
#
#
# Elastic Compliance Matrix: (Units=1/GPa)
#
#
# Indices 1 2 3 4 5 6 
#
# 1 0.023303 -0.008428 -0.005149 0.000000 -0.004115 0.000000
# 2 -0.008428 0.023247 -0.006823 0.000000 -0.011370 0.000000
# 3 -0.005149 -0.006823 0.013882 0.000000 -0.001580 0.000000
# 4 0.000000 0.000000 0.000000 0.037791 0.000000 -0.014519
# 5 -0.004115 -0.011370 -0.001580 0.000000 0.074500 0.000000
# 6 0.000000 0.000000 0.000000 -0.014519 0.000000 0.054657
#
#
# Mechanical properties :
#
#
# Convention : Reuss Voigt Hill
#
# Bulk Modulus (GPa) = 50.93621 68.56754 59.75188
# Shear Modulus (GPa) = 18.20002 21.50664 19.85333
#
# Velocity S-wave (km/s) = 3.43771 3.73697 3.59046
# Velocity P-wave (km/s) = 6.98796 7.94625 7.48246
#
# Compressibility (1/GPa) = 0.01963240
#
# Stress axis : x y z
#
# Youngs Moduli (GPa) = 42.91256 43.01613 72.03384
#
# Poissons Ratio (x) = 0.36254 0.37094
# Poissons Ratio (y) = 0.36166 0.49147
# Poissons Ratio (z) = 0.22098 0.29349
#
# Static dielectric constant tensor:
#      x y z
#    x 2.765260 0.000000 0.069060 
#    y 0.000000 3.070880 0.000000 
#    z 0.069060 0.000000 3.151290 
# 
# 
# High freq. dielectric constant tensor:
#      x y z
#    x 1.551600 0.000000 0.019100 
#    y 0.000000 1.599430 0.000000 
#    z 0.019100 0.000000 1.584840 
# 
# From -- ./inp_files/348594.got.cif
#   From: 2010.06.25/outbox.cif.g09.slc.cpg/sg12_175_cif.got.tgz:348594.got - 2010.06.28 00:19:55.
