data_PCOD8079228
_publ_section_title
;
Structure prediction by ZEFSAII (Michael W. Deem and Ramdas Pophale) SiO2 
 PCOD8079228
Probable space group: C 2/M
;
_chemical_formula_sum "Si O2"
_cell_formula_units_Z 64
_cell_length_a 12.132695
_cell_length_b 20.092515
_cell_length_c 18.743942
_cell_angle_alpha 90.000000
_cell_angle_beta 49.662770
_cell_angle_gamma 90.000000
_cell_volume 3482.962079
_symmetry_space_group_name_H-M "C 2/M"
_symmetry_group_IT_number 12
_symmetry_cell_setting 'monoclinic'
loop_
_space_group_symop_operation_xyz
x,y,z
-x,y,-z
-x,-y,-z
x,-y,z
1/2+x,1/2+y,z
1/2-x,1/2+y,-z
1/2-x,1/2-y,-z
1/2+x,1/2-y,z
loop_
_atom_site_type_symbol
_atom_site_label
_atom_site_fract_x
_atom_site_fract_y
_atom_site_fract_z
Si Si1 0.640017 0.922034 0.232011
Si Si2 0.129078 0.323050 0.106225
Si Si3 0.395953 0.422034 0.232008
Si Si4 0.304562 0.425834 0.695439
Si Si5 0.658466 0.323053 0.106223
Si Si6 0.322977 0.921325 0.395942
Si Si7 0.102788 0.617324 0.897213
Si Si8 0.114859 0.921325 0.604065
O O1 0.649530 0.879647 0.156512
O O2 0.771084 0.903263 0.228910
O O3 0.491412 0.903438 0.335036
O O4 0.642800 0.000000 0.209538
O O5 0.097860 0.249998 0.152137
O O6 0.994671 0.336512 0.111332
O O7 0.278822 0.322486 0.000002
O O8 0.438112 0.500000 0.209537
O O9 0.537437 0.379648 0.156504
O O10 0.338518 0.403435 0.335030
O O11 0.344240 0.500000 0.655762
O O12 0.234794 0.390386 0.655064
O O13 0.191483 0.431680 0.808511
O O14 0.455075 0.390387 0.655072
O O15 0.782647 0.336519 0.111339
O O16 0.231530 0.890563 0.500003
O O17 0.304299 0.000000 0.402452
O O18 0.000000 0.580551 0.000000
O O19 0.109204 0.000000 0.597556
#
# Coordination Sequence:
#
# PCOD8079228 Si02
#       8
#     8   8   8   8   8   8   8   8
#     4  10  21  36  55  82 113 146 183 226 280 332
#     4  10  22  38  57  80 109 145 185 226 270 329
#     4  10  21  36  55  82 113 146 183 226 280 332
#     4  10  17  29  50  79 111 139 172 220 275 326
#     4  10  22  38  57  80 109 145 185 226 270 329
#     4   9  17  30  50  77 108 141 178 222 271 324
#     4  10  20  34  53  80 105 137 183 222 272 325
#     4   9  17  30  50  77 108 141 178 222 271 324
#
# _framework density 18.375164000000002
#
# number of rings (size 3 to 8) (size 9 to 14) (size 15 to 20)
#    0.000    2.250    2.500    0.375    1.750    3.250 
#    0.000    6.250    0.000    0.750    0.000    0.000 
#    0.000    0.000    0.000    0.000    0.000    0.000 
#
# Total GULP energy -396581.938462 kJ/mol
# GULP energy per Si atom -12393.185577 kJ/mol
# Density = 1.833334 g / cm^3
# Si number density = 18.375164 Si / 1000 Ang^3
#
#
#
# Elastic Constant Matrix: (Units=GPa)
#
#
# Indices 1 2 3 4 5 6 
#
# 1 152.7382 44.2036 61.3184 0.0008 0.9000 -0.0005
# 2 44.2036 55.1627 35.0314 0.0003 0.1343 -0.0003
# 3 61.3184 35.0314 131.0010 0.0008 -0.5932 -0.0006
# 4 0.0008 0.0003 0.0008 2.8439 -0.0003 0.1769
# 5 0.9000 0.1343 -0.5932 -0.0003 15.9389 0.0001
# 6 -0.0005 -0.0003 -0.0006 0.1769 0.0001 14.2133
#
#
#
# Elastic Compliance Matrix: (Units=1/GPa)
#
#
# Indices 1 2 3 4 5 6 
#
# 1 0.009338 -0.005666 -0.002858 -0.000001 -0.000586 0.000000
# 2 -0.005666 0.025277 -0.004107 0.000000 -0.000046 0.000000
# 3 -0.002858 -0.004107 0.010072 -0.000002 0.000571 0.000000
# 4 -0.000001 0.000000 -0.000002 0.351899 0.000006 -0.004379
# 5 -0.000586 -0.000046 0.000571 0.000006 0.062794 -0.000001
# 6 0.000000 0.000000 0.000000 -0.004379 -0.000001 0.070411
#
#
# Mechanical properties :
#
#
# Convention : Reuss Voigt Hill
#
# Bulk Modulus (GPa) = 51.48353 68.88985 60.18669
# Shear Modulus (GPa) = 8.90424 19.82246 14.36335
#
# Velocity S-wave (km/s) = 2.20371 3.28802 2.79887
# Velocity P-wave (km/s) = 5.87826 7.21019 6.57802
#
# Compressibility (1/GPa) = 0.01942369
#
# Stress axis : x y z
#
# Youngs Moduli (GPa) = 107.09013 39.56126 99.28106
#
# Poissons Ratio (x) = 0.22416 0.28378
# Poissons Ratio (y) = 0.60679 0.40780
# Poissons Ratio (z) = 0.30610 0.16250
#
# Static dielectric constant tensor:
#      x y z
#    x 3.559930 0.000000 -0.001850 
#    y 0.000000 2.992150 0.000000 
#    z -0.001850 0.000000 3.679990 
# 
# 
# High freq. dielectric constant tensor:
#      x y z
#    x 1.727400 0.000000 0.000130 
#    y 0.000000 1.661610 0.000000 
#    z 0.000130 0.000000 1.718970 
# 
# From -- ./inp_files/265042.got.cif
#   From: 2010.06.25/outbox.cif.g09.slc.cpg/sg12_133_cif.got.tgz:265042.got - 2010.06.28 00:19:55.
