data_PCOD8079205
_publ_section_title
;
Structure prediction by ZEFSAII (Michael W. Deem and Ramdas Pophale) SiO2 
 PCOD8079205
Probable space group: C 2/M
;
_chemical_formula_sum "Si O2"
_cell_formula_units_Z 64
_cell_length_a 20.838675
_cell_length_b 24.580847
_cell_length_c 9.163448
_cell_angle_alpha 90.000000
_cell_angle_beta 135.083164
_cell_angle_gamma 90.000000
_cell_volume 3314.206608
_symmetry_space_group_name_H-M "C 2/M"
_symmetry_group_IT_number 12
_symmetry_cell_setting 'monoclinic'
loop_
_space_group_symop_operation_xyz
x,y,z
-x,y,-z
-x,-y,-z
x,-y,z
1/2+x,1/2+y,z
1/2-x,1/2+y,-z
1/2-x,1/2-y,-z
1/2+x,1/2-y,z
loop_
_atom_site_type_symbol
_atom_site_label
_atom_site_fract_x
_atom_site_fract_y
_atom_site_fract_z
Si Si1 0.845277 0.157914 0.483030
Si Si2 0.836654 0.722074 0.391798
Si Si3 0.514259 0.796915 0.857544
Si Si4 0.592917 0.145301 0.726949
Si Si5 0.204455 0.136191 0.289774
Si Si6 0.548434 0.323568 0.868746
Si Si7 0.098190 0.101391 0.699914
Si Si8 0.760452 0.561648 0.137553
O O1 0.811748 0.214200 0.356140
O O2 0.782049 0.135542 0.513270
O O3 0.846577 0.113116 0.358972
O O4 0.942324 0.165747 0.714620
O O5 0.870298 0.701383 0.287319
O O6 0.746117 0.691082 0.290900
O O7 0.914306 0.707823 0.631540
O O8 0.573361 0.841973 0.865540
O O9 0.567570 0.739862 0.928979
O O10 0.500000 0.816160 0.000000
O O11 0.500000 0.125790 0.500000
O O12 0.666977 0.097434 0.835267
O O13 0.251873 0.084024 0.290048
O O14 0.099176 0.139626 0.071146
O O15 0.579854 0.341793 0.756529
O O16 0.000000 0.074395 0.500000
O O17 0.161710 0.062533 0.899484
O O18 0.795276 0.500000 0.201348
#
# Coordination Sequence:
#
# PCOD8079205 Si02
#       8
#     8   8   8   8   8   8   8   8
#     4  10  17  29  49  75 105 131 158 195 242 296
#     4   9  18  30  46  73 106 136 158 189 237 300
#     4  10  18  29  48  75 107 135 160 193 239 294
#     4   9  19  35  53  74 101 132 167 203 245 299
#     4  10  19  31  49  72  99 129 168 206 242 290
#     4   9  17  30  47  72 105 141 162 182 230 300
#     4   9  19  33  52  74 100 131 163 202 248 299
#     4  10  22  39  55  70  92 129 175 219 257 293
#
# _framework density 19.310804999999998
#
# number of rings (size 3 to 8) (size 9 to 14) (size 15 to 20)
#    0.000    2.500    0.000    3.000    0.000    5.500 
#    0.000    4.375    0.000   10.125    0.000    0.000 
#    0.000    0.000    0.000    0.000    0.000    0.000 
#
# Total GULP energy -396635.000993 kJ/mol
# GULP energy per Si atom -12394.843781 kJ/mol
# Density = 1.926685 g / cm^3
# Si number density = 19.310805 Si / 1000 Ang^3
#
#
#
# Elastic Constant Matrix: (Units=GPa)
#
#
# Indices 1 2 3 4 5 6 
#
# 1 99.5599 33.2989 30.3878 0.0000 -29.1871 0.0000
# 2 33.2989 82.6929 17.3637 0.0000 -9.3332 0.0000
# 3 30.3878 17.3637 42.1084 0.0000 -15.5566 0.0000
# 4 0.0000 0.0000 0.0000 14.0535 0.0000 2.1441
# 5 -29.1871 -9.3332 -15.5566 0.0000 33.6566 0.0000
# 6 0.0000 0.0000 0.0000 2.1441 0.0000 12.4882
#
#
#
# Elastic Compliance Matrix: (Units=1/GPa)
#
#
# Indices 1 2 3 4 5 6 
#
# 1 0.016306 -0.004094 -0.006360 0.000000 0.010065 0.000000
# 2 -0.004094 0.014321 -0.003371 0.000000 -0.001137 0.000000
# 3 -0.006360 -0.003371 0.032976 0.000000 0.008792 0.000000
# 4 0.000000 0.000000 0.000000 0.073071 0.000000 -0.012545
# 5 0.010065 -0.001137 0.008792 0.000000 0.042189 0.000000
# 6 0.000000 0.000000 0.000000 -0.012545 0.000000 0.082229
#
#
# Mechanical properties :
#
#
# Convention : Reuss Voigt Hill
#
# Bulk Modulus (GPa) = 27.81502 42.94022 35.37762
# Shear Modulus (GPa) = 16.62641 21.59372 19.11006
#
# Velocity S-wave (km/s) = 2.93745 3.34761 3.14921
# Velocity P-wave (km/s) = 5.09312 6.10136 5.61990
#
# Compressibility (1/GPa) = 0.03595180
#
# Stress axis : x y z
#
# Youngs Moduli (GPa) = 61.32869 69.82696 30.32498
#
# Poissons Ratio (x) = 0.28590 0.19287
# Poissons Ratio (y) = 0.25111 0.10222
# Poissons Ratio (z) = 0.39006 0.23538
#
# Static dielectric constant tensor:
#      x y z
#    x 3.583010 0.000000 -0.019730 
#    y 0.000000 3.058400 0.000000 
#    z -0.019730 0.000000 3.531570 
# 
# 
# High freq. dielectric constant tensor:
#      x y z
#    x 1.759010 0.000000 -0.001820 
#    y 0.000000 1.696230 0.000000 
#    z -0.001820 0.000000 1.749770 
# 
# From -- ./inp_files/90677.got.cif
#   From: 2010.06.25/outbox.cif.g09.slc.cpg/sg12_46_cif.got.tgz:90677.got - 2010.06.28 00:19:55.
