data_PCOD8079728
_publ_section_title
;
Structure prediction by ZEFSAII (Michael W. Deem and Ramdas Pophale) SiO2 
 PCOD8079728
Probable space group: C 2/M
;
_chemical_formula_sum "Si O2"
_cell_formula_units_Z 64
_cell_length_a 18.932411
_cell_length_b 18.509908
_cell_length_c 10.096921
_cell_angle_alpha 90.000000
_cell_angle_beta 96.973961
_cell_angle_gamma 90.000000
_cell_volume 3512.157966
_symmetry_space_group_name_H-M "C 2/M"
_symmetry_group_IT_number 12
_symmetry_cell_setting 'monoclinic'
loop_
_space_group_symop_operation_xyz
x,y,z
-x,y,-z
-x,-y,-z
x,-y,z
1/2+x,1/2+y,z
1/2-x,1/2+y,-z
1/2-x,1/2-y,-z
1/2+x,1/2-y,z
loop_
_atom_site_type_symbol
_atom_site_label
_atom_site_fract_x
_atom_site_fract_y
_atom_site_fract_z
Si Si1 0.753644 0.419602 0.936359
Si Si2 0.522099 0.265727 0.149158
Si Si3 0.140945 0.883414 0.698610
Si Si4 0.164788 0.278662 0.097733
Si Si5 0.013291 0.918873 0.259068
Si Si6 0.662733 0.580938 0.414341
Si Si7 0.247951 0.649540 0.791487
Si Si8 0.380037 0.231219 0.208248
O O1 0.786430 0.500000 0.933031
O O2 0.682293 0.416819 0.833040
O O3 0.812360 0.362519 0.898167
O O4 0.733702 0.405996 0.086361
O O5 0.601723 0.235418 0.190888
O O6 0.517369 0.353588 0.154269
O O7 0.466542 0.226420 0.237404
O O8 0.500000 0.240241 0.000000
O O9 0.180065 0.904917 0.571658
O O10 0.142824 0.797270 0.704364
O O11 0.060931 0.914882 0.679300
O O12 0.231199 0.230079 0.155950
O O13 0.139524 0.251172 0.948682
O O14 0.078992 0.904744 0.373405
O O15 0.020490 0.000000 0.196963
O O16 0.684028 0.500000 0.381693
O O17 0.712542 0.630393 0.334197
O O18 0.161790 0.658811 0.751805
#
# Coordination Sequence:
#
# PCOD8079728 Si02
#       8
#     8   8   8   8   8   8   8   8
#     4  11  21  34  56  78 102 135 170 210 258 305
#     4   9  18  31  52  75  99 134 170 210 254 293
#     4  11  20  35  51  74 104 140 175 205 246 303
#     4  10  17  35  54  76 105 132 168 215 254 296
#     4  10  20  32  46  68 104 144 173 200 245 299
#     4  11  23  34  48  73 108 142 171 210 253 295
#     4  11  19  36  53  75 105 135 169 211 256 304
#     4   9  18  33  55  75  98 135 171 209 255 296
#
# _framework density 18.222415000000002
#
# number of rings (size 3 to 8) (size 9 to 14) (size 15 to 20)
#    0.000    1.750    3.750    2.625    0.000    1.750 
#    0.000    0.000    0.000   10.125    0.000    0.000 
#    0.000    2.000    0.000    0.000    0.000    0.000 
#
# Total GULP energy -396551.368839 kJ/mol
# GULP energy per Si atom -12392.230276 kJ/mol
# Density = 1.818094 g / cm^3
# Si number density = 18.222415 Si / 1000 Ang^3
#
#
#
# Elastic Constant Matrix: (Units=GPa)
#
#
# Indices 1 2 3 4 5 6 
#
# 1 99.1200 44.9480 27.8583 0.0000 -17.6005 0.0000
# 2 44.9480 95.9221 26.8752 0.0000 -13.7614 0.0000
# 3 27.8583 26.8752 52.3694 0.0000 -13.8782 0.0000
# 4 0.0000 0.0000 0.0000 15.9915 0.0000 -0.1727
# 5 -17.6005 -13.7614 -13.8782 0.0000 21.4518 0.0000
# 6 0.0000 0.0000 0.0000 -0.1727 0.0000 23.6231
#
#
#
# Elastic Compliance Matrix: (Units=1/GPa)
#
#
# Indices 1 2 3 4 5 6 
#
# 1 0.014412 -0.004856 -0.003460 0.000000 0.006471 0.000000
# 2 -0.004856 0.014191 -0.004034 0.000000 0.002510 0.000000
# 3 -0.003460 -0.004034 0.026031 0.000000 0.011414 0.000000
# 4 0.000000 0.000000 0.000000 0.062538 0.000000 0.000457
# 5 0.006471 0.002510 0.011414 0.000000 0.060920 0.000000
# 6 0.000000 0.000000 0.000000 0.000457 0.000000 0.042335
#
#
# Mechanical properties :
#
#
# Convention : Reuss Voigt Hill
#
# Bulk Modulus (GPa) = 33.40700 49.64160 41.52430
# Shear Modulus (GPa) = 19.59983 22.06196 20.83090
#
# Velocity S-wave (km/s) = 3.28318 3.48329 3.38471
# Velocity P-wave (km/s) = 5.72233 6.59386 6.17349
#
# Compressibility (1/GPa) = 0.02993385
#
# Stress axis : x y z
#
# Youngs Moduli (GPa) = 69.38579 70.46829 38.41607
#
# Poissons Ratio (x) = 0.34216 0.13291
# Poissons Ratio (y) = 0.33691 0.15499
# Poissons Ratio (z) = 0.24007 0.28430
#
# Static dielectric constant tensor:
#      x y z
#    x 3.656360 0.000000 -0.062390 
#    y 0.000000 3.239960 0.000000 
#    z -0.062390 0.000000 3.067410 
# 
# 
# High freq. dielectric constant tensor:
#      x y z
#    x 1.707880 0.000000 -0.008740 
#    y 0.000000 1.690090 0.000000 
#    z -0.008740 0.000000 1.677160 
# 
# From -- ./inp_files/87963.got.cif
#   From: 2010.06.25/outbox.cif.g09.slc.cpg/sg12_44_cif.got.tgz:87963.got - 2010.06.28 00:19:55.
