data_PCOD8079071
_publ_section_title
;
Structure prediction by ZEFSAII (Michael W. Deem and Ramdas Pophale) SiO2 
 PCOD8079071
Probable space group: C 2/M
;
_chemical_formula_sum "Si O2"
_cell_formula_units_Z 64
_cell_length_a 20.855416
_cell_length_b 13.328826
_cell_length_c 14.436209
_cell_angle_alpha 90.000000
_cell_angle_beta 105.348423
_cell_angle_gamma 90.000000
_cell_volume 3869.825879
_symmetry_space_group_name_H-M "C 2/M"
_symmetry_group_IT_number 12
_symmetry_cell_setting 'monoclinic'
loop_
_space_group_symop_operation_xyz
x,y,z
-x,y,-z
-x,-y,-z
x,-y,z
1/2+x,1/2+y,z
1/2-x,1/2+y,-z
1/2-x,1/2-y,-z
1/2+x,1/2-y,z
loop_
_atom_site_type_symbol
_atom_site_label
_atom_site_fract_x
_atom_site_fract_y
_atom_site_fract_z
Si Si1 0.692570 0.883669 0.454972
Si Si2 0.795415 0.613018 0.049990
Si Si3 0.716789 0.694214 0.353922
Si Si4 0.031756 0.110222 0.910836
Si Si5 0.843671 0.201294 0.971915
Si Si6 0.605980 0.617349 0.196091
Si Si7 0.426497 0.882097 0.458992
Si Si8 0.325902 0.882729 0.268199
O O1 0.705066 0.811945 0.371734
O O2 0.753412 0.867397 0.548820
O O3 0.623728 0.849606 0.478124
O O4 0.690729 0.000000 0.422646
O O5 0.811309 0.500000 0.026190
O O6 0.716496 0.626463 0.028533
O O7 0.831702 0.638961 0.161406
O O8 0.823122 0.683534 0.979497
O O9 0.645689 0.643808 0.304208
O O10 0.765452 0.684121 0.284447
O O11 0.972192 0.144666 0.818898
O O12 0.057064 0.000000 0.892426
O O13 0.095619 0.181712 0.933412
O O14 0.000000 0.107772 0.000000
O O15 0.864778 0.185812 0.874612
O O16 0.613213 0.500000 0.172016
O O17 0.500000 0.832135 0.500000
O O18 0.394302 0.852132 0.347078
O O19 0.434919 0.000000 0.466720
O O20 0.309095 0.000000 0.280705
#
# Coordination Sequence:
#
# PCOD8079071 Si02
#       8
#     8   8   8   8   8   8   8   8
#     4   9  18  30  45  70  99 119 144 188 231 272
#     4  10  19  30  46  67  92 123 155 191 229 274
#     4  10  17  28  49  69  92 118 153 188 230 269
#     4   8  15  27  45  67  87 110 143 189 234 264
#     4  10  18  29  47  68  92 118 150 195 236 269
#     4  10  17  29  51  71  88 115 156 196 230 266
#     4   8  14  27  46  66  89 119 148 175 214 261
#     4   9  16  28  47  68  89 114 152 194 222 258
#
# _framework density 16.538211
#
# number of rings (size 3 to 8) (size 9 to 14) (size 15 to 20)
#    0.000    2.750    1.250    3.750    0.000    0.000 
#    2.250    0.625    0.000    3.375    0.000    0.000 
#    0.000    9.250    0.000    0.000    0.000    0.000 
#
# Total GULP energy -396578.403205 kJ/mol
# GULP energy per Si atom -12393.075100 kJ/mol
# Density = 1.650057 g / cm^3
# Si number density = 16.538211 Si / 1000 Ang^3
#
#
#
# Elastic Constant Matrix: (Units=GPa)
#
#
# Indices 1 2 3 4 5 6 
#
# 1 76.7061 29.2986 36.1950 0.0000 28.6814 0.0000
# 2 29.2986 72.9615 28.2273 0.0000 -2.0834 0.0000
# 3 36.1950 28.2273 62.1478 0.0000 21.2053 0.0000
# 4 0.0000 0.0000 0.0000 21.5490 0.0000 -0.8068
# 5 28.6814 -2.0834 21.2053 0.0000 32.0914 0.0000
# 6 0.0000 0.0000 0.0000 -0.8068 0.0000 16.7793
#
#
#
# Elastic Compliance Matrix: (Units=1/GPa)
#
#
# Indices 1 2 3 4 5 6 
#
# 1 0.026911 -0.010128 -0.003411 0.000000 -0.022455 0.000000
# 2 -0.010128 0.022120 -0.009976 0.000000 0.017080 0.000000
# 3 -0.003411 -0.009976 0.028132 0.000000 -0.016188 0.000000
# 4 0.000000 0.000000 0.000000 0.046490 0.000000 0.002235
# 5 -0.022455 0.017080 -0.016188 0.000000 0.063035 0.000000
# 6 0.000000 0.000000 0.000000 0.002235 0.000000 0.059705
#
#
# Mechanical properties :
#
#
# Convention : Reuss Voigt Hill
#
# Bulk Modulus (GPa) = 33.18661 44.36189 38.77425
# Shear Modulus (GPa) = 16.47624 21.95691 19.21658
#
# Velocity S-wave (km/s) = 3.15977 3.64764 3.41244
# Velocity P-wave (km/s) = 5.78121 6.68001 6.24680
#
# Compressibility (1/GPa) = 0.03013263
#
# Stress axis : x y z
#
# Youngs Moduli (GPa) = 37.15941 45.20772 35.54692
#
# Poissons Ratio (x) = 0.45786 0.12126
# Poissons Ratio (y) = 0.37635 0.35462
# Poissons Ratio (z) = 0.12676 0.45100
#
# Static dielectric constant tensor:
#      x y z
#    x 3.270640 0.000000 0.466130 
#    y 0.000000 2.930220 0.000000 
#    z 0.466130 0.000000 3.166960 
# 
# 
# High freq. dielectric constant tensor:
#      x y z
#    x 1.625880 0.000000 0.033000 
#    y 0.000000 1.612400 0.000000 
#    z 0.033000 0.000000 1.624470 
# 
# From -- ./inp_files/233162.got.cif
#   From: 2010.06.25/outbox.cif.g09.slc.cpg/sg12_117_cif.got.tgz:233162.got - 2010.06.28 00:19:55.
