data_PCOD8079591
_publ_section_title
;
Structure prediction by ZEFSAII (Michael W. Deem and Ramdas Pophale) SiO2 
 PCOD8079591
Probable space group: C 2/M
;
_chemical_formula_sum "Si O2"
_cell_formula_units_Z 40
_cell_length_a 26.770546
_cell_length_b 14.944243
_cell_length_c 5.019870
_cell_angle_alpha 90.000000
_cell_angle_beta 78.714315
_cell_angle_gamma 90.000000
_cell_volume 1969.444145
_symmetry_space_group_name_H-M "C 2/M"
_symmetry_group_IT_number 12
_symmetry_cell_setting 'monoclinic'
loop_
_space_group_symop_operation_xyz
x,y,z
-x,y,-z
-x,-y,-z
x,-y,z
1/2+x,1/2+y,z
1/2-x,1/2+y,-z
1/2-x,1/2-y,-z
1/2+x,1/2-y,z
loop_
_atom_site_type_symbol
_atom_site_label
_atom_site_fract_x
_atom_site_fract_y
_atom_site_fract_z
Si Si1 0.840208 0.365078 0.217609
Si Si2 0.313882 0.500000 0.222648
Si Si3 0.403777 0.096968 0.647691
Si Si4 0.878313 0.824890 0.165284
Si Si5 0.557291 0.285516 0.404974
Si Si6 0.246232 0.500000 0.793812
O O1 0.856241 0.393884 0.496738
O O2 0.837841 0.257114 0.198605
O O3 0.785774 0.409098 0.214912
O O4 0.882243 0.400885 0.968549
O O5 0.348153 0.413987 0.131951
O O6 0.293819 0.500000 0.544665
O O7 0.266332 0.500000 0.073185
O O8 0.443057 0.177609 0.554354
O O9 0.430649 0.000000 0.578396
O O10 0.905362 0.832120 0.422894
O O11 0.923324 0.811146 0.906409
O O12 0.500000 0.321016 0.500000
#
# Coordination Sequence:
#
# PCOD8079591 Si02
#       6
#     8   4   8   8   8   4
#     4  10  20  35  58  84 116 156 181 226 283 337
#     4  12  26  40  59  84 112 152 197 250 278 322
#     4  10  17  32  56  85 121 151 180 222 283 336
#     4  10  23  42  58  82 122 149 183 241 297 322
#     4  10  21  38  62  86 112 150 192 234 281 349
#     4  12  22  36  62  88 112 148 202 226 268 362
#
# _framework density 20.310298
#
# number of rings (size 3 to 8) (size 9 to 14) (size 15 to 20)
#    0.000    1.600    2.000    3.000    0.000    2.000 
#    0.000    3.000    0.000    7.200    0.000    0.000 
#    0.000    0.000    0.000    0.000    0.000    0.000 
#
# Total GULP energy -248034.907696 kJ/mol
# GULP energy per Si atom -12401.745385 kJ/mol
# Density = 2.026407 g / cm^3
# Si number density = 20.310298 Si / 1000 Ang^3
#
#
#
# Elastic Constant Matrix: (Units=GPa)
#
#
# Indices 1 2 3 4 5 6 
#
# 1 73.5835 37.2813 6.4619 0.0000 -5.2129 0.0000
# 2 37.2813 127.1779 7.2219 0.0000 -6.2551 0.0000
# 3 6.4619 7.2219 67.6133 0.0000 4.0456 0.0000
# 4 0.0000 0.0000 0.0000 20.6231 0.0000 -0.6528
# 5 -5.2129 -6.2551 4.0456 0.0000 29.6288 0.0000
# 6 0.0000 0.0000 0.0000 -0.6528 0.0000 22.8157
#
#
#
# Elastic Compliance Matrix: (Units=1/GPa)
#
#
# Indices 1 2 3 4 5 6 
#
# 1 0.016152 -0.004568 -0.001178 0.000000 0.002038 0.000000
# 2 -0.004568 0.009299 -0.000631 0.000000 0.001246 0.000000
# 3 -0.001178 -0.000631 0.015114 0.000000 -0.002404 0.000000
# 4 0.000000 0.000000 0.000000 0.048533 0.000000 0.001389
# 5 0.002038 0.001246 -0.002404 0.000000 0.034701 0.000000
# 6 0.000000 0.000000 0.000000 0.001389 0.000000 0.043869
#
#
# Mechanical properties :
#
#
# Convention : Reuss Voigt Hill
#
# Bulk Modulus (GPa) = 35.95629 41.14500 38.55064
# Shear Modulus (GPa) = 26.35846 29.10748 27.73297
#
# Velocity S-wave (km/s) = 3.60639 3.78979 3.69923
# Velocity P-wave (km/s) = 5.92312 6.28110 6.10473
#
# Compressibility (1/GPa) = 0.02781154
#
# Stress axis : x y z
#
# Youngs Moduli (GPa) = 61.91152 107.53707 66.16457
#
# Poissons Ratio (x) = 0.49120 0.07793
# Poissons Ratio (y) = 0.28280 0.04177
# Poissons Ratio (z) = 0.07292 0.06788
#
# Static dielectric constant tensor:
#      x y z
#    x 3.313210 0.000000 0.209370 
#    y 0.000000 3.840280 0.000000 
#    z 0.209370 0.000000 3.748870 
# 
# 
# High freq. dielectric constant tensor:
#      x y z
#    x 1.767890 0.000000 0.016470 
#    y 0.000000 1.794350 0.000000 
#    z 0.016470 0.000000 1.807930 
# 
# From -- ./inp_files/24226.got.cif
#   From: 2010.06.25/outbox.cif.g09.slc.cpg/sg12_13_cif.got.tgz:24226.got - 2010.06.28 00:19:55.
