data_PCOD8079741
_publ_section_title
;
Structure prediction by ZEFSAII (Michael W. Deem and Ramdas Pophale) SiO2 
 PCOD8079741
Probable space group: C 2/M
;
_chemical_formula_sum "Si O2"
_cell_formula_units_Z 40
_cell_length_a 14.076657
_cell_length_b 14.349437
_cell_length_c 14.403555
_cell_angle_alpha 90.000000
_cell_angle_beta 41.451341
_cell_angle_gamma 90.000000
_cell_volume 1925.978414
_symmetry_space_group_name_H-M "C 2/M"
_symmetry_group_IT_number 12
_symmetry_cell_setting 'monoclinic'
loop_
_space_group_symop_operation_xyz
x,y,z
-x,y,-z
-x,-y,-z
x,-y,z
1/2+x,1/2+y,z
1/2-x,1/2+y,-z
1/2-x,1/2-y,-z
1/2+x,1/2-y,z
loop_
_atom_site_type_symbol
_atom_site_label
_atom_site_fract_x
_atom_site_fract_y
_atom_site_fract_z
Si Si1 0.390226 0.500000 0.717414
Si Si2 0.335751 0.845332 0.438326
Si Si3 0.210559 0.000000 0.408177
Si Si4 0.886691 0.896019 0.896179
Si Si5 0.309685 0.605339 0.272824
Si Si6 0.845738 0.611579 0.795302
O O1 0.551542 0.500000 0.564054
O O2 0.283379 0.500000 0.708485
O O3 0.366865 0.406960 0.798517
O O4 0.250000 0.750000 0.500000
O O5 0.289713 0.907476 0.384478
O O6 0.300507 0.894895 0.561063
O O7 0.506408 0.831302 0.306793
O O8 0.038045 0.844807 0.811219
O O9 0.896074 0.000000 0.932743
O O10 0.747908 0.851563 0.048018
O O11 0.344308 0.500000 0.221673
O O12 0.236057 0.649756 0.236302
O O13 0.876925 0.500000 0.771341
#
# Coordination Sequence:
#
# PCOD8079741 Si02
#       6
#     4   8   4   8   8   8
#     4   9  18  35  64  86 109 164 205 233 290 372
#     4  12  23  38  56  86 121 159 205 247 292 354
#     4  11  20  41  60  82 117 164 201 247 294 348
#     4   8  15  32  57  94 114 147 197 235 299 366
#     4  10  17  35  60  86 118 149 189 242 304 363
#     4  10  19  33  61  91 120 148 190 253 309 349
#
# _framework density 20.768664000000001
#
# number of rings (size 3 to 8) (size 9 to 14) (size 15 to 20)
#    0.600    1.400    4.000    1.200    0.000    4.000 
#    7.200    3.000    0.000    2.400    0.000    0.000 
#    0.000    0.000    0.000    0.000    0.000    0.000 
#
# Total GULP energy -247807.252019 kJ/mol
# GULP energy per Si atom -12390.362601 kJ/mol
# Density = 2.072139 g / cm^3
# Si number density = 20.768664 Si / 1000 Ang^3
#
#
#
# Elastic Constant Matrix: (Units=GPa)
#
#
# Indices 1 2 3 4 5 6 
#
# 1 175.1083 43.3777 97.3595 0.0000 12.5062 0.0000
# 2 43.3777 45.5370 6.2583 -0.0001 -2.8871 0.0000
# 3 97.3595 6.2583 158.6152 -0.0001 -9.3909 0.0001
# 4 0.0000 -0.0001 -0.0001 12.2509 0.0001 -7.7678
# 5 12.5062 -2.8871 -9.3909 0.0001 39.5963 0.0000
# 6 0.0000 0.0000 0.0001 -7.7678 0.0000 14.5757
#
#
#
# Elastic Compliance Matrix: (Units=1/GPa)
#
#
# Indices 1 2 3 4 5 6 
#
# 1 0.014272 -0.012876 -0.008697 0.000000 -0.007509 0.000000
# 2 -0.012876 0.033776 0.007057 0.000000 0.008203 0.000000
# 3 -0.008697 0.007057 0.011722 0.000000 0.006041 0.000000
# 4 0.000000 0.000000 0.000000 0.123286 0.000000 0.065703
# 5 -0.007509 0.008203 0.006041 0.000000 0.029658 0.000000
# 6 0.000000 0.000000 0.000000 0.065703 0.000000 0.103622
#
#
# Mechanical properties :
#
#
# Convention : Reuss Voigt Hill
#
# Bulk Modulus (GPa) = 32.53386 74.80572 53.66979
# Shear Modulus (GPa) = 14.06014 28.76893 21.41454
#
# Velocity S-wave (km/s) = 2.60472 3.72588 3.21456
# Velocity P-wave (km/s) = 4.97443 7.38961 6.29886
#
# Compressibility (1/GPa) = 0.03073721
#
# Stress axis : x y z
#
# Youngs Moduli (GPa) = 70.06586 29.60661 85.30872
#
# Poissons Ratio (x) = 0.38123 0.74193
# Poissons Ratio (y) = 0.90219 -0.60199
# Poissons Ratio (z) = 0.60936 -0.20892
#
# Static dielectric constant tensor:
#      x y z
#    x 3.979930 0.000000 -0.011410 
#    y 0.000000 3.167910 0.000000 
#    z -0.011410 0.000000 3.941250 
# 
# 
# High freq. dielectric constant tensor:
#      x y z
#    x 1.813580 0.000000 -0.002530 
#    y 0.000000 1.754080 0.000000 
#    z -0.002530 0.000000 1.823790 
# 
# From -- ./inp_files/214606.got.cif
#   From: 2010.06.25/outbox.cif.g09.slc.cpg/sg12_108_cif.got.tgz:214606.got - 2010.06.28 00:19:55.
