data_PCOD8079221
_publ_section_title
;
Structure prediction by ZEFSAII (Michael W. Deem and Ramdas Pophale) SiO2 
 PCOD8079221
Probable space group: C 2/M
;
_chemical_formula_sum "Si O2"
_cell_formula_units_Z 56
_cell_length_a 27.190589
_cell_length_b 8.514853
_cell_length_c 14.534993
_cell_angle_alpha 90.000000
_cell_angle_beta 102.895443
_cell_angle_gamma 90.000000
_cell_volume 3280.323974
_symmetry_space_group_name_H-M "C 2/M"
_symmetry_group_IT_number 12
_symmetry_cell_setting 'monoclinic'
loop_
_space_group_symop_operation_xyz
x,y,z
-x,y,-z
-x,-y,-z
x,-y,z
1/2+x,1/2+y,z
1/2-x,1/2+y,-z
1/2-x,1/2-y,-z
1/2+x,1/2-y,z
loop_
_atom_site_type_symbol
_atom_site_label
_atom_site_fract_x
_atom_site_fract_y
_atom_site_fract_z
Si Si1 0.065540 0.814180 0.603969
Si Si2 0.372752 0.681898 0.204295
Si Si3 0.931144 0.317758 0.784743
Si Si4 0.543938 0.182429 0.884295
Si Si5 0.455065 0.685892 0.605193
Si Si6 0.608536 0.683381 0.059321
Si Si7 0.805536 0.316266 0.029528
O O1 0.113309 0.759507 0.686128
O O2 0.073112 0.762188 0.501258
O O3 0.012602 0.749134 0.623175
O O4 0.060500 0.000000 0.606074
O O5 0.356969 0.500000 0.196515
O O6 0.423382 0.704862 0.166813
O O7 0.327358 0.781857 0.141052
O O8 0.919307 0.500000 0.787373
O O9 0.925479 0.265620 0.676732
O O10 0.890908 0.226038 0.831979
O O11 0.986283 0.272908 0.845174
O O12 0.554553 0.000000 0.866306
O O13 0.561581 0.220062 0.995638
O O14 0.453544 0.500000 0.617941
O O15 0.600432 0.500000 0.041005
O O16 0.661033 0.732654 0.034344
O O17 0.805726 0.500000 0.010882
O O18 0.750000 0.250000 0.000000
#
# Coordination Sequence:
#
# PCOD8079221 Si02
#       7
#     8   8   8   8   8   8   8
#     4   8  15  27  46  69  96 129 170 209 242 278
#     4  10  17  29  50  74  98 129 166 203 243 290
#     4  11  21  31  43  66  99 134 167 203 244 284
#     4  10  19  30  43  64  97 132 164 201 241 283
#     4   9  16  29  46  66  94 134 174 208 238 276
#     4  11  22  34  50  70  92 125 165 201 241 293
#     4  11  22  38  56  76 100 124 154 199 247 295
#
# _framework density 17.071484999999999
#
# number of rings (size 3 to 8) (size 9 to 14) (size 15 to 20)
#    0.000    2.000    1.429    6.857    0.000    3.429 
#    0.000    2.857    0.000    0.000    0.000    1.000 
#    0.000    0.000    0.000    0.000    0.000    0.000 
#
# Total GULP energy -347100.693678 kJ/mol
# GULP energy per Si atom -12396.453346 kJ/mol
# Density = 1.703263 g / cm^3
# Si number density = 17.071485 Si / 1000 Ang^3
#
#
#
# Elastic Constant Matrix: (Units=GPa)
#
#
# Indices 1 2 3 4 5 6 
#
# 1 64.4036 22.3401 51.7987 0.0000 3.2180 0.0000
# 2 22.3401 60.1336 20.7941 0.0000 1.6254 0.0000
# 3 51.7987 20.7941 129.6217 0.0000 -6.8177 0.0000
# 4 0.0000 0.0000 0.0000 21.5884 0.0000 0.3690
# 5 3.2180 1.6254 -6.8177 0.0000 19.9988 0.0000
# 6 0.0000 0.0000 0.0000 0.3690 0.0000 20.8731
#
#
#
# Elastic Compliance Matrix: (Units=1/GPa)
#
#
# Indices 1 2 3 4 5 6 
#
# 1 0.025764 -0.006031 -0.009694 0.000000 -0.006960 0.000000
# 2 -0.006031 0.019136 -0.000703 0.000000 -0.000824 0.000000
# 3 -0.009694 -0.000703 0.012002 0.000000 0.005708 0.000000
# 4 0.000000 0.000000 0.000000 0.046335 0.000000 -0.000819
# 5 -0.006960 -0.000824 0.005708 0.000000 0.053136 0.000000
# 6 0.000000 0.000000 0.000000 -0.000819 0.000000 0.047923
#
#
# Mechanical properties :
#
#
# Convention : Reuss Voigt Hill
#
# Bulk Modulus (GPa) = 41.58941 49.33609 45.46275
# Shear Modulus (GPa) = 20.39429 23.10712 21.75070
#
# Velocity S-wave (km/s) = 3.46011 3.68305 3.57332
# Velocity P-wave (km/s) = 6.35436 6.85922 6.61161
#
# Compressibility (1/GPa) = 0.02404458
#
# Stress axis : x y z
#
# Youngs Moduli (GPa) = 38.81431 52.25853 83.32156
#
# Poissons Ratio (x) = 0.31518 0.80773
# Poissons Ratio (y) = 0.23409 0.05858
# Poissons Ratio (z) = 0.37627 0.03674
#
# Static dielectric constant tensor:
#      x y z
#    x 2.818300 0.000000 0.001090 
#    y 0.000000 3.114980 0.000000 
#    z 0.001090 0.000000 3.601180 
# 
# 
# High freq. dielectric constant tensor:
#      x y z
#    x 1.608950 0.000000 -0.008930 
#    y 0.000000 1.659200 0.000000 
#    z -0.008930 0.000000 1.664100 
# 
# From -- ./inp_files/247921.got.cif
#   From: 2010.06.25/outbox.cif.g09.slc.cpg/sg12_124_cif.got.tgz:247921.got - 2010.06.28 00:19:55.
