data_PCOD8079911
_publ_section_title
;
Structure prediction by ZEFSAII (Michael W. Deem and Ramdas Pophale) SiO2 
 PCOD8079911
Probable space group: C 2/M
;
_chemical_formula_sum "Si O2"
_cell_formula_units_Z 64
_cell_length_a 31.858275
_cell_length_b 8.917651
_cell_length_c 16.168697
_cell_angle_alpha 90.000000
_cell_angle_beta 109.352481
_cell_angle_gamma 90.000000
_cell_volume 4333.997437
_symmetry_space_group_name_H-M "C 2/M"
_symmetry_group_IT_number 12
_symmetry_cell_setting 'monoclinic'
loop_
_space_group_symop_operation_xyz
x,y,z
-x,y,-z
-x,-y,-z
x,-y,z
1/2+x,1/2+y,z
1/2-x,1/2+y,-z
1/2-x,1/2-y,-z
1/2+x,1/2-y,z
loop_
_atom_site_type_symbol
_atom_site_label
_atom_site_fract_x
_atom_site_fract_y
_atom_site_fract_z
Si Si1 0.830332 0.675084 0.177767
Si Si2 0.596208 0.323495 0.491106
Si Si3 0.708427 0.171942 0.011083
Si Si4 0.244618 0.323582 0.200262
Si Si5 0.319635 0.174621 0.529444
Si Si6 0.587463 0.176487 0.660948
Si Si7 0.508993 0.834406 0.409062
Si Si8 0.765164 0.174747 0.632833
O O1 0.820273 0.500000 0.189296
O O2 0.792580 0.773262 0.197266
O O3 0.878074 0.722085 0.245034
O O4 0.832562 0.705837 0.078895
O O5 0.598832 0.500000 0.497669
O O6 0.635634 0.263127 0.460347
O O7 0.601179 0.259017 0.586121
O O8 0.549587 0.277352 0.417098
O O9 0.705521 0.215698 0.106581
O O10 0.720775 0.000000 0.016777
O O11 0.750000 0.250000 0.000000
O O12 0.246484 0.500000 0.222668
O O13 0.231787 0.229772 0.271776
O O14 0.284242 0.206369 0.433636
O O15 0.301067 0.233052 0.604199
O O16 0.330546 0.000000 0.544429
O O17 0.537928 0.222876 0.660658
O O18 0.588357 0.000000 0.641646
O O19 0.500000 0.843064 0.500000
O O20 0.521492 0.000000 0.383389
O O21 0.776971 0.000000 0.634959
#
# Coordination Sequence:
#
# PCOD8079911 Si02
#       8
#     8   8   8   8   8   8   8   8
#     4   9  16  27  42  59  80 108 141 173 202 233
#     4  11  20  28  41  60  82 108 137 167 200 240
#     4   8  15  26  39  56  79 106 136 168 199 234
#     4  10  18  27  40  59  83 111 139 166 201 241
#     4  10  20  33  46  59  79 106 135 169 205 237
#     4   9  17  28  42  59  80 108 140 171 203 238
#     4   8  15  28  42  56  77 105 136 168 201 238
#     4  10  20  32  45  61  80 104 136 171 203 235
#
# _framework density 14.766966999999999
#
# number of rings (size 3 to 8) (size 9 to 14) (size 15 to 20)
#    0.000    2.625    0.000    3.750    0.000    7.750 
#    0.000    0.000    0.000    0.000    0.000    0.000 
#    0.000    1.000    0.000   11.750    0.000    2.250 
#
# Total GULP energy -396504.532678 kJ/mol
# GULP energy per Si atom -12390.766646 kJ/mol
# Density = 1.473336 g / cm^3
# Si number density = 14.766967 Si / 1000 Ang^3
#
#
#
# Elastic Constant Matrix: (Units=GPa)
#
#
# Indices 1 2 3 4 5 6 
#
# 1 81.6994 30.0423 42.4331 0.0000 12.2982 0.0000
# 2 30.0423 52.9698 26.5256 0.0000 2.7153 0.0000
# 3 42.4331 26.5256 101.0752 0.0000 10.2598 0.0000
# 4 0.0000 0.0000 0.0000 17.6577 0.0000 -1.9401
# 5 12.2982 2.7153 10.2598 0.0000 19.4707 0.0000
# 6 0.0000 0.0000 0.0000 -1.9401 0.0000 21.4194
#
#
#
# Elastic Compliance Matrix: (Units=1/GPa)
#
#
# Indices 1 2 3 4 5 6 
#
# 1 0.018990 -0.007800 -0.005091 0.000000 -0.008224 0.000000
# 2 -0.007800 0.024939 -0.003611 0.000000 0.003351 0.000000
# 3 -0.005091 -0.003611 0.013313 0.000000 -0.003296 0.000000
# 4 0.000000 0.000000 0.000000 0.057202 0.000000 0.005181
# 5 -0.008224 0.003351 -0.003296 0.000000 0.057824 0.000000
# 6 0.000000 0.000000 0.000000 0.005181 0.000000 0.047156
#
#
# Mechanical properties :
#
#
# Convention : Reuss Voigt Hill
#
# Bulk Modulus (GPa) = 41.25401 48.19403 44.72402
# Shear Modulus (GPa) = 19.19355 20.82578 20.00967
#
# Velocity S-wave (km/s) = 3.60913 3.75946 3.68507
# Velocity P-wave (km/s) = 6.73536 7.17997 6.96122
#
# Compressibility (1/GPa) = 0.02424007
#
# Stress axis : x y z
#
# Youngs Moduli (GPa) = 52.65922 40.09863 75.11541
#
# Poissons Ratio (x) = 0.31275 0.38238
# Poissons Ratio (y) = 0.41072 0.27120
# Poissons Ratio (z) = 0.26807 0.14478
#
# Static dielectric constant tensor:
#      x y z
#    x 2.887580 0.000000 0.348870 
#    y 0.000000 2.876570 0.000000 
#    z 0.348870 0.000000 3.214090 
# 
# 
# High freq. dielectric constant tensor:
#      x y z
#    x 1.537830 0.000000 0.015250 
#    y 0.000000 1.574500 0.000000 
#    z 0.015250 0.000000 1.551320 
# 
# From -- ./inp_files/248512.got.cif
#   From: 2010.06.25/outbox.cif.g09.slc.cpg/sg12_125_cif.got.tgz:248512.got - 2010.06.28 00:19:55.
