data_PCOD8079357
_publ_section_title
;
Structure prediction by ZEFSAII (Michael W. Deem and Ramdas Pophale) SiO2 
 PCOD8079357
Probable space group: C 2/M
;
_chemical_formula_sum "Si O2"
_cell_formula_units_Z 56
_cell_length_a 16.682302
_cell_length_b 17.651065
_cell_length_c 12.528993
_cell_angle_alpha 90.000000
_cell_angle_beta 119.563136
_cell_angle_gamma 90.000000
_cell_volume 3208.992705
_symmetry_space_group_name_H-M "C 2/M"
_symmetry_group_IT_number 12
_symmetry_cell_setting 'monoclinic'
loop_
_space_group_symop_operation_xyz
x,y,z
-x,y,-z
-x,-y,-z
x,-y,z
1/2+x,1/2+y,z
1/2-x,1/2+y,-z
1/2-x,1/2-y,-z
1/2+x,1/2-y,z
loop_
_atom_site_type_symbol
_atom_site_label
_atom_site_fract_x
_atom_site_fract_y
_atom_site_fract_z
Si Si1 0.890847 0.090007 0.315716
Si Si2 0.092541 0.910706 0.432172
Si Si3 0.408665 0.910539 0.171725
Si Si4 0.267684 0.837224 0.491283
Si Si5 0.889286 0.588620 0.747047
Si Si6 0.794726 0.588801 0.902124
Si Si7 0.893639 0.587832 0.403601
O O1 0.887446 0.119469 0.434989
O O2 0.805610 0.124827 0.191864
O O3 0.989055 0.114071 0.328552
O O4 0.882579 0.000000 0.314195
O O5 0.167557 0.874112 0.403031
O O6 0.102113 0.000000 0.432623
O O7 0.510518 0.877345 0.215731
O O8 0.375377 0.890467 0.268569
O O9 0.415667 0.000000 0.159749
O O10 0.335642 0.876040 0.038603
O O11 0.250000 0.750000 0.500000
O O12 0.311968 0.871747 0.626095
O O13 0.331879 0.855148 0.432014
O O14 0.883966 0.500000 0.716666
O O15 0.867943 0.605073 0.856566
O O16 0.780747 0.500000 0.908331
O O17 0.867860 0.500000 0.410457
O O18 0.000000 0.601785 0.500000
#
# Coordination Sequence:
#
# PCOD8079357 Si02
#       7
#     8   8   8   8   8   8   8
#     4   8  14  25  46  73  97 120 156 204 254 300
#     4   9  16  30  49  71  95 128 167 205 256 308
#     4   9  17  28  49  81 107 130 167 210 258 314
#     4  12  23  33  47  76 104 135 172 218 261 306
#     4  10  17  30  51  76 106 137 166 210 269 315
#     4   9  15  25  47  82 111 126 157 215 264 307
#     4  10  19  35  56  75 102 140 175 210 258 317
#
# _framework density 17.450958
#
# number of rings (size 3 to 8) (size 9 to 14) (size 15 to 20)
#    0.000    2.429    2.857    2.571    0.000    1.714 
#    2.571    0.000    0.000    1.714    3.714    5.000 
#    0.000    0.000    0.000    0.000    0.000    0.000 
#
# Total GULP energy -347033.759171 kJ/mol
# GULP energy per Si atom -12394.062828 kJ/mol
# Density = 1.741124 g / cm^3
# Si number density = 17.450958 Si / 1000 Ang^3
#
#
#
# Elastic Constant Matrix: (Units=GPa)
#
#
# Indices 1 2 3 4 5 6 
#
# 1 135.1025 44.3275 49.2665 0.0000 8.8308 0.0000
# 2 44.3275 43.3853 29.3800 0.0000 -1.8847 0.0000
# 3 49.2665 29.3800 103.7648 0.0000 1.6903 0.0000
# 4 0.0000 0.0000 0.0000 5.8845 0.0000 -3.3908
# 5 8.8308 -1.8847 1.6903 0.0000 26.5775 0.0000
# 6 0.0000 0.0000 0.0000 -3.3908 0.0000 11.1741
#
#
#
# Elastic Compliance Matrix: (Units=1/GPa)
#
#
# Indices 1 2 3 4 5 6 
#
# 1 0.012263 -0.010939 -0.002649 0.000000 -0.004682 0.000000
# 2 -0.010939 0.038447 -0.005802 0.000000 0.006730 0.000000
# 3 -0.002649 -0.005802 0.012543 0.000000 -0.000329 0.000000
# 4 0.000000 0.000000 0.000000 0.205949 0.000000 0.062496
# 5 -0.004682 0.006730 -0.000329 0.000000 0.039680 0.000000
# 6 0.000000 0.000000 0.000000 0.062496 0.000000 0.108458
#
#
# Mechanical properties :
#
#
# Convention : Reuss Voigt Hill
#
# Bulk Modulus (GPa) = 40.86013 58.68896 49.77454
# Shear Modulus (GPa) = 10.76947 19.34578 15.05763
#
# Velocity S-wave (km/s) = 2.48690 3.33315 2.94062
# Velocity P-wave (km/s) = 5.63128 6.96541 6.33357
#
# Compressibility (1/GPa) = 0.02447374
#
# Stress axis : x y z
#
# Youngs Moduli (GPa) = 81.54792 26.00992 79.72631
#
# Poissons Ratio (x) = 0.28451 0.21118
# Poissons Ratio (y) = 0.89203 0.46256
# Poissons Ratio (z) = 0.21600 0.15091
#
# Static dielectric constant tensor:
#      x y z
#    x 3.566830 0.000000 0.245020 
#    y 0.000000 2.683260 0.000000 
#    z 0.245020 0.000000 3.476380 
# 
# 
# High freq. dielectric constant tensor:
#      x y z
#    x 1.686000 0.000000 0.011920 
#    y 0.000000 1.613660 0.000000 
#    z 0.011920 0.000000 1.663810 
# 
# From -- ./inp_files/147161.got.cif
#   From: 2010.06.25/outbox.cif.g09.slc.cpg/sg12_74_cif.got.tgz:147161.got - 2010.06.28 00:19:55.
