data_PCOD8079986
_publ_section_title
;
Structure prediction by ZEFSAII (Michael W. Deem and Ramdas Pophale) SiO2 
 PCOD8079986
Probable space group: C 2/M
;
_chemical_formula_sum "Si O2"
_cell_formula_units_Z 64
_cell_length_a 25.069908
_cell_length_b 9.171423
_cell_length_c 17.576756
_cell_angle_alpha 90.000000
_cell_angle_beta 77.838836
_cell_angle_gamma 90.000000
_cell_volume 3950.673383
_symmetry_space_group_name_H-M "C 2/M"
_symmetry_group_IT_number 12
_symmetry_cell_setting 'monoclinic'
loop_
_space_group_symop_operation_xyz
x,y,z
-x,y,-z
-x,-y,-z
x,-y,z
1/2+x,1/2+y,z
1/2-x,1/2+y,-z
1/2-x,1/2-y,-z
1/2+x,1/2-y,z
loop_
_atom_site_type_symbol
_atom_site_label
_atom_site_fract_x
_atom_site_fract_y
_atom_site_fract_z
Si Si1 0.431013 0.173177 0.411317
Si Si2 0.615564 0.331845 0.433171
Si Si3 0.414533 0.172595 0.157087
Si Si4 0.463900 0.665553 0.674698
Si Si5 0.844520 0.328006 0.314701
Si Si6 0.237585 0.828098 0.425359
Si Si7 0.061552 0.338058 0.011458
Si Si8 0.525321 0.668005 0.157363
O O1 0.418910 0.236646 0.497780
O O2 0.489880 0.224037 0.365908
O O3 0.385426 0.234179 0.366648
O O4 0.430971 0.000000 0.416579
O O5 0.611080 0.500000 0.459583
O O6 0.590947 0.305996 0.356872
O O7 0.678569 0.281376 0.411783
O O8 0.363580 0.223260 0.224802
O O9 0.467851 0.250580 0.173349
O O10 0.425710 0.000000 0.159702
O O11 0.402287 0.214321 0.072327
O O12 0.485040 0.500000 0.656009
O O13 0.448409 0.691033 0.767513
O O14 0.848036 0.500000 0.317724
O O15 0.782867 0.275551 0.350109
O O16 0.250000 0.750000 0.500000
O O17 0.241749 0.000000 0.438200
O O18 0.079002 0.500000 0.032230
O O19 0.067492 0.231730 0.081860
O O20 0.000000 0.337754 0.000000
O O21 0.515296 0.500000 0.140890
#
# Coordination Sequence:
#
# PCOD8079986 Si02
#       8
#     8   8   8   8   8   8   8   8
#     4  11  20  31  49  70  92 119 154 194 230 265
#     4  10  21  35  49  64  90 125 157 189 228 273
#     4   9  16  29  45  63  90 119 144 177 224 272
#     4  10  21  34  45  64  94 127 158 185 220 273
#     4   9  17  29  47  69  91 114 147 189 226 264
#     4  10  19  33  51  68  87 116 152 193 234 268
#     4   8  15  26  42  62  87 118 146 173 217 273
#     4  10  18  27  42  63  90 119 149 182 215 258
#
# _framework density 16.199769
#
# number of rings (size 3 to 8) (size 9 to 14) (size 15 to 20)
#    0.000    2.375    2.500    1.875    0.000    4.750 
#    0.000    0.625    0.000    0.000    0.000    0.875 
#    0.000    0.000    0.000    0.000    0.000    0.000 
#
# Total GULP energy -396672.095462 kJ/mol
# GULP energy per Si atom -12396.002983 kJ/mol
# Density = 1.616290 g / cm^3
# Si number density = 16.199769 Si / 1000 Ang^3
#
#
#
# Elastic Constant Matrix: (Units=GPa)
#
#
# Indices 1 2 3 4 5 6 
#
# 1 73.1307 26.1082 53.5421 0.0000 2.1340 0.0000
# 2 26.1082 52.0161 44.9082 0.0000 0.8385 0.0000
# 3 53.5421 44.9082 147.1290 0.0000 -12.1351 0.0000
# 4 0.0000 0.0000 0.0000 24.2725 0.0000 0.2345
# 5 2.1340 0.8385 -12.1351 0.0000 20.5254 0.0000
# 6 0.0000 0.0000 0.0000 0.2345 0.0000 14.0319
#
#
#
# Elastic Compliance Matrix: (Units=1/GPa)
#
#
# Indices 1 2 3 4 5 6 
#
# 1 0.020151 -0.004458 -0.006444 0.000000 -0.005723 0.000000
# 2 -0.004458 0.027831 -0.007283 0.000000 -0.004979 0.000000
# 3 -0.006444 -0.007283 0.012031 0.000000 0.008081 0.000000
# 4 0.000000 0.000000 0.000000 0.041206 0.000000 -0.000689
# 5 -0.005723 -0.004979 0.008081 0.000000 0.054296 0.000000
# 6 0.000000 0.000000 0.000000 -0.000689 0.000000 0.071278
#
#
# Mechanical properties :
#
#
# Convention : Reuss Voigt Hill
#
# Bulk Modulus (GPa) = 42.29816 57.93253 50.11535
# Shear Modulus (GPa) = 18.44717 21.61379 20.03048
#
# Velocity S-wave (km/s) = 3.37817 3.65664 3.52016
# Velocity P-wave (km/s) = 6.43297 7.32577 6.89384
#
# Compressibility (1/GPa) = 0.02364169
#
# Stress axis : x y z
#
# Youngs Moduli (GPa) = 49.62531 35.93168 83.11522
#
# Poissons Ratio (x) = 0.16019 0.53563
# Poissons Ratio (y) = 0.22124 0.60533
# Poissons Ratio (z) = 0.31981 0.26169
#
# Static dielectric constant tensor:
#      x y z
#    x 3.001220 0.000000 -0.234810 
#    y 0.000000 3.020050 0.000000 
#    z -0.234810 0.000000 3.551520 
# 
# 
# High freq. dielectric constant tensor:
#      x y z
#    x 1.584710 0.000000 -0.010710 
#    y 0.000000 1.616130 0.000000 
#    z -0.010710 0.000000 1.631590 
# 
# From -- ./inp_files/287673.got.cif
#   From: 2010.06.25/outbox.cif.g09.slc.cpg/sg12_144_cif.got.tgz:287673.got - 2010.06.28 00:19:55.
