data_PCOD8079542
_publ_section_title
;
Structure prediction by ZEFSAII (Michael W. Deem and Ramdas Pophale) SiO2 
 PCOD8079542
Probable space group: C 2/M
;
_chemical_formula_sum "Si O2"
_cell_formula_units_Z 56
_cell_length_a 20.773023
_cell_length_b 18.560956
_cell_length_c 8.587391
_cell_angle_alpha 90.000000
_cell_angle_beta 100.363499
_cell_angle_gamma 90.000000
_cell_volume 3257.001000
_symmetry_space_group_name_H-M "C 2/M"
_symmetry_group_IT_number 12
_symmetry_cell_setting 'monoclinic'
loop_
_space_group_symop_operation_xyz
x,y,z
-x,y,-z
-x,-y,-z
x,-y,z
1/2+x,1/2+y,z
1/2-x,1/2+y,-z
1/2-x,1/2-y,-z
1/2+x,1/2-y,z
loop_
_atom_site_type_symbol
_atom_site_label
_atom_site_fract_x
_atom_site_fract_y
_atom_site_fract_z
Si Si1 0.723175 0.309207 0.168458
Si Si2 0.923449 0.360453 0.985599
Si Si3 0.769603 0.419835 0.409362
Si Si4 0.160805 0.678369 0.323291
Si Si5 0.354148 0.742468 0.124871
Si Si6 0.096436 0.576894 0.709602
Si Si7 0.071707 0.726387 0.559494
O O1 0.715474 0.375994 0.284131
O O2 0.702401 0.234836 0.241796
O O3 0.798410 0.300753 0.147968
O O4 0.678561 0.321559 0.992676
O O5 0.885780 0.371174 0.805361
O O6 0.908359 0.279935 0.039614
O O7 0.898319 0.418034 0.100918
O O8 0.000000 0.370873 0.000000
O O9 0.743066 0.500000 0.441109
O O10 0.787465 0.374636 0.571280
O O11 0.831910 0.426501 0.328428
O O12 0.115123 0.722089 0.423697
O O13 0.390600 0.720649 0.301438
O O14 0.061242 0.500000 0.654225
O O15 0.058878 0.646333 0.625456
O O16 0.000000 0.760129 0.500000
#
# Coordination Sequence:
#
# PCOD8079542 Si02
#       7
#     8   8   8   8   8   8   8
#     4  10  17  32  51  68  91 121 163 193 232 288
#     4  10  18  30  44  63  94 123 161 199 224 260
#     4  10  19  32  47  67  96 125 155 195 238 274
#     4  10  19  28  49  73  91 124 156 197 239 271
#     4   9  18  30  48  68  86 124 153 191 240 271
#     4   9  18  31  42  57  89 134 170 186 218 264
#     4  10  18  31  45  67  95 120 154 196 236 268
#
# _framework density 17.193732000000001
#
# number of rings (size 3 to 8) (size 9 to 14) (size 15 to 20)
#    0.000    2.286    4.286    2.143    0.000    1.143 
#    0.000    2.857    0.000    0.000    0.000    0.000 
#    0.000   21.714    0.000    0.000    0.000    0.000 
#
# Total GULP energy -346869.942706 kJ/mol
# GULP energy per Si atom -12388.212239 kJ/mol
# Density = 1.715460 g / cm^3
# Si number density = 17.193732 Si / 1000 Ang^3
#
#
#
# Elastic Constant Matrix: (Units=GPa)
#
#
# Indices 1 2 3 4 5 6 
#
# 1 35.4542 14.4912 27.0864 0.0000 11.7604 0.0000
# 2 14.4912 54.4241 20.7648 0.0000 8.6654 0.0000
# 3 27.0864 20.7648 107.9355 0.0000 11.9342 0.0000
# 4 0.0000 0.0000 0.0000 11.9046 0.0000 5.2380
# 5 11.7604 8.6654 11.9342 0.0000 29.6203 0.0000
# 6 0.0000 0.0000 0.0000 5.2380 0.0000 7.2877
#
#
#
# Elastic Compliance Matrix: (Units=1/GPa)
#
#
# Indices 1 2 3 4 5 6 
#
# 1 0.040238 -0.006001 -0.007715 0.000000 -0.011112 0.000000
# 2 -0.006001 0.021305 -0.002268 0.000000 -0.002936 0.000000
# 3 -0.007715 -0.002268 0.011748 0.000000 -0.001007 0.000000
# 4 0.000000 0.000000 0.000000 0.122853 0.000000 -0.088300
# 5 -0.011112 -0.002936 -0.001007 0.000000 0.039437 0.000000
# 6 0.000000 0.000000 0.000000 -0.088300 0.000000 0.200682
#
#
# Mechanical properties :
#
#
# Convention : Reuss Voigt Hill
#
# Bulk Modulus (GPa) = 24.19915 35.83317 30.01616
# Shear Modulus (GPa) = 10.37332 18.79397 14.58365
#
# Velocity S-wave (km/s) = 2.45892 3.30975 2.91554
# Velocity P-wave (km/s) = 4.70815 5.95752 5.36930
#
# Compressibility (1/GPa) = 0.04132377
#
# Stress axis : x y z
#
# Youngs Moduli (GPa) = 24.85206 46.93742 85.11776
#
# Poissons Ratio (x) = 0.28169 0.65665
# Poissons Ratio (y) = 0.14914 0.19305
# Poissons Ratio (z) = 0.19172 0.10645
#
# Static dielectric constant tensor:
#      x y z
#    x 3.017630 0.000000 0.054260 
#    y 0.000000 3.192120 0.000000 
#    z 0.054260 0.000000 3.630720 
# 
# 
# High freq. dielectric constant tensor:
#      x y z
#    x 1.643420 0.000000 -0.003380 
#    y 0.000000 1.607180 0.000000 
#    z -0.003380 0.000000 1.688160 
# 
# From -- ./inp_files/88760.got.cif
#   From: 2010.06.25/outbox.cif.g09.slc.cpg/sg12_45_cif.got.tgz:88760.got - 2010.06.28 00:19:55.
