data_PCOD8079595
_publ_section_title
;
Structure prediction by ZEFSAII (Michael W. Deem and Ramdas Pophale) SiO2 
 PCOD8079595
Probable space group: C 2/M
;
_chemical_formula_sum "Si O2"
_cell_formula_units_Z 60
_cell_length_a 29.469925
_cell_length_b 8.574945
_cell_length_c 12.516806
_cell_angle_alpha 90.000000
_cell_angle_beta 74.953843
_cell_angle_gamma 90.000000
_cell_volume 3054.595981
_symmetry_space_group_name_H-M "C 2/M"
_symmetry_group_IT_number 12
_symmetry_cell_setting 'monoclinic'
loop_
_space_group_symop_operation_xyz
x,y,z
-x,y,-z
-x,-y,-z
x,-y,z
1/2+x,1/2+y,z
1/2-x,1/2+y,-z
1/2-x,1/2-y,-z
1/2+x,1/2-y,z
loop_
_atom_site_type_symbol
_atom_site_label
_atom_site_fract_x
_atom_site_fract_y
_atom_site_fract_z
Si Si1 0.101099 0.682657 0.119664
Si Si2 0.904890 0.819273 0.304637
Si Si3 0.164790 0.181923 0.256972
Si Si4 0.500000 0.785237 0.500000
Si Si5 0.860742 0.181707 0.109926
Si Si6 0.244766 0.182892 0.885558
Si Si7 0.599427 0.815913 0.472667
Si Si8 0.501140 0.832271 0.259483
O O1 0.107419 0.500000 0.139853
O O2 0.140086 0.779193 0.160040
O O3 0.049943 0.741079 0.188847
O O4 0.107819 0.718907 0.991099
O O5 0.875813 0.766901 0.218958
O O6 0.884569 0.719957 0.416316
O O7 0.960160 0.786670 0.252505
O O8 0.897489 0.000000 0.333879
O O9 0.218723 0.234724 0.216579
O O10 0.141186 0.275494 0.367871
O O11 0.161762 0.000000 0.282961
O O12 0.552480 0.707266 0.475067
O O13 0.502726 0.872352 0.384925
O O14 0.806251 0.222168 0.129330
O O15 0.870924 0.000000 0.083640
O O16 0.254987 0.000000 0.882915
O O17 0.250000 0.250000 0.000000
O O18 0.586501 0.000000 0.468929
O O19 0.492624 0.000000 0.208009
#
# Coordination Sequence:
#
# PCOD8079595 Si02
#       8
#     8   8   8   4   8   8   8   8
#     4  11  22  36  59  88 120 156 200 246 293 349
#     4  10  22  40  59  85 119 159 199 242 293 352
#     4  12  24  38  58  91 126 154 190 244 304 357
#     4  10  17  32  57  82 115 152 193 240 289 338
#     4  10  23  42  62  84 119 157 196 243 298 357
#     4  11  22  39  63  91 117 153 197 245 300 355
#     4  11  21  38  61  87 119 157 199 244 290 346
#     4  10  20  35  55  84 118 159 201 241 287 347
#
# _framework density 19.642531999999999
#
# number of rings (size 3 to 8) (size 9 to 14) (size 15 to 20)
#    0.000    1.333    2.667    4.800    0.000    3.200 
#    0.000    5.000    0.000    0.000    0.000    0.000 
#    0.000    0.000    0.000    0.000    0.000    0.000 
#
# Total GULP energy -371781.378891 kJ/mol
# GULP energy per Si atom -12392.712630 kJ/mol
# Density = 1.959782 g / cm^3
# Si number density = 19.642532 Si / 1000 Ang^3
#
#
#
# Elastic Constant Matrix: (Units=GPa)
#
#
# Indices 1 2 3 4 5 6 
#
# 1 118.3130 32.0639 77.5612 0.0000 -0.7627 0.0000
# 2 32.0639 65.9885 36.2277 0.0000 1.5491 0.0000
# 3 77.5612 36.2277 131.1292 0.0000 -8.6386 0.0000
# 4 0.0000 0.0000 0.0000 25.7746 0.0000 -4.3209
# 5 -0.7627 1.5491 -8.6386 0.0000 40.4381 0.0000
# 6 0.0000 0.0000 0.0000 -4.3209 0.0000 21.3845
#
#
#
# Elastic Compliance Matrix: (Units=1/GPa)
#
#
# Indices 1 2 3 4 5 6 
#
# 1 0.014268 -0.002620 -0.007801 0.000000 -0.001297 0.000000
# 2 -0.002620 0.018469 -0.003654 0.000000 -0.001538 0.000000
# 3 -0.007801 -0.003654 0.013438 0.000000 0.002864 0.000000
# 4 0.000000 0.000000 0.000000 0.040158 0.000000 0.008114
# 5 -0.001297 -0.001538 0.002864 0.000000 0.025375 0.000000
# 6 0.000000 0.000000 0.000000 0.008114 0.000000 0.048402
#
#
# Mechanical properties :
#
#
# Convention : Reuss Voigt Hill
#
# Bulk Modulus (GPa) = 55.47631 67.45960 61.46795
# Shear Modulus (GPa) = 25.73740 28.82464 27.28102
#
# Velocity S-wave (km/s) = 3.62372 3.83490 3.73080
# Velocity P-wave (km/s) = 6.76851 7.35029 7.06539
#
# Compressibility (1/GPa) = 0.01802571
#
# Stress axis : x y z
#
# Youngs Moduli (GPa) = 70.08868 54.14363 74.41326
#
# Poissons Ratio (x) = 0.14183 0.58049
# Poissons Ratio (y) = 0.18360 0.27194
# Poissons Ratio (z) = 0.54675 0.19787
#
# Static dielectric constant tensor:
#      x y z
#    x 3.676020 0.000000 -0.116860 
#    y 0.000000 3.398700 0.000000 
#    z -0.116860 0.000000 3.610230 
# 
# 
# High freq. dielectric constant tensor:
#      x y z
#    x 1.760160 0.000000 -0.011700 
#    y 0.000000 1.755160 0.000000 
#    z -0.011700 0.000000 1.770900 
# 
# From -- ./inp_files/187382.got.cif
#   From: 2010.06.25/outbox.cif.g09.slc.cpg/sg12_94_cif.got.tgz:187382.got - 2010.06.28 00:19:55.
