data_PCOD8079585
_publ_section_title
;
Structure prediction by ZEFSAII (Michael W. Deem and Ramdas Pophale) SiO2 
 PCOD8079585
Probable space group: C 2/M
;
_chemical_formula_sum "Si O2"
_cell_formula_units_Z 60
_cell_length_a 13.754186
_cell_length_b 23.614705
_cell_length_c 18.202039
_cell_angle_alpha 90.000000
_cell_angle_beta 150.174922
_cell_angle_gamma 90.000000
_cell_volume 2940.375779
_symmetry_space_group_name_H-M "C 2/M"
_symmetry_group_IT_number 12
_symmetry_cell_setting 'monoclinic'
loop_
_space_group_symop_operation_xyz
x,y,z
-x,y,-z
-x,-y,-z
x,-y,z
1/2+x,1/2+y,z
1/2-x,1/2+y,-z
1/2-x,1/2-y,-z
1/2+x,1/2-y,z
loop_
_atom_site_type_symbol
_atom_site_label
_atom_site_fract_x
_atom_site_fract_y
_atom_site_fract_z
Si Si1 0.153027 0.651403 0.408201
Si Si2 0.857127 0.269186 0.729754
Si Si3 0.791005 0.563426 0.339136
Si Si4 0.329605 0.063460 0.191291
Si Si5 0.000000 0.863821 0.000000
Si Si6 0.688557 0.220611 0.753617
Si Si7 0.551562 0.352548 0.274032
Si Si8 0.347183 0.187779 0.960683
O O1 0.218717 0.684614 0.378325
O O2 0.343782 0.634671 0.579264
O O3 0.032996 0.594872 0.306972
O O4 0.019304 0.691003 0.372804
O O5 0.686677 0.258449 0.678584
O O6 0.906981 0.211443 0.721880
O O7 0.047770 0.294608 0.895169
O O8 0.768781 0.500000 0.357256
O O9 0.781867 0.561894 0.246134
O O10 0.620494 0.602325 0.259356
O O11 0.000000 0.589433 0.500000
O O12 0.338374 0.000000 0.163979
O O13 0.140926 0.098622 0.038000
O O14 0.137914 0.825542 0.142648
O O15 0.736161 0.256813 0.856936
O O16 0.317243 0.359796 0.131105
O O17 0.500000 0.164575 0.000000
#
# Coordination Sequence:
#
# PCOD8079585 Si02
#       8
#     8   8   8   8   4   8   8   8
#     4  11  23  35  53  88 121 152 196 245 294 354
#     4  11  22  35  57  80 118 160 195 240 296 351
#     4  10  21  38  59  85 118 156 191 230 298 359
#     4  10  21  36  55  83 123 157 191 240 293 354
#     4  10  17  32  56  78 112 156 199 224 278 352
#     4  10  20  36  52  79 119 154 194 238 292 348
#     4  12  22  35  58  85 115 152 202 241 285 357
#     4  10  22  40  55  77 113 158 200 239 290 346
#
# _framework density 20.405555
#
# number of rings (size 3 to 8) (size 9 to 14) (size 15 to 20)
#    0.000    1.467    4.667    2.600    0.000    1.067 
#    2.400    0.000    0.000    0.400    0.000    2.800 
#    0.000    8.533    0.000    0.000    0.000    0.000 
#
# Total GULP energy -371950.114157 kJ/mol
# GULP energy per Si atom -12398.337139 kJ/mol
# Density = 2.035911 g / cm^3
# Si number density = 20.405555 Si / 1000 Ang^3
#
#
#
# Elastic Constant Matrix: (Units=GPa)
#
#
# Indices 1 2 3 4 5 6 
#
# 1 45.2683 37.0326 6.7821 -0.0042 -2.9596 0.0021
# 2 37.0326 88.0543 8.4922 -0.0019 10.1915 0.0015
# 3 6.7821 8.4922 52.6304 -0.0198 6.3349 -0.0041
# 4 -0.0042 -0.0019 -0.0198 19.3804 -0.0063 5.2247
# 5 -2.9596 10.1915 6.3349 -0.0063 30.4371 0.0001
# 6 0.0021 0.0015 -0.0041 5.2247 0.0001 10.9410
#
#
#
# Elastic Compliance Matrix: (Units=1/GPa)
#
#
# Indices 1 2 3 4 5 6 
#
# 1 0.036371 -0.016095 -0.003246 0.000009 0.009601 -0.000010
# 2 -0.016095 0.019048 -0.000045 -0.000005 -0.007934 0.000003
# 3 -0.003246 -0.000045 0.019962 0.000018 -0.004455 -0.000001
# 4 0.000009 -0.000005 0.000018 0.059223 0.000011 -0.028281
# 5 0.009601 -0.007934 -0.004455 0.000011 0.037372 -0.000008
# 6 -0.000010 0.000003 -0.000001 -0.028281 -0.000008 0.104904
#
#
# Mechanical properties :
#
#
# Convention : Reuss Voigt Hill
#
# Bulk Modulus (GPa) = 27.31370 32.28519 29.79944
# Shear Modulus (GPa) = 15.25071 21.06144 18.15608
#
# Velocity S-wave (km/s) = 2.73679 3.21618 2.98612
# Velocity P-wave (km/s) = 4.83748 5.44499 5.15020
#
# Compressibility (1/GPa) = 0.03661167
#
# Stress axis : x y z
#
# Youngs Moduli (GPa) = 27.49444 52.49883 50.09487
#
# Poissons Ratio (x) = 0.84495 0.16258
# Poissons Ratio (y) = 0.44251 0.00223
# Poissons Ratio (z) = 0.08923 0.00234
#
# Static dielectric constant tensor:
#      x y z
#    x 3.576020 0.000000 0.064200 
#    y 0.000000 3.854430 -0.000010 
#    z 0.064200 -0.000010 3.877790 
# 
# 
# High freq. dielectric constant tensor:
#      x y z
#    x 1.770250 0.000000 -0.005700 
#    y 0.000000 1.770210 0.000000 
#    z -0.005700 0.000000 1.807440 
# 
# From -- ./inp_files/312375.got.cif
#   From: 2010.06.25/outbox.cif.g09.slc.cpg/sg12_157_cif.got.tgz:312375.got - 2010.06.28 00:19:55.
