data_PCOD8079054
_publ_section_title
;
Structure prediction by ZEFSAII (Michael W. Deem and Ramdas Pophale) SiO2 
 PCOD8079054
Probable space group: C 2/M
;
_chemical_formula_sum "Si O2"
_cell_formula_units_Z 64
_cell_length_a 20.362023
_cell_length_b 21.255932
_cell_length_c 16.687720
_cell_angle_alpha 90.000000
_cell_angle_beta 31.064362
_cell_angle_gamma 90.000000
_cell_volume 3726.904911
_symmetry_space_group_name_H-M "C 2/M"
_symmetry_group_IT_number 12
_symmetry_cell_setting 'monoclinic'
loop_
_space_group_symop_operation_xyz
x,y,z
-x,y,-z
-x,-y,-z
x,-y,z
1/2+x,1/2+y,z
1/2-x,1/2+y,-z
1/2-x,1/2-y,-z
1/2+x,1/2-y,z
loop_
_atom_site_type_symbol
_atom_site_label
_atom_site_fract_x
_atom_site_fract_y
_atom_site_fract_z
Si Si1 0.974142 0.205269 0.117635
Si Si2 0.797515 0.571754 0.913656
Si Si3 0.648370 0.304542 0.088039
Si Si4 0.405081 0.258908 0.414531
Si Si5 0.849326 0.685331 0.309477
Si Si6 0.079478 0.570591 0.679094
Si Si7 0.646305 0.071228 0.326452
Si Si8 0.212941 0.644041 0.401875
O O1 0.929843 0.278755 0.156602
O O2 0.853799 0.167001 0.281041
O O3 0.093282 0.197801 0.054202
O O4 0.000000 0.181662 0.000000
O O5 0.741820 0.500000 0.979558
O O6 0.824988 0.590403 0.793740
O O7 0.929896 0.575737 0.821139
O O8 0.703600 0.625303 0.046318
O O9 0.541328 0.292738 0.268107
O O10 0.750000 0.250000 0.000000
O O11 0.302485 0.312533 0.544071
O O12 0.382091 0.224226 0.354911
O O13 0.387856 0.202401 0.497134
O O14 0.890333 0.613005 0.274756
O O15 0.119854 0.500000 0.657566
O O16 0.162336 0.591515 0.516019
O O17 0.500000 0.081469 0.500000
O O18 0.729087 0.115423 0.296938
O O19 0.687661 0.000000 0.299416
#
# Coordination Sequence:
#
# PCOD8079054 Si02
#       8
#     8   8   8   8   8   8   8   8
#     4  10  20  33  49  71  98 130 158 197 252 293
#     4  10  20  31  43  66 100 131 163 202 239 281
#     4  11  20  32  50  70  96 129 169 204 244 296
#     4   8  16  29  46  65  87 117 154 198 243 279
#     4   8  15  30  48  64  88 115 151 198 244 283
#     4  10  17  28  48  70  88 119 164 203 240 279
#     4  10  18  28  44  66  97 134 167 196 232 281
#     4  10  17  30  48  67  94 125 159 202 239 279
#
# _framework density 17.172426000000002
#
# number of rings (size 3 to 8) (size 9 to 14) (size 15 to 20)
#    0.000    2.375    1.250    5.625    0.000    0.000 
#    0.000    3.125    0.000    3.750    0.000    0.000 
#    0.000    0.000    0.000   19.125    0.000    0.000 
#
# Total GULP energy -396472.836585 kJ/mol
# GULP energy per Si atom -12389.776143 kJ/mol
# Density = 1.713334 g / cm^3
# Si number density = 17.172426 Si / 1000 Ang^3
#
#
#
# Elastic Constant Matrix: (Units=GPa)
#
#
# Indices 1 2 3 4 5 6 
#
# 1 37.3492 24.2506 11.6389 -0.0050 -11.2612 0.0020
# 2 24.2506 123.9194 44.9719 -0.0070 -15.3626 0.0023
# 3 11.6389 44.9719 72.7915 -0.0155 -14.9522 0.0066
# 4 -0.0050 -0.0070 -0.0155 22.3305 0.0082 -3.2647
# 5 -11.2612 -15.3626 -14.9522 0.0082 17.7967 -0.0025
# 6 0.0020 0.0023 0.0066 -3.2647 -0.0025 27.5756
#
#
#
# Elastic Compliance Matrix: (Units=1/GPa)
#
#
# Indices 1 2 3 4 5 6 
#
# 1 0.035418 -0.005060 0.001413 0.000000 0.019231 -0.000001
# 2 -0.005060 0.011408 -0.005890 -0.000002 0.001697 0.000001
# 3 0.001413 -0.005890 0.019688 0.000007 0.012351 -0.000002
# 4 0.000000 -0.000002 0.000007 0.045571 -0.000016 0.005395
# 5 0.019231 0.001697 0.012351 -0.000016 0.080201 0.000001
# 6 -0.000001 0.000001 -0.000002 0.005395 0.000001 0.036903
#
#
# Mechanical properties :
#
#
# Convention : Reuss Voigt Hill
#
# Bulk Modulus (GPa) = 21.07947 43.97588 32.52767
# Shear Modulus (GPa) = 18.93400 23.75379 21.34389
#
# Velocity S-wave (km/s) = 3.32412 3.72324 3.52933
# Velocity P-wave (km/s) = 5.19950 6.64435 5.96583
#
# Compressibility (1/GPa) = 0.04743952
#
# Stress axis : x y z
#
# Youngs Moduli (GPa) = 28.23458 87.65717 50.79195
#
# Poissons Ratio (x) = 0.44354 -0.07178
# Poissons Ratio (y) = 0.14286 0.29919
# Poissons Ratio (z) = -0.03990 0.51634
#
# Static dielectric constant tensor:
#      x y z
#    x 3.075660 -0.000010 0.035410 
#    y -0.000010 3.420240 0.000010 
#    z 0.035410 0.000010 3.427850 
# 
# 
# High freq. dielectric constant tensor:
#      x y z
#    x 1.625550 0.000000 -0.013730 
#    y 0.000000 1.661200 0.000000 
#    z -0.013730 0.000000 1.656340 
# 
# From -- ./inp_files/285766.got.cif
#   From: 2010.06.25/outbox.cif.g09.slc.cpg/sg12_143_cif.got.tgz:285766.got - 2010.06.28 00:19:55.
