data_PCOD8079301
_publ_section_title
;
Structure prediction by ZEFSAII (Michael W. Deem and Ramdas Pophale) SiO2 
 PCOD8079301
Probable space group: C 2/M
;
_chemical_formula_sum "Si O2"
_cell_formula_units_Z 64
_cell_length_a 11.688795
_cell_length_b 29.831095
_cell_length_c 11.631875
_cell_angle_alpha 90.000000
_cell_angle_beta 78.239564
_cell_angle_gamma 90.000000
_cell_volume 3970.773053
_symmetry_space_group_name_H-M "C 2/M"
_symmetry_group_IT_number 12
_symmetry_cell_setting 'monoclinic'
loop_
_space_group_symop_operation_xyz
x,y,z
-x,y,-z
-x,-y,-z
x,-y,z
1/2+x,1/2+y,z
1/2-x,1/2+y,-z
1/2-x,1/2-y,-z
1/2+x,1/2-y,z
loop_
_atom_site_type_symbol
_atom_site_label
_atom_site_fract_x
_atom_site_fract_y
_atom_site_fract_z
Si Si1 0.577217 0.294380 0.715061
Si Si2 0.247883 0.644425 0.445529
Si Si3 0.360804 0.805283 0.316661
Si Si4 0.320100 0.710159 0.836764
Si Si5 0.404733 0.858708 0.745573
Si Si6 0.808691 0.548597 0.506119
Si Si7 0.221918 0.194569 0.903228
Si Si8 0.023267 0.451874 0.311540
O O1 0.633126 0.333289 0.624975
O O2 0.622917 0.247101 0.655968
O O3 0.437573 0.297350 0.739224
O O4 0.612038 0.300949 0.841008
O O5 0.203554 0.670390 0.566099
O O6 0.143327 0.646933 0.374336
O O7 0.276380 0.591966 0.468600
O O8 0.284472 0.809982 0.216972
O O9 0.485582 0.826276 0.263245
O O10 0.304596 0.762294 0.870052
O O11 0.323875 0.685461 0.959055
O O12 0.302656 0.847518 0.855484
O O13 0.441542 0.909330 0.772355
O O14 0.741521 0.500000 0.512922
O O15 0.892702 0.547388 0.597155
O O16 0.889119 0.554591 0.377225
O O17 0.035938 0.500000 0.243271
#
# Coordination Sequence:
#
# PCOD8079301 Si02
#       8
#     8   8   8   8   8   8   8   8
#     4  10  20  33  46  64  91 124 157 187 222 270
#     4  10  19  30  45  68  98 127 147 180 228 277
#     4  11  20  30  44  68  94 125 152 180 229 273
#     4  10  20  33  46  65  88 118 162 198 217 258
#     4  10  17  30  47  69  97 122 152 182 229 279
#     4   8  13  23  41  66  92 118 149 183 222 266
#     4   9  19  33  50  64  84 120 157 196 232 253
#     4   8  13  22  41  67  94 118 143 184 228 272
#
# _framework density 16.117768000000002
#
# number of rings (size 3 to 8) (size 9 to 14) (size 15 to 20)
#    0.000    2.500    2.500    1.875    0.000    1.000 
#    2.250    0.000    0.000    0.000    0.000    6.125 
#    0.000    6.000    0.000    0.000    0.000    0.000 
#
# Total GULP energy -396575.992888 kJ/mol
# GULP energy per Si atom -12392.999778 kJ/mol
# Density = 1.608108 g / cm^3
# Si number density = 16.117768 Si / 1000 Ang^3
#
#
#
# Elastic Constant Matrix: (Units=GPa)
#
#
# Indices 1 2 3 4 5 6 
#
# 1 52.0033 25.4139 11.2444 0.0000 -7.1269 0.0000
# 2 25.4139 121.3189 29.4514 0.0000 -7.4389 0.0000
# 3 11.2444 29.4514 52.9640 0.0000 -0.9601 0.0000
# 4 0.0000 0.0000 0.0000 13.5318 0.0000 -5.0151
# 5 -7.1269 -7.4389 -0.9601 0.0000 17.1893 0.0000
# 6 0.0000 0.0000 0.0000 -5.0151 0.0000 19.4261
#
#
#
# Elastic Compliance Matrix: (Units=1/GPa)
#
#
# Indices 1 2 3 4 5 6 
#
# 1 0.022625 -0.003627 -0.002648 0.000000 0.007663 0.000000
# 2 -0.003627 0.010369 -0.004947 0.000000 0.002707 0.000000
# 3 -0.002648 -0.004947 0.022157 0.000000 -0.002001 0.000000
# 4 0.000000 0.000000 0.000000 0.081719 0.000000 0.021097
# 5 0.007663 0.002707 -0.002001 0.000000 0.062413 0.000000
# 6 0.000000 0.000000 0.000000 0.021097 0.000000 0.056924
#
#
# Mechanical properties :
#
#
# Convention : Reuss Voigt Hill
#
# Bulk Modulus (GPa) = 30.57300 39.83394 35.20347
# Shear Modulus (GPa) = 17.26803 20.70788 18.98796
#
# Velocity S-wave (km/s) = 3.27672 3.58828 3.43603
# Velocity P-wave (km/s) = 5.77283 6.47577 6.13438
#
# Compressibility (1/GPa) = 0.03270860
#
# Stress axis : x y z
#
# Youngs Moduli (GPa) = 44.19963 96.43730 45.13155
#
# Poissons Ratio (x) = 0.34976 0.11949
# Poissons Ratio (y) = 0.16030 0.22327
# Poissons Ratio (z) = 0.11703 0.47708
#
# Static dielectric constant tensor:
#      x y z
#    x 2.837670 0.000000 -0.015440 
#    y 0.000000 3.521760 0.000000 
#    z -0.015440 0.000000 2.873800 
# 
# 
# High freq. dielectric constant tensor:
#      x y z
#    x 1.595370 0.000000 -0.007170 
#    y 0.000000 1.617930 0.000000 
#    z -0.007170 0.000000 1.597000 
# 
# From -- ./inp_files/137420.got.cif
#   From: 2010.06.25/outbox.cif.g09.slc.cpg/sg12_69_cif.got.tgz:137420.got - 2010.06.28 00:19:55.
