data_PCOD8079426
_publ_section_title
;
Structure prediction by ZEFSAII (Michael W. Deem and Ramdas Pophale) SiO2 
 PCOD8079426
Probable space group: C 2/M
;
_chemical_formula_sum "Si O2"
_cell_formula_units_Z 44
_cell_length_a 13.984723
_cell_length_b 14.043521
_cell_length_c 21.413707
_cell_angle_alpha 90.000000
_cell_angle_beta 147.809226
_cell_angle_gamma 90.000000
_cell_volume 2240.459246
_symmetry_space_group_name_H-M "C 2/M"
_symmetry_group_IT_number 12
_symmetry_cell_setting 'monoclinic'
loop_
_space_group_symop_operation_xyz
x,y,z
-x,y,-z
-x,-y,-z
x,-y,z
1/2+x,1/2+y,z
1/2-x,1/2+y,-z
1/2-x,1/2-y,-z
1/2+x,1/2-y,z
loop_
_atom_site_type_symbol
_atom_site_label
_atom_site_fract_x
_atom_site_fract_y
_atom_site_fract_z
Si Si1 0.828787 0.227312 0.866098
Si Si2 0.504398 0.110070 0.275878
Si Si3 0.091700 0.109524 0.778004
Si Si4 0.125263 0.892810 0.462315
Si Si5 0.000000 0.761903 0.500000
Si Si6 0.123189 0.228032 0.252978
O O1 0.674971 0.148903 0.791377
O O2 0.767006 0.331488 0.855076
O O3 0.884595 0.232360 0.825237
O O4 0.000000 0.194271 0.000000
O O5 0.661107 0.122969 0.414128
O O6 0.559549 0.169472 0.244758
O O7 0.479527 0.000000 0.242686
O O8 0.933186 0.129323 0.640563
O O9 0.014539 0.146164 0.801284
O O10 0.148099 0.000000 0.814628
O O11 0.012900 0.826332 0.445701
O O12 0.072629 0.000000 0.451638
O O13 0.821130 0.700223 0.388995
#
# Coordination Sequence:
#
# PCOD8079426 Si02
#       6
#     8   8   8   8   4   8
#     4  11  24  41  59  82 115 156 197 233 278 341
#     4   9  21  38  59  87 117 148 187 237 287 339
#     4  10  22  39  58  85 120 151 186 238 289 336
#     4   9  17  32  56  87 118 146 183 232 288 342
#     4  10  17  30  59  86 114 150 180 236 284 340
#     4  10  22  36  59  87 115 149 193 233 287 337
#
# _framework density 19.638829999999999
#
# number of rings (size 3 to 8) (size 9 to 14) (size 15 to 20)
#    0.000    2.182    1.818    0.273    2.545    8.000 
#    0.000    2.273    0.000    0.000    0.000    0.000 
#    0.000    0.000    0.000    0.000    0.000    0.000 
#
# Total GULP energy -272820.975506 kJ/mol
# GULP energy per Si atom -12400.953432 kJ/mol
# Density = 1.959413 g / cm^3
# Si number density = 19.638830 Si / 1000 Ang^3
#
#
#
# Elastic Constant Matrix: (Units=GPa)
#
#
# Indices 1 2 3 4 5 6 
#
# 1 123.5630 21.8172 26.0671 0.0002 -1.5713 0.0000
# 2 21.8172 69.9175 2.3488 0.0005 7.9023 0.0001
# 3 26.0671 2.3488 60.7640 0.0014 3.5565 0.0002
# 4 0.0002 0.0005 0.0014 3.0209 0.0002 -3.3933
# 5 -1.5713 7.9023 3.5565 0.0002 20.1680 0.0000
# 6 0.0000 0.0001 0.0002 -3.3933 0.0000 8.8979
#
#
#
# Elastic Compliance Matrix: (Units=1/GPa)
#
#
# Indices 1 2 3 4 5 6 
#
# 1 0.009556 -0.003149 -0.004136 0.000003 0.002708 0.000001
# 2 -0.003149 0.016006 0.001125 -0.000005 -0.006715 -0.000002
# 3 -0.004136 0.001125 0.018423 -0.000016 -0.004012 -0.000006
# 4 0.000003 -0.000005 -0.000016 0.579099 -0.000001 0.220846
# 5 0.002708 -0.006715 -0.004012 -0.000001 0.053133 0.000000
# 6 0.000001 -0.000002 -0.000006 0.220846 0.000000 0.196608
#
#
# Mechanical properties :
#
#
# Convention : Reuss Voigt Hill
#
# Bulk Modulus (GPa) = 31.58031 39.41230 35.49630
# Shear Modulus (GPa) = 5.58222 20.01813 12.80017
#
# Velocity S-wave (km/s) = 1.68778 3.19613 2.55577
# Velocity P-wave (km/s) = 4.46247 5.80797 5.17910
#
# Compressibility (1/GPa) = 0.03166531
#
# Stress axis : x y z
#
# Youngs Moduli (GPa) = 104.64562 62.47499 54.28056
#
# Poissons Ratio (x) = 0.19673 0.22452
# Poissons Ratio (y) = 0.32953 -0.06108
# Poissons Ratio (z) = 0.43284 -0.07030
#
# Static dielectric constant tensor:
#      x y z
#    x 3.501270 0.000000 0.083320 
#    y 0.000000 3.530330 0.000000 
#    z 0.083320 0.000000 3.505940 
# 
# 
# High freq. dielectric constant tensor:
#      x y z
#    x 1.767660 0.000000 0.006800 
#    y 0.000000 1.755570 0.000000 
#    z 0.006800 0.000000 1.755260 
# 
# From -- ./inp_files/143165.got.cif
#   From: 2010.06.25/outbox.cif.g09.slc.cpg/sg12_72_cif.got.tgz:143165.got - 2010.06.28 00:19:55.
