data_PCOD8079775
_publ_section_title
;
Structure prediction by ZEFSAII (Michael W. Deem and Ramdas Pophale) SiO2 
 PCOD8079775
Probable space group: C 2/M
;
_chemical_formula_sum "Si O2"
_cell_formula_units_Z 64
_cell_length_a 25.398172
_cell_length_b 17.947140
_cell_length_c 20.418224
_cell_angle_alpha 90.000000
_cell_angle_beta 20.887396
_cell_angle_gamma 90.000000
_cell_volume 3318.293364
_symmetry_space_group_name_H-M "C 2/M"
_symmetry_group_IT_number 12
_symmetry_cell_setting 'monoclinic'
loop_
_space_group_symop_operation_xyz
x,y,z
-x,y,-z
-x,-y,-z
x,-y,z
1/2+x,1/2+y,z
1/2-x,1/2+y,-z
1/2-x,1/2-y,-z
1/2+x,1/2-y,z
loop_
_atom_site_type_symbol
_atom_site_label
_atom_site_fract_x
_atom_site_fract_y
_atom_site_fract_z
Si Si1 0.560758 0.332264 0.257289
Si Si2 0.617470 0.811853 0.523624
Si Si3 0.090547 0.626635 0.335605
Si Si4 0.163629 0.291468 0.806727
Si Si5 0.147668 0.203943 0.294673
Si Si6 0.295908 0.584802 0.413218
Si Si7 0.232335 0.084314 0.403192
Si Si8 0.623844 0.583097 0.062827
O O1 0.485202 0.253157 0.326482
O O2 0.663965 0.327397 0.201842
O O3 0.436230 0.393811 0.416207
O O4 0.658475 0.359337 0.081972
O O5 0.515397 0.871063 0.604584
O O6 0.727123 0.773281 0.344307
O O7 0.706970 0.855327 0.474590
O O8 0.139812 0.707575 0.301325
O O9 0.000000 0.587049 0.500000
O O10 0.240306 0.582201 0.145539
O O11 0.214094 0.318648 0.820573
O O12 0.159094 0.361863 0.763070
O O13 0.000000 0.257880 0.000000
O O14 0.000000 0.171386 0.500000
O O15 0.269651 0.500000 0.418691
O O16 0.236955 0.593511 0.555436
O O17 0.470111 0.605425 0.206138
O O18 0.259979 0.000000 0.347996
O O19 0.603431 0.500000 0.115532
#
# Coordination Sequence:
#
# PCOD8079775 Si02
#       8
#     8   8   8   8   8   8   8   8
#     4   9  18  35  60  84 114 145 189 237 277 324
#     4  10  20  35  59  86 110 146 191 227 280 335
#     4  10  20  38  59  79 111 146 178 233 292 334
#     4  11  22  35  55  86 114 148 190 235 272 332
#     4  10  17  37  56  82 115 141 184 239 284 324
#     4   9  20  38  57  82 116 148 184 234 277 331
#     4   9  18  36  57  78 115 156 186 225 282 330
#     4  10  22  38  57  84 115 148 189 231 279 335
#
# _framework density 19.287023000000001
#
# number of rings (size 3 to 8) (size 9 to 14) (size 15 to 20)
#    0.000    2.250    5.000    1.125    1.750    7.500 
#    2.250    1.875    0.000    1.875    0.000    0.000 
#    0.000    0.000    0.000    0.000    0.000    0.125 
#
# Total GULP energy -396698.822552 kJ/mol
# GULP energy per Si atom -12396.838205 kJ/mol
# Density = 1.924312 g / cm^3
# Si number density = 19.287023 Si / 1000 Ang^3
#
#
#
# Elastic Constant Matrix: (Units=GPa)
#
#
# Indices 1 2 3 4 5 6 
#
# 1 133.5410 51.8665 43.8170 -0.0001 -7.9943 -0.0005
# 2 51.8665 67.6213 19.8386 -0.0119 0.2033 0.0051
# 3 43.8170 19.8386 79.4166 -0.0063 -0.6263 0.0024
# 4 -0.0001 -0.0119 -0.0063 14.8555 0.0008 0.2536
# 5 -7.9943 0.2033 -0.6263 0.0008 24.2744 -0.0009
# 6 -0.0005 0.0051 0.0024 0.2536 -0.0009 8.2989
#
#
#
# Elastic Compliance Matrix: (Units=1/GPa)
#
#
# Indices 1 2 3 4 5 6 
#
# 1 0.012487 -0.008177 -0.004815 -0.000009 0.004057 0.000008
# 2 -0.008177 0.021314 -0.000835 0.000017 -0.002893 -0.000014
# 3 -0.004815 -0.000835 0.015448 0.000006 -0.001180 -0.000005
# 4 -0.000009 0.000017 0.000006 0.067350 -0.000005 -0.002058
# 5 0.004057 -0.002893 -0.001180 -0.000005 0.042525 0.000007
# 6 0.000008 -0.000014 -0.000005 -0.002058 0.000007 0.120560
#
#
# Mechanical properties :
#
#
# Convention : Reuss Voigt Hill
#
# Bulk Modulus (GPa) = 46.30978 56.84700 51.57839
# Shear Modulus (GPa) = 15.89631 20.48955 18.19293
#
# Velocity S-wave (km/s) = 2.87400 3.26291 3.07461
# Velocity P-wave (km/s) = 5.92251 6.61314 6.27733
#
# Compressibility (1/GPa) = 0.02159371
#
# Stress axis : x y z
#
# Youngs Moduli (GPa) = 80.08306 46.91712 64.73443
#
# Poissons Ratio (x) = 0.38366 0.31168
# Poissons Ratio (y) = 0.65487 0.05408
# Poissons Ratio (z) = 0.38559 0.03920
#
# Static dielectric constant tensor:
#      x y z
#    x 3.578350 -0.000010 0.127370 
#    y -0.000010 3.374610 0.000020 
#    z 0.127370 0.000020 3.470780 
# 
# 
# High freq. dielectric constant tensor:
#      x y z
#    x 1.747610 0.000000 0.002560 
#    y 0.000000 1.734820 0.000000 
#    z 0.002560 0.000000 1.736720 
# 
# From -- ./inp_files/328613.got.cif
#   From: 2010.06.25/outbox.cif.g09.slc.cpg/sg12_165_cif.got.tgz:328613.got - 2010.06.28 00:19:55.
