data_PCOD8079785
_publ_section_title
;
Structure prediction by ZEFSAII (Michael W. Deem and Ramdas Pophale) SiO2 
 PCOD8079785
Probable space group: C 2/M
;
_chemical_formula_sum "Si O2"
_cell_formula_units_Z 44
_cell_length_a 18.068898
_cell_length_b 18.885580
_cell_length_c 21.462933
_cell_angle_alpha 90.000000
_cell_angle_beta 160.097633
_cell_angle_gamma 90.000000
_cell_volume 2493.239984
_symmetry_space_group_name_H-M "C 2/M"
_symmetry_group_IT_number 12
_symmetry_cell_setting 'monoclinic'
loop_
_space_group_symop_operation_xyz
x,y,z
-x,y,-z
-x,-y,-z
x,-y,z
1/2+x,1/2+y,z
1/2-x,1/2+y,-z
1/2-x,1/2-y,-z
1/2+x,1/2-y,z
loop_
_atom_site_type_symbol
_atom_site_label
_atom_site_fract_x
_atom_site_fract_y
_atom_site_fract_z
Si Si1 0.727928 0.500000 0.975835
Si Si2 0.392388 0.349229 0.135531
Si Si3 0.571624 0.785689 0.224647
Si Si4 0.307405 0.000000 0.616480
Si Si5 0.312642 0.850855 0.808390
Si Si6 0.919795 0.500000 0.839568
Si Si7 0.402647 0.354714 0.570635
O O1 0.576608 0.430178 0.863314
O O2 0.928793 0.500000 0.184611
O O3 0.828844 0.500000 0.985369
O O4 0.495569 0.296194 0.166101
O O5 0.503647 0.330864 0.289161
O O6 0.134515 0.338047 0.937920
O O7 0.705762 0.802787 0.268215
O O8 0.714047 0.801706 0.398651
O O9 0.258166 0.000000 0.651843
O O10 0.197270 0.067729 0.498392
O O11 0.083926 0.851500 0.661200
O O12 0.377643 0.931464 0.846916
O O13 0.500000 0.816927 0.000000
#
# Coordination Sequence:
#
# PCOD8079785 Si02
#       7
#     4   8   8   4   8   4   8
#     4  10  17  38  53  73 107 147 174 214 266 308
#     4  11  22  37  56  74 110 143 180 224 266 318
#     4  11  22  37  51  79 110 140 182 224 264 310
#     4  10  20  32  53  81 109 147 179 208 251 320
#     4  12  21  34  53  80 109 149 180 211 262 320
#     4  10  18  32  46  78 112 146 172 204 245 314
#     4  12  21  35  55  79 110 146 180 215 265 317
#
# _framework density 17.64772
#
# number of rings (size 3 to 8) (size 9 to 14) (size 15 to 20)
#    0.545    0.364    7.273    2.455    0.000    0.727 
#    0.000    0.000    0.000    0.000    0.000    3.182 
#    0.000    0.000    0.000    0.000    0.000    0.000 
#
# Total GULP energy -272782.376009 kJ/mol
# GULP energy per Si atom -12399.198910 kJ/mol
# Density = 1.760755 g / cm^3
# Si number density = 17.647720 Si / 1000 Ang^3
#
#
#
# Elastic Constant Matrix: (Units=GPa)
#
#
# Indices 1 2 3 4 5 6 
#
# 1 45.4793 32.1529 10.5923 0.0381 -4.8463 0.0026
# 2 32.1529 113.9033 21.8600 0.0686 5.2483 0.0304
# 3 10.5923 21.8600 91.5224 0.1183 -9.8204 0.0357
# 4 0.0381 0.0686 0.1183 18.1060 0.0886 2.9533
# 5 -4.8463 5.2483 -9.8204 0.0886 16.1659 0.0409
# 6 0.0026 0.0304 0.0357 2.9533 0.0409 18.9809
#
#
#
# Elastic Compliance Matrix: (Units=1/GPa)
#
#
# Indices 1 2 3 4 5 6 
#
# 1 0.029509 -0.008860 -0.000044 -0.000085 0.011697 -0.000002
# 2 -0.008860 0.012196 -0.002779 0.000031 -0.008304 0.000000
# 3 -0.000044 -0.002779 0.012506 -0.000109 0.008487 -0.000020
# 4 -0.000085 0.000031 -0.000109 0.056671 -0.000390 -0.008816
# 5 0.011697 -0.008304 0.008487 -0.000390 0.073219 -0.000101
# 6 -0.000002 0.000000 -0.000020 -0.008816 -0.000101 0.054056
#
#
# Mechanical properties :
#
#
# Convention : Reuss Voigt Hill
#
# Bulk Modulus (GPa) = 32.41971 42.23505 37.32738
# Shear Modulus (GPa) = 18.39558 23.07054 20.73306
#
# Velocity S-wave (km/s) = 3.23209 3.61956 3.43130
# Velocity P-wave (km/s) = 5.68673 6.43836 6.07418
#
# Compressibility (1/GPa) = 0.03084544
#
# Stress axis : x y z
#
# Youngs Moduli (GPa) = 33.88823 81.99163 79.96285
#
# Poissons Ratio (x) = 0.72647 0.00350
# Poissons Ratio (y) = 0.30026 0.22219
# Poissons Ratio (z) = 0.00148 0.22783
#
# Static dielectric constant tensor:
#      x y z
#    x 2.894630 -0.000120 -0.113620 
#    y -0.000120 3.171550 -0.000210 
#    z -0.113620 -0.000210 3.441990 
# 
# 
# High freq. dielectric constant tensor:
#      x y z
#    x 1.634760 -0.000010 -0.015750 
#    y -0.000010 1.674010 -0.000030 
#    z -0.015750 -0.000030 1.699330 
# 
# From -- ./inp_files/347695.got.cif
#   From: 2010.06.25/outbox.cif.g09.slc.cpg/sg12_174_cif.got.tgz:347695.got - 2010.06.28 00:19:55.
