data_PCOD8079569
_publ_section_title
;
Structure prediction by ZEFSAII (Michael W. Deem and Ramdas Pophale) SiO2 
 PCOD8079569
Probable space group: C 2/M
;
_chemical_formula_sum "Si O2"
_cell_formula_units_Z 52
_cell_length_a 12.421296
_cell_length_b 20.420720
_cell_length_c 12.558890
_cell_angle_alpha 90.000000
_cell_angle_beta 68.526084
_cell_angle_gamma 90.000000
_cell_volume 2964.455597
_symmetry_space_group_name_H-M "C 2/M"
_symmetry_group_IT_number 12
_symmetry_cell_setting 'monoclinic'
loop_
_space_group_symop_operation_xyz
x,y,z
-x,y,-z
-x,-y,-z
x,-y,z
1/2+x,1/2+y,z
1/2-x,1/2+y,-z
1/2-x,1/2-y,-z
1/2+x,1/2-y,z
loop_
_atom_site_type_symbol
_atom_site_label
_atom_site_fract_x
_atom_site_fract_y
_atom_site_fract_z
Si Si1 0.251987 0.832516 0.384123
Si Si2 0.500000 0.879714 0.000000
Si Si3 0.455903 0.925285 0.247043
Si Si4 0.328918 0.685635 0.355442
Si Si5 0.093584 0.808679 0.251788
Si Si6 0.337231 0.158179 0.771002
Si Si7 0.733409 0.824690 0.982267
O O1 0.335405 0.889992 0.315403
O O2 0.318637 0.763744 0.354381
O O3 0.209863 0.845097 0.518915
O O4 0.139295 0.831321 0.350180
O O5 0.486819 0.923553 0.110301
O O6 0.388649 0.833128 0.033244
O O7 0.556349 0.891685 0.281430
O O8 0.444552 0.000000 0.287475
O O9 0.462072 0.668836 0.286058
O O10 0.249124 0.651304 0.296135
O O11 0.108783 0.730535 0.236169
O O12 0.164120 0.847280 0.133694
O O13 0.266723 0.138057 0.904079
O O14 0.750000 0.750000 0.000000
#
# Coordination Sequence:
#
# PCOD8079569 Si02
#       7
#     8   4   8   8   8   8   8
#     4  10  20  34  52  81 105 145 187 226 271 322
#     4  10  19  36  52  84 114 140 187 222 276 330
#     4  11  21  37  58  80 111 146 189 231 267 326
#     4  10  20  33  53  75 116 143 175 227 280 333
#     4  10  17  32  54  80 108 142 175 227 276 330
#     4   9  20  32  48  83 110 140 177 221 280 327
#     4   9  18  27  51  79 113 139 166 227 277 326
#
# _framework density 17.541162
#
# number of rings (size 3 to 8) (size 9 to 14) (size 15 to 20)
#    0.000    2.154    3.077    0.692    0.000    1.231 
#    0.000    1.538    0.000    2.769    0.000    2.154 
#    0.000    0.000    0.000    0.000    0.000    0.000 
#
# Total GULP energy -322333.951827 kJ/mol
# GULP energy per Si atom -12397.459686 kJ/mol
# Density = 1.750124 g / cm^3
# Si number density = 17.541162 Si / 1000 Ang^3
#
#
#
# Elastic Constant Matrix: (Units=GPa)
#
#
# Indices 1 2 3 4 5 6 
#
# 1 130.6048 34.0993 59.0259 0.0000 -1.6650 0.0000
# 2 34.0993 68.0290 18.8909 0.0000 -2.6236 0.0000
# 3 59.0259 18.8909 106.4747 0.0000 4.0727 0.0000
# 4 0.0000 0.0000 0.0000 14.0260 0.0000 -1.7572
# 5 -1.6650 -2.6236 4.0727 0.0000 32.2609 0.0000
# 6 0.0000 0.0000 0.0000 -1.7572 0.0000 15.3363
#
#
#
# Elastic Compliance Matrix: (Units=1/GPa)
#
#
# Indices 1 2 3 4 5 6 
#
# 1 0.011233 -0.004054 -0.005544 0.000000 0.000950 0.000000
# 2 -0.004054 0.017008 -0.000819 0.000000 0.001277 0.000000
# 3 -0.005544 -0.000819 0.012685 0.000000 -0.001954 0.000000
# 4 0.000000 0.000000 0.000000 0.072335 0.000000 0.008288
# 5 0.000950 0.001277 -0.001954 0.000000 0.031397 0.000000
# 6 0.000000 0.000000 0.000000 0.008288 0.000000 0.066154
#
#
# Mechanical properties :
#
#
# Convention : Reuss Voigt Hill
#
# Bulk Modulus (GPa) = 49.77098 58.79340 54.28219
# Shear Modulus (GPa) = 20.97801 25.19748 23.08775
#
# Velocity S-wave (km/s) = 3.46197 3.79420 3.63189
# Velocity P-wave (km/s) = 6.66452 7.26531 6.97139
#
# Compressibility (1/GPa) = 0.02009203
#
# Stress axis : x y z
#
# Youngs Moduli (GPa) = 89.02356 58.79414 78.83037
#
# Poissons Ratio (x) = 0.23837 0.43705
# Poissons Ratio (y) = 0.36093 0.06456
# Poissons Ratio (z) = 0.49356 0.04815
#
# Static dielectric constant tensor:
#      x y z
#    x 3.281820 0.000000 0.015240 
#    y 0.000000 2.747060 0.000000 
#    z 0.015240 0.000000 3.701730 
# 
# 
# High freq. dielectric constant tensor:
#      x y z
#    x 1.684160 0.000000 0.002220 
#    y 0.000000 1.621380 0.000000 
#    z 0.002220 0.000000 1.693860 
# 
# From -- ./inp_files/133077.got.cif
#   From: 2010.06.25/outbox.cif.g09.slc.cpg/sg12_67_cif.got.tgz:133077.got - 2010.06.28 00:19:55.
