data_PCOD8079084
_publ_section_title
;
Structure prediction by ZEFSAII (Michael W. Deem and Ramdas Pophale) SiO2 
 PCOD8079084
Probable space group: C 2/M
;
_chemical_formula_sum "Si O2"
_cell_formula_units_Z 64
_cell_length_a 18.253465
_cell_length_b 14.526648
_cell_length_c 13.845599
_cell_angle_alpha 90.000000
_cell_angle_beta 63.270785
_cell_angle_gamma 90.000000
_cell_volume 3279.012504
_symmetry_space_group_name_H-M "C 2/M"
_symmetry_group_IT_number 12
_symmetry_cell_setting 'monoclinic'
loop_
_space_group_symop_operation_xyz
x,y,z
-x,y,-z
-x,-y,-z
x,-y,z
1/2+x,1/2+y,z
1/2-x,1/2+y,-z
1/2-x,1/2-y,-z
1/2+x,1/2-y,z
loop_
_atom_site_type_symbol
_atom_site_label
_atom_site_fract_x
_atom_site_fract_y
_atom_site_fract_z
Si Si1 0.145293 0.213260 0.634992
Si Si2 0.336392 0.099230 0.025769
Si Si3 0.252754 0.894148 0.420452
Si Si4 0.547195 0.718215 0.247573
Si Si5 0.217602 0.163773 0.791798
Si Si6 0.917465 0.216524 0.996180
Si Si7 0.133635 0.599096 0.208461
Si Si8 0.301141 0.642192 0.756220
O O1 0.184014 0.155140 0.525509
O O2 0.169802 0.322599 0.622491
O O3 0.173103 0.161013 0.715388
O O4 0.048448 0.202827 0.679580
O O5 0.247709 0.091477 0.129302
O O6 0.380462 0.000000 0.013646
O O7 0.394261 0.177741 0.037286
O O8 0.323965 0.120636 0.920077
O O9 0.215558 0.906123 0.335839
O O10 0.275321 0.000000 0.441022
O O11 0.573306 0.700496 0.122195
O O12 0.566441 0.822794 0.270055
O O13 0.601036 0.646125 0.278936
O O14 0.290983 0.090193 0.759485
O O15 0.268223 0.255844 0.775215
O O16 0.152017 0.150899 0.916924
O O17 0.000000 0.190086 0.000000
O O18 0.088092 0.500000 0.236350
#
# Coordination Sequence:
#
# PCOD8079084 Si02
#       8
#     8   8   8   8   8   8   8   8
#     4  10  21  37  58  82 108 138 176 227 275 317
#     4   9  17  29  46  74 110 142 174 211 252 308
#     4  10  22  40  59  79 104 140 183 223 272 327
#     4  10  19  33  53  81 109 134 176 223 265 316
#     4   9  17  32  52  74 105 143 177 205 251 319
#     4  10  17  28  49  78 107 140 176 207 258 322
#     4   9  18  31  51  78 109 143 175 212 260 317
#     4   9  18  33  53  75 103 142 177 213 258 310
#
# _framework density 19.518070999999999
#
# number of rings (size 3 to 8) (size 9 to 14) (size 15 to 20)
#    0.000    2.500    1.250    1.125    0.000    4.750 
#    0.000    1.875    0.000    1.125    0.000    7.000 
#    0.000    0.000    0.000    0.000    0.000    0.000 
#
# Total GULP energy -396432.574116 kJ/mol
# GULP energy per Si atom -12388.517941 kJ/mol
# Density = 1.947365 g / cm^3
# Si number density = 19.518071 Si / 1000 Ang^3
#
#
#
# Elastic Constant Matrix: (Units=GPa)
#
#
# Indices 1 2 3 4 5 6 
#
# 1 88.5165 -5.8779 17.0283 0.0000 -7.0811 0.0000
# 2 -5.8779 48.8214 7.6861 0.0000 9.2834 0.0000
# 3 17.0283 7.6861 63.6955 0.0000 -12.3046 0.0000
# 4 0.0000 0.0000 0.0000 11.8929 0.0000 1.2214
# 5 -7.0811 9.2834 -12.3046 0.0000 18.0431 0.0000
# 6 0.0000 0.0000 0.0000 1.2214 0.0000 16.9644
#
#
#
# Elastic Compliance Matrix: (Units=1/GPa)
#
#
# Indices 1 2 3 4 5 6 
#
# 1 0.012144 0.001597 -0.003084 0.000000 0.001841 0.000000
# 2 0.001597 0.024906 -0.006665 0.000000 -0.016733 0.000000
# 3 -0.003084 -0.006665 0.020451 0.000000 0.016166 0.000000
# 4 0.000000 0.000000 0.000000 0.084710 0.000000 -0.006099
# 5 0.001841 -0.016733 0.016166 0.000000 0.075779 0.000000
# 6 0.000000 0.000000 0.000000 -0.006099 0.000000 0.059386
#
#
# Mechanical properties :
#
#
# Convention : Reuss Voigt Hill
#
# Bulk Modulus (GPa) = 24.27235 26.52292 25.39764
# Shear Modulus (GPa) = 16.26483 21.52654 18.89569
#
# Velocity S-wave (km/s) = 2.88986 3.32460 3.11483
# Velocity P-wave (km/s) = 4.85777 5.32501 5.09674
#
# Compressibility (1/GPa) = 0.04119914
#
# Stress axis : x y z
#
# Youngs Moduli (GPa) = 82.34585 40.15067 48.89689
#
# Poissons Ratio (x) = -0.06414 0.15078
# Poissons Ratio (y) = -0.13154 0.32589
# Poissons Ratio (z) = 0.25392 0.26760
#
# Static dielectric constant tensor:
#      x y z
#    x 3.616760 0.000000 0.140230 
#    y 0.000000 3.601550 0.000000 
#    z 0.140230 0.000000 3.554290 
# 
# 
# High freq. dielectric constant tensor:
#      x y z
#    x 1.749720 0.000000 0.006060 
#    y 0.000000 1.747950 0.000000 
#    z 0.006060 0.000000 1.748910 
# 
# From -- ./inp_files/225233.got.cif
#   From: 2010.06.25/outbox.cif.g09.slc.cpg/sg12_113_cif.got.tgz:225233.got - 2010.06.28 00:19:55.
