data_PCOD8079349
_publ_section_title
;
Structure prediction by ZEFSAII (Michael W. Deem and Ramdas Pophale) SiO2 
 PCOD8079349
Probable space group: C 2/M
;
_chemical_formula_sum "Si O2"
_cell_formula_units_Z 40
_cell_length_a 18.635330
_cell_length_b 21.265057
_cell_length_c 12.470745
_cell_angle_alpha 90.000000
_cell_angle_beta 152.066843
_cell_angle_gamma 90.000000
_cell_volume 2315.000531
_symmetry_space_group_name_H-M "C 2/M"
_symmetry_group_IT_number 12
_symmetry_cell_setting 'monoclinic'
loop_
_space_group_symop_operation_xyz
x,y,z
-x,y,-z
-x,-y,-z
x,-y,z
1/2+x,1/2+y,z
1/2-x,1/2+y,-z
1/2-x,1/2-y,-z
1/2+x,1/2-y,z
loop_
_atom_site_type_symbol
_atom_site_label
_atom_site_fract_x
_atom_site_fract_y
_atom_site_fract_z
Si Si1 0.936765 0.693560 0.031665
Si Si2 0.385883 0.276785 0.441920
Si Si3 0.853447 0.070083 0.882622
Si Si4 0.821869 0.655484 0.492519
Si Si5 0.519671 0.328828 0.222457
O O1 0.016528 0.651642 0.230595
O O2 0.968223 0.766877 0.092175
O O3 0.753711 0.683404 0.793958
O O4 0.000000 0.672338 0.000000
O O5 0.500000 0.253480 0.500000
O O6 0.314743 0.218275 0.412100
O O7 0.479238 0.320397 0.648014
O O8 0.705290 0.096178 0.622134
O O9 0.814988 0.000000 0.873557
O O10 0.000000 0.069662 0.000000
O O11 0.897013 0.115738 0.038525
O O12 0.690434 0.655831 0.408695
#
# Coordination Sequence:
#
# PCOD8079349 Si02
#       5
#     8   8   8   8   8
#     4  11  16  30  51  72  99 134 159 195 252 302
#     4  11  21  30  47  79 105 128 161 206 249 294
#     4   9  17  31  52  76  97 124 170 211 236 279
#     4  10  18  30  50  73 101 133 163 196 250 298
#     4  10  17  30  51  73 102 133 163 197 247 299
#
# _framework density 17.278614000000001
#
# number of rings (size 3 to 8) (size 9 to 14) (size 15 to 20)
#    0.000    1.800    6.000    1.800    0.000    3.200 
#    0.000    0.000    0.000    3.000    0.000    0.000 
#    0.000    0.000    0.000    0.000    0.000    0.000 
#
# Total GULP energy -247909.425235 kJ/mol
# GULP energy per Si atom -12395.471262 kJ/mol
# Density = 1.723929 g / cm^3
# Si number density = 17.278614 Si / 1000 Ang^3
#
#
#
# Elastic Constant Matrix: (Units=GPa)
#
#
# Indices 1 2 3 4 5 6 
#
# 1 52.9188 6.9262 29.4066 0.0000 -5.4034 0.0000
# 2 6.9262 83.5574 39.5179 0.0000 -15.9475 0.0000
# 3 29.4066 39.5179 123.0184 0.0000 -21.5604 0.0000
# 4 0.0000 0.0000 0.0000 22.3672 0.0000 -6.5736
# 5 -5.4034 -15.9475 -21.5604 0.0000 21.3259 0.0000
# 6 0.0000 0.0000 0.0000 -6.5736 0.0000 6.3020
#
#
#
# Elastic Compliance Matrix: (Units=1/GPa)
#
#
# Indices 1 2 3 4 5 6 
#
# 1 0.021844 0.000874 -0.005369 0.000000 0.000760 0.000000
# 2 0.000874 0.015135 -0.003705 0.000000 0.007794 0.000000
# 3 -0.005369 -0.003705 0.012006 0.000000 0.008007 0.000000
# 4 0.000000 0.000000 0.000000 0.064473 0.000000 0.067252
# 5 0.000760 0.007794 0.008007 0.000000 0.061007 0.000000
# 6 0.000000 0.000000 0.000000 0.067252 0.000000 0.228832
#
#
# Mechanical properties :
#
#
# Convention : Reuss Voigt Hill
#
# Bulk Modulus (GPa) = 30.68994 45.68844 38.18919
# Shear Modulus (GPa) = 11.61283 22.24196 16.92739
#
# Velocity S-wave (km/s) = 2.59529 3.59172 3.13337
# Velocity P-wave (km/s) = 5.17504 6.61062 5.93638
#
# Compressibility (1/GPa) = 0.03258397
#
# Stress axis : x y z
#
# Youngs Moduli (GPa) = 45.77995 66.07180 83.29378
#
# Poissons Ratio (x) = -0.05772 0.44720
# Poissons Ratio (y) = -0.03999 0.30859
# Poissons Ratio (z) = 0.24579 0.24478
#
# Static dielectric constant tensor:
#      x y z
#    x 2.879840 0.000000 -0.186240 
#    y 0.000000 3.102200 0.000000 
#    z -0.186240 0.000000 3.543500 
# 
# 
# High freq. dielectric constant tensor:
#      x y z
#    x 1.636270 0.000000 -0.016840 
#    y 0.000000 1.616920 0.000000 
#    z -0.016840 0.000000 1.686740 
# 
# From -- ./inp_files/48501.got.cif
#   From: 2010.06.25/outbox.cif.g09.slc.cpg/sg12_25_cif.got.tgz:48501.got - 2010.06.28 00:19:55.
