data_PCOD8079056
_publ_section_title
;
Structure prediction by ZEFSAII (Michael W. Deem and Ramdas Pophale) SiO2 
 PCOD8079056
Probable space group: C 2/M
;
_chemical_formula_sum "Si O2"
_cell_formula_units_Z 48
_cell_length_a 29.291138
_cell_length_b 9.116852
_cell_length_c 12.597447
_cell_angle_alpha 90.000000
_cell_angle_beta 54.885153
_cell_angle_gamma 90.000000
_cell_volume 2751.803123
_symmetry_space_group_name_H-M "C 2/M"
_symmetry_group_IT_number 12
_symmetry_cell_setting 'monoclinic'
loop_
_space_group_symop_operation_xyz
x,y,z
-x,y,-z
-x,-y,-z
x,-y,z
1/2+x,1/2+y,z
1/2-x,1/2+y,-z
1/2-x,1/2-y,-z
1/2+x,1/2-y,z
loop_
_atom_site_type_symbol
_atom_site_label
_atom_site_fract_x
_atom_site_fract_y
_atom_site_fract_z
Si Si1 0.691026 0.825666 0.745184
Si Si2 0.382908 0.173394 0.960858
Si Si3 0.000279 0.674910 0.878456
Si Si4 0.304278 0.172588 0.882648
Si Si5 0.382200 0.172965 0.352352
Si Si6 0.695956 0.172317 0.358223
O O1 0.658537 0.767394 0.685114
O O2 0.751755 0.755490 0.662799
O O3 0.697654 0.000000 0.737159
O O4 0.657691 0.767397 0.892588
O O5 0.445363 0.237680 0.891946
O O6 0.357990 0.220999 0.880287
O O7 0.386040 0.000000 0.967435
O O8 0.000020 0.500000 0.876696
O O9 0.055358 0.737797 0.745635
O O10 0.000000 0.730584 0.000000
O O11 0.315916 0.221516 0.746536
O O12 0.293999 0.000000 0.905851
O O13 0.250000 0.250000 0.000000
O O14 0.358207 0.216470 0.499769
O O15 0.385814 0.000000 0.333715
O O16 0.708007 0.000000 0.349691
#
# Coordination Sequence:
#
# PCOD8079056 Si02
#       6
#     8   8   8   8   8   8
#     4  10  17  28  48  70  92 118 151 189 221 264
#     4   9  16  26  43  68  90 111 150 192 220 255
#     4   9  14  24  43  66  90 116 147 187 227 262
#     4  10  19  31  46  65  92 122 151 185 223 266
#     4   9  17  28  43  67  96 121 148 184 229 272
#     4  10  20  31  43  66  99 125 145 181 232 275
#
# _framework density 17.443107999999999
#
# number of rings (size 3 to 8) (size 9 to 14) (size 15 to 20)
#    0.000    2.500    3.333    0.500    0.000    0.000 
#    0.000    0.833    0.000    5.000    0.000    5.833 
#    0.000    2.667    0.000    0.000    0.000    0.000 
#
# Total GULP energy -297511.846804 kJ/mol
# GULP energy per Si atom -12396.326950 kJ/mol
# Density = 1.740341 g / cm^3
# Si number density = 17.443108 Si / 1000 Ang^3
#
#
#
# Elastic Constant Matrix: (Units=GPa)
#
#
# Indices 1 2 3 4 5 6 
#
# 1 148.9426 16.3075 81.9651 0.0000 -8.1233 0.0000
# 2 16.3075 10.9531 18.0275 0.0000 -1.4294 0.0000
# 3 81.9651 18.0275 155.4311 0.0000 -6.0989 0.0000
# 4 0.0000 0.0000 0.0000 14.9103 0.0000 -2.2941
# 5 -8.1233 -1.4294 -6.0989 0.0000 34.3386 0.0000
# 6 0.0000 0.0000 0.0000 -2.2941 0.0000 16.9603
#
#
#
# Elastic Compliance Matrix: (Units=1/GPa)
#
#
# Indices 1 2 3 4 5 6 
#
# 1 0.010006 -0.007574 -0.004348 0.000000 0.001280 0.000000
# 2 -0.007574 0.118767 -0.009725 0.000000 0.001425 0.000000
# 3 -0.004348 -0.009725 0.009867 0.000000 0.000319 0.000000
# 4 0.000000 0.000000 0.000000 0.068493 0.000000 0.009265
# 5 0.001280 0.001425 0.000319 0.000000 0.029540 0.000000
# 6 0.000000 0.000000 0.000000 0.009265 0.000000 0.060214
#
#
# Mechanical properties :
#
#
# Convention : Reuss Voigt Hill
#
# Bulk Modulus (GPa) = 10.48815 60.88079 35.68447
# Shear Modulus (GPa) = 13.44220 26.51027 19.97623
#
# Velocity S-wave (km/s) = 2.77904 3.90271 3.38778
# Velocity P-wave (km/s) = 4.04020 7.43548 5.98371
#
# Compressibility (1/GPa) = 0.09534568
#
# Stress axis : x y z
#
# Youngs Moduli (GPa) = 99.94339 8.41987 101.34879
#
# Poissons Ratio (x) = 0.06377 0.44064
# Poissons Ratio (y) = 0.75698 0.98562
# Poissons Ratio (z) = 0.43453 0.08188
#
# Static dielectric constant tensor:
#      x y z
#    x 3.589890 0.000000 -0.037210 
#    y 0.000000 2.732980 0.000000 
#    z -0.037210 0.000000 3.466630 
# 
# 
# High freq. dielectric constant tensor:
#      x y z
#    x 1.681570 0.000000 0.000110 
#    y 0.000000 1.614460 0.000000 
#    z 0.000110 0.000000 1.678410 
# 
# From -- ./inp_files/164124.got.cif
#   From: 2010.06.25/outbox.cif.g09.slc.cpg/sg12_83_cif.got.tgz:164124.got - 2010.06.28 00:19:55.
