data_PCOD8079123
_publ_section_title
;
Structure prediction by ZEFSAII (Michael W. Deem and Ramdas Pophale) SiO2 
 PCOD8079123
Probable space group: C 2/M
;
_chemical_formula_sum "Si O2"
_cell_formula_units_Z 64
_cell_length_a 27.816546
_cell_length_b 26.184422
_cell_length_c 5.305206
_cell_angle_alpha 90.000000
_cell_angle_beta 79.016127
_cell_angle_gamma 90.000000
_cell_volume 3793.313756
_symmetry_space_group_name_H-M "C 2/M"
_symmetry_group_IT_number 12
_symmetry_cell_setting 'monoclinic'
loop_
_space_group_symop_operation_xyz
x,y,z
-x,y,-z
-x,-y,-z
x,-y,z
1/2+x,1/2+y,z
1/2-x,1/2+y,-z
1/2-x,1/2-y,-z
1/2+x,1/2-y,z
loop_
_atom_site_type_symbol
_atom_site_label
_atom_site_fract_x
_atom_site_fract_y
_atom_site_fract_z
Si Si1 0.684424 0.807398 0.815431
Si Si2 0.554502 0.228325 0.445213
Si Si3 0.654186 0.815118 0.345630
Si Si4 0.206246 0.794835 0.293411
Si Si5 0.445688 0.439911 0.554034
Si Si6 0.829119 0.152884 0.171226
Si Si7 0.612434 0.560065 0.888539
Si Si8 0.906711 0.770241 0.093611
O O1 0.676679 0.841945 0.571989
O O2 0.736339 0.778360 0.763745
O O3 0.641298 0.765833 0.858270
O O4 0.676620 0.841964 0.074291
O O5 0.500000 0.204253 0.500000
O O6 0.595039 0.182933 0.404851
O O7 0.560749 0.262151 0.689946
O O8 0.560727 0.262067 0.187731
O O9 0.671809 0.755048 0.327761
O O10 0.198401 0.829020 0.548980
O O11 0.198465 0.828990 0.053290
O O12 0.500000 0.414842 0.500000
O O13 0.451621 0.500000 0.551108
O O14 0.417178 0.422838 0.833191
O O15 0.417586 0.423353 0.329540
O O16 0.885415 0.172965 0.114807
O O17 0.836059 0.091428 0.164333
O O18 0.625100 0.500000 0.876764
#
# Coordination Sequence:
#
# PCOD8079123 Si02
#       8
#     8   8   8   8   8   8   8   8
#     4  10  18  28  46  64  85 106 130 156 214 259
#     4  10  18  30  43  54  79 112 137 163 198 237
#     4  10  17  29  42  62  84 107 135 165 196 246
#     4  12  19  30  47  65  85 107 127 167 211 257
#     4   9  17  33  54  68  76  93 130 175 220 267
#     4  12  21  32  45  62  86 102 135 168 207 254
#     4  10  21  35  49  62  82 108 130 167 217 258
#     4  10  19  32  41  62  81 102 133 171 203 244
#
# _framework density 16.871790000000001
#
# number of rings (size 3 to 8) (size 9 to 14) (size 15 to 20)
#    0.000    1.625    5.000    3.000    0.000    1.500 
#    0.000    3.750    0.000    0.000    0.000    0.000 
#    0.000    0.000    0.000    0.000    0.000    0.000 
#
# Total GULP energy -396453.339301 kJ/mol
# GULP energy per Si atom -12389.166853 kJ/mol
# Density = 1.683339 g / cm^3
# Si number density = 16.871790 Si / 1000 Ang^3
#
#
#
# Elastic Constant Matrix: (Units=GPa)
#
#
# Indices 1 2 3 4 5 6 
#
# 1 90.5332 5.9534 37.2310 0.0000 -7.3531 0.0000
# 2 5.9534 21.7800 10.6589 0.0000 0.9816 0.0000
# 3 37.2310 10.6589 170.1659 0.0000 21.9751 0.0000
# 4 0.0000 0.0000 0.0000 6.8487 0.0000 -1.0991
# 5 -7.3531 0.9816 21.9751 0.0000 16.7221 0.0000
# 6 0.0000 0.0000 0.0000 -1.0991 0.0000 11.8179
#
#
#
# Elastic Compliance Matrix: (Units=1/GPa)
#
#
# Indices 1 2 3 4 5 6 
#
# 1 0.014040 -0.002179 -0.004515 0.000000 0.012235 0.000000
# 2 -0.002179 0.047729 -0.002442 0.000000 -0.000551 0.000000
# 3 -0.004515 -0.002442 0.008738 0.000000 -0.013325 0.000000
# 4 0.000000 0.000000 0.000000 0.148226 0.000000 0.013786
# 5 0.012235 -0.000551 -0.013325 0.000000 0.082725 0.000000
# 6 0.000000 0.000000 0.000000 0.013786 0.000000 0.085900
#
#
# Mechanical properties :
#
#
# Convention : Reuss Voigt Hill
#
# Bulk Modulus (GPa) = 19.14444 43.35175 31.24810
# Shear Modulus (GPa) = 11.81916 22.32012 17.06964
#
# Velocity S-wave (km/s) = 2.64962 3.64115 3.18422
# Velocity P-wave (km/s) = 4.55327 6.58998 5.66393
#
# Compressibility (1/GPa) = 0.05223450
#
# Stress axis : x y z
#
# Youngs Moduli (GPa) = 71.22706 20.95157 114.43857
#
# Poissons Ratio (x) = 0.04566 0.51672
# Poissons Ratio (y) = 0.15523 0.27942
# Poissons Ratio (z) = 0.32161 0.05116
#
# Static dielectric constant tensor:
#      x y z
#    x 3.246280 0.000000 0.291980 
#    y 0.000000 2.481530 0.000000 
#    z 0.291980 0.000000 4.667210 
# 
# 
# High freq. dielectric constant tensor:
#      x y z
#    x 1.651480 0.000000 0.009400 
#    y 0.000000 1.550660 0.000000 
#    z 0.009400 0.000000 1.696920 
# 
# From -- ./inp_files/29498.got.cif
#   From: 2010.06.25/outbox.cif.g09.slc.cpg/sg12_15_cif.got.tgz:29498.got - 2010.06.28 00:19:55.
