data_PCOD8079471
_publ_section_title
;
Structure prediction by ZEFSAII (Michael W. Deem and Ramdas Pophale) SiO2 
 PCOD8079471
Probable space group: C 2/M
;
_chemical_formula_sum "Si O2"
_cell_formula_units_Z 64
_cell_length_a 17.155843
_cell_length_b 18.064555
_cell_length_c 18.908388
_cell_angle_alpha 90.000000
_cell_angle_beta 148.890702
_cell_angle_gamma 90.000000
_cell_volume 3027.673197
_symmetry_space_group_name_H-M "C 2/M"
_symmetry_group_IT_number 12
_symmetry_cell_setting 'monoclinic'
loop_
_space_group_symop_operation_xyz
x,y,z
-x,y,-z
-x,-y,-z
x,-y,z
1/2+x,1/2+y,z
1/2-x,1/2+y,-z
1/2-x,1/2-y,-z
1/2+x,1/2-y,z
loop_
_atom_site_type_symbol
_atom_site_label
_atom_site_fract_x
_atom_site_fract_y
_atom_site_fract_z
Si Si1 0.337621 0.164713 0.640735
Si Si2 0.352095 0.317884 0.726330
Si Si3 0.625934 0.823322 0.680880
Si Si4 0.547474 0.918128 0.142761
Si Si5 0.705034 0.135325 0.131263
Si Si6 0.634221 0.913431 0.481684
Si Si7 0.007258 0.835365 0.424192
Si Si8 0.114401 0.202693 0.027312
O O1 0.347777 0.252250 0.664711
O O2 0.448275 0.120257 0.778426
O O3 0.389681 0.140799 0.603672
O O4 0.166174 0.138321 0.517421
O O5 0.235773 0.303470 0.700516
O O6 0.292992 0.393141 0.643154
O O7 0.527135 0.324748 0.888349
O O8 0.511698 0.892868 0.582288
O O9 0.518617 0.752103 0.605268
O O10 0.729216 0.839402 0.831167
O O11 0.638105 0.865676 0.158922
O O12 0.618465 0.000000 0.201339
O O13 0.374013 0.926072 0.979768
O O14 0.883189 0.122865 0.278826
O O15 0.659520 0.211685 0.057906
O O16 0.634376 0.000000 0.462726
O O17 0.000000 0.860525 0.500000
O O18 0.000000 0.184666 0.000000
#
# Coordination Sequence:
#
# PCOD8079471 Si02
#       8
#     8   8   8   8   8   8   8   8
#     4  12  22  40  61  91 124 164 209 259 308 367
#     4  11  20  39  68  94 121 156 210 266 311 360
#     4  10  20  37  65  98 121 152 204 265 311 360
#     4  11  20  33  53  81 124 171 206 246 305 372
#     4  10  17  31  53  88 120 158 202 257 299 358
#     4  12  27  43  59  88 131 174 205 248 320 388
#     4  11  18  33  60  92 119 150 205 258 299 344
#     4   9  16  32  61  95 119 143 198 267 315 346
#
# _framework density 21.138344
#
# number of rings (size 3 to 8) (size 9 to 14) (size 15 to 20)
#    0.000    1.250    6.250    2.625    0.000    1.000 
#    0.000    5.625    0.000    2.250    0.000    0.000 
#    0.000    0.000    0.000    0.000    0.000    0.000 
#
# Total GULP energy -396460.671224 kJ/mol
# GULP energy per Si atom -12389.395976 kJ/mol
# Density = 2.109023 g / cm^3
# Si number density = 21.138344 Si / 1000 Ang^3
#
#
#
# Elastic Constant Matrix: (Units=GPa)
#
#
# Indices 1 2 3 4 5 6 
#
# 1 38.5904 17.8026 10.1456 0.0015 -8.3580 0.0008
# 2 17.8026 76.4798 27.6639 -0.0035 -4.3194 -0.0019
# 3 10.1456 27.6639 128.6141 -0.0020 -12.4429 -0.0023
# 4 0.0015 -0.0035 -0.0020 20.2659 -0.0011 1.3268
# 5 -8.3580 -4.3194 -12.4429 -0.0011 24.1827 -0.0004
# 6 0.0008 -0.0019 -0.0023 1.3268 -0.0004 13.9796
#
#
#
# Elastic Compliance Matrix: (Units=1/GPa)
#
#
# Indices 1 2 3 4 5 6 
#
# 1 0.031068 -0.006660 -0.000100 -0.000003 0.009497 -0.000002
# 2 -0.006660 0.015630 -0.002935 0.000003 -0.001020 0.000002
# 3 -0.000100 -0.002935 0.008798 0.000001 0.003968 0.000001
# 4 -0.000003 0.000003 0.000001 0.049653 0.000002 -0.004713
# 5 0.009497 -0.001020 0.003968 0.000002 0.046494 0.000001
# 6 -0.000002 0.000002 0.000001 -0.004713 0.000001 0.071980
#
#
# Mechanical properties :
#
#
# Convention : Reuss Voigt Hill
#
# Bulk Modulus (GPa) = 27.69491 39.43428 33.56459
# Shear Modulus (GPa) = 19.60422 24.22379 21.91400
#
# Velocity S-wave (km/s) = 3.04867 3.38888 3.22327
# Velocity P-wave (km/s) = 5.05200 5.83168 5.45579
#
# Compressibility (1/GPa) = 0.03610772
#
# Stress axis : x y z
#
# Youngs Moduli (GPa) = 32.18701 63.98118 113.65818
#
# Poissons Ratio (x) = 0.42609 0.01132
# Poissons Ratio (y) = 0.21435 0.33361
# Poissons Ratio (z) = 0.00321 0.18780
#
# Static dielectric constant tensor:
#      x y z
#    x 3.481590 0.000000 -0.120840 
#    y 0.000000 3.363360 -0.000010 
#    z -0.120840 -0.000010 4.636720 
# 
# 
# High freq. dielectric constant tensor:
#      x y z
#    x 1.791250 0.000000 -0.013760 
#    y 0.000000 1.783900 0.000000 
#    z -0.013760 0.000000 1.860320 
# 
# From -- ./inp_files/317408.got.cif
#   From: 2010.06.25/outbox.cif.g09.slc.cpg/sg12_159_cif.got.tgz:317408.got - 2010.06.28 00:19:55.
