data_PCOD8079177
_publ_section_title
;
Structure prediction by ZEFSAII (Michael W. Deem and Ramdas Pophale) SiO2 
 PCOD8079177
Probable space group: C 2/M
;
_chemical_formula_sum "Si O2"
_cell_formula_units_Z 40
_cell_length_a 25.930523
_cell_length_b 12.503236
_cell_length_c 10.934792
_cell_angle_alpha 90.000000
_cell_angle_beta 38.448938
_cell_angle_gamma 90.000000
_cell_volume 2204.483095
_symmetry_space_group_name_H-M "C 2/M"
_symmetry_group_IT_number 12
_symmetry_cell_setting 'monoclinic'
loop_
_space_group_symop_operation_xyz
x,y,z
-x,y,-z
-x,-y,-z
x,-y,z
1/2+x,1/2+y,z
1/2-x,1/2+y,-z
1/2-x,1/2-y,-z
1/2+x,1/2-y,z
loop_
_atom_site_type_symbol
_atom_site_label
_atom_site_fract_x
_atom_site_fract_y
_atom_site_fract_z
Si Si1 0.685754 0.000000 0.889719
Si Si2 0.320724 0.381852 0.294067
Si Si3 0.228464 0.802227 0.355061
Si Si4 0.983689 0.500000 0.672388
Si Si5 0.000000 0.187719 0.000000
Si Si6 0.901952 0.500000 0.205917
Si Si7 0.428113 0.176266 0.334712
O O1 0.741412 0.107781 0.798085
O O2 0.641668 0.000000 0.841333
O O3 0.615368 0.000000 0.124240
O O4 0.293537 0.500000 0.300385
O O5 0.294690 0.294926 0.240246
O O6 0.276532 0.358649 0.504452
O O7 0.419185 0.384070 0.133380
O O8 0.139272 0.755124 0.477577
O O9 0.000000 0.500000 0.500000
O O10 0.024570 0.606224 0.653043
O O11 0.004452 0.259057 0.868768
O O12 0.876675 0.603930 0.332458
O O13 0.000000 0.500000 0.000000
#
# Coordination Sequence:
#
# PCOD8079177 Si02
#       7
#     4   8   8   4   4   4   8
#     4  12  19  37  54  80 108 142 179 211 263 325
#     4  10  18  28  42  74 114 145 174 196 243 309
#     4  10  21  29  49  74 109 145 170 209 261 309
#     4  11  23  38  60  78  95 131 188 234 262 309
#     4  10  17  29  48  74 110 147 164 203 250 318
#     4  11  16  26  52  78 105 145 168 211 244 303
#     4  10  19  33  50  78 107 135 175 211 264 309
#
# _framework density 18.144843999999999
#
# number of rings (size 3 to 8) (size 9 to 14) (size 15 to 20)
#    0.000    1.600    4.000    5.100    2.800    0.000 
#    0.000    1.000    0.000    0.000    0.000    0.700 
#    0.000    0.000    0.000    0.000    0.000    0.000 
#
# Total GULP energy -247967.368567 kJ/mol
# GULP energy per Si atom -12398.368428 kJ/mol
# Density = 1.810355 g / cm^3
# Si number density = 18.144844 Si / 1000 Ang^3
#
#
#
# Elastic Constant Matrix: (Units=GPa)
#
#
# Indices 1 2 3 4 5 6 
#
# 1 36.6179 22.2262 31.6598 0.0000 4.4784 0.0000
# 2 22.2262 133.6134 53.9585 0.0000 -5.0245 0.0000
# 3 31.6598 53.9585 111.2393 0.0000 -6.5226 0.0000
# 4 0.0000 0.0000 0.0000 17.3415 0.0000 -7.2350
# 5 4.4784 -5.0245 -6.5226 0.0000 22.9006 0.0000
# 6 0.0000 0.0000 0.0000 -7.2350 0.0000 12.5464
#
#
#
# Elastic Compliance Matrix: (Units=1/GPa)
#
#
# Indices 1 2 3 4 5 6 
#
# 1 0.039501 -0.002722 -0.010587 0.000000 -0.011337 0.000000
# 2 -0.002722 0.009508 -0.003747 0.000000 0.001551 0.000000
# 3 -0.010587 -0.003747 0.014129 0.000000 0.005273 0.000000
# 4 0.000000 0.000000 0.000000 0.075934 0.000000 0.043788
# 5 -0.011337 0.001551 0.005273 0.000000 0.047726 0.000000
# 6 0.000000 0.000000 0.000000 0.043788 0.000000 0.104955
#
#
# Mechanical properties :
#
#
# Convention : Reuss Voigt Hill
#
# Bulk Modulus (GPa) = 34.44929 55.23993 44.84461
# Shear Modulus (GPa) = 14.90133 22.13277 18.51705
#
# Velocity S-wave (km/s) = 2.86884 3.49633 3.19801
# Velocity P-wave (km/s) = 5.47728 6.84171 6.19716
#
# Compressibility (1/GPa) = 0.02902817
#
# Stress axis : x y z
#
# Youngs Moduli (GPa) = 25.31574 105.17009 70.77494
#
# Poissons Ratio (x) = 0.28625 0.74929
# Poissons Ratio (y) = 0.06890 0.26517
# Poissons Ratio (z) = 0.26802 0.39403
#
# Static dielectric constant tensor:
#      x y z
#    x 2.795280 0.000000 -0.344740 
#    y 0.000000 3.601950 0.000000 
#    z -0.344740 0.000000 3.526210 
# 
# 
# High freq. dielectric constant tensor:
#      x y z
#    x 1.630740 0.000000 -0.041280 
#    y 0.000000 1.719260 0.000000 
#    z -0.041280 0.000000 1.707200 
# 
# From -- ./inp_files/174368.got.cif
#   From: 2010.06.25/outbox.cif.g09.slc.cpg/sg12_88_cif.got.tgz:174368.got - 2010.06.28 00:19:55.
