data_PCOD8079656
_publ_section_title
;
Structure prediction by ZEFSAII (Michael W. Deem and Ramdas Pophale) SiO2 
 PCOD8079656
Probable space group: C 2/M
;
_chemical_formula_sum "Si O2"
_cell_formula_units_Z 56
_cell_length_a 23.881716
_cell_length_b 16.876913
_cell_length_c 12.641534
_cell_angle_alpha 90.000000
_cell_angle_beta 38.250830
_cell_angle_gamma 90.000000
_cell_volume 3154.444262
_symmetry_space_group_name_H-M "C 2/M"
_symmetry_group_IT_number 12
_symmetry_cell_setting 'monoclinic'
loop_
_space_group_symop_operation_xyz
x,y,z
-x,y,-z
-x,-y,-z
x,-y,z
1/2+x,1/2+y,z
1/2-x,1/2+y,-z
1/2-x,1/2-y,-z
1/2+x,1/2-y,z
loop_
_atom_site_type_symbol
_atom_site_label
_atom_site_fract_x
_atom_site_fract_y
_atom_site_fract_z
Si Si1 0.121231 0.302637 0.461077
Si Si2 0.005894 0.194181 0.243642
Si Si3 0.707149 0.282205 0.669103
Si Si4 0.067682 0.085764 0.804564
Si Si5 0.432974 0.820786 0.009628
Si Si6 0.452727 0.092311 0.775125
Si Si7 0.148045 0.271932 0.176901
O O1 0.219197 0.323733 0.363191
O O2 0.127737 0.277968 0.329980
O O3 0.087805 0.222742 0.566713
O O4 0.050035 0.373461 0.591785
O O5 0.086123 0.204512 0.211117
O O6 0.987269 0.107511 0.222895
O O7 0.025391 0.245896 0.111203
O O8 0.750000 0.250000 0.500000
O O9 0.639508 0.349622 0.732668
O O10 0.661836 0.208289 0.799411
O O11 0.113754 0.000000 0.714965
O O12 0.000000 0.076454 0.000000
O O13 0.500000 0.850480 0.000000
O O14 0.429540 0.894613 0.933451
O O15 0.373647 0.140253 0.833432
O O16 0.448303 0.000000 0.752918
O O17 0.250000 0.250000 0.000000
#
# Coordination Sequence:
#
# PCOD8079656 Si02
#       7
#     8   8   8   8   8   8   8
#     4  10  20  33  60  86 107 147 190 232 277 341
#     4  10  17  36  56  79 112 142 191 232 277 332
#     4  12  19  34  59  85 115 149 189 236 275 342
#     4  11  22  36  56  84 117 151 188 236 289 331
#     4  10  17  33  56  80 106 151 192 221 273 335
#     4  10  22  38  55  82 119 148 181 237 291 332
#     4  10  21  36  60  85 105 148 199 232 274 346
#
# _framework density 17.752731000000001
#
# number of rings (size 3 to 8) (size 9 to 14) (size 15 to 20)
#    0.000    1.857    4.286    4.286    0.000    2.000 
#    0.000    1.429    0.000    1.714    0.000    0.000 
#    0.000    0.000    0.000    0.000    0.000    0.000 
#
# Total GULP energy -346893.644518 kJ/mol
# GULP energy per Si atom -12389.058733 kJ/mol
# Density = 1.771232 g / cm^3
# Si number density = 17.752731 Si / 1000 Ang^3
#
#
#
# Elastic Constant Matrix: (Units=GPa)
#
#
# Indices 1 2 3 4 5 6 
#
# 1 125.9841 41.0270 44.7549 0.0000 0.7356 0.0000
# 2 41.0270 93.4207 37.9947 0.0000 -3.9497 0.0000
# 3 44.7549 37.9947 114.3864 0.0000 8.6454 0.0000
# 4 0.0000 0.0000 0.0000 16.9532 0.0000 5.3459
# 5 0.7356 -3.9497 8.6454 0.0000 38.8983 0.0000
# 6 0.0000 0.0000 0.0000 5.3459 0.0000 -4.8977
#
#
#
# Elastic Compliance Matrix: (Units=1/GPa)
#
#
# Indices 1 2 3 4 5 6 
#
# 1 0.010000 -0.003228 -0.002849 0.000000 0.000116 0.000000
# 2 -0.003228 0.013607 -0.003423 0.000000 0.002204 0.000000
# 3 -0.002849 -0.003423 0.011205 0.000000 -0.002784 0.000000
# 4 0.000000 0.000000 0.000000 0.043882 0.000000 0.047898
# 5 0.000116 0.002204 -0.002784 0.000000 0.026548 0.000000
# 6 0.000000 0.000000 0.000000 0.047898 0.000000 -0.151895
#
#
# Mechanical properties :
#
#
# Convention : Reuss Voigt Hill
#
# Bulk Modulus (GPa) = 63.24755 64.59383 63.92069
# Shear Modulus (GPa) = -223.40851 24.19172 -99.60840
#
# Velocity S-wave (km/s) = -11.23022 3.69549 -7.49871
# Velocity P-wave (km/s) = 11.50881 7.39413 6.23617
#
# Compressibility (1/GPa) = 0.01581089
#
# Stress axis : x y z
#
# Youngs Moduli (GPa) = 99.99784 73.48961 89.24861
#
# Poissons Ratio (x) = 0.23722 0.25429
# Poissons Ratio (y) = 0.32279 0.30553
# Poissons Ratio (z) = 0.28492 0.25158
#
# Static dielectric constant tensor:
#      x y z
#    x 3.500450 0.000000 0.377940 
#    y 0.000000 4.455820 0.000000 
#    z 0.377940 0.000000 2.608950 
# 
# 
# High freq. dielectric constant tensor:
#      x y z
#    x 1.699280 0.000000 0.010020 
#    y 0.000000 1.651590 0.000000 
#    z 0.010020 0.000000 1.698660 
# 
# From -- ./inp_files/177063.got.cif
#   From: 2010.06.25/outbox.cif.g09.slc.cpg/sg12_89_cif.got.tgz:177063.got - 2010.06.28 00:19:55.
