data_PCOD8079507
_publ_section_title
;
Structure prediction by ZEFSAII (Michael W. Deem and Ramdas Pophale) SiO2 
 PCOD8079507
Probable space group: C 2/M
;
_chemical_formula_sum "Si O2"
_cell_formula_units_Z 32
_cell_length_a 21.918137
_cell_length_b 7.829645
_cell_length_c 21.209568
_cell_angle_alpha 90.000000
_cell_angle_beta 28.367597
_cell_angle_gamma 90.000000
_cell_volume 1729.366050
_symmetry_space_group_name_H-M "C 2/M"
_symmetry_group_IT_number 12
_symmetry_cell_setting 'monoclinic'
loop_
_space_group_symop_operation_xyz
x,y,z
-x,y,-z
-x,-y,-z
x,-y,z
1/2+x,1/2+y,z
1/2-x,1/2+y,-z
1/2-x,1/2-y,-z
1/2+x,1/2-y,z
loop_
_atom_site_type_symbol
_atom_site_label
_atom_site_fract_x
_atom_site_fract_y
_atom_site_fract_z
Si Si1 0.906937 0.692589 0.141672
Si Si2 0.017978 0.500000 0.381549
Si Si3 0.586432 0.305937 0.082671
Si Si4 0.288958 0.000000 0.678651
Si Si5 0.870802 0.688991 0.825966
O O1 0.852559 0.500000 0.182047
O O2 0.985063 0.694977 0.136057
O O3 0.791969 0.827029 0.247723
O O4 0.000000 0.744539 0.000000
O O5 0.121297 0.500000 0.342578
O O6 0.041751 0.670361 0.316669
O O7 0.873789 0.500000 0.537905
O O8 0.570657 0.500000 0.073724
O O9 0.557562 0.294787 0.184295
O O10 0.730160 0.233468 0.937848
O O11 0.842877 0.500000 0.879710
#
# Coordination Sequence:
#
# PCOD8079507 Si02
#       5
#     8   4   8   4   8
#     4  11  23  36  58  89 116 147 188 240 292 338
#     4   9  20  38  60  80 111 160 191 234 284 339
#     4  10  17  31  57  86 116 147 184 239 287 333
#     4  11  21  40  62  82 115 155 195 231 286 346
#     4   8  17  32  53  81 112 147 186 227 283 330
#
# _framework density 18.503889999999998
#
# number of rings (size 3 to 8) (size 9 to 14) (size 15 to 20)
#    0.750    1.500    1.250    2.625    0.000    1.000 
#    0.000    6.250    0.000    0.000    0.000    0.000 
#    0.000    0.000    0.000    0.000    0.000    0.000 
#
# Total GULP energy -198277.397681 kJ/mol
# GULP energy per Si atom -12392.337355 kJ/mol
# Density = 1.846177 g / cm^3
# Si number density = 18.503890 Si / 1000 Ang^3
#
#
#
# Elastic Constant Matrix: (Units=GPa)
#
#
# Indices 1 2 3 4 5 6 
#
# 1 89.2072 28.4710 52.4032 0.0014 5.7751 -0.0024
# 2 28.4710 80.3488 51.0054 -0.0101 -4.2730 0.0243
# 3 52.4032 51.0054 136.6853 0.0000 16.8878 0.0017
# 4 0.0014 -0.0101 0.0000 16.9377 0.0000 11.8004
# 5 5.7751 -4.2730 16.8878 0.0000 29.1846 -0.0014
# 6 -0.0024 0.0243 0.0017 11.8004 -0.0014 14.9625
#
#
#
# Elastic Compliance Matrix: (Units=1/GPa)
#
#
# Indices 1 2 3 4 5 6 
#
# 1 0.014751 -0.002229 -0.004763 -0.000016 -0.000489 0.000019
# 2 -0.002229 0.017823 -0.006648 0.000067 0.006898 -0.000081
# 3 -0.004763 -0.006648 0.012522 -0.000020 -0.007277 0.000024
# 4 -0.000016 0.000067 -0.000020 0.131042 0.000020 -0.103348
# 5 -0.000489 0.006898 -0.007277 0.000020 0.039582 -0.000022
# 6 0.000019 -0.000081 0.000024 -0.103348 -0.000022 0.148341
#
#
# Mechanical properties :
#
#
# Convention : Reuss Voigt Hill
#
# Bulk Modulus (GPa) = 56.13355 63.33339 59.73347
# Shear Modulus (GPa) = 12.58556 23.84107 18.21332
#
# Velocity S-wave (km/s) = 2.61081 3.59337 3.14075
# Velocity P-wave (km/s) = 6.28414 7.17759 6.74567
#
# Compressibility (1/GPa) = 0.01781466
#
# Stress axis : x y z
#
# Youngs Moduli (GPa) = 67.79225 56.10759 79.85904
#
# Poissons Ratio (x) = 0.12509 0.38036
# Poissons Ratio (y) = 0.15114 0.53093
# Poissons Ratio (z) = 0.32289 0.37302
#
# Static dielectric constant tensor:
#      x y z
#    x 3.407840 0.000000 0.102700 
#    y 0.000000 3.231390 0.000010 
#    z 0.102700 0.000010 3.206270 
# 
# 
# High freq. dielectric constant tensor:
#      x y z
#    x 1.728970 0.000000 0.007420 
#    y 0.000000 1.706220 0.000000 
#    z 0.007420 0.000000 1.683560 
# 
# From -- ./inp_files/318942.got.cif
#   From: 2010.06.25/outbox.cif.g09.slc.cpg/sg12_160_cif.got.tgz:318942.got - 2010.06.28 00:19:55.
