data_PCOD8079229
_publ_section_title
;
Structure prediction by ZEFSAII (Michael W. Deem and Ramdas Pophale) SiO2 
 PCOD8079229
Probable space group: C 2/M
;
_chemical_formula_sum "Si O2"
_cell_formula_units_Z 52
_cell_length_a 10.524685
_cell_length_b 26.411178
_cell_length_c 17.306688
_cell_angle_alpha 90.000000
_cell_angle_beta 34.285371
_cell_angle_gamma 90.000000
_cell_volume 2709.956014
_symmetry_space_group_name_H-M "C 2/M"
_symmetry_group_IT_number 12
_symmetry_cell_setting 'monoclinic'
loop_
_space_group_symop_operation_xyz
x,y,z
-x,y,-z
-x,-y,-z
x,-y,z
1/2+x,1/2+y,z
1/2-x,1/2+y,-z
1/2-x,1/2-y,-z
1/2+x,1/2-y,z
loop_
_atom_site_type_symbol
_atom_site_label
_atom_site_fract_x
_atom_site_fract_y
_atom_site_fract_z
Si Si1 0.392987 0.945413 0.471218
Si Si2 0.615385 0.441994 0.290555
Si Si3 0.500000 0.387630 0.500000
Si Si4 0.436058 0.843562 0.653020
Si Si5 0.127436 0.688670 0.700371
Si Si6 0.815586 0.341831 0.154159
Si Si7 0.330777 0.304418 0.346308
O O1 0.500000 0.946828 0.500000
O O2 0.518669 0.903438 0.357243
O O3 0.131984 0.933800 0.620137
O O4 0.417159 0.000000 0.416552
O O5 0.701836 0.500000 0.238993
O O6 0.599126 0.425424 0.387321
O O7 0.784851 0.402852 0.163492
O O8 0.694526 0.349325 0.430636
O O9 0.409985 0.819115 0.752342
O O10 0.649082 0.819012 0.501751
O O11 0.213797 0.834665 0.712044
O O12 0.091970 0.673771 0.807575
O O13 0.206895 0.746003 0.655523
O O14 0.580097 0.314413 0.253769
O O15 0.000000 0.323934 0.000000
#
# Coordination Sequence:
#
# PCOD8079229 Si02
#       7
#     8   8   4   8   8   8   8
#     4  10  17  29  50  79 112 140 163 202 269 337
#     4  10  19  33  54  80 108 139 173 217 275 332
#     4  10  17  32  52  86 116 132 163 220 284 344
#     4  11  18  34  56  86 114 133 174 223 283 345
#     4  11  21  34  55  82 111 145 180 225 278 324
#     4  11  24  41  54  74 109 151 198 233 259 311
#     4  11  21  35  56  82 110 147 176 221 281 335
#
# _framework density 19.188503000000001
#
# number of rings (size 3 to 8) (size 9 to 14) (size 15 to 20)
#    0.000    1.385    4.615    3.462    0.000    0.923 
#    0.000    0.769    0.000    0.000    0.000    0.000 
#    0.000    8.923    0.000    0.000    0.000    0.000 
#
# Total GULP energy -322147.578104 kJ/mol
# GULP energy per Si atom -12390.291466 kJ/mol
# Density = 1.914483 g / cm^3
# Si number density = 19.188503 Si / 1000 Ang^3
#
#
#
# Elastic Constant Matrix: (Units=GPa)
#
#
# Indices 1 2 3 4 5 6 
#
# 1 126.2837 33.1149 34.0803 0.0029 18.6957 -0.0048
# 2 33.1149 109.3892 4.6646 0.0036 4.8922 -0.0107
# 3 34.0803 4.6646 38.0414 0.0138 4.5434 -0.0225
# 4 0.0029 0.0036 0.0138 6.8216 -0.0061 2.7496
# 5 18.6957 4.8922 4.5434 -0.0061 15.5076 0.0098
# 6 -0.0048 -0.0107 -0.0225 2.7496 0.0098 19.4940
#
#
#
# Elastic Compliance Matrix: (Units=1/GPa)
#
#
# Indices 1 2 3 4 5 6 
#
# 1 0.013195 -0.003030 -0.010014 0.000007 -0.012018 -0.000005
# 2 -0.003030 0.009993 0.001481 -0.000010 0.000066 0.000008
# 3 -0.010014 0.001481 0.034912 -0.000086 0.001377 0.000050
# 4 0.000007 -0.000010 -0.000086 0.155431 0.000094 -0.021923
# 5 -0.012018 0.000066 0.001377 0.000094 0.078549 -0.000054
# 6 -0.000005 0.000008 0.000050 -0.021923 -0.000054 0.054390
#
#
# Mechanical properties :
#
#
# Convention : Reuss Voigt Hill
#
# Bulk Modulus (GPa) = 28.59228 46.38155 37.48691
# Shear Modulus (GPa) = 13.11462 21.82160 17.46811
#
# Velocity S-wave (km/s) = 2.61715 3.37593 3.02046
# Velocity P-wave (km/s) = 4.90568 6.27853 5.63407
#
# Compressibility (1/GPa) = 0.03497448
#
# Stress axis : x y z
#
# Youngs Moduli (GPa) = 75.78687 100.07223 28.64306
#
# Poissons Ratio (x) = 0.30321 0.28683
# Poissons Ratio (y) = 0.22963 -0.04243
# Poissons Ratio (z) = 0.75894 -0.14823
#
# Static dielectric constant tensor:
#      x y z
#    x 3.803060 0.000000 -0.020490 
#    y 0.000000 4.390200 0.000000 
#    z -0.020490 0.000000 2.878880 
# 
# 
# High freq. dielectric constant tensor:
#      x y z
#    x 1.770920 0.000000 0.003200 
#    y 0.000000 1.769760 0.000000 
#    z 0.003200 0.000000 1.668320 
# 
# From -- ./inp_files/265938.got.cif
#   From: 2010.06.25/outbox.cif.g09.slc.cpg/sg12_133_cif.got.tgz:265938.got - 2010.06.28 00:19:55.
