data_PCOD8079719
_publ_section_title
;
Structure prediction by ZEFSAII (Michael W. Deem and Ramdas Pophale) SiO2 
 PCOD8079719
Probable space group: C 2/M
;
_chemical_formula_sum "Si O2"
_cell_formula_units_Z 56
_cell_length_a 17.165195
_cell_length_b 30.253443
_cell_length_c 8.106437
_cell_angle_alpha 90.000000
_cell_angle_beta 140.684516
_cell_angle_gamma 90.000000
_cell_volume 2667.238545
_symmetry_space_group_name_H-M "C 2/M"
_symmetry_group_IT_number 12
_symmetry_cell_setting 'monoclinic'
loop_
_space_group_symop_operation_xyz
x,y,z
-x,y,-z
-x,-y,-z
x,-y,z
1/2+x,1/2+y,z
1/2-x,1/2+y,-z
1/2-x,1/2-y,-z
1/2+x,1/2-y,z
loop_
_atom_site_type_symbol
_atom_site_label
_atom_site_fract_x
_atom_site_fract_y
_atom_site_fract_z
Si Si1 0.348201 0.451010 0.459614
Si Si2 0.000000 0.888505 0.500000
Si Si3 0.917446 0.277799 0.636714
Si Si4 0.000000 0.924796 0.000000
Si Si5 0.344402 0.259006 0.866344
Si Si6 0.377428 0.049719 0.697780
Si Si7 0.901349 0.373319 0.478280
Si Si8 0.135616 0.856375 0.025534
O O1 0.328007 0.500000 0.353032
O O2 0.386811 0.419190 0.373407
O O3 0.225553 0.432501 0.344190
O O4 0.454405 0.454142 0.773115
O O5 0.041630 0.857534 0.718473
O O6 0.804661 0.256497 0.338658
O O7 0.874434 0.268733 0.752619
O O8 0.932294 0.330232 0.638184
O O9 0.056388 0.258263 0.831870
O O10 0.888802 0.893983 0.879463
O O11 0.376022 0.310507 0.895287
O O12 0.394423 0.082597 0.574468
O O13 0.342034 0.000000 0.576044
O O14 0.500000 0.047237 0.000000
O O15 0.000000 0.381512 0.500000
O O16 0.771482 0.364414 0.176575
#
# Coordination Sequence:
#
# PCOD8079719 Si02
#       8
#     8   4   8   4   8   8   8   8
#     4  10  20  37  60  89 123 158 205 256 309 372
#     4  10  23  38  58  96 126 162 196 254 329 360
#     4   9  19  37  61  92 117 158 204 256 310 371
#     4  10  17  34  62  88 116 156 210 248 311 364
#     4   9  18  37  61  87 118 153 207 250 309 371
#     4  10  23  42  64  91 121 165 217 257 303 369
#     4  11  24  42  63  90 129 164 208 260 311 370
#     4  10  21  40  61  92 123 162 204 255 312 376
#
# _framework density 20.995498000000001
#
# number of rings (size 3 to 8) (size 9 to 14) (size 15 to 20)
#    0.000    2.143    1.429    1.286    4.000    0.286 
#    3.857    2.143    0.000    0.000    0.000    0.000 
#    0.000    0.000    0.000    0.000    0.000    0.000 
#
# Total GULP energy -346913.850131 kJ/mol
# GULP energy per Si atom -12389.780362 kJ/mol
# Density = 2.094771 g / cm^3
# Si number density = 20.995498 Si / 1000 Ang^3
#
#
#
# Elastic Constant Matrix: (Units=GPa)
#
#
# Indices 1 2 3 4 5 6 
#
# 1 120.0890 51.1889 24.0617 0.0000 15.9765 0.0000
# 2 51.1889 104.3660 29.5758 0.0000 5.0419 0.0000
# 3 24.0617 29.5758 98.2516 0.0000 25.2472 0.0000
# 4 0.0000 0.0000 0.0000 18.2893 0.0000 5.4919
# 5 15.9765 5.0419 25.2472 0.0000 34.6899 0.0000
# 6 0.0000 0.0000 0.0000 5.4919 0.0000 23.0666
#
#
#
# Elastic Compliance Matrix: (Units=1/GPa)
#
#
# Indices 1 2 3 4 5 6 
#
# 1 0.011150 -0.005249 -0.000033 0.000000 -0.004348 0.000000
# 2 -0.005249 0.012972 -0.003390 0.000000 0.002999 0.000000
# 3 -0.000033 -0.003390 0.013624 0.000000 -0.009407 0.000000
# 4 0.000000 0.000000 0.000000 0.058887 0.000000 -0.014020
# 5 -0.004348 0.002999 -0.009407 0.000000 0.037240 0.000000
# 6 0.000000 0.000000 0.000000 -0.014020 0.000000 0.046691
#
#
# Mechanical properties :
#
#
# Convention : Reuss Voigt Hill
#
# Bulk Modulus (GPa) = 49.01761 59.15105 54.08433
# Shear Modulus (GPa) = 24.42494 29.73451 27.07972
#
# Velocity S-wave (km/s) = 3.41448 3.76737 3.59526
# Velocity P-wave (km/s) = 6.24038 6.86720 6.56128
#
# Compressibility (1/GPa) = 0.02040083
#
# Stress axis : x y z
#
# Youngs Moduli (GPa) = 89.68779 77.08855 73.40025
#
# Poissons Ratio (x) = 0.40466 0.00243
# Poissons Ratio (y) = 0.47079 0.24883
# Poissons Ratio (z) = 0.00297 0.26134
#
# Static dielectric constant tensor:
#      x y z
#    x 3.605790 0.000000 0.448730 
#    y 0.000000 3.870480 0.000000 
#    z 0.448730 0.000000 4.168670 
# 
# 
# High freq. dielectric constant tensor:
#      x y z
#    x 1.802780 0.000000 0.026870 
#    y 0.000000 1.822370 0.000000 
#    z 0.026870 0.000000 1.826370 
# 
# From -- ./inp_files/80523.got.cif
#   From: 2010.06.25/outbox.cif.g09.slc.cpg/sg12_41_cif.got.tgz:80523.got - 2010.06.28 00:19:55.
