data_PCOD8079095
_publ_section_title
;
Structure prediction by ZEFSAII (Michael W. Deem and Ramdas Pophale) SiO2 
 PCOD8079095
Probable space group: C 2/M
;
_chemical_formula_sum "Si O2"
_cell_formula_units_Z 64
_cell_length_a 24.362143
_cell_length_b 8.992257
_cell_length_c 16.983413
_cell_angle_alpha 90.000000
_cell_angle_beta 94.377079
_cell_angle_gamma 90.000000
_cell_volume 3709.715799
_symmetry_space_group_name_H-M "C 2/M"
_symmetry_group_IT_number 12
_symmetry_cell_setting 'monoclinic'
loop_
_space_group_symop_operation_xyz
x,y,z
-x,y,-z
-x,-y,-z
x,-y,z
1/2+x,1/2+y,z
1/2-x,1/2+y,-z
1/2-x,1/2-y,-z
1/2+x,1/2-y,z
loop_
_atom_site_type_symbol
_atom_site_label
_atom_site_fract_x
_atom_site_fract_y
_atom_site_fract_z
Si Si1 0.450236 0.327796 0.177354
Si Si2 0.137003 0.169236 0.960383
Si Si3 0.657748 0.825041 0.122824
Si Si4 0.136141 0.675779 0.720487
Si Si5 0.956221 0.323584 0.602771
Si Si6 0.060865 0.323665 0.225257
Si Si7 0.219942 0.824048 0.834489
Si Si8 0.074667 0.324353 0.565568
O O1 0.452507 0.500000 0.203363
O O2 0.421578 0.312666 0.089053
O O3 0.415813 0.236479 0.237289
O O4 0.510727 0.259031 0.176807
O O5 0.185747 0.224159 0.907886
O O6 0.147853 0.000000 0.986510
O O7 0.135815 0.267299 0.037683
O O8 0.616583 0.775736 0.187380
O O9 0.718292 0.762249 0.149714
O O10 0.661492 0.000000 0.115984
O O11 0.139359 0.500000 0.733069
O O12 0.193099 0.749263 0.754427
O O13 0.125907 0.719713 0.627327
O O14 0.956522 0.500000 0.605757
O O15 0.933399 0.265608 0.683968
O O16 0.918394 0.268025 0.524426
O O17 0.017882 0.260990 0.596309
O O18 0.050724 0.500000 0.219123
O O19 0.216933 0.000000 0.821724
O O20 0.068299 0.500000 0.563212
#
# Coordination Sequence:
#
# PCOD8079095 Si02
#       8
#     8   8   8   8   8   8   8   8
#     4  10  20  33  48  70 100 131 155 187 241 292
#     4   9  19  34  51  68  90 122 160 198 240 288
#     4  10  21  34  50  71  94 123 162 203 241 276
#     4  10  17  28  50  77  97 120 159 202 236 274
#     4   8  13  24  43  69  99 124 150 189 232 274
#     4  10  19  32  50  71  96 128 163 197 229 278
#     4   9  19  35  50  69  97 126 156 196 245 289
#     4   8  13  22  43  73  98 120 150 192 234 271
#
# _framework density 17.251995000000001
#
# number of rings (size 3 to 8) (size 9 to 14) (size 15 to 20)
#    0.000    2.750    1.250    2.625    0.000    4.000 
#    0.000    2.500    0.000    3.000    0.000    0.000 
#    0.000    0.000    0.000    0.000    0.000    0.125 
#
# Total GULP energy -396620.803922 kJ/mol
# GULP energy per Si atom -12394.400123 kJ/mol
# Density = 1.721273 g / cm^3
# Si number density = 17.251995 Si / 1000 Ang^3
#
#
#
# Elastic Constant Matrix: (Units=GPa)
#
#
# Indices 1 2 3 4 5 6 
#
# 1 89.8293 25.8791 75.8231 0.0000 -2.5620 0.0000
# 2 25.8791 30.0173 28.8709 0.0000 4.5502 0.0000
# 3 75.8231 28.8709 145.8673 0.0000 10.9298 0.0000
# 4 0.0000 0.0000 0.0000 14.4937 0.0000 6.6620
# 5 -2.5620 4.5502 10.9298 0.0000 18.7977 0.0000
# 6 0.0000 0.0000 0.0000 6.6620 0.0000 21.5268
#
#
#
# Elastic Compliance Matrix: (Units=1/GPa)
#
#
# Indices 1 2 3 4 5 6 
#
# 1 0.024590 -0.012268 -0.011321 0.000000 0.012904 0.000000
# 2 -0.012268 0.047811 -0.002189 0.000000 -0.011972 0.000000
# 3 -0.011321 -0.002189 0.013853 0.000000 -0.009068 0.000000
# 4 0.000000 0.000000 0.000000 0.080438 0.000000 -0.024894
# 5 0.012904 -0.011972 -0.009068 0.000000 0.063127 0.000000
# 6 0.000000 0.000000 0.000000 -0.024894 0.000000 0.054158
#
#
# Mechanical properties :
#
#
# Convention : Reuss Voigt Hill
#
# Bulk Modulus (GPa) = 28.81950 58.54000 43.67975
# Shear Modulus (GPa) = 14.40514 19.97303 17.18908
#
# Velocity S-wave (km/s) = 2.89274 3.40622 3.15993
# Velocity P-wave (km/s) = 5.28191 7.03390 6.21990
#
# Compressibility (1/GPa) = 0.03469872
#
# Stress axis : x y z
#
# Youngs Moduli (GPa) = 40.66641 20.91573 72.18620
#
# Poissons Ratio (x) = 0.25659 0.81722
# Poissons Ratio (y) = 0.49888 0.15802
# Poissons Ratio (z) = 0.46039 0.04579
#
# Static dielectric constant tensor:
#      x y z
#    x 3.193850 0.000000 0.155990 
#    y 0.000000 2.972560 0.000000 
#    z 0.155990 0.000000 3.531960 
# 
# 
# High freq. dielectric constant tensor:
#      x y z
#    x 1.642030 0.000000 0.016610 
#    y 0.000000 1.642280 0.000000 
#    z 0.016610 0.000000 1.673690 
# 
# From -- ./inp_files/287770.got.cif
#   From: 2010.06.25/outbox.cif.g09.slc.cpg/sg12_144_cif.got.tgz:287770.got - 2010.06.28 00:19:55.
