data_PCOD8079772
_publ_section_title
;
Structure prediction by ZEFSAII (Michael W. Deem and Ramdas Pophale) SiO2 
 PCOD8079772
Probable space group: C 2/M
;
_chemical_formula_sum "Si O2"
_cell_formula_units_Z 32
_cell_length_a 11.466275
_cell_length_b 18.497092
_cell_length_c 14.306740
_cell_angle_alpha 90.000000
_cell_angle_beta 29.320109
_cell_angle_gamma 90.000000
_cell_volume 1485.889080
_symmetry_space_group_name_H-M "C 2/M"
_symmetry_group_IT_number 12
_symmetry_cell_setting 'monoclinic'
loop_
_space_group_symop_operation_xyz
x,y,z
-x,y,-z
-x,-y,-z
x,-y,z
1/2+x,1/2+y,z
1/2-x,1/2+y,-z
1/2-x,1/2-y,-z
1/2+x,1/2-y,z
loop_
_atom_site_type_symbol
_atom_site_label
_atom_site_fract_x
_atom_site_fract_y
_atom_site_fract_z
Si Si1 0.769646 0.500000 0.772417
Si Si2 0.342384 0.500000 0.702756
Si Si3 0.270722 0.147371 0.280295
Si Si4 0.317825 0.881133 0.873714
Si Si5 0.500000 0.266040 0.000000
Si Si6 0.531795 0.500000 0.179732
O O1 0.888942 0.427411 0.730786
O O2 0.735383 0.500000 0.682832
O O3 0.500000 0.500000 0.000000
O O4 0.500000 0.500000 0.500000
O O5 0.182719 0.572591 0.809925
O O6 0.503616 0.500000 0.684005
O O7 0.438360 0.148704 0.253983
O O8 0.318155 0.216203 0.183330
O O9 0.000000 0.152936 0.500000
O O10 0.151415 0.814078 0.965156
O O11 0.178323 0.929144 0.047205
#
# Coordination Sequence:
#
# PCOD8079772 Si02
#       6
#     4   4   8   8   4   4
#     4   8  15  33  63  97 118 160 211 257 307 364
#     4  10  22  41  60  86 124 162 210 265 312 364
#     4  11  25  40  61  92 126 168 210 261 316 368
#     4  10  19  38  65  95 128 160 209 261 304 377
#     4  12  22  40  64  96 128 172 208 248 320 376
#     4  10  17  36  69  97 117 161 220 256 310 373
#
# _framework density 21.535928999999999
#
# number of rings (size 3 to 8) (size 9 to 14) (size 15 to 20)
#    0.000    2.000    3.750    3.750    0.000    2.500 
#    0.000    2.500    0.000    6.000    0.000    0.875 
#    0.000    0.000    0.000    0.000    0.000    0.000 
#
# Total GULP energy -198346.376447 kJ/mol
# GULP energy per Si atom -12396.648528 kJ/mol
# Density = 2.148691 g / cm^3
# Si number density = 21.535929 Si / 1000 Ang^3
#
#
#
# Elastic Constant Matrix: (Units=GPa)
#
#
# Indices 1 2 3 4 5 6 
#
# 1 168.9198 52.8092 53.4161 0.1125 4.6391 -0.2526
# 2 52.8092 165.9311 49.3021 0.0392 -1.5024 -0.2356
# 3 53.4161 49.3021 65.2108 -0.4913 -6.8429 0.0321
# 4 0.1125 0.0392 -0.4913 16.9839 0.0740 -10.6957
# 5 4.6391 -1.5024 -6.8429 0.0740 36.4128 0.1618
# 6 -0.2526 -0.2356 0.0321 -10.6957 0.1618 29.0170
#
#
#
# Elastic Compliance Matrix: (Units=1/GPa)
#
#
# Indices 1 2 3 4 5 6 
#
# 1 0.008251 -0.000731 -0.006448 -0.000228 -0.002293 0.000002
# 2 -0.000731 0.007861 -0.005409 -0.000163 -0.000599 0.000007
# 3 -0.006448 -0.005409 0.025273 0.000864 0.005345 0.000161
# 4 -0.000228 -0.000163 0.000864 0.076711 -0.000097 0.028272
# 5 -0.002293 -0.000599 0.005345 -0.000097 0.028736 -0.000227
# 6 0.000002 0.000007 0.000161 0.028272 -0.000227 0.044885
#
#
# Mechanical properties :
#
#
# Convention : Reuss Voigt Hill
#
# Bulk Modulus (GPa) = 61.69142 79.01293 70.35218
# Shear Modulus (GPa) = 22.49262 32.78501 27.63881
#
# Velocity S-wave (km/s) = 3.23526 3.90595 3.58632
# Velocity P-wave (km/s) = 6.53176 7.55715 7.06309
#
# Compressibility (1/GPa) = 0.01620971
#
# Stress axis : x y z
#
# Youngs Moduli (GPa) = 121.20392 127.21348 39.56736
#
# Poissons Ratio (x) = 0.09294 0.25514
# Poissons Ratio (y) = 0.08855 0.21401
# Poissons Ratio (z) = 0.78155 0.68806
#
# Static dielectric constant tensor:
#      x y z
#    x 4.491880 -0.000370 0.025580 
#    y -0.000370 4.331590 0.000430 
#    z 0.025580 0.000430 3.390210 
# 
# 
# High freq. dielectric constant tensor:
#      x y z
#    x 1.867270 -0.000010 -0.008390 
#    y -0.000010 1.853520 0.000040 
#    z -0.008390 0.000040 1.807880 
# 
# From -- ./inp_files/206526.got.cif
#   From: 2010.06.25/outbox.cif.g09.slc.cpg/sg12_104_cif.got.tgz:206526.got - 2010.06.28 00:19:55.
