data_PCOD8079400
_publ_section_title
;
Structure prediction by ZEFSAII (Michael W. Deem and Ramdas Pophale) SiO2 
 PCOD8079400
Probable space group: C 2/M
;
_chemical_formula_sum "Si O2"
_cell_formula_units_Z 64
_cell_length_a 21.044990
_cell_length_b 14.611495
_cell_length_c 11.824201
_cell_angle_alpha 90.000000
_cell_angle_beta 108.491861
_cell_angle_gamma 90.000000
_cell_volume 3448.199640
_symmetry_space_group_name_H-M "C 2/M"
_symmetry_group_IT_number 12
_symmetry_cell_setting 'monoclinic'
loop_
_space_group_symop_operation_xyz
x,y,z
-x,y,-z
-x,-y,-z
x,-y,z
1/2+x,1/2+y,z
1/2-x,1/2+y,-z
1/2-x,1/2-y,-z
1/2+x,1/2-y,z
loop_
_atom_site_type_symbol
_atom_site_label
_atom_site_fract_x
_atom_site_fract_y
_atom_site_fract_z
Si Si1 0.112057 0.819087 0.304515
Si Si2 0.162560 0.893165 0.953219
Si Si3 0.682433 0.394168 0.716872
Si Si4 0.288061 0.175486 0.598691
Si Si5 0.220176 0.896045 0.214450
Si Si6 0.845568 0.396510 0.420139
Si Si7 0.921616 0.215841 0.465699
Si Si8 0.486500 0.396512 0.123846
O O1 0.148019 0.721351 0.301630
O O2 0.159771 0.893780 0.271600
O O3 0.107357 0.831138 0.437005
O O4 0.037795 0.826259 0.211915
O O5 0.203019 0.875658 0.859743
O O6 0.087207 0.854652 0.897000
O O7 0.154428 0.000000 0.976919
O O8 0.200181 0.848113 0.083281
O O9 0.664675 0.500000 0.689483
O O10 0.743005 0.366498 0.670781
O O11 0.615151 0.336714 0.656035
O O12 0.250000 0.250000 0.500000
O O13 0.314342 0.097286 0.528741
O O14 0.288562 0.853264 0.303987
O O15 0.238815 0.000000 0.202579
O O16 0.868671 0.500000 0.400348
O O17 0.907009 0.325112 0.452173
O O18 0.000000 0.200033 0.500000
O O19 0.494370 0.500000 0.178413
O O20 0.500000 0.399081 0.000000
#
# Coordination Sequence:
#
# PCOD8079400 Si02
#       8
#     8   8   8   8   8   8   8   8
#     4  11  19  31  52  73 103 143 176 216 271 316
#     4   9  19  32  49  77 112 143 175 217 265 326
#     4  11  21  36  56  79 113 149 176 214 280 333
#     4  11  19  36  53  77 110 136 178 231 272 316
#     4  10  17  30  54  80 104 137 183 228 265 311
#     4  10  20  36  59  81 103 140 189 231 273 319
#     4  11  23  38  53  77 116 143 177 230 271 327
#     4  10  18  30  49  76 109 142 180 218 258 315
#
# _framework density 18.560410999999998
#
# number of rings (size 3 to 8) (size 9 to 14) (size 15 to 20)
#    0.000    1.625    5.000    1.500    0.000    2.500 
#    0.000    2.500    0.000    0.000    0.000    0.000 
#    0.000    3.000    0.000    0.125    0.000    0.000 
#
# Total GULP energy -396570.684817 kJ/mol
# GULP energy per Si atom -12392.833901 kJ/mol
# Density = 1.851817 g / cm^3
# Si number density = 18.560411 Si / 1000 Ang^3
#
#
#
# Elastic Constant Matrix: (Units=GPa)
#
#
# Indices 1 2 3 4 5 6 
#
# 1 75.5682 19.0772 37.0739 0.0000 -4.3272 0.0000
# 2 19.0772 59.0243 34.8125 0.0000 -0.2227 0.0000
# 3 37.0739 34.8125 103.2932 0.0000 0.6559 0.0000
# 4 0.0000 0.0000 0.0000 20.3374 0.0000 -0.7118
# 5 -4.3272 -0.2227 0.6559 0.0000 32.6483 0.0000
# 6 0.0000 0.0000 0.0000 -0.7118 0.0000 10.7086
#
#
#
# Elastic Compliance Matrix: (Units=1/GPa)
#
#
# Indices 1 2 3 4 5 6 
#
# 1 0.016468 -0.002271 -0.005160 0.000000 0.002271 0.000000
# 2 -0.002271 0.021461 -0.006418 0.000000 -0.000026 0.000000
# 3 -0.005160 -0.006418 0.013702 0.000000 -0.001003 0.000000
# 4 0.000000 0.000000 0.000000 0.049285 0.000000 0.003276
# 5 0.002271 -0.000026 -0.001003 0.000000 0.030950 0.000000
# 6 0.000000 0.000000 0.000000 0.003276 0.000000 0.093601
#
#
# Mechanical properties :
#
#
# Convention : Reuss Voigt Hill
#
# Bulk Modulus (GPa) = 41.78011 46.64588 44.21300
# Shear Modulus (GPa) = 19.14661 22.53365 20.84013
#
# Velocity S-wave (km/s) = 3.21531 3.48813 3.35450
# Velocity P-wave (km/s) = 6.02856 6.43500 6.23509
#
# Compressibility (1/GPa) = 0.02393483
#
# Stress axis : x y z
#
# Youngs Moduli (GPa) = 60.72486 46.59559 72.97973
#
# Poissons Ratio (x) = 0.10581 0.37655
# Poissons Ratio (y) = 0.13789 0.46837
# Poissons Ratio (z) = 0.31332 0.29904
#
# Static dielectric constant tensor:
#      x y z
#    x 3.486630 0.000000 0.041180 
#    y 0.000000 3.191130 0.000000 
#    z 0.041180 0.000000 3.713290 
# 
# 
# High freq. dielectric constant tensor:
#      x y z
#    x 1.711050 0.000000 -0.004480 
#    y 0.000000 1.688570 0.000000 
#    z -0.004480 0.000000 1.726210 
# 
# From -- ./inp_files/167282.got.cif
#   From: 2010.06.25/outbox.cif.g09.slc.cpg/sg12_84_cif.got.tgz:167282.got - 2010.06.28 00:19:55.
