data_PCOD8079020
_publ_section_title
;
Structure prediction by ZEFSAII (Michael W. Deem and Ramdas Pophale) SiO2 
 PCOD8079020
Probable space group: C 2/M
;
_chemical_formula_sum "Si O2"
_cell_formula_units_Z 48
_cell_length_a 9.983466
_cell_length_b 17.658119
_cell_length_c 17.484030
_cell_angle_alpha 90.000000
_cell_angle_beta 119.566584
_cell_angle_gamma 90.000000
_cell_volume 2680.884907
_symmetry_space_group_name_H-M "C 2/M"
_symmetry_group_IT_number 12
_symmetry_cell_setting 'monoclinic'
loop_
_space_group_symop_operation_xyz
x,y,z
-x,y,-z
-x,-y,-z
x,-y,z
1/2+x,1/2+y,z
1/2-x,1/2+y,-z
1/2-x,1/2-y,-z
1/2+x,1/2-y,z
loop_
_atom_site_type_symbol
_atom_site_label
_atom_site_fract_x
_atom_site_fract_y
_atom_site_fract_z
Si Si1 0.254037 0.088499 0.275401
Si Si2 0.443964 0.175249 0.667893
Si Si3 0.359033 0.412389 0.405014
Si Si4 0.427174 0.761354 0.154321
Si Si5 0.885516 0.829331 0.906428
Si Si6 0.006285 0.160542 0.305392
O O1 0.414008 0.132431 0.331925
O O2 0.169126 0.111494 0.172747
O O3 0.150472 0.109806 0.319249
O O4 0.287409 0.000000 0.283243
O O5 0.286599 0.133167 0.604051
O O6 0.472735 0.177528 0.768278
O O7 0.435986 0.262363 0.635254
O O8 0.500000 0.393965 0.500000
O O9 0.314771 0.500000 0.393034
O O10 0.399672 0.388549 0.330414
O O11 0.259934 0.795433 0.088346
O O12 0.520153 0.740654 0.104343
O O13 0.407365 0.686456 0.202950
O O14 0.000000 0.869191 0.000000
#
# Coordination Sequence:
#
# PCOD8079020 Si02
#       6
#     8   8   8   8   8   8
#     4  10  19  32  51  74  99 130 165 199 242 289
#     4   9  18  35  55  70  93 131 170 201 229 290
#     4  11  22  34  50  76 104 126 155 203 256 291
#     4   8  17  30  51  70  90 128 168 198 229 282
#     4  10  17  28  46  73 102 124 156 201 245 280
#     4   9  18  35  55  70  93 131 170 201 229 290
#
# _framework density 17.904537000000001
#
# number of rings (size 3 to 8) (size 9 to 14) (size 15 to 20)
#    1.000    1.500    0.000    3.500    0.000    1.000 
#    0.000    0.833    0.000    3.000    0.000    0.000 
#    0.000   24.000    0.000    0.000    0.000    0.000 
#
# Total GULP energy -297414.162690 kJ/mol
# GULP energy per Si atom -12392.256779 kJ/mol
# Density = 1.786379 g / cm^3
# Si number density = 17.904537 Si / 1000 Ang^3
#
#
#
# Elastic Constant Matrix: (Units=GPa)
#
#
# Indices 1 2 3 4 5 6 
#
# 1 56.0182 10.5026 7.1266 0.0000 6.6984 0.0000
# 2 10.5026 66.4048 7.7992 0.0000 3.4631 0.0000
# 3 7.1266 7.7992 40.9537 0.0000 15.3738 0.0000
# 4 0.0000 0.0000 0.0000 12.7850 0.0000 0.9722
# 5 6.6984 3.4631 15.3738 0.0000 19.3445 0.0000
# 6 0.0000 0.0000 0.0000 0.9722 0.0000 23.0390
#
#
#
# Elastic Compliance Matrix: (Units=1/GPa)
#
#
# Indices 1 2 3 4 5 6 
#
# 1 0.019105 -0.002646 -0.000734 0.000000 -0.005558 0.000000
# 2 -0.002646 0.015775 -0.002605 0.000000 0.000162 0.000000
# 3 -0.000734 -0.002605 0.035304 0.000000 -0.027336 0.000000
# 4 0.000000 0.000000 0.000000 0.078469 0.000000 -0.003311
# 5 -0.005558 0.000162 -0.027336 0.000000 0.075315 0.000000
# 6 0.000000 0.000000 0.000000 -0.003311 0.000000 0.043544
#
#
# Mechanical properties :
#
#
# Convention : Reuss Voigt Hill
#
# Bulk Modulus (GPa) = 17.17768 23.80373 20.49071
# Shear Modulus (GPa) = 16.72878 20.23025 18.47951
#
# Velocity S-wave (km/s) = 3.06000 3.36504 3.21614
# Velocity P-wave (km/s) = 4.70103 5.33120 5.02600
#
# Compressibility (1/GPa) = 0.05821507
#
# Stress axis : x y z
#
# Youngs Moduli (GPa) = 52.34123 63.39130 28.32576
#
# Poissons Ratio (x) = 0.16771 0.02080
# Poissons Ratio (y) = 0.13847 0.07378
# Poissons Ratio (z) = 0.03843 0.16511
#
# Static dielectric constant tensor:
#      x y z
#    x 3.274660 0.000000 0.090240 
#    y 0.000000 3.132170 0.000000 
#    z 0.090240 0.000000 3.055300 
# 
# 
# High freq. dielectric constant tensor:
#      x y z
#    x 1.700130 0.000000 0.008740 
#    y 0.000000 1.675500 0.000000 
#    z 0.008740 0.000000 1.668750 
# 
# From -- ./inp_files/301312.got.cif
#   From: 2010.06.25/outbox.cif.g09.slc.cpg/sg12_151_cif.got.tgz:301312.got - 2010.06.28 00:19:55.
