data_PCOD8079051
_publ_section_title
;
Structure prediction by ZEFSAII (Michael W. Deem and Ramdas Pophale) SiO2 
 PCOD8079051
Probable space group: C 2/M
;
_chemical_formula_sum "Si O2"
_cell_formula_units_Z 64
_cell_length_a 21.295249
_cell_length_b 14.767858
_cell_length_c 14.341203
_cell_angle_alpha 90.000000
_cell_angle_beta 117.134477
_cell_angle_gamma 90.000000
_cell_volume 4013.708436
_symmetry_space_group_name_H-M "C 2/M"
_symmetry_group_IT_number 12
_symmetry_cell_setting 'monoclinic'
loop_
_space_group_symop_operation_xyz
x,y,z
-x,y,-z
-x,-y,-z
x,-y,z
1/2+x,1/2+y,z
1/2-x,1/2+y,-z
1/2-x,1/2-y,-z
1/2+x,1/2-y,z
loop_
_atom_site_type_symbol
_atom_site_label
_atom_site_fract_x
_atom_site_fract_y
_atom_site_fract_z
Si Si1 0.916780 0.747338 0.033218
Si Si2 0.432899 0.601248 0.335926
Si Si3 0.660071 0.605465 0.565169
Si Si4 0.571568 0.606463 0.330610
Si Si5 0.846428 0.899243 0.098034
Si Si6 0.191165 0.604136 0.263613
Si Si7 0.075303 0.251940 0.175490
Si Si8 0.194614 0.397465 0.046997
O O1 0.897770 0.838470 0.072853
O O2 0.994374 0.715620 0.116446
O O3 0.904684 0.771868 0.916958
O O4 0.867570 0.665350 0.032626
O O5 0.457784 0.500000 0.378382
O O6 0.400658 0.648743 0.407523
O O7 0.502680 0.646933 0.337967
O O8 0.368984 0.602295 0.220471
O O9 0.662791 0.500000 0.593998
O O10 0.638878 0.621180 0.443556
O O11 0.739184 0.642965 0.636139
O O12 0.561853 0.500000 0.297743
O O13 0.585001 0.662955 0.245713
O O14 0.765270 0.867377 0.040470
O O15 0.853800 0.000000 0.061937
O O16 0.174130 0.500000 0.280333
O O17 0.124226 0.666349 0.246955
O O18 0.206176 0.612344 0.164675
O O19 0.174312 0.500000 0.007859
#
# Coordination Sequence:
#
# PCOD8079051 Si02
#       8
#     8   8   8   8   8   8   8   8
#     4  10  20  32  44  63  92 123 152 183 213 251
#     4   9  15  26  45  69  91 111 138 176 226 272
#     4   9  16  28  48  70  90 112 140 182 234 270
#     4  10  19  30  45  67  95 121 144 176 217 266
#     4  10  17  28  48  69  89 117 147 178 221 269
#     4   9  17  31  48  66  88 114 147 189 227 259
#     4  10  21  32  43  63  91 124 158 179 205 258
#     4   9  17  30  49  69  88 111 145 188 232 266
#
# _framework density 15.945353000000001
#
# number of rings (size 3 to 8) (size 9 to 14) (size 15 to 20)
#    0.000    2.500    2.500    0.750    0.000    3.000 
#    0.000    3.750    0.000    0.000    0.000    0.000 
#    0.000    2.000    0.000    0.000    0.000    0.000 
#
# Total GULP energy -396587.647708 kJ/mol
# GULP energy per Si atom -12393.363991 kJ/mol
# Density = 1.590906 g / cm^3
# Si number density = 15.945353 Si / 1000 Ang^3
#
#
#
# Elastic Constant Matrix: (Units=GPa)
#
#
# Indices 1 2 3 4 5 6 
#
# 1 86.7742 38.3537 25.5639 0.0000 10.3280 0.0000
# 2 38.3537 54.4955 22.9986 0.0000 4.0564 0.0000
# 3 25.5639 22.9986 54.4363 0.0000 7.8225 0.0000
# 4 0.0000 0.0000 0.0000 16.8497 0.0000 1.3263
# 5 10.3280 4.0564 7.8225 0.0000 19.7403 0.0000
# 6 0.0000 0.0000 0.0000 1.3263 0.0000 25.7293
#
#
#
# Elastic Compliance Matrix: (Units=1/GPa)
#
#
# Indices 1 2 3 4 5 6 
#
# 1 0.017936 -0.010936 -0.002945 0.000000 -0.005970 0.000000
# 2 -0.010936 0.029015 -0.007516 0.000000 0.002738 0.000000
# 3 -0.002945 -0.007516 0.023843 0.000000 -0.006363 0.000000
# 4 0.000000 0.000000 0.000000 0.059590 0.000000 -0.003072
# 5 -0.005970 0.002738 -0.006363 0.000000 0.055740 0.000000
# 6 0.000000 0.000000 0.000000 -0.003072 0.000000 0.039025
#
#
# Mechanical properties :
#
#
# Convention : Reuss Voigt Hill
#
# Bulk Modulus (GPa) = 35.71442 41.05981 38.38711
# Shear Modulus (GPa) = 18.03256 19.71650 18.87453
#
# Velocity S-wave (km/s) = 3.36653 3.52021 3.44423
# Velocity P-wave (km/s) = 6.12846 6.50605 6.32008
#
# Compressibility (1/GPa) = 0.02799990
#
# Stress axis : x y z
#
# Youngs Moduli (GPa) = 55.75402 34.46464 41.94131
#
# Poissons Ratio (x) = 0.37691 0.12350
# Poissons Ratio (y) = 0.60973 0.31524
# Poissons Ratio (z) = 0.16418 0.25904
#
# Static dielectric constant tensor:
#      x y z
#    x 3.132020 0.000000 0.143260 
#    y 0.000000 2.801800 0.000000 
#    z 0.143260 0.000000 2.929820 
# 
# 
# High freq. dielectric constant tensor:
#      x y z
#    x 1.619650 0.000000 0.014370 
#    y 0.000000 1.574940 0.000000 
#    z 0.014370 0.000000 1.603450 
# 
# From -- ./inp_files/157896.got.cif
#   From: 2010.06.25/outbox.cif.g09.slc.cpg/sg12_79_cif.got.tgz:157896.got - 2010.06.28 00:19:55.
