data_PCOD8079867
_publ_section_title
;
Structure prediction by ZEFSAII (Michael W. Deem and Ramdas Pophale) SiO2 
 PCOD8079867
Probable space group: C 2/M
;
_chemical_formula_sum "Si O2"
_cell_formula_units_Z 64
_cell_length_a 23.368579
_cell_length_b 9.509897
_cell_length_c 18.450806
_cell_angle_alpha 90.000000
_cell_angle_beta 65.204607
_cell_angle_gamma 90.000000
_cell_volume 3722.365360
_symmetry_space_group_name_H-M "C 2/M"
_symmetry_group_IT_number 12
_symmetry_cell_setting 'monoclinic'
loop_
_space_group_symop_operation_xyz
x,y,z
-x,y,-z
-x,-y,-z
x,-y,z
1/2+x,1/2+y,z
1/2-x,1/2+y,-z
1/2-x,1/2-y,-z
1/2+x,1/2-y,z
loop_
_atom_site_type_symbol
_atom_site_label
_atom_site_fract_x
_atom_site_fract_y
_atom_site_fract_z
Si Si1 0.398533 0.834261 0.389298
Si Si2 0.806149 0.839643 0.343437
Si Si3 0.648857 0.832423 0.281738
Si Si4 0.334523 0.166679 0.567916
Si Si5 0.987688 0.666198 0.893495
Si Si6 0.788746 0.160249 0.183825
Si Si7 0.969273 0.666230 0.742979
Si Si8 0.399073 0.165859 0.068725
O O1 0.358480 0.761126 0.348296
O O2 0.378080 0.777301 0.479350
O O3 0.471437 0.795184 0.338978
O O4 0.386770 0.000000 0.388400
O O5 0.737722 0.787866 0.407772
O O6 0.809730 0.825756 0.255495
O O7 0.818850 0.000000 0.360944
O O8 0.641118 0.772537 0.367947
O O9 0.716523 0.787502 0.213201
O O10 0.593195 0.769502 0.261374
O O11 0.645273 0.000000 0.286752
O O12 0.337225 0.000000 0.571017
O O13 0.993398 0.500000 0.885639
O O14 0.978054 0.732235 0.818658
O O15 0.052846 0.720787 0.894503
O O16 0.928305 0.706515 0.975211
O O17 0.832420 0.256906 0.110673
O O18 0.795463 0.000000 0.153770
O O19 0.961834 0.500000 0.754225
O O20 0.387795 0.000000 0.081124
#
# Coordination Sequence:
#
# PCOD8079867 Si02
#       8
#     8   8   8   8   8   8   8   8
#     4  10  18  26  43  70  90 106 140 186 215 242
#     4   9  17  29  43  60  89 122 141 163 212 268
#     4   8  15  28  43  59  86 120 144 171 215 256
#     4   8  15  27  41  61  88 114 142 176 213 251
#     4   8  15  27  42  63  90 116 139 167 212 264
#     4   9  17  29  45  64  85 113 148 177 205 251
#     4   9  16  26  42  64  87 112 145 180 212 249
#     4   9  16  28  47  67  89 114 137 170 216 259
#
# _framework density 17.193369000000001
#
# number of rings (size 3 to 8) (size 9 to 14) (size 15 to 20)
#    0.000    3.250    0.000    3.375    0.000    2.000 
#    0.000    4.375    0.000    2.250    0.000    0.875 
#    0.000    0.000    0.000    0.000    0.000    0.000 
#
# Total GULP energy -396631.304839 kJ/mol
# GULP energy per Si atom -12394.728276 kJ/mol
# Density = 1.715424 g / cm^3
# Si number density = 17.193369 Si / 1000 Ang^3
#
#
#
# Elastic Constant Matrix: (Units=GPa)
#
#
# Indices 1 2 3 4 5 6 
#
# 1 109.4109 23.5790 46.9490 0.0000 -13.7813 0.0000
# 2 23.5790 23.6689 26.1837 0.0000 -7.1974 0.0001
# 3 46.9490 26.1837 92.3302 0.0000 -21.9169 0.0000
# 4 0.0000 0.0000 0.0000 19.7574 0.0000 -4.2663
# 5 -13.7813 -7.1974 -21.9169 0.0000 23.7421 0.0000
# 6 0.0000 0.0001 0.0000 -4.2663 0.0000 17.1449
#
#
#
# Elastic Compliance Matrix: (Units=1/GPa)
#
#
# Indices 1 2 3 4 5 6 
#
# 1 0.012685 -0.007933 -0.003872 0.000000 0.001384 0.000000
# 2 -0.007933 0.066721 -0.014317 0.000000 0.002406 0.000000
# 3 -0.003872 -0.014317 0.019588 0.000000 0.011495 0.000000
# 4 0.000000 0.000000 0.000000 0.053488 0.000000 0.013310
# 5 0.001384 0.002406 0.011495 0.000000 0.054263 0.000000
# 6 0.000000 0.000000 0.000000 0.013310 0.000000 0.061638
#
#
# Mechanical properties :
#
#
# Convention : Reuss Voigt Hill
#
# Bulk Modulus (GPa) = 21.38946 46.53705 33.96325
# Shear Modulus (GPa) = 14.87162 20.70877 17.79019
#
# Velocity S-wave (km/s) = 2.94421 3.47430 3.22018
# Velocity P-wave (km/s) = 4.90157 6.57419 5.79851
#
# Compressibility (1/GPa) = 0.04675200
#
# Stress axis : x y z
#
# Youngs Moduli (GPa) = 78.83120 14.98775 51.05098
#
# Poissons Ratio (x) = 0.11889 0.19768
# Poissons Ratio (y) = 0.62533 0.73087
# Poissons Ratio (z) = 0.30526 0.21457
#
# Static dielectric constant tensor:
#      x y z
#    x 3.383510 0.000000 0.075960 
#    y 0.000000 2.684390 0.000000 
#    z 0.075960 0.000000 3.453280 
# 
# 
# High freq. dielectric constant tensor:
#      x y z
#    x 1.659010 0.000000 -0.006730 
#    y 0.000000 1.604840 0.000000 
#    z -0.006730 0.000000 1.671850 
# 
# From -- ./inp_files/282855.got.cif
#   From: 2010.06.25/outbox.cif.g09.slc.cpg/sg12_142_cif.got.tgz:282855.got - 2010.06.28 00:19:55.
