data_PCOD8079906
_publ_section_title
;
Structure prediction by ZEFSAII (Michael W. Deem and Ramdas Pophale) SiO2 
 PCOD8079906
Probable space group: C 2/M
;
_chemical_formula_sum "Si O2"
_cell_formula_units_Z 64
_cell_length_a 27.235684
_cell_length_b 9.294157
_cell_length_c 16.769598
_cell_angle_alpha 90.000000
_cell_angle_beta 102.306183
_cell_angle_gamma 90.000000
_cell_volume 4147.396375
_symmetry_space_group_name_H-M "C 2/M"
_symmetry_group_IT_number 12
_symmetry_cell_setting 'monoclinic'
loop_
_space_group_symop_operation_xyz
x,y,z
-x,y,-z
-x,-y,-z
x,-y,z
1/2+x,1/2+y,z
1/2-x,1/2+y,-z
1/2-x,1/2-y,-z
1/2+x,1/2-y,z
loop_
_atom_site_type_symbol
_atom_site_label
_atom_site_fract_x
_atom_site_fract_y
_atom_site_fract_z
Si Si1 0.036594 0.168382 0.339107
Si Si2 0.076515 0.835533 0.651972
Si Si3 0.118775 0.164758 0.828225
Si Si4 0.453293 0.162490 0.095983
Si Si5 0.939700 0.335166 0.809733
Si Si6 0.058051 0.662637 0.497548
Si Si7 0.122125 0.666374 0.064409
Si Si8 0.697518 0.670634 0.984770
O O1 0.058395 0.229323 0.264238
O O2 0.067042 0.246580 0.420599
O O3 0.977376 0.200802 0.326855
O O4 0.048359 0.000000 0.347074
O O5 0.120467 0.809421 0.733159
O O6 0.088736 0.734541 0.581009
O O7 0.076273 0.000000 0.621839
O O8 0.069827 0.244675 0.841708
O O9 0.169198 0.212975 0.892130
O O10 0.108572 0.000000 0.844205
O O11 0.512786 0.189133 0.115230
O O12 0.440485 0.000000 0.114395
O O13 0.428443 0.201429 0.002812
O O14 0.938592 0.500000 0.778489
O O15 0.890692 0.301918 0.847262
O O16 0.077335 0.500000 0.491800
O O17 0.000000 0.666298 0.500000
O O18 0.138533 0.500000 0.058939
O O19 0.166690 0.769909 0.050124
O O20 0.704961 0.500000 0.996527
O O21 0.750000 0.750000 0.000000
#
# Coordination Sequence:
#
# PCOD8079906 Si02
#       8
#     8   8   8   8   8   8   8   8
#     4  10  18  27  40  57  83 119 153 182 216 254
#     4   9  16  27  41  58  83 113 147 182 217 256
#     4   9  17  29  44  64  87 114 146 181 220 262
#     4   9  16  26  41  60  85 116 148 180 214 252
#     4  10  18  27  41  61  88 118 149 183 215 252
#     4   9  17  27  39  56  80 111 149 186 218 252
#     4   9  18  31  45  63  86 114 147 181 219 261
#     4  10  20  34  51  67  87 113 144 183 227 269
#
# _framework density 15.431368000000001
#
# number of rings (size 3 to 8) (size 9 to 14) (size 15 to 20)
#    0.000    2.625    1.250    1.500    0.000    5.000 
#    0.000    0.000    0.000    3.750    0.000    0.000 
#    0.000    1.000    0.000    3.000    0.000    4.000 
#
# Total GULP energy -396631.695065 kJ/mol
# GULP energy per Si atom -12394.740471 kJ/mol
# Density = 1.539625 g / cm^3
# Si number density = 15.431368 Si / 1000 Ang^3
#
#
#
# Elastic Constant Matrix: (Units=GPa)
#
#
# Indices 1 2 3 4 5 6 
#
# 1 59.0100 37.5572 36.3300 0.0000 -3.1193 0.0000
# 2 37.5572 86.9813 56.1120 0.0000 -5.6519 0.0000
# 3 36.3300 56.1120 97.7393 0.0000 -8.3075 0.0000
# 4 0.0000 0.0000 0.0000 29.2747 0.0000 -3.1279
# 5 -3.1193 -5.6519 -8.3075 0.0000 12.8399 0.0000
# 6 0.0000 0.0000 0.0000 -3.1279 0.0000 16.8525
#
#
#
# Elastic Compliance Matrix: (Units=1/GPa)
#
#
# Indices 1 2 3 4 5 6 
#
# 1 0.024747 -0.007554 -0.004903 0.000000 -0.000485 0.000000
# 2 -0.007554 0.020586 -0.008885 0.000000 0.001478 0.000000
# 3 -0.004903 -0.008885 0.017694 0.000000 0.006346 0.000000
# 4 0.000000 0.000000 0.000000 0.034850 0.000000 0.006468
# 5 -0.000485 0.001478 0.006346 0.000000 0.082521 0.000000
# 6 0.000000 0.000000 0.000000 0.006468 0.000000 0.060539
#
#
# Mechanical properties :
#
#
# Convention : Reuss Voigt Hill
#
# Bulk Modulus (GPa) = 49.15673 55.96990 52.56332
# Shear Modulus (GPa) = 17.21748 19.37552 18.29650
#
# Velocity S-wave (km/s) = 3.34390 3.54728 3.44709
# Velocity P-wave (km/s) = 6.84347 7.28880 7.06964
#
# Compressibility (1/GPa) = 0.02034310
#
# Stress axis : x y z
#
# Youngs Moduli (GPa) = 40.40901 48.57619 56.51603
#
# Poissons Ratio (x) = 0.36694 0.27710
# Poissons Ratio (y) = 0.30525 0.50215
# Poissons Ratio (z) = 0.19813 0.43160
#
# Static dielectric constant tensor:
#      x y z
#    x 2.592070 0.000000 -0.005840 
#    y 0.000000 3.047150 0.000000 
#    z -0.005840 0.000000 3.107670 
# 
# 
# High freq. dielectric constant tensor:
#      x y z
#    x 1.531990 0.000000 -0.002210 
#    y 0.000000 1.601020 0.000000 
#    z -0.002210 0.000000 1.593460 
# 
# From -- ./inp_files/244086.got.cif
#   From: 2010.06.25/outbox.cif.g09.slc.cpg/sg12_123_cif.got.tgz:244086.got - 2010.06.28 00:19:55.
