data_PCOD8079171
_publ_section_title
;
Structure prediction by ZEFSAII (Michael W. Deem and Ramdas Pophale) SiO2 
 PCOD8079171
Probable space group: C 2/M
;
_chemical_formula_sum "Si O2"
_cell_formula_units_Z 64
_cell_length_a 19.371014
_cell_length_b 8.698788
_cell_length_c 20.796834
_cell_angle_alpha 90.000000
_cell_angle_beta 96.172187
_cell_angle_gamma 90.000000
_cell_volume 3484.043072
_symmetry_space_group_name_H-M "C 2/M"
_symmetry_group_IT_number 12
_symmetry_cell_setting 'monoclinic'
loop_
_space_group_symop_operation_xyz
x,y,z
-x,y,-z
-x,-y,-z
x,-y,z
1/2+x,1/2+y,z
1/2-x,1/2+y,-z
1/2-x,1/2-y,-z
1/2+x,1/2-y,z
loop_
_atom_site_type_symbol
_atom_site_label
_atom_site_fract_x
_atom_site_fract_y
_atom_site_fract_z
Si Si1 0.137657 0.323099 0.666360
Si Si2 0.226705 0.318275 0.144895
Si Si3 0.014018 0.682709 0.572134
Si Si4 0.284648 0.680908 0.719648
Si Si5 0.536346 0.175370 0.770598
Si Si6 0.631718 0.180930 0.892555
Si Si7 0.928838 0.176973 0.673967
Si Si8 0.321890 0.682617 0.981587
O O1 0.145346 0.500000 0.649654
O O2 0.087512 0.249383 0.606417
O O3 0.215260 0.252892 0.677389
O O4 0.102690 0.297611 0.731859
O O5 0.227216 0.500000 0.137630
O O6 0.202723 0.270890 0.213218
O O7 0.303020 0.254600 0.137444
O O8 0.169291 0.247471 0.089745
O O9 0.016847 0.500000 0.570178
O O10 0.000000 0.751878 0.500000
O O11 0.952223 0.727140 0.614244
O O12 0.276915 0.500000 0.734632
O O13 0.348421 0.714062 0.678616
O O14 0.561638 0.215834 0.845133
O O15 0.472625 0.281425 0.742367
O O16 0.510763 0.000000 0.762896
O O17 0.645663 0.000000 0.899305
O O18 0.620285 0.254291 0.962445
O O19 0.940842 0.000000 0.659409
O O20 0.322070 0.500000 0.981285
O O21 0.250000 0.750000 0.000000
#
# Coordination Sequence:
#
# PCOD8079171 Si02
#       8
#     8   8   8   8   8   8   8   8
#     4   8  14  29  52  74  95 129 171 203 239 295
#     4  11  20  29  45  71 100 132 169 214 259 300
#     4   9  18  35  58  79 101 134 173 208 244 295
#     4  10  19  34  51  71 102 138 171 204 256 309
#     4   9  17  31  52  72  97 135 171 209 254 305
#     4  10  17  29  48  70  97 131 170 213 259 307
#     4  10  21  33  51  77 106 134 164 211 256 299
#     4  10  18  28  42  65  98 133 168 212 259 307
#
# _framework density 18.369463
#
# number of rings (size 3 to 8) (size 9 to 14) (size 15 to 20)
#    0.000    2.375    1.250    5.250    0.000    2.250 
#    0.000    0.625    0.000    0.750    0.000    5.250 
#    0.000    0.000    0.000    0.000    0.000    0.000 
#
# Total GULP energy -396625.763679 kJ/mol
# GULP energy per Si atom -12394.555115 kJ/mol
# Density = 1.832765 g / cm^3
# Si number density = 18.369463 Si / 1000 Ang^3
#
#
#
# Elastic Constant Matrix: (Units=GPa)
#
#
# Indices 1 2 3 4 5 6 
#
# 1 85.0311 23.9426 49.8716 0.0000 10.1551 0.0000
# 2 23.9426 78.7223 36.2916 0.0000 5.4906 0.0000
# 3 49.8716 36.2916 135.7629 0.0000 26.3995 0.0000
# 4 0.0000 0.0000 0.0000 24.3197 0.0000 -0.6581
# 5 10.1551 5.4906 26.3995 0.0000 20.1774 0.0000
# 6 0.0000 0.0000 0.0000 -0.6581 0.0000 18.8967
#
#
#
# Elastic Compliance Matrix: (Units=1/GPa)
#
#
# Indices 1 2 3 4 5 6 
#
# 1 0.015373 -0.002380 -0.004872 0.000000 -0.000715 0.000000
# 2 -0.002380 0.014891 -0.003422 0.000000 0.001623 0.000000
# 3 -0.004872 -0.003422 0.012624 0.000000 -0.013134 0.000000
# 4 0.000000 0.000000 0.000000 0.041158 0.000000 0.001433
# 5 -0.000715 0.001623 -0.013134 0.000000 0.066663 0.000000
# 6 0.000000 0.000000 0.000000 0.001433 0.000000 0.052969
#
#
# Mechanical properties :
#
#
# Convention : Reuss Voigt Hill
#
# Bulk Modulus (GPa) = 46.42311 57.74755 52.08533
# Shear Modulus (GPa) = 21.53253 25.30610 23.41932
#
# Velocity S-wave (km/s) = 3.42744 3.71565 3.57445
# Velocity P-wave (km/s) = 6.40234 7.06492 6.74177
#
# Compressibility (1/GPa) = 0.02154099
#
# Stress axis : x y z
#
# Youngs Moduli (GPa) = 65.04726 67.15448 79.21280
#
# Poissons Ratio (x) = 0.15981 0.38593
# Poissons Ratio (y) = 0.15479 0.27107
# Poissons Ratio (z) = 0.31692 0.22980
#
# Static dielectric constant tensor:
#      x y z
#    x 3.322470 0.000000 0.496380 
#    y 0.000000 3.261920 0.000000 
#    z 0.496380 0.000000 3.860340 
# 
# 
# High freq. dielectric constant tensor:
#      x y z
#    x 1.683230 0.000000 0.024910 
#    y 0.000000 1.702850 0.000000 
#    z 0.024910 0.000000 1.710170 
# 
# From -- ./inp_files/319155.got.cif
#   From: 2010.06.25/outbox.cif.g09.slc.cpg/sg12_160_cif.got.tgz:319155.got - 2010.06.28 00:19:55.
