data_PCOD8079361
_publ_section_title
;
Structure prediction by ZEFSAII (Michael W. Deem and Ramdas Pophale) SiO2 
 PCOD8079361
Probable space group: C 2/M
;
_chemical_formula_sum "Si O2"
_cell_formula_units_Z 52
_cell_length_a 20.620690
_cell_length_b 18.431055
_cell_length_c 11.022594
_cell_angle_alpha 90.000000
_cell_angle_beta 137.580267
_cell_angle_gamma 90.000000
_cell_volume 2825.892549
_symmetry_space_group_name_H-M "C 2/M"
_symmetry_group_IT_number 12
_symmetry_cell_setting 'monoclinic'
loop_
_space_group_symop_operation_xyz
x,y,z
-x,y,-z
-x,-y,-z
x,-y,z
1/2+x,1/2+y,z
1/2-x,1/2+y,-z
1/2-x,1/2-y,-z
1/2+x,1/2-y,z
loop_
_atom_site_type_symbol
_atom_site_label
_atom_site_fract_x
_atom_site_fract_y
_atom_site_fract_z
Si Si1 0.208330 0.637940 0.952246
Si Si2 0.475056 0.681327 0.099098
Si Si3 0.595763 0.224084 0.427323
Si Si4 0.094795 0.918765 0.797286
Si Si5 0.762965 0.244257 0.824258
Si Si6 0.001573 0.581816 0.645112
Si Si7 0.500000 0.685573 0.500000
O O1 0.199978 0.697167 0.832948
O O2 0.109961 0.595578 0.838136
O O3 0.290641 0.581800 0.021915
O O4 0.234194 0.675038 0.116935
O O5 0.561140 0.737494 0.254824
O O6 0.468612 0.611759 0.178339
O O7 0.500000 0.652689 0.000000
O O8 0.371915 0.719674 0.958881
O O9 0.707380 0.239602 0.617278
O O10 0.572251 0.137930 0.392343
O O11 0.530083 0.261745 0.435879
O O12 0.082739 0.867651 0.663133
O O13 0.058782 0.000000 0.723270
O O14 0.970636 0.500000 0.639489
O O15 0.000000 0.592127 0.500000
#
# Coordination Sequence:
#
# PCOD8079361 Si02
#       7
#     8   8   8   8   8   8   4
#     4  10  17  31  50  81 109 132 169 211 276 333
#     4  10  23  37  53  76 101 144 193 222 258 312
#     4  11  18  34  55  75 110 139 174 227 268 314
#     4  10  20  32  52  78 109 137 167 217 270 323
#     4  10  18  31  55  78 103 139 176 222 265 314
#     4  11  20  29  49  82 115 137 163 209 280 341
#     4  10  17  30  51  80 108 136 168 204 269 330
#
# _framework density 18.401267000000001
#
# number of rings (size 3 to 8) (size 9 to 14) (size 15 to 20)
#    0.000    1.692    5.385    0.692    0.000    0.923 
#    0.000    0.000    0.000    0.462    0.000    0.000 
#    0.000    0.000    0.000    0.000    0.000    0.000 
#
# Total GULP energy -322227.196119 kJ/mol
# GULP energy per Si atom -12393.353697 kJ/mol
# Density = 1.835938 g / cm^3
# Si number density = 18.401267 Si / 1000 Ang^3
#
#
#
# Elastic Constant Matrix: (Units=GPa)
#
#
# Indices 1 2 3 4 5 6 
#
# 1 31.0953 4.6171 5.5199 0.0000 -1.4003 0.0000
# 2 4.6171 99.2751 19.9076 0.0000 1.6662 0.0000
# 3 5.5199 19.9076 97.7964 0.0000 10.9609 0.0000
# 4 0.0000 0.0000 0.0000 19.5325 0.0000 5.4950
# 5 -1.4003 1.6662 10.9609 0.0000 13.5217 0.0000
# 6 0.0000 0.0000 0.0000 5.4950 0.0000 6.3508
#
#
#
# Elastic Compliance Matrix: (Units=1/GPa)
#
#
# Indices 1 2 3 4 5 6 
#
# 1 0.032970 -0.001178 -0.002222 0.000000 0.005361 0.000000
# 2 -0.001178 0.010547 -0.002113 0.000000 0.000291 0.000000
# 3 -0.002222 -0.002113 0.011854 0.000000 -0.009579 0.000000
# 4 0.000000 0.000000 0.000000 0.067668 0.000000 -0.058549
# 5 0.005361 0.000291 -0.009579 0.000000 0.082240 0.000000
# 6 0.000000 0.000000 0.000000 -0.058549 0.000000 0.208119
#
#
# Mechanical properties :
#
#
# Convention : Reuss Voigt Hill
#
# Bulk Modulus (GPa) = 22.55024 32.02845 27.28934
# Shear Modulus (GPa) = 11.38420 21.08915 16.23667
#
# Velocity S-wave (km/s) = 2.48999 3.38904 2.97369
# Velocity P-wave (km/s) = 4.53300 5.72341 5.16263
#
# Compressibility (1/GPa) = 0.04434543
#
# Stress axis : x y z
#
# Youngs Moduli (GPa) = 30.33070 94.81693 84.35622
#
# Poissons Ratio (x) = 0.11167 0.18743
# Poissons Ratio (y) = 0.03572 0.17825
# Poissons Ratio (z) = 0.06739 0.20035
#
# Static dielectric constant tensor:
#      x y z
#    x 2.949010 0.000000 -0.022330 
#    y 0.000000 3.383140 0.000000 
#    z -0.022330 0.000000 3.750150 
# 
# 
# High freq. dielectric constant tensor:
#      x y z
#    x 1.660010 0.000000 0.012450 
#    y 0.000000 1.705190 0.000000 
#    z 0.012450 0.000000 1.730240 
# 
# From -- ./inp_files/168837.got.cif
#   From: 2010.06.25/outbox.cif.g09.slc.cpg/sg12_85_cif.got.tgz:168837.got - 2010.06.28 00:19:55.
