data_PCOD8079143
_publ_section_title
;
Structure prediction by ZEFSAII (Michael W. Deem and Ramdas Pophale) SiO2 
 PCOD8079143
Probable space group: C 2/M
;
_chemical_formula_sum "Si O2"
_cell_formula_units_Z 56
_cell_length_a 25.811355
_cell_length_b 14.834191
_cell_length_c 22.734954
_cell_angle_alpha 90.000000
_cell_angle_beta 157.871226
_cell_angle_gamma 90.000000
_cell_volume 3279.082076
_symmetry_space_group_name_H-M "C 2/M"
_symmetry_group_IT_number 12
_symmetry_cell_setting 'monoclinic'
loop_
_space_group_symop_operation_xyz
x,y,z
-x,y,-z
-x,-y,-z
x,-y,z
1/2+x,1/2+y,z
1/2-x,1/2+y,-z
1/2-x,1/2-y,-z
1/2+x,1/2-y,z
loop_
_atom_site_type_symbol
_atom_site_label
_atom_site_fract_x
_atom_site_fract_y
_atom_site_fract_z
Si Si1 0.940830 0.897131 0.568966
Si Si2 0.882119 0.186849 0.833594
Si Si3 0.352254 0.293727 0.364536
Si Si4 0.101784 0.100447 0.265227
Si Si5 0.263217 0.604947 0.157656
Si Si6 0.267662 0.898005 0.551714
Si Si7 0.998579 0.283707 0.854094
O O1 0.861915 0.839635 0.437728
O O2 0.871958 0.875575 0.559129
O O3 0.103682 0.875830 0.743046
O O4 0.921155 0.000000 0.529181
O O5 0.752492 0.210715 0.738423
O O6 0.841136 0.111377 0.741789
O O7 0.939666 0.276446 0.859226
O O8 0.000000 0.147707 0.000000
O O9 0.500000 0.255022 0.500000
O O10 0.296269 0.366324 0.259038
O O11 0.230779 0.115387 0.444466
O O12 0.987281 0.179538 0.154891
O O13 0.038609 0.000000 0.207998
O O14 0.220329 0.500000 0.112282
O O15 0.142278 0.664978 0.003114
O O16 0.391633 0.833510 0.699232
O O17 0.315291 0.000000 0.614844
#
# Coordination Sequence:
#
# PCOD8079143 Si02
#       7
#     8   8   8   8   8   8   8
#     4   9  17  28  45  68 101 137 168 191 230 293
#     4  10  19  33  50  73  98 124 168 203 254 285
#     4  10  17  29  46  69 100 137 168 194 234 296
#     4   9  20  34  54  73  95 127 171 215 246 283
#     4  10  19  30  44  71 107 138 160 195 243 295
#     4  10  18  32  52  77 100 132 167 197 238 295
#     4  10  19  31  50  72 103 125 161 202 250 288
#
# _framework density 17.077950000000001
#
# number of rings (size 3 to 8) (size 9 to 14) (size 15 to 20)
#    0.857    1.429    2.857    1.286    0.000    2.000 
#    0.000    1.429    0.000    2.143    0.000   14.000 
#    0.000    0.000    0.000    0.000    0.000    0.000 
#
# Total GULP energy -346945.924544 kJ/mol
# GULP energy per Si atom -12390.925877 kJ/mol
# Density = 1.703908 g / cm^3
# Si number density = 17.077950 Si / 1000 Ang^3
#
#
#
# Elastic Constant Matrix: (Units=GPa)
#
#
# Indices 1 2 3 4 5 6 
#
# 1 65.3415 25.5723 43.5954 -0.0016 -11.1483 -0.0016
# 2 25.5723 97.2569 55.7756 0.0039 -0.1270 0.0026
# 3 43.5954 55.7756 108.6490 0.0039 -1.8165 0.0025
# 4 -0.0016 0.0039 0.0039 16.5334 0.0021 -10.9676
# 5 -11.1483 -0.1270 -1.8165 0.0021 25.2134 0.0011
# 6 -0.0016 0.0026 0.0025 -10.9676 0.0011 19.8441
#
#
#
# Elastic Compliance Matrix: (Units=1/GPa)
#
#
# Indices 1 2 3 4 5 6 
#
# 1 0.023065 -0.001185 -0.008486 0.000008 0.009581 0.000007
# 2 -0.001185 0.014639 -0.007055 -0.000004 -0.000959 -0.000003
# 3 -0.008486 -0.007055 0.016187 -0.000006 -0.002621 -0.000005
# 4 0.000008 -0.000004 -0.000006 0.095495 -0.000007 0.052779
# 5 0.009581 -0.000959 -0.002621 -0.000007 0.043704 -0.000005
# 6 0.000007 -0.000003 -0.000005 0.052779 -0.000005 0.079563
#
#
# Mechanical properties :
#
#
# Convention : Reuss Voigt Hill
#
# Bulk Modulus (GPa) = 48.93088 57.90379 53.41734
# Shear Modulus (GPa) = 15.97866 22.07179 19.02523
#
# Velocity S-wave (km/s) = 3.06213 3.59892 3.34132
# Velocity P-wave (km/s) = 6.41996 7.15883 6.79944
#
# Compressibility (1/GPa) = 0.02043699
#
# Stress axis : x y z
#
# Youngs Moduli (GPa) = 43.35662 68.31283 61.77835
#
# Poissons Ratio (x) = 0.08098 0.52425
# Poissons Ratio (y) = 0.05140 0.43586
# Poissons Ratio (z) = 0.36792 0.48196
#
# Static dielectric constant tensor:
#      x y z
#    x 3.102740 0.000000 -0.054950 
#    y 0.000000 3.038870 0.000000 
#    z -0.054950 0.000000 3.118390 
# 
# 
# High freq. dielectric constant tensor:
#      x y z
#    x 1.644480 0.000000 -0.016020 
#    y 0.000000 1.642440 0.000000 
#    z -0.016020 0.000000 1.652080 
# 
# From -- ./inp_files/352237.got.cif
#   From: 2010.06.25/outbox.cif.g09.slc.cpg/sg12_177_cif.got.tgz:352237.got - 2010.06.28 00:19:55.
