data_PCOD8079352
_publ_section_title
;
Structure prediction by ZEFSAII (Michael W. Deem and Ramdas Pophale) SiO2 
 PCOD8079352
Probable space group: C 2/M
;
_chemical_formula_sum "Si O2"
_cell_formula_units_Z 60
_cell_length_a 20.547496
_cell_length_b 16.078906
_cell_length_c 11.452283
_cell_angle_alpha 90.000000
_cell_angle_beta 65.652100
_cell_angle_gamma 90.000000
_cell_volume 3447.100458
_symmetry_space_group_name_H-M "C 2/M"
_symmetry_group_IT_number 12
_symmetry_cell_setting 'monoclinic'
loop_
_space_group_symop_operation_xyz
x,y,z
-x,y,-z
-x,-y,-z
x,-y,z
1/2+x,1/2+y,z
1/2-x,1/2+y,-z
1/2-x,1/2-y,-z
1/2+x,1/2-y,z
loop_
_atom_site_type_symbol
_atom_site_label
_atom_site_fract_x
_atom_site_fract_y
_atom_site_fract_z
Si Si1 0.758716 0.312056 0.165739
Si Si2 0.605046 0.403798 0.640685
Si Si3 0.352849 0.093910 0.660988
Si Si4 0.500000 0.163342 0.500000
Si Si5 0.868622 0.906936 0.650870
Si Si6 0.025386 0.791046 0.288816
Si Si7 0.766997 0.799808 0.369860
Si Si8 0.650680 0.194254 0.112524
O O1 0.712337 0.389772 0.246860
O O2 0.791774 0.264760 0.252318
O O3 0.708135 0.255124 0.125862
O O4 0.824519 0.338971 0.033122
O O5 0.591914 0.500000 0.685291
O O6 0.626135 0.394782 0.490774
O O7 0.534369 0.350120 0.724871
O O8 0.670736 0.367566 0.665168
O O9 0.432342 0.103370 0.554081
O O10 0.304137 0.154560 0.620482
O O11 0.354649 0.115928 0.797002
O O12 0.325825 0.000000 0.665876
O O13 0.489248 0.220303 0.393882
O O14 0.925023 0.845310 0.664052
O O15 0.889414 0.000000 0.672578
O O16 0.075487 0.744850 0.155737
O O17 0.750000 0.750000 0.500000
#
# Coordination Sequence:
#
# PCOD8079352 Si02
#       8
#     8   8   8   4   8   8   8   8
#     4   9  17  34  50  72  98 129 173 214 248 305
#     4  11  20  30  47  76 108 137 167 206 261 315
#     4  10  20  33  51  76 104 130 170 223 270 306
#     4  10  17  30  51  74  96 132 172 218 263 304
#     4  10  18  28  48  77 105 130 164 215 267 305
#     4  10  17  31  50  73 103 136 174 214 257 306
#     4  11  20  33  51  73 105 142 174 206 255 317
#     4   8  18  32  54  71  92 131 174 213 258 301
#
# _framework density 17.405933000000001
#
# number of rings (size 3 to 8) (size 9 to 14) (size 15 to 20)
#    0.000    2.133    2.667    2.600    0.000    1.600 
#    0.000    0.667    0.000    3.200    0.000    0.000 
#    0.000    6.400    0.000    0.000    0.000    0.000 
#
# Total GULP energy -371884.691963 kJ/mol
# GULP energy per Si atom -12396.156399 kJ/mol
# Density = 1.736632 g / cm^3
# Si number density = 17.405933 Si / 1000 Ang^3
#
#
#
# Elastic Constant Matrix: (Units=GPa)
#
#
# Indices 1 2 3 4 5 6 
#
# 1 79.0314 23.6247 36.0470 0.0000 -6.1111 0.0000
# 2 23.6247 72.7854 32.1025 0.0000 0.7139 0.0000
# 3 36.0470 32.1025 106.4524 0.0000 -12.9851 0.0000
# 4 0.0000 0.0000 0.0000 16.3236 0.0000 -0.5177
# 5 -6.1111 0.7139 -12.9851 0.0000 17.6106 0.0000
# 6 0.0000 0.0000 0.0000 -0.5177 0.0000 24.1480
#
#
#
# Elastic Compliance Matrix: (Units=1/GPa)
#
#
# Indices 1 2 3 4 5 6 
#
# 1 0.015674 -0.003362 -0.003971 0.000000 0.002648 0.000000
# 2 -0.003362 0.016911 -0.004601 0.000000 -0.005245 0.000000
# 3 -0.003971 -0.004601 0.013165 0.000000 0.008516 0.000000
# 4 0.000000 0.000000 0.000000 0.061303 0.000000 0.001314
# 5 0.002648 -0.005245 0.008516 0.000000 0.064194 0.000000
# 6 0.000000 0.000000 0.000000 0.001314 0.000000 0.041439
#
#
# Mechanical properties :
#
#
# Convention : Reuss Voigt Hill
#
# Bulk Modulus (GPa) = 45.69977 49.09084 47.39530
# Shear Modulus (GPa) = 20.50457 22.71611 21.61034
#
# Velocity S-wave (km/s) = 3.43596 3.61651 3.52739
# Velocity P-wave (km/s) = 6.48485 6.76044 6.62408
#
# Compressibility (1/GPa) = 0.02188195
#
# Stress axis : x y z
#
# Youngs Moduli (GPa) = 63.79982 59.13277 75.96077
#
# Poissons Ratio (x) = 0.19881 0.30162
# Poissons Ratio (y) = 0.21450 0.34950
# Poissons Ratio (z) = 0.25333 0.27208
#
# Static dielectric constant tensor:
#      x y z
#    x 3.147530 0.000000 -0.225010 
#    y 0.000000 3.238740 0.000000 
#    z -0.225010 0.000000 3.500740 
# 
# 
# High freq. dielectric constant tensor:
#      x y z
#    x 1.656190 0.000000 -0.016880 
#    y 0.000000 1.669480 0.000000 
#    z -0.016880 0.000000 1.662820 
# 
# From -- ./inp_files/167199.got.cif
#   From: 2010.06.25/outbox.cif.g09.slc.cpg/sg12_84_cif.got.tgz:167199.got - 2010.06.28 00:19:55.
