data_PCOD8079512
_publ_section_title
;
Structure prediction by ZEFSAII (Michael W. Deem and Ramdas Pophale) SiO2 
 PCOD8079512
Probable space group: C 2/M
;
_chemical_formula_sum "Si O2"
_cell_formula_units_Z 64
_cell_length_a 15.190841
_cell_length_b 30.347844
_cell_length_c 11.704991
_cell_angle_alpha 90.000000
_cell_angle_beta 148.045699
_cell_angle_gamma 90.000000
_cell_volume 2855.851472
_symmetry_space_group_name_H-M "C 2/M"
_symmetry_group_IT_number 12
_symmetry_cell_setting 'monoclinic'
loop_
_space_group_symop_operation_xyz
x,y,z
-x,y,-z
-x,-y,-z
x,-y,z
1/2+x,1/2+y,z
1/2-x,1/2+y,-z
1/2-x,1/2-y,-z
1/2+x,1/2-y,z
loop_
_atom_site_type_symbol
_atom_site_label
_atom_site_fract_x
_atom_site_fract_y
_atom_site_fract_z
Si Si1 0.960560 0.192553 0.144968
Si Si2 0.519217 0.862302 0.892645
Si Si3 0.405973 0.374472 0.275625
Si Si4 0.442030 0.951731 0.707479
Si Si5 0.742501 0.824744 0.705846
Si Si6 0.675754 0.075585 0.646502
Si Si7 0.088220 0.722669 0.358131
Si Si8 0.186028 0.951012 0.975654
O O1 0.986070 0.163612 0.286473
O O2 0.105586 0.181686 0.215174
O O3 0.941600 0.243519 0.165098
O O4 0.788668 0.183146 0.888988
O O5 0.712432 0.864233 0.075276
O O6 0.500000 0.847401 0.000000
O O7 0.426602 0.909931 0.775436
O O8 0.427584 0.824263 0.721472
O O9 0.500000 0.377766 0.500000
O O10 0.428208 0.420057 0.229739
O O11 0.303222 0.948142 0.453592
O O12 0.418364 0.000000 0.741876
O O13 0.624468 0.948390 0.854970
O O14 0.667569 0.872891 0.612763
O O15 0.601914 0.789838 0.508269
O O16 0.500000 0.058873 0.500000
O O17 0.820575 0.063716 0.897359
O O18 0.250000 0.750000 0.500000
O O19 0.112872 0.000000 0.883289
#
# Coordination Sequence:
#
# PCOD8079512 Si02
#       8
#     8   8   8   8   8   8   8   8
#     4  10  23  40  60  89 122 167 210 252 314 369
#     4  11  25  41  64  91 126 168 213 262 312 376
#     4  11  25  41  63  91 127 171 215 266 308 372
#     4   9  18  34  58  93 124 156 200 256 322 373
#     4  10  20  37  64  89 122 162 201 265 310 374
#     4  10  17  31  60  93 122 154 197 257 319 371
#     4  10  23  39  66  93 123 165 208 257 318 379
#     4   9  18  35  58  88 126 163 205 253 310 381
#
# _framework density 22.410129000000001
#
# number of rings (size 3 to 8) (size 9 to 14) (size 15 to 20)
#    0.000    2.000    2.500    0.375    7.000    2.500 
#    0.000    0.625    0.000    3.750    0.000    0.000 
#    0.000    0.000    0.000    0.000    0.000    0.000 
#
# Total GULP energy -396488.598257 kJ/mol
# GULP energy per Si atom -12390.268696 kJ/mol
# Density = 2.235912 g / cm^3
# Si number density = 22.410129 Si / 1000 Ang^3
#
#
#
# Elastic Constant Matrix: (Units=GPa)
#
#
# Indices 1 2 3 4 5 6 
#
# 1 33.0060 14.3057 22.9509 0.0000 -18.6802 0.0000
# 2 14.3057 170.0564 55.8459 0.0000 -19.2808 0.0000
# 3 22.9509 55.8459 120.9568 0.0000 -38.7620 0.0000
# 4 0.0000 0.0000 0.0000 43.0238 0.0000 -13.0166
# 5 -18.6802 -19.2808 -38.7620 0.0000 33.0543 0.0000
# 6 0.0000 0.0000 0.0000 -13.0166 0.0000 27.7033
#
#
#
# Elastic Compliance Matrix: (Units=1/GPa)
#
#
# Indices 1 2 3 4 5 6 
#
# 1 0.044694 -0.000914 -0.000216 0.000000 0.024471 0.000000
# 2 -0.000914 0.006955 -0.003049 0.000000 -0.000035 0.000000
# 3 -0.000216 -0.003049 0.014590 0.000000 0.015209 0.000000
# 4 0.000000 0.000000 0.000000 0.027094 0.000000 0.012731
# 5 0.024471 -0.000035 0.015209 0.000000 0.061897 0.000000
# 6 0.000000 0.000000 0.000000 0.012731 0.000000 0.042078
#
#
# Mechanical properties :
#
#
# Convention : Reuss Voigt Hill
#
# Bulk Modulus (GPa) = 17.27715 56.69159 36.98437
# Shear Modulus (GPa) = 22.22619 36.15074 29.18846
#
# Velocity S-wave (km/s) = 3.15269 4.02075 3.61289
# Velocity P-wave (km/s) = 4.58027 6.84890 5.82608
#
# Compressibility (1/GPa) = 0.05787991
#
# Stress axis : x y z
#
# Youngs Moduli (GPa) = 22.37437 143.79166 68.54104
#
# Poissons Ratio (x) = 0.13147 0.01482
# Poissons Ratio (y) = 0.02046 0.20896
# Poissons Ratio (z) = 0.00484 0.43838
#
# Static dielectric constant tensor:
#      x y z
#    x 3.613410 0.000000 -0.535900 
#    y 0.000000 4.506250 0.000000 
#    z -0.535900 0.000000 4.326160 
# 
# 
# High freq. dielectric constant tensor:
#      x y z
#    x 1.846360 0.000000 -0.020230 
#    y 0.000000 1.896310 0.000000 
#    z -0.020230 0.000000 1.886970 
# 
# From -- ./inp_files/161223.got.cif
#   From: 2010.06.25/outbox.cif.g09.slc.cpg/sg12_81_cif.got.tgz:161223.got - 2010.06.28 00:19:55.
