data_PCOD8079864
_publ_section_title
;
Structure prediction by ZEFSAII (Michael W. Deem and Ramdas Pophale) SiO2 
 PCOD8079864
Probable space group: C 2/M
;
_chemical_formula_sum "Si O2"
_cell_formula_units_Z 56
_cell_length_a 27.494011
_cell_length_b 21.792690
_cell_length_c 18.707818
_cell_angle_alpha 90.000000
_cell_angle_beta 17.271402
_cell_angle_gamma 90.000000
_cell_volume 3327.972835
_symmetry_space_group_name_H-M "C 2/M"
_symmetry_group_IT_number 12
_symmetry_cell_setting 'monoclinic'
loop_
_space_group_symop_operation_xyz
x,y,z
-x,y,-z
-x,-y,-z
x,-y,z
1/2+x,1/2+y,z
1/2-x,1/2+y,-z
1/2-x,1/2-y,-z
1/2+x,1/2-y,z
loop_
_atom_site_type_symbol
_atom_site_label
_atom_site_fract_x
_atom_site_fract_y
_atom_site_fract_z
Si Si1 0.486599 0.292155 0.192479
Si Si2 0.569196 0.929246 0.099157
Si Si3 0.663038 0.930394 0.813307
Si Si4 0.310925 0.829508 0.476880
Si Si5 0.568863 0.344878 0.585298
Si Si6 0.603489 0.569736 0.283107
Si Si7 0.331682 0.260035 0.197343
O O1 0.437862 0.222063 0.273900
O O2 0.334790 0.332207 0.376313
O O3 0.537259 0.323101 0.197058
O O4 0.633831 0.289644 0.928835
O O5 0.403952 0.893882 0.351636
O O6 0.518754 0.000000 0.159774
O O7 0.643369 0.903037 0.920774
O O8 0.704450 0.920803 0.970802
O O9 0.807074 0.898626 0.566924
O O10 0.715606 0.000000 0.746035
O O11 0.500000 0.919029 0.000000
O O12 0.236325 0.815162 0.659063
O O13 0.445821 0.374406 0.700115
O O14 0.689155 0.290663 0.388269
O O15 0.500000 0.576744 0.500000
O O16 0.575297 0.500000 0.292080
O O17 0.500000 0.234322 0.000000
#
# Coordination Sequence:
#
# PCOD8079864 Si02
#       7
#     8   8   8   8   8   8   8
#     4   9  18  30  49  77 100 128 160 198 249 299
#     4  10  19  32  51  70  95 130 167 203 240 293
#     4  10  18  26  42  71  99 119 148 199 250 292
#     4   9  17  32  52  73 101 129 161 199 248 303
#     4  11  18  29  50  70  97 131 164 197 238 292
#     4  10  20  34  49  70  99 135 167 198 246 293
#     4   9  18  32  51  74 102 133 160 198 248 299
#
# _framework density 16.827059999999999
#
# number of rings (size 3 to 8) (size 9 to 14) (size 15 to 20)
#    0.000    2.286    1.429    3.429    0.000    0.000 
#    0.000    3.571    0.000    5.571    0.000    2.000 
#    0.000    0.000    0.000    0.000    0.000    0.000 
#
# Total GULP energy -346972.048441 kJ/mol
# GULP energy per Si atom -12391.858873 kJ/mol
# Density = 1.678876 g / cm^3
# Si number density = 16.827060 Si / 1000 Ang^3
#
#
#
# Elastic Constant Matrix: (Units=GPa)
#
#
# Indices 1 2 3 4 5 6 
#
# 1 92.4659 46.4308 32.0648 -0.0144 5.8366 0.0114
# 2 46.4308 74.9068 38.9418 -0.0040 3.7552 -0.0024
# 3 32.0648 38.9418 56.0070 -0.0473 14.4932 0.0198
# 4 -0.0144 -0.0040 -0.0473 20.8456 0.0121 -2.3448
# 5 5.8366 3.7552 14.4932 0.0121 33.8648 -0.0079
# 6 0.0114 -0.0024 0.0198 -2.3448 -0.0079 23.7768
#
#
#
# Elastic Compliance Matrix: (Units=1/GPa)
#
#
# Indices 1 2 3 4 5 6 
#
# 1 0.016152 -0.008204 -0.003439 0.000001 -0.000402 -0.000006
# 2 -0.008204 0.025671 -0.014373 -0.000034 0.004719 0.000017
# 3 -0.003439 -0.014373 0.032895 0.000074 -0.011892 -0.000024
# 4 0.000001 -0.000034 0.000074 0.048510 -0.000044 0.004784
# 5 -0.000402 0.004719 -0.011892 -0.000044 0.034165 0.000018
# 6 -0.000006 0.000017 -0.000024 0.004784 0.000018 0.042530
#
#
# Mechanical properties :
#
#
# Convention : Reuss Voigt Hill
#
# Bulk Modulus (GPa) = 44.08107 50.91716 47.49911
# Shear Modulus (GPa) = 19.26661 22.76024 21.01343
#
# Velocity S-wave (km/s) = 3.38742 3.68176 3.53765
# Velocity P-wave (km/s) = 6.44616 6.95691 6.70640
#
# Compressibility (1/GPa) = 0.02268548
#
# Stress axis : x y z
#
# Youngs Moduli (GPa) = 61.91070 38.95489 30.39989
#
# Poissons Ratio (x) = 0.31958 0.10455
# Poissons Ratio (y) = 0.50791 0.43694
# Poissons Ratio (z) = 0.21292 0.55991
#
# Static dielectric constant tensor:
#      x y z
#    x 3.255070 -0.000030 0.093630 
#    y -0.000030 3.068220 0.000040 
#    z 0.093630 0.000040 3.074860 
# 
# 
# High freq. dielectric constant tensor:
#      x y z
#    x 1.640780 0.000000 0.001270 
#    y 0.000000 1.637760 0.000000 
#    z 0.001270 0.000000 1.627790 
# 
# From -- ./inp_files/184613.got.cif
#   From: 2010.06.25/outbox.cif.g09.slc.cpg/sg12_93_cif.got.tgz:184613.got - 2010.06.28 00:19:55.
