data_PCOD8079851
_publ_section_title
;
Structure prediction by ZEFSAII (Michael W. Deem and Ramdas Pophale) SiO2 
 PCOD8079851
Probable space group: C 2/M
;
_chemical_formula_sum "Si O2"
_cell_formula_units_Z 56
_cell_length_a 17.634820
_cell_length_b 13.864731
_cell_length_c 12.810809
_cell_angle_alpha 90.000000
_cell_angle_beta 75.255269
_cell_angle_gamma 90.000000
_cell_volume 3029.121222
_symmetry_space_group_name_H-M "C 2/M"
_symmetry_group_IT_number 12
_symmetry_cell_setting 'monoclinic'
loop_
_space_group_symop_operation_xyz
x,y,z
-x,y,-z
-x,-y,-z
x,-y,z
1/2+x,1/2+y,z
1/2-x,1/2+y,-z
1/2-x,1/2-y,-z
1/2+x,1/2-y,z
loop_
_atom_site_type_symbol
_atom_site_label
_atom_site_fract_x
_atom_site_fract_y
_atom_site_fract_z
Si Si1 0.590693 0.607057 0.498675
Si Si2 0.208912 0.114331 0.037974
Si Si3 0.081655 0.114738 0.920663
Si Si4 0.943255 0.203960 0.287317
Si Si5 0.119074 0.387962 0.004664
Si Si6 0.964478 0.611229 0.174206
Si Si7 0.390439 0.613210 0.732382
O O1 0.500000 0.607326 0.500000
O O2 0.617241 0.500000 0.523419
O O3 0.606118 0.677204 0.591448
O O4 0.636492 0.640079 0.377061
O O5 0.150570 0.157205 0.970729
O O6 0.296642 0.159180 0.994587
O O7 0.210429 0.000000 0.022450
O O8 0.178829 0.141046 0.164489
O O9 0.095565 0.155566 0.800358
O O10 0.083363 0.000000 0.914442
O O11 0.000000 0.150473 0.000000
O O12 0.941680 0.320564 0.279044
O O13 0.032243 0.169382 0.261823
O O14 0.133095 0.500000 0.978736
O O15 0.057030 0.373937 0.119323
O O16 0.084073 0.348378 0.908253
O O17 0.945729 0.500000 0.208064
O O18 0.411453 0.500000 0.730960
#
# Coordination Sequence:
#
# PCOD8079851 Si02
#       7
#     8   8   8   8   8   8   8
#     4   8  15  27  45  69  96 125 156 183 215 273
#     4   9  16  27  46  71  99 129 151 179 228 286
#     4  10  18  26  40  69 108 131 142 169 223 295
#     4  11  18  27  46  66  95 130 156 185 229 280
#     4   8  16  32  48  63  88 123 165 200 233 271
#     4   9  19  33  48  63  84 119 165 216 242 258
#     4   9  16  28  47  73 100 124 151 182 219 279
#
# _framework density 18.487210000000001
#
# number of rings (size 3 to 8) (size 9 to 14) (size 15 to 20)
#    0.000    2.857    1.429    3.000    2.000    0.000 
#    0.000    2.857    0.000    4.714    0.000    2.000 
#    0.000   13.714    0.000    0.000    0.000   12.571 
#
# Total GULP energy -347023.479944 kJ/mol
# GULP energy per Si atom -12393.695712 kJ/mol
# Density = 1.844513 g / cm^3
# Si number density = 18.487210 Si / 1000 Ang^3
#
#
#
# Elastic Constant Matrix: (Units=GPa)
#
#
# Indices 1 2 3 4 5 6 
#
# 1 105.0987 21.0001 43.9904 0.0000 4.7604 0.0000
# 2 21.0001 56.0330 44.0547 0.0000 13.0922 0.0000
# 3 43.9904 44.0547 130.9081 0.0000 23.9350 0.0000
# 4 0.0000 0.0000 0.0000 19.0887 0.0000 3.4415
# 5 4.7604 13.0922 23.9350 0.0000 13.9621 0.0000
# 6 0.0000 0.0000 0.0000 3.4415 0.0000 14.3449
#
#
#
# Elastic Compliance Matrix: (Units=1/GPa)
#
#
# Indices 1 2 3 4 5 6 
#
# 1 0.011420 -0.002346 -0.003989 0.000000 0.005144 0.000000
# 2 -0.002346 0.026415 -0.005416 0.000000 -0.014685 0.000000
# 3 -0.003989 -0.005416 0.014019 0.000000 -0.017594 0.000000
# 4 0.000000 0.000000 0.000000 0.054755 0.000000 -0.013137
# 5 0.005144 -0.014685 -0.017594 0.000000 0.113799 0.000000
# 6 0.000000 0.000000 0.000000 -0.013137 0.000000 0.072863
#
#
# Mechanical properties :
#
#
# Convention : Reuss Voigt Hill
#
# Bulk Modulus (GPa) = 35.27013 56.68112 45.97563
# Shear Modulus (GPa) = 15.32686 21.67878 18.50282
#
# Velocity S-wave (km/s) = 2.88245 3.42809 3.16704
# Velocity P-wave (km/s) = 5.49523 6.81141 6.18841
#
# Compressibility (1/GPa) = 0.02835260
#
# Stress axis : x y z
#
# Youngs Moduli (GPa) = 87.56482 37.85662 71.33258
#
# Poissons Ratio (x) = 0.08881 0.28452
# Poissons Ratio (y) = 0.20542 0.38636
# Poissons Ratio (z) = 0.34926 0.20505
#
# Static dielectric constant tensor:
#      x y z
#    x 3.473080 0.000000 0.073550 
#    y 0.000000 3.254960 0.000000 
#    z 0.073550 0.000000 3.574440 
# 
# 
# High freq. dielectric constant tensor:
#      x y z
#    x 1.689280 0.000000 0.010090 
#    y 0.000000 1.712900 0.000000 
#    z 0.010090 0.000000 1.697420 
# 
# From -- ./inp_files/155978.got.cif
#   From: 2010.06.25/outbox.cif.g09.slc.cpg/sg12_78_cif.got.tgz:155978.got - 2010.06.28 00:19:55.
