data_PCOD8079306
_publ_section_title
;
Structure prediction by ZEFSAII (Michael W. Deem and Ramdas Pophale) SiO2 
 PCOD8079306
Probable space group: C 2/M
;
_chemical_formula_sum "Si O2"
_cell_formula_units_Z 56
_cell_length_a 9.521347
_cell_length_b 20.792188
_cell_length_c 16.718025
_cell_angle_alpha 90.000000
_cell_angle_beta 73.289589
_cell_angle_gamma 90.000000
_cell_volume 3169.895213
_symmetry_space_group_name_H-M "C 2/M"
_symmetry_group_IT_number 12
_symmetry_cell_setting 'monoclinic'
loop_
_space_group_symop_operation_xyz
x,y,z
-x,y,-z
-x,-y,-z
x,-y,z
1/2+x,1/2+y,z
1/2-x,1/2+y,-z
1/2-x,1/2-y,-z
1/2+x,1/2-y,z
loop_
_atom_site_type_symbol
_atom_site_label
_atom_site_fract_x
_atom_site_fract_y
_atom_site_fract_z
Si Si1 0.686407 0.754218 0.678974
Si Si2 0.520445 0.184655 0.404248
Si Si3 0.898050 0.573585 0.725730
Si Si4 0.088118 0.354525 0.818950
Si Si5 0.804250 0.847679 0.917298
Si Si6 0.297753 0.197419 0.912826
Si Si7 0.622295 0.646522 0.800076
O O1 0.621424 0.779064 0.606213
O O2 0.850822 0.734389 0.634404
O O3 0.685119 0.813294 0.741588
O O4 0.595419 0.692071 0.727070
O O5 0.500000 0.169245 0.500000
O O6 0.546465 0.116949 0.356450
O O7 0.926426 0.500000 0.698866
O O8 0.720956 0.583316 0.765102
O O9 0.994364 0.589935 0.789443
O O10 0.196240 0.382058 0.870740
O O11 0.973213 0.307881 0.881603
O O12 0.766792 0.772157 0.931549
O O13 0.968329 0.869608 0.867776
O O14 0.768084 0.859576 0.017195
O O15 0.229724 0.187925 0.837317
#
# Coordination Sequence:
#
# PCOD8079306 Si02
#       7
#     8   8   8   8   8   8   8
#     4  10  17  30  47  74 104 128 158 190 253 312
#     4  10  20  32  53  79 104 127 152 203 258 314
#     4   9  21  38  53  68  93 138 180 210 246 290
#     4  10  18  30  49  70 102 136 167 208 243 298
#     4  11  17  26  45  76 106 133 161 202 254 301
#     4  10  18  26  43  74 113 134 155 197 256 307
#     4  10  18  30  49  70 102 136 167 208 243 298
#
# _framework density 17.666198999999999
#
# number of rings (size 3 to 8) (size 9 to 14) (size 15 to 20)
#    0.000    2.000    2.857    3.000    0.000    2.571 
#    0.000    0.714    0.000   13.714    0.000    0.000 
#    0.000   13.714    0.000    0.000    0.000    0.000 
#
# Total GULP energy -346876.348801 kJ/mol
# GULP energy per Si atom -12388.441029 kJ/mol
# Density = 1.762599 g / cm^3
# Si number density = 17.666199 Si / 1000 Ang^3
#
#
#
# Elastic Constant Matrix: (Units=GPa)
#
#
# Indices 1 2 3 4 5 6 
#
# 1 73.3960 23.4370 16.9731 0.0000 1.9682 0.0000
# 2 23.4370 72.5605 19.8721 0.0000 6.6231 0.0000
# 3 16.9731 19.8721 81.6390 0.0000 5.2442 0.0000
# 4 0.0000 0.0000 0.0000 9.7144 0.0000 -0.8237
# 5 1.9682 6.6231 5.2442 0.0000 24.4999 0.0000
# 6 0.0000 0.0000 0.0000 -0.8237 0.0000 12.0137
#
#
#
# Elastic Compliance Matrix: (Units=1/GPa)
#
#
# Indices 1 2 3 4 5 6 
#
# 1 0.015541 -0.004464 -0.002172 0.000000 0.000423 0.000000
# 2 -0.004464 0.016310 -0.002821 0.000000 -0.003447 0.000000
# 3 -0.002172 -0.002821 0.013513 0.000000 -0.001955 0.000000
# 4 0.000000 0.000000 0.000000 0.103542 0.000000 0.007099
# 5 0.000423 -0.003447 -0.001955 0.000000 0.042133 0.000000
# 6 0.000000 0.000000 0.000000 0.007099 0.000000 0.083725
#
#
# Mechanical properties :
#
#
# Convention : Reuss Voigt Hill
#
# Bulk Modulus (GPa) = 37.80422 38.68442 38.24432
# Shear Modulus (GPa) = 16.52929 20.39983 18.46456
#
# Velocity S-wave (km/s) = 3.06215 3.40183 3.23645
# Velocity P-wave (km/s) = 5.82649 6.11350 5.97172
#
# Compressibility (1/GPa) = 0.02645207
#
# Stress axis : x y z
#
# Youngs Moduli (GPa) = 64.34633 61.31028 74.00403
#
# Poissons Ratio (x) = 0.27366 0.16071
# Poissons Ratio (y) = 0.28721 0.20875
# Poissons Ratio (z) = 0.13974 0.17294
#
# Static dielectric constant tensor:
#      x y z
#    x 3.363220 0.000000 0.044580 
#    y 0.000000 2.799040 0.000000 
#    z 0.044580 0.000000 3.460300 
# 
# 
# High freq. dielectric constant tensor:
#      x y z
#    x 1.690130 0.000000 0.002710 
#    y 0.000000 1.626720 0.000000 
#    z 0.002710 0.000000 1.686200 
# 
# From -- ./inp_files/257590.got.cif
#   From: 2010.06.25/outbox.cif.g09.slc.cpg/sg12_129_cif.got.tgz:257590.got - 2010.06.28 00:19:55.
