data_PCOD8079392
_publ_section_title
;
Structure prediction by ZEFSAII (Michael W. Deem and Ramdas Pophale) SiO2 
 PCOD8079392
Probable space group: C 2/M
;
_chemical_formula_sum "Si O2"
_cell_formula_units_Z 64
_cell_length_a 18.681653
_cell_length_b 19.661978
_cell_length_c 9.725283
_cell_angle_alpha 90.000000
_cell_angle_beta 94.366769
_cell_angle_gamma 90.000000
_cell_volume 3561.903913
_symmetry_space_group_name_H-M "C 2/M"
_symmetry_group_IT_number 12
_symmetry_cell_setting 'monoclinic'
loop_
_space_group_symop_operation_xyz
x,y,z
-x,y,-z
-x,-y,-z
x,-y,z
1/2+x,1/2+y,z
1/2-x,1/2+y,-z
1/2-x,1/2-y,-z
1/2+x,1/2-y,z
loop_
_atom_site_type_symbol
_atom_site_label
_atom_site_fract_x
_atom_site_fract_y
_atom_site_fract_z
Si Si1 0.065177 0.672757 0.737000
Si Si2 0.822209 0.164078 0.590308
Si Si3 0.838067 0.686785 0.495106
Si Si4 0.095488 0.810498 0.131136
Si Si5 0.077049 0.080065 0.574658
Si Si6 0.083441 0.575981 0.976894
Si Si7 0.096424 0.339436 0.222346
Si Si8 0.565867 0.326196 0.825671
O O1 0.099143 0.658765 0.593070
O O2 0.081151 0.750667 0.774822
O O3 0.981605 0.653506 0.718667
O O4 0.104234 0.624195 0.853247
O O5 0.845993 0.231778 0.511697
O O6 0.736532 0.160093 0.576732
O O7 0.844727 0.162664 0.754195
O O8 0.859988 0.100503 0.521823
O O9 0.845323 0.656764 0.648892
O O10 0.096061 0.728870 0.131551
O O11 0.018587 0.837901 0.167855
O O12 0.108657 0.836072 0.976653
O O13 0.092463 0.118179 0.720570
O O14 0.000000 0.101860 0.500000
O O15 0.080324 0.000000 0.602405
O O16 0.108329 0.500000 0.944789
O O17 0.120739 0.600833 0.123008
O O18 0.000000 0.581504 0.000000
#
# Coordination Sequence:
#
# PCOD8079392 Si02
#       8
#     8   8   8   8   8   8   8   8
#     4  10  17  30  53  82 108 136 179 226 265 314
#     4  10  20  36  51  77 110 140 173 229 275 326
#     4  10  20  32  54  79 105 138 185 224 273 315
#     4   9  17  30  53  79 107 133 174 226 274 312
#     4  11  22  37  57  82 109 145 182 222 280 335
#     4   9  17  31  50  76 109 139 170 216 270 319
#     4   9  17  30  51  80 106 139 179 222 264 313
#     4  10  17  31  55  82 105 133 179 228 266 323
#
# _framework density 17.967918000000001
#
# number of rings (size 3 to 8) (size 9 to 14) (size 15 to 20)
#    0.000    2.250    3.750    0.375    0.000    0.000 
#    0.000    5.625    0.000    3.000    0.000    0.000 
#    0.000    0.000    0.000    0.000    0.000    0.000 
#
# Total GULP energy -396703.809066 kJ/mol
# GULP energy per Si atom -12396.994033 kJ/mol
# Density = 1.792702 g / cm^3
# Si number density = 17.967918 Si / 1000 Ang^3
#
#
#
# Elastic Constant Matrix: (Units=GPa)
#
#
# Indices 1 2 3 4 5 6 
#
# 1 46.7996 19.5404 38.1911 0.0000 18.2877 0.0000
# 2 19.5404 82.3421 42.0310 0.0000 1.2096 0.0000
# 3 38.1911 42.0310 114.8807 0.0000 17.8070 0.0000
# 4 0.0000 0.0000 0.0000 26.9602 0.0000 -1.9942
# 5 18.2877 1.2096 17.8070 0.0000 25.4759 0.0000
# 6 0.0000 0.0000 0.0000 -1.9942 0.0000 13.2145
#
#
#
# Elastic Compliance Matrix: (Units=1/GPa)
#
#
# Indices 1 2 3 4 5 6 
#
# 1 0.038050 -0.004895 -0.007470 0.000000 -0.021860 0.000000
# 2 -0.004895 0.015845 -0.005156 0.000000 0.006366 0.000000
# 3 -0.007470 -0.005156 0.013688 0.000000 -0.003961 0.000000
# 4 0.000000 0.000000 0.000000 0.037510 0.000000 0.005661
# 5 -0.021860 0.006366 -0.003961 0.000000 0.057411 0.000000
# 6 0.000000 0.000000 0.000000 0.005661 0.000000 0.076529
#
#
# Mechanical properties :
#
#
# Convention : Reuss Voigt Hill
#
# Bulk Modulus (GPa) = 30.73181 49.28305 40.00743
# Shear Modulus (GPa) = 17.54861 22.74743 20.14802
#
# Velocity S-wave (km/s) = 3.12855 3.56195 3.35226
# Velocity P-wave (km/s) = 5.49466 6.66368 6.10720
#
# Compressibility (1/GPa) = 0.03253957
#
# Stress axis : x y z
#
# Youngs Moduli (GPa) = 26.28148 63.11260 73.05429
#
# Poissons Ratio (x) = 0.30896 0.54570
# Poissons Ratio (y) = 0.12866 0.37669
# Poissons Ratio (z) = 0.19632 0.32543
#
# Static dielectric constant tensor:
#      x y z
#    x 2.994730 0.000000 0.119090 
#    y 0.000000 3.119420 0.000000 
#    z 0.119090 0.000000 3.431640 
# 
# 
# High freq. dielectric constant tensor:
#      x y z
#    x 1.661730 0.000000 0.007120 
#    y 0.000000 1.668580 0.000000 
#    z 0.007120 0.000000 1.710970 
# 
# From -- ./inp_files/89178.got.cif
#   From: 2010.06.25/outbox.cif.g09.slc.cpg/sg12_45_cif.got.tgz:89178.got - 2010.06.28 00:19:55.
