data_PCOD8079396
_publ_section_title
;
Structure prediction by ZEFSAII (Michael W. Deem and Ramdas Pophale) SiO2 
 PCOD8079396
Probable space group: C 2/M
;
_chemical_formula_sum "Si O2"
_cell_formula_units_Z 64
_cell_length_a 12.464522
_cell_length_b 20.589167
_cell_length_c 24.823931
_cell_angle_alpha 90.000000
_cell_angle_beta 144.452810
_cell_angle_gamma 90.000000
_cell_volume 3703.736049
_symmetry_space_group_name_H-M "C 2/M"
_symmetry_group_IT_number 12
_symmetry_cell_setting 'monoclinic'
loop_
_space_group_symop_operation_xyz
x,y,z
-x,y,-z
-x,-y,-z
x,-y,z
1/2+x,1/2+y,z
1/2-x,1/2+y,-z
1/2-x,1/2-y,-z
1/2+x,1/2-y,z
loop_
_atom_site_type_symbol
_atom_site_label
_atom_site_fract_x
_atom_site_fract_y
_atom_site_fract_z
Si Si1 0.947511 0.832179 0.597269
Si Si2 0.042937 0.323413 0.890964
Si Si3 0.717386 0.343709 0.284721
Si Si4 0.376191 0.322913 0.087703
Si Si5 0.036630 0.926150 0.296377
Si Si6 0.672758 0.194460 0.297586
Si Si7 0.676693 0.124178 0.102620
Si Si8 0.593083 0.814058 0.386140
O O1 0.768660 0.844264 0.487772
O O2 0.925040 0.763181 0.617080
O O3 0.971023 0.888419 0.650488
O O4 0.123630 0.832756 0.630186
O O5 0.069279 0.247338 0.910903
O O6 0.975513 0.338973 0.803303
O O7 0.880616 0.342971 0.865048
O O8 0.241232 0.356684 0.987543
O O9 0.566684 0.361477 0.176569
O O10 0.697453 0.394430 0.325371
O O11 0.673254 0.272169 0.290270
O O12 0.917924 0.349724 0.340749
O O13 0.259643 0.320908 0.096349
O O14 0.839584 0.925769 0.184550
O O15 0.091323 0.000000 0.330739
O O16 0.609053 0.170767 0.329767
O O17 0.500000 0.090627 0.000000
#
# Coordination Sequence:
#
# PCOD8079396 Si02
#       8
#     8   8   8   8   8   8   8   8
#     4  10  20  34  52  78 102 132 179 216 273 304
#     4   9  15  25  44  72 102 137 166 203 262 312
#     4   9  19  32  48  75 108 136 171 207 266 311
#     4   8  16  25  42  69 106 139 161 205 260 310
#     4  11  21  36  55  77 109 139 176 220 262 313
#     4  10  17  30  54  76 107 128 171 223 258 316
#     4   9  17  31  48  73 109 138 176 214 254 312
#     4  10  20  33  53  74 104 137 169 224 261 322
#
# _framework density 17.279848999999999
#
# number of rings (size 3 to 8) (size 9 to 14) (size 15 to 20)
#    0.000    2.500    2.500    0.375    0.000    0.750 
#    0.000    1.875    0.000    2.250    0.000    0.000 
#    0.000    3.500    0.000    0.000    0.000    0.000 
#
# Total GULP energy -396500.259992 kJ/mol
# GULP energy per Si atom -12390.633125 kJ/mol
# Density = 1.724052 g / cm^3
# Si number density = 17.279849 Si / 1000 Ang^3
#
#
#
# Elastic Constant Matrix: (Units=GPa)
#
#
# Indices 1 2 3 4 5 6 
#
# 1 105.1110 29.7125 60.8317 0.0001 -3.0925 0.0000
# 2 29.7125 57.0141 21.0921 0.0000 -2.1668 0.0000
# 3 60.8317 21.0921 129.9409 0.0001 2.5124 0.0001
# 4 0.0001 0.0000 0.0001 10.9283 0.0001 -1.4646
# 5 -3.0925 -2.1668 2.5124 0.0001 28.2877 0.0000
# 6 0.0000 0.0000 0.0001 -1.4646 0.0000 12.4425
#
#
#
# Elastic Compliance Matrix: (Units=1/GPa)
#
#
# Indices 1 2 3 4 5 6 
#
# 1 0.014514 -0.005291 -0.005969 0.000000 0.001712 0.000000
# 2 -0.005291 0.020671 -0.000899 0.000000 0.001085 0.000000
# 3 -0.005969 -0.000899 0.010669 0.000000 -0.001669 0.000000
# 4 0.000000 0.000000 0.000000 0.092973 0.000000 0.010944
# 5 0.001712 0.001085 -0.001669 0.000000 0.035770 0.000000
# 6 0.000000 0.000000 0.000000 0.010944 0.000000 0.081658
#
#
# Mechanical properties :
#
#
# Convention : Reuss Voigt Hill
#
# Bulk Modulus (GPa) = 46.43612 57.25983 51.84797
# Shear Modulus (GPa) = 17.37616 22.36032 19.86824
#
# Velocity S-wave (km/s) = 3.17452 3.60114 3.39454
# Velocity P-wave (km/s) = 6.35359 7.10631 6.74046
#
# Compressibility (1/GPa) = 0.02153496
#
# Stress axis : x y z
#
# Youngs Moduli (GPa) = 68.89797 48.37763 93.73377
#
# Poissons Ratio (x) = 0.25595 0.55951
# Poissons Ratio (y) = 0.36452 0.08431
# Poissons Ratio (z) = 0.41126 0.04351
#
# Static dielectric constant tensor:
#      x y z
#    x 3.185490 0.000000 0.091270 
#    y 0.000000 2.635820 0.000000 
#    z 0.091270 0.000000 3.694870 
# 
# 
# High freq. dielectric constant tensor:
#      x y z
#    x 1.665770 0.000000 0.005460 
#    y 0.000000 1.596870 0.000000 
#    z 0.005460 0.000000 1.693170 
# 
# From -- ./inp_files/336693.got.cif
#   From: 2010.06.25/outbox.cif.g09.slc.cpg/sg12_169_cif.got.tgz:336693.got - 2010.06.28 00:19:55.
