data_PCOD8079465
_publ_section_title
;
Structure prediction by ZEFSAII (Michael W. Deem and Ramdas Pophale) SiO2 
 PCOD8079465
Probable space group: C 2/M
;
_chemical_formula_sum "Si O2"
_cell_formula_units_Z 56
_cell_length_a 28.675887
_cell_length_b 9.043579
_cell_length_c 14.437786
_cell_angle_alpha 90.000000
_cell_angle_beta 59.787164
_cell_angle_gamma 90.000000
_cell_volume 3235.586442
_symmetry_space_group_name_H-M "C 2/M"
_symmetry_group_IT_number 12
_symmetry_cell_setting 'monoclinic'
loop_
_space_group_symop_operation_xyz
x,y,z
-x,y,-z
-x,-y,-z
x,-y,z
1/2+x,1/2+y,z
1/2-x,1/2+y,-z
1/2-x,1/2-y,-z
1/2+x,1/2-y,z
loop_
_atom_site_type_symbol
_atom_site_label
_atom_site_fract_x
_atom_site_fract_y
_atom_site_fract_z
Si Si1 0.384291 0.330185 0.783101
Si Si2 0.835331 0.334422 0.674040
Si Si3 0.301751 0.176224 0.399617
Si Si4 0.508579 0.174698 0.385579
Si Si5 0.703727 0.671734 0.986943
Si Si6 0.604910 0.825428 0.561695
Si Si7 0.287273 0.333724 0.229507
O O1 0.397271 0.500000 0.751322
O O2 0.338822 0.273299 0.757689
O O3 0.439441 0.241476 0.716345
O O4 0.356255 0.306037 0.910938
O O5 0.853535 0.500000 0.685514
O O6 0.874338 0.265882 0.557619
O O7 0.776359 0.338065 0.690240
O O8 0.250000 0.250000 0.500000
O O9 0.356909 0.233257 0.394178
O O10 0.310764 0.226862 0.284790
O O11 0.294519 0.000000 0.411448
O O12 0.500000 0.231824 0.500000
O O13 0.457918 0.222114 0.370591
O O14 0.515809 0.000000 0.380504
O O15 0.720487 0.500000 0.966949
O O16 0.700392 0.732216 0.884969
O O17 0.750000 0.750000 0.000000
O O18 0.610704 0.000000 0.554195
O O19 0.311120 0.500000 0.216243
#
# Coordination Sequence:
#
# PCOD8079465 Si02
#       7
#     8   8   8   8   8   8   8
#     4  11  22  33  48  79 113 136 168 219 269 309
#     4  10  17  31  53  74 103 143 176 206 249 313
#     4  11  21  34  53  79 109 139 172 216 264 312
#     4  10  19  34  56  75  97 140 183 210 253 318
#     4  10  21  35  53  76 107 142 176 216 263 315
#     4   9  18  33  51  74 103 135 175 211 247 306
#     4  10  20  35  53  75 105 142 179 213 255 312
#
# _framework density 17.307528000000001
#
# number of rings (size 3 to 8) (size 9 to 14) (size 15 to 20)
#    0.000    1.857    4.286    0.857    0.000    2.000 
#    0.000    1.429    0.000    0.857    0.000    6.000 
#    0.000    0.000    0.000    0.000    0.000    0.000 
#
# Total GULP energy -347038.158283 kJ/mol
# GULP energy per Si atom -12394.219939 kJ/mol
# Density = 1.726814 g / cm^3
# Si number density = 17.307528 Si / 1000 Ang^3
#
#
#
# Elastic Constant Matrix: (Units=GPa)
#
#
# Indices 1 2 3 4 5 6 
#
# 1 113.2250 37.7058 48.5934 0.0000 5.5761 0.0000
# 2 37.7058 51.0417 33.9239 0.0000 1.9406 0.0000
# 3 48.5934 33.9239 100.7084 0.0000 5.0156 0.0000
# 4 0.0000 0.0000 0.0000 25.9103 0.0000 1.7026
# 5 5.5761 1.9406 5.0156 0.0000 27.7574 0.0000
# 6 0.0000 0.0000 0.0000 1.7026 0.0000 24.2472
#
#
#
# Elastic Compliance Matrix: (Units=1/GPa)
#
#
# Indices 1 2 3 4 5 6 
#
# 1 0.012828 -0.006901 -0.003795 0.000000 -0.001409 0.000000
# 2 -0.006901 0.028957 -0.006451 0.000000 0.000527 0.000000
# 3 -0.003795 -0.006451 0.013999 0.000000 -0.001316 0.000000
# 4 0.000000 0.000000 0.000000 0.038774 0.000000 -0.002723
# 5 -0.001409 0.000527 -0.001316 0.000000 0.036510 0.000000
# 6 0.000000 0.000000 0.000000 -0.002723 0.000000 0.041433
#
#
# Mechanical properties :
#
#
# Convention : Reuss Voigt Hill
#
# Bulk Modulus (GPa) = 46.53039 56.15791 51.34415
# Shear Modulus (GPa) = 23.36906 25.23312 24.30109
#
# Velocity S-wave (km/s) = 3.67853 3.82242 3.75117
# Velocity P-wave (km/s) = 6.70708 7.21102 6.96361
#
# Compressibility (1/GPa) = 0.02149133
#
# Stress axis : x y z
#
# Youngs Moduli (GPa) = 77.95368 34.53423 71.43161
#
# Poissons Ratio (x) = 0.23830 0.27109
# Poissons Ratio (y) = 0.53792 0.46079
# Poissons Ratio (z) = 0.29585 0.22277
#
# Static dielectric constant tensor:
#      x y z
#    x 3.298610 0.000000 0.037300 
#    y 0.000000 3.122240 0.000000 
#    z 0.037300 0.000000 3.287980 
# 
# 
# High freq. dielectric constant tensor:
#      x y z
#    x 1.659230 0.000000 -0.000820 
#    y 0.000000 1.653110 0.000000 
#    z -0.000820 0.000000 1.662620 
# 
# From -- ./inp_files/248165.got.cif
#   From: 2010.06.25/outbox.cif.g09.slc.cpg/sg12_125_cif.got.tgz:248165.got - 2010.06.28 00:19:55.
