data_PCOD8079605
_publ_section_title
;
Structure prediction by ZEFSAII (Michael W. Deem and Ramdas Pophale) SiO2 
 PCOD8079605
Probable space group: C 2/M
;
_chemical_formula_sum "Si O2"
_cell_formula_units_Z 44
_cell_length_a 19.993002
_cell_length_b 17.533651
_cell_length_c 8.191504
_cell_angle_alpha 90.000000
_cell_angle_beta 49.963067
_cell_angle_gamma 90.000000
_cell_volume 2198.532672
_symmetry_space_group_name_H-M "C 2/M"
_symmetry_group_IT_number 12
_symmetry_cell_setting 'monoclinic'
loop_
_space_group_symop_operation_xyz
x,y,z
-x,y,-z
-x,-y,-z
x,-y,z
1/2+x,1/2+y,z
1/2-x,1/2+y,-z
1/2-x,1/2-y,-z
1/2+x,1/2-y,z
loop_
_atom_site_type_symbol
_atom_site_label
_atom_site_fract_x
_atom_site_fract_y
_atom_site_fract_z
Si Si1 0.295870 0.149317 0.320468
Si Si2 0.181046 0.911555 0.768730
Si Si3 0.000000 0.834405 0.000000
Si Si4 0.277078 0.779714 0.782673
Si Si5 0.552748 0.916984 0.085628
Si Si6 0.937214 0.289843 0.346645
O O1 0.218710 0.101466 0.526767
O O2 0.260972 0.227043 0.299918
O O3 0.366066 0.171038 0.344420
O O4 0.344340 0.098471 0.107081
O O5 0.236625 0.863771 0.815686
O O6 0.188664 0.000000 0.805341
O O7 0.080088 0.887322 0.927379
O O8 0.977370 0.783770 0.194681
O O9 0.383580 0.774093 0.598977
O O10 0.250000 0.750000 0.000000
O O11 0.514300 0.850763 0.262544
O O12 0.543108 0.000000 0.184555
O O13 0.500000 0.914932 0.000000
#
# Coordination Sequence:
#
# PCOD8079605 Si02
#       6
#     8   8   4   8   8   8
#     4  10  17  35  57  82 110 147 194 237 276 336
#     4  11  22  36  60  88 114 148 196 250 289 326
#     4  12  17  36  59  84 114 142 202 250 283 322
#     4  11  22  38  59  81 118 159 192 223 286 362
#     4   9  16  27  51  86 112 133 172 236 295 323
#     4  10  17  32  59  82 109 145 194 245 272 339
#
# _framework density 20.013349000000002
#
# number of rings (size 3 to 8) (size 9 to 14) (size 15 to 20)
#    0.000    1.636    6.364    1.909    0.000    4.364 
#    0.000    5.455    0.000    2.182    0.000    0.000 
#    0.000    0.000    0.000    0.000    0.000    0.000 
#
# Total GULP energy -272678.884245 kJ/mol
# GULP energy per Si atom -12394.494738 kJ/mol
# Density = 1.996780 g / cm^3
# Si number density = 20.013349 Si / 1000 Ang^3
#
#
#
# Elastic Constant Matrix: (Units=GPa)
#
#
# Indices 1 2 3 4 5 6 
#
# 1 20.5855 23.8775 34.7935 0.0000 -9.0916 0.0000
# 2 23.8775 153.6172 65.0892 0.0000 -7.8989 0.0000
# 3 34.7935 65.0892 172.9272 0.0000 -18.3556 0.0000
# 4 0.0000 0.0000 0.0000 25.2210 0.0000 -3.8739
# 5 -9.0916 -7.8989 -18.3556 0.0000 30.5799 0.0000
# 6 0.0000 0.0000 0.0000 -3.8739 0.0000 13.2953
#
#
#
# Elastic Compliance Matrix: (Units=1/GPa)
#
#
# Indices 1 2 3 4 5 6 
#
# 1 0.085489 -0.007017 -0.012874 0.000000 0.015876 0.000000
# 2 -0.007017 0.008323 -0.001831 0.000000 -0.001035 0.000000
# 3 -0.012874 -0.001831 0.009191 0.000000 0.001217 0.000000
# 4 0.000000 0.000000 0.000000 0.041507 0.000000 0.012094
# 5 0.015876 -0.001035 0.001217 0.000000 0.037884 0.000000
# 6 0.000000 0.000000 0.000000 0.012094 0.000000 0.078738
#
#
# Mechanical properties :
#
#
# Convention : Reuss Voigt Hill
#
# Bulk Modulus (GPa) = 16.79000 66.07225 41.43112
# Shear Modulus (GPa) = 15.41168 28.71055 22.06112
#
# Velocity S-wave (km/s) = 2.77802 3.79168 3.32372
# Velocity P-wave (km/s) = 4.32406 7.22875 5.95619
#
# Compressibility (1/GPa) = 0.05955927
#
# Stress axis : x y z
#
# Youngs Moduli (GPa) = 11.69747 120.15178 108.79748
#
# Poissons Ratio (x) = 0.84305 1.40070
# Poissons Ratio (y) = 0.08208 0.19919
# Poissons Ratio (z) = 0.15060 0.21997
#
# Static dielectric constant tensor:
#      x y z
#    x 3.210640 0.000000 -0.537680 
#    y 0.000000 3.832930 0.000000 
#    z -0.537680 0.000000 4.541260 
# 
# 
# High freq. dielectric constant tensor:
#      x y z
#    x 1.734170 0.000000 -0.034250 
#    y 0.000000 1.778690 0.000000 
#    z -0.034250 0.000000 1.795370 
# 
# From -- ./inp_files/98003.got.cif
#   From: 2010.06.25/outbox.cif.g09.slc.cpg/sg12_50_cif.got.tgz:98003.got - 2010.06.28 00:19:55.
