data_PCOD8079260
_publ_section_title
;
Structure prediction by ZEFSAII (Michael W. Deem and Ramdas Pophale) SiO2 
 PCOD8079260
Probable space group: C 2/M
;
_chemical_formula_sum "Si O2"
_cell_formula_units_Z 56
_cell_length_a 27.257934
_cell_length_b 17.277612
_cell_length_c 9.366759
_cell_angle_alpha 90.000000
_cell_angle_beta 135.845428
_cell_angle_gamma 90.000000
_cell_volume 3072.891790
_symmetry_space_group_name_H-M "C 2/M"
_symmetry_group_IT_number 12
_symmetry_cell_setting 'monoclinic'
loop_
_space_group_symop_operation_xyz
x,y,z
-x,y,-z
-x,-y,-z
x,-y,z
1/2+x,1/2+y,z
1/2-x,1/2+y,-z
1/2-x,1/2-y,-z
1/2+x,1/2-y,z
loop_
_atom_site_type_symbol
_atom_site_label
_atom_site_fract_x
_atom_site_fract_y
_atom_site_fract_z
Si Si1 0.660093 0.411773 0.155211
Si Si2 0.066551 0.087488 0.220376
Si Si3 0.939170 0.213802 0.593537
Si Si4 0.578637 0.175859 0.186681
Si Si5 0.818329 0.588289 0.404763
Si Si6 0.097408 0.245482 0.929938
Si Si7 0.326129 0.212713 0.174639
O O1 0.640700 0.500000 0.061516
O O2 0.636975 0.403108 0.272424
O O3 0.742992 0.397765 0.318772
O O4 0.623308 0.344165 0.986115
O O5 0.069381 0.123936 0.383881
O O6 0.047714 0.000000 0.213187
O O7 0.000000 0.126940 0.000000
O O8 0.918752 0.253873 0.698907
O O9 0.881670 0.226187 0.352835
O O10 0.016525 0.242036 0.707464
O O11 0.626217 0.108579 0.354865
O O12 0.608527 0.210584 0.102394
O O13 0.500000 0.142285 0.000000
O O14 0.830169 0.500000 0.383315
O O15 0.826296 0.636771 0.274405
O O16 0.143175 0.300265 0.919911
O O17 0.250000 0.250000 0.000000
#
# Coordination Sequence:
#
# PCOD8079260 Si02
#       7
#     8   8   8   8   8   8   8
#     4  10  19  31  54  83 115 149 182 220 273 329
#     4  10  17  29  52  83 116 149 183 223 275 328
#     4  10  19  34  54  81 113 145 186 230 275 325
#     4   9  19  35  60  84 106 139 187 236 280 326
#     4  10  22  40  58  80 113 149 184 230 285 332
#     4  11  19  35  56  85 113 143 187 234 272 331
#     4  11  23  37  55  80 109 152 192 228 273 328
#
# _framework density 18.223877000000002
#
# number of rings (size 3 to 8) (size 9 to 14) (size 15 to 20)
#    0.000    1.857    4.286    0.857    0.000    2.000 
#    0.000    2.143    0.000   12.857    0.000    0.000 
#    0.000    0.000    0.000    0.000    0.000    0.000 
#
# Total GULP energy -346992.612314 kJ/mol
# GULP energy per Si atom -12392.593297 kJ/mol
# Density = 1.818240 g / cm^3
# Si number density = 18.223877 Si / 1000 Ang^3
#
#
#
# Elastic Constant Matrix: (Units=GPa)
#
#
# Indices 1 2 3 4 5 6 
#
# 1 127.7261 37.8184 42.7189 0.0000 5.1236 0.0000
# 2 37.8184 83.6754 41.2338 0.0000 3.2375 0.0000
# 3 42.7189 41.2338 107.2828 0.0000 10.4464 0.0000
# 4 0.0000 0.0000 0.0000 26.1867 0.0000 -0.6963
# 5 5.1236 3.2375 10.4464 0.0000 22.5038 0.0000
# 6 0.0000 0.0000 0.0000 -0.6963 0.0000 27.6221
#
#
#
# Elastic Compliance Matrix: (Units=1/GPa)
#
#
# Indices 1 2 3 4 5 6 
#
# 1 0.009625 -0.003043 -0.002610 0.000000 -0.000542 0.000000
# 2 -0.003043 0.015711 -0.004896 0.000000 0.000705 0.000000
# 3 -0.002610 -0.004896 0.012689 0.000000 -0.004592 0.000000
# 4 0.000000 0.000000 0.000000 0.038213 0.000000 0.000963
# 5 -0.000542 0.000705 -0.004592 0.000000 0.046590 0.000000
# 6 0.000000 0.000000 0.000000 0.000963 0.000000 0.036227
#
#
# Mechanical properties :
#
#
# Convention : Reuss Voigt Hill
#
# Bulk Modulus (GPa) = 59.07345 62.46961 60.77153
# Shear Modulus (GPa) = 26.91115 28.39006 27.65061
#
# Velocity S-wave (km/s) = 3.84695 3.95124 3.89945
# Velocity P-wave (km/s) = 7.22619 7.42764 7.32761
#
# Compressibility (1/GPa) = 0.01692808
#
# Stress axis : x y z
#
# Youngs Moduli (GPa) = 103.89621 63.64787 78.80663
#
# Poissons Ratio (x) = 0.19367 0.20571
# Poissons Ratio (y) = 0.31615 0.38581
# Poissons Ratio (z) = 0.27120 0.31160
#
# Static dielectric constant tensor:
#      x y z
#    x 3.515980 0.000000 0.048920 
#    y 0.000000 3.347740 0.000000 
#    z 0.048920 0.000000 3.484900 
# 
# 
# High freq. dielectric constant tensor:
#      x y z
#    x 1.716960 0.000000 0.010940 
#    y 0.000000 1.693270 0.000000 
#    z 0.010940 0.000000 1.695220 
# 
# From -- ./inp_files/106057.got.cif
#   From: 2010.06.25/outbox.cif.g09.slc.cpg/sg12_54_cif.got.tgz:106057.got - 2010.06.28 00:19:55.
