data_PCOD8079720
_publ_section_title
;
Structure prediction by ZEFSAII (Michael W. Deem and Ramdas Pophale) SiO2 
 PCOD8079720
Probable space group: C 2/M
;
_chemical_formula_sum "Si O2"
_cell_formula_units_Z 56
_cell_length_a 19.813705
_cell_length_b 15.009597
_cell_length_c 17.438902
_cell_angle_alpha 90.000000
_cell_angle_beta 31.078392
_cell_angle_gamma 90.000000
_cell_volume 2677.198569
_symmetry_space_group_name_H-M "C 2/M"
_symmetry_group_IT_number 12
_symmetry_cell_setting 'monoclinic'
loop_
_space_group_symop_operation_xyz
x,y,z
-x,y,-z
-x,-y,-z
x,-y,z
1/2+x,1/2+y,z
1/2-x,1/2+y,-z
1/2-x,1/2-y,-z
1/2+x,1/2-y,z
loop_
_atom_site_type_symbol
_atom_site_label
_atom_site_fract_x
_atom_site_fract_y
_atom_site_fract_z
Si Si1 0.067195 0.601322 0.080528
Si Si2 0.812638 0.095961 0.037768
Si Si3 0.152494 0.862587 0.162884
Si Si4 0.553102 0.167662 0.260200
Si Si5 0.472085 0.275347 0.113462
Si Si6 0.286844 0.241485 0.554547
Si Si7 0.070123 0.900708 0.509469
O O1 0.040685 0.500000 0.080036
O O2 0.029337 0.611106 0.206718
O O3 0.976854 0.668747 0.120168
O O4 0.214627 0.632477 0.916805
O O5 0.663434 0.122199 0.207324
O O6 0.847841 0.000000 0.041793
O O7 0.813139 0.081784 0.946024
O O8 0.916477 0.172574 0.950301
O O9 0.111372 0.763100 0.179647
O O10 0.039260 0.910600 0.319340
O O11 0.415253 0.179017 0.438297
O O12 0.330713 0.305783 0.284130
O O13 0.500000 0.303335 0.000000
O O14 0.250000 0.250000 0.500000
O O15 0.317229 0.335573 0.567466
O O16 0.000000 0.863713 0.500000
O O17 0.129161 0.000000 0.437552
#
# Coordination Sequence:
#
# PCOD8079720 Si02
#       7
#     8   8   8   8   8   8   8
#     4  11  20  35  61  92 125 160 204 255 315 380
#     4  11  21  40  67  92 118 163 223 272 313 377
#     4  10  17  34  62  89 117 159 209 266 315 366
#     4  10  18  38  67  89 120 156 216 269 310 364
#     4  12  26  42  61  91 133 174 209 262 328 391
#     4  11  23  42  64  91 131 178 218 262 334 396
#     4  10  22  37  58  91 132 173 221 273 324 392
#
# _framework density 20.917387999999999
#
# number of rings (size 3 to 8) (size 9 to 14) (size 15 to 20)
#    0.000    1.286    4.286    4.286    2.000    1.143 
#    0.000    1.429    0.000    0.857    0.000    0.000 
#    0.000    0.000    0.000    0.000    0.000    0.000 
#
# Total GULP energy -346985.013948 kJ/mol
# GULP energy per Si atom -12392.321927 kJ/mol
# Density = 2.086978 g / cm^3
# Si number density = 20.917388 Si / 1000 Ang^3
#
#
#
# Elastic Constant Matrix: (Units=GPa)
#
#
# Indices 1 2 3 4 5 6 
#
# 1 74.1608 26.0334 35.8398 -0.0003 -4.7327 0.0002
# 2 26.0334 101.4572 18.6687 -0.0005 -8.0559 0.0004
# 3 35.8398 18.6687 144.6815 -0.0008 -18.9211 0.0007
# 4 -0.0003 -0.0005 -0.0008 13.9402 0.0006 -0.3041
# 5 -4.7327 -8.0559 -18.9211 0.0006 28.7395 -0.0004
# 6 0.0002 0.0004 0.0007 -0.3041 -0.0004 18.7249
#
#
#
# Elastic Compliance Matrix: (Units=1/GPa)
#
#
# Indices 1 2 3 4 5 6 
#
# 1 0.016501 -0.003609 -0.003719 0.000000 -0.000743 0.000000
# 2 -0.003609 0.011009 -0.000220 0.000000 0.002347 0.000000
# 3 -0.003719 -0.000220 0.008506 0.000000 0.004926 0.000000
# 4 0.000000 0.000000 0.000000 0.071760 -0.000001 0.001165
# 5 -0.000743 0.002347 0.004926 -0.000001 0.038574 0.000001
# 6 0.000000 0.000000 0.000000 0.001165 0.000001 0.053424
#
#
# Mechanical properties :
#
#
# Convention : Reuss Voigt Hill
#
# Bulk Modulus (GPa) = 47.79940 53.48704 50.64322
# Shear Modulus (GPa) = 22.53858 28.26477 25.40167
#
# Velocity S-wave (km/s) = 3.28610 3.67993 3.48858
# Velocity P-wave (km/s) = 6.10729 6.60924 6.36322
#
# Compressibility (1/GPa) = 0.02092076
#
# Stress axis : x y z
#
# Youngs Moduli (GPa) = 60.60273 90.83369 117.57093
#
# Poissons Ratio (x) = 0.32779 0.43725
# Poissons Ratio (y) = 0.21870 0.02583
# Poissons Ratio (z) = 0.22538 0.01995
#
# Static dielectric constant tensor:
#      x y z
#    x 3.764000 0.000000 -0.214870 
#    y 0.000000 3.745300 0.000000 
#    z -0.214870 0.000000 3.862700 
# 
# 
# High freq. dielectric constant tensor:
#      x y z
#    x 1.795660 0.000000 -0.017350 
#    y 0.000000 1.811070 0.000000 
#    z -0.017350 0.000000 1.816640 
# 
# From -- ./inp_files/284514.got.cif
#   From: 2010.06.25/outbox.cif.g09.slc.cpg/sg12_143_cif.got.tgz:284514.got - 2010.06.28 00:19:55.
