data_PCOD8079141
_publ_section_title
;
Structure prediction by ZEFSAII (Michael W. Deem and Ramdas Pophale) SiO2 
 PCOD8079141
Probable space group: C 2/M
;
_chemical_formula_sum "Si O2"
_cell_formula_units_Z 64
_cell_length_a 27.946128
_cell_length_b 13.394446
_cell_length_c 11.738491
_cell_angle_alpha 90.000000
_cell_angle_beta 109.590645
_cell_angle_gamma 90.000000
_cell_volume 4139.627887
_symmetry_space_group_name_H-M "C 2/M"
_symmetry_group_IT_number 12
_symmetry_cell_setting 'monoclinic'
loop_
_space_group_symop_operation_xyz
x,y,z
-x,y,-z
-x,-y,-z
x,-y,z
1/2+x,1/2+y,z
1/2-x,1/2+y,-z
1/2-x,1/2-y,-z
1/2+x,1/2-y,z
loop_
_atom_site_type_symbol
_atom_site_label
_atom_site_fract_x
_atom_site_fract_y
_atom_site_fract_z
Si Si1 0.216293 0.887978 0.988492
Si Si2 0.883761 0.304924 0.823791
Si Si3 0.316173 0.201895 0.160583
Si Si4 0.727069 0.202081 0.632176
Si Si5 0.903960 0.381108 0.090422
Si Si6 0.710179 0.116195 0.383204
Si Si7 0.172681 0.888263 0.201120
Si Si8 0.986330 0.390159 0.857576
O O1 0.274968 0.860885 0.056376
O O2 0.184807 0.874741 0.078380
O O3 0.213730 0.000000 0.939261
O O4 0.191055 0.818569 0.872988
O O5 0.840296 0.371916 0.731938
O O6 0.872057 0.187546 0.801876
O O7 0.937409 0.319875 0.801755
O O8 0.885101 0.335186 0.956772
O O9 0.310367 0.188113 0.291013
O O10 0.371292 0.162542 0.168307
O O11 0.697901 0.159287 0.499212
O O12 0.743370 0.318436 0.631938
O O13 0.777391 0.135379 0.686261
O O14 0.899317 0.500000 0.079083
O O15 0.962658 0.349841 0.163792
O O16 0.726079 0.000000 0.398308
O O17 0.154192 0.000000 0.214402
O O18 0.971759 0.500000 0.799578
O O19 0.000000 0.398519 0.000000
#
# Coordination Sequence:
#
# PCOD8079141 Si02
#       8
#     8   8   8   8   8   8   8   8
#     4   9  17  27  41  63  91 118 143 178 217 260
#     4  10  17  29  46  68  87 113 152 189 221 255
#     4  10  18  30  43  65  90 118 149 177 217 270
#     4   9  20  32  43  64  93 121 151 179 216 261
#     4  10  18  28  45  68  90 114 146 183 226 273
#     4  10  19  31  47  65  88 119 153 187 215 253
#     4   9  16  28  44  62  90 122 147 174 218 267
#     4   8  15  27  43  64  89 113 141 183 230 266
#
# _framework density 15.460326999999999
#
# number of rings (size 3 to 8) (size 9 to 14) (size 15 to 20)
#    0.000    2.625    1.250    2.625    1.750    2.000 
#    0.000    0.000    0.000    4.875    0.000    2.625 
#    0.000    0.000    0.000   10.250    0.000    0.250 
#
# Total GULP energy -396700.630917 kJ/mol
# GULP energy per Si atom -12396.894716 kJ/mol
# Density = 1.542514 g / cm^3
# Si number density = 15.460327 Si / 1000 Ang^3
#
#
#
# Elastic Constant Matrix: (Units=GPa)
#
#
# Indices 1 2 3 4 5 6 
#
# 1 115.7772 50.0614 28.0015 0.0000 -4.6823 0.0000
# 2 50.0614 109.1851 19.4333 0.0000 2.6628 0.0000
# 3 28.0015 19.4333 46.9794 0.0000 -4.2745 0.0000
# 4 0.0000 0.0000 0.0000 14.8330 0.0000 -0.1811
# 5 -4.6823 2.6628 -4.2745 0.0000 14.1013 0.0000
# 6 0.0000 0.0000 0.0000 -0.1811 0.0000 19.4214
#
#
#
# Elastic Compliance Matrix: (Units=1/GPa)
#
#
# Indices 1 2 3 4 5 6 
#
# 1 0.011995 -0.004712 -0.004892 0.000000 0.003390 0.000000
# 2 -0.004712 0.011879 -0.002522 0.000000 -0.004572 0.000000
# 3 -0.004892 -0.002522 0.025853 0.000000 0.006689 0.000000
# 4 0.000000 0.000000 0.000000 0.067425 0.000000 0.000629
# 5 0.003390 -0.004572 0.006689 0.000000 0.074932 0.000000
# 6 0.000000 0.000000 0.000000 0.000629 0.000000 0.051495
#
#
# Mechanical properties :
#
#
# Convention : Reuss Voigt Hill
#
# Bulk Modulus (GPa) = 39.25093 51.88158 45.56625
# Shear Modulus (GPa) = 18.09477 21.30082 19.69780
#
# Velocity S-wave (km/s) = 3.42482 3.71586 3.57331
# Velocity P-wave (km/s) = 6.40956 7.21394 6.82361
#
# Compressibility (1/GPa) = 0.02547710
#
# Stress axis : x y z
#
# Youngs Moduli (GPa) = 83.36956 84.17969 38.67959
#
# Poissons Ratio (x) = 0.39662 0.18922
# Poissons Ratio (y) = 0.39280 0.09754
# Poissons Ratio (z) = 0.40784 0.21227
#
# Static dielectric constant tensor:
#      x y z
#    x 3.036850 0.000000 -0.022570 
#    y 0.000000 3.047730 0.000000 
#    z -0.022570 0.000000 2.762410 
# 
# 
# High freq. dielectric constant tensor:
#      x y z
#    x 1.575410 0.000000 -0.005640 
#    y 0.000000 1.596680 0.000000 
#    z -0.005640 0.000000 1.566320 
# 
# From -- ./inp_files/183051.got.cif
#   From: 2010.06.25/outbox.cif.g09.slc.cpg/sg12_92_cif.got.tgz:183051.got - 2010.06.28 00:19:55.
