data_PCOD8079868
_publ_section_title
;
Structure prediction by ZEFSAII (Michael W. Deem and Ramdas Pophale) SiO2 
 PCOD8079868
Probable space group: C 2/M
;
_chemical_formula_sum "Si O2"
_cell_formula_units_Z 56
_cell_length_a 23.094664
_cell_length_b 13.392337
_cell_length_c 27.211038
_cell_angle_alpha 90.000000
_cell_angle_beta 21.546421
_cell_angle_gamma 90.000000
_cell_volume 3090.870152
_symmetry_space_group_name_H-M "C 2/M"
_symmetry_group_IT_number 12
_symmetry_cell_setting 'monoclinic'
loop_
_space_group_symop_operation_xyz
x,y,z
-x,y,-z
-x,-y,-z
x,-y,z
1/2+x,1/2+y,z
1/2-x,1/2+y,-z
1/2-x,1/2-y,-z
1/2+x,1/2-y,z
loop_
_atom_site_type_symbol
_atom_site_label
_atom_site_fract_x
_atom_site_fract_y
_atom_site_fract_z
Si Si1 0.853889 0.612136 0.035676
Si Si2 0.411652 0.608532 0.519258
Si Si3 0.499397 0.612047 0.291544
Si Si4 0.496069 0.764674 0.377117
Si Si5 0.827824 0.242533 0.141274
Si Si6 0.637007 0.771664 0.775068
Si Si7 0.700484 0.384877 0.645049
O O1 0.923258 0.500000 0.982800
O O2 0.961553 0.685216 0.917971
O O3 0.687167 0.613386 0.140245
O O4 0.844892 0.651788 0.098924
O O5 0.500000 0.599406 0.500000
O O6 0.398961 0.500000 0.503967
O O7 0.512393 0.680545 0.405707
O O8 0.236117 0.649072 0.665622
O O9 0.443370 0.500000 0.353201
O O10 0.443092 0.704034 0.370265
O O11 0.432597 0.634091 0.290445
O O12 0.675299 0.812162 0.235690
O O13 0.368384 0.847784 0.491128
O O14 0.789606 0.256212 0.228827
O O15 0.000000 0.186122 0.000000
O O16 0.643714 0.668126 0.739821
O O17 0.721929 0.500000 0.641486
#
# Coordination Sequence:
#
# PCOD8079868 Si02
#       7
#     8   8   8   8   8   8   8
#     4   9  18  31  53  81 108 136 161 197 253 317
#     4  10  18  26  43  72 106 136 157 193 251 310
#     4   9  18  34  54  79 103 129 170 211 255 309
#     4  10  18  33  53  73 102 131 170 207 257 305
#     4   9  18  31  49  73 102 131 160 202 246 307
#     4  10  19  32  48  72 106 136 170 206 243 307
#     4  10  22  36  53  72  96 137 182 222 254 284
#
# _framework density 18.117875000000002
#
# number of rings (size 3 to 8) (size 9 to 14) (size 15 to 20)
#    0.000    2.429    1.429    1.286    0.000    4.286 
#    0.000    1.429    0.000   12.857    0.000    0.000 
#    0.000    0.000    0.000    0.000    0.000    0.000 
#
# Total GULP energy -346922.369444 kJ/mol
# GULP energy per Si atom -12390.084623 kJ/mol
# Density = 1.807664 g / cm^3
# Si number density = 18.117875 Si / 1000 Ang^3
#
#
#
# Elastic Constant Matrix: (Units=GPa)
#
#
# Indices 1 2 3 4 5 6 
#
# 1 90.2620 48.6780 44.8704 -0.0088 -8.7637 -0.0087
# 2 48.6780 103.6289 45.6669 0.0030 3.3295 0.0109
# 3 44.8704 45.6669 86.0036 0.0058 -0.6719 0.0103
# 4 -0.0088 0.0030 0.0058 24.7720 0.0157 5.1642
# 5 -8.7637 3.3295 -0.6719 0.0157 23.0753 -0.0069
# 6 -0.0087 0.0109 0.0103 5.1642 -0.0069 22.4051
#
#
#
# Elastic Compliance Matrix: (Units=1/GPa)
#
#
# Indices 1 2 3 4 5 6 
#
# 1 0.018157 -0.006037 -0.006208 0.000001 0.007586 0.000015
# 2 -0.006037 0.014699 -0.004691 0.000002 -0.004550 -0.000009
# 3 -0.006208 -0.004691 0.017348 -0.000003 -0.001176 -0.000008
# 4 0.000001 0.000002 -0.000003 0.042406 -0.000032 -0.009774
# 5 0.007586 -0.004550 -0.001176 -0.000032 0.046840 0.000028
# 6 0.000015 -0.000009 -0.000008 -0.009774 0.000028 0.046886
#
#
# Mechanical properties :
#
#
# Convention : Reuss Voigt Hill
#
# Bulk Modulus (GPa) = 61.22942 62.03611 61.63277
# Shear Modulus (GPa) = 22.15798 23.42909 22.79354
#
# Velocity S-wave (km/s) = 3.50092 3.59994 3.55077
# Velocity P-wave (km/s) = 7.08593 7.18290 7.13458
#
# Compressibility (1/GPa) = 0.01633202
#
# Stress axis : x y z
#
# Youngs Moduli (GPa) = 55.07387 68.03200 57.64317
#
# Poissons Ratio (x) = 0.41071 0.35787
# Poissons Ratio (y) = 0.33248 0.27040
# Poissons Ratio (z) = 0.34192 0.31913
#
# Static dielectric constant tensor:
#      x y z
#    x 3.305160 -0.000020 -0.080690 
#    y -0.000020 3.203620 0.000050 
#    z -0.080690 0.000050 3.570020 
# 
# 
# High freq. dielectric constant tensor:
#      x y z
#    x 1.698200 0.000000 -0.008820 
#    y 0.000000 1.672340 0.000010 
#    z -0.008820 0.000010 1.708630 
# 
# From -- ./inp_files/368076.got.cif
#   From: 2010.06.25/outbox.cif.g09.slc.cpg/sg12_185_cif.got.tgz:368076.got - 2010.06.28 00:19:55.
