data_PCOD8079581
_publ_section_title
;
Structure prediction by ZEFSAII (Michael W. Deem and Ramdas Pophale) SiO2 
 PCOD8079581
Probable space group: C 2/M
;
_chemical_formula_sum "Si O2"
_cell_formula_units_Z 56
_cell_length_a 22.545271
_cell_length_b 14.381671
_cell_length_c 9.861641
_cell_angle_alpha 90.000000
_cell_angle_beta 72.586093
_cell_angle_gamma 90.000000
_cell_volume 3050.975474
_symmetry_space_group_name_H-M "C 2/M"
_symmetry_group_IT_number 12
_symmetry_cell_setting 'monoclinic'
loop_
_space_group_symop_operation_xyz
x,y,z
-x,y,-z
-x,-y,-z
x,-y,z
1/2+x,1/2+y,z
1/2-x,1/2+y,-z
1/2-x,1/2-y,-z
1/2+x,1/2-y,z
loop_
_atom_site_type_symbol
_atom_site_label
_atom_site_fract_x
_atom_site_fract_y
_atom_site_fract_z
Si Si1 0.698595 0.099785 0.882266
Si Si2 0.318465 0.895036 0.588191
Si Si3 0.694271 0.323387 0.058991
Si Si4 0.880642 0.340325 0.814193
Si Si5 0.511099 0.107866 0.834214
Si Si6 0.363189 0.787851 0.303662
Si Si7 0.321350 0.606020 0.224375
O O1 0.772958 0.103150 0.862152
O O2 0.678023 0.180475 0.796074
O O3 0.684599 0.000000 0.823473
O O4 0.659072 0.103751 0.047652
O O5 0.367246 0.880489 0.675336
O O6 0.330472 0.819827 0.463491
O O7 0.250168 0.877383 0.691326
O O8 0.325764 0.000000 0.526298
O O9 0.636176 0.269779 0.166870
O O10 0.750000 0.250000 0.000000
O O11 0.669855 0.373068 0.940652
O O12 0.953171 0.354679 0.789548
O O13 0.568349 0.170485 0.748295
O O14 0.524465 0.000000 0.791904
O O15 0.500000 0.122645 0.000000
O O16 0.363368 0.675349 0.288530
O O17 0.342276 0.500000 0.240103
#
# Coordination Sequence:
#
# PCOD8079581 Si02
#       7
#     8   8   8   8   8   8   8
#     4  11  18  31  56  81 110 143 181 225 274 331
#     4  11  22  35  55  85 118 147 178 227 285 344
#     4  10  17  32  55  83 105 139 185 229 270 325
#     4  11  20  35  56  80 116 148 187 218 278 337
#     4  11  21  34  56  82 112 150 188 229 277 336
#     4  12  23  37  52  84 116 147 189 234 275 330
#     4  11  21  37  59  82 111 149 189 233 290 337
#
# _framework density 18.354786000000001
#
# number of rings (size 3 to 8) (size 9 to 14) (size 15 to 20)
#    0.000    1.000    7.143    3.429    0.000    0.571 
#    0.000    1.429    0.000    5.571    0.000    1.000 
#    0.000    0.000    0.000    0.000    0.000    0.000 
#
# Total GULP energy -347150.622507 kJ/mol
# GULP energy per Si atom -12398.236518 kJ/mol
# Density = 1.831301 g / cm^3
# Si number density = 18.354786 Si / 1000 Ang^3
#
#
#
# Elastic Constant Matrix: (Units=GPa)
#
#
# Indices 1 2 3 4 5 6 
#
# 1 99.2995 47.5556 15.3489 0.0000 3.4228 0.0000
# 2 47.5556 120.3392 29.9261 0.0000 0.6304 0.0000
# 3 15.3489 29.9261 48.9100 0.0000 12.5399 0.0000
# 4 0.0000 0.0000 0.0000 31.4941 0.0000 4.9438
# 5 3.4228 0.6304 12.5399 0.0000 21.1066 0.0000
# 6 0.0000 0.0000 0.0000 4.9438 0.0000 20.9588
#
#
#
# Elastic Compliance Matrix: (Units=1/GPa)
#
#
# Indices 1 2 3 4 5 6 
#
# 1 0.012508 -0.004784 -0.000607 0.000000 -0.001525 0.000000
# 2 -0.004784 0.011905 -0.006949 0.000000 0.004549 0.000000
# 3 -0.000607 -0.006949 0.029268 0.000000 -0.017083 0.000000
# 4 0.000000 0.000000 0.000000 0.032973 0.000000 -0.007778
# 5 -0.001525 0.004549 -0.017083 0.000000 0.057639 0.000000
# 6 0.000000 0.000000 0.000000 -0.007778 0.000000 0.049547
#
#
# Mechanical properties :
#
#
# Convention : Reuss Voigt Hill
#
# Bulk Modulus (GPa) = 34.48239 50.46778 42.47509
# Shear Modulus (GPa) = 21.91187 26.42643 24.16915
#
# Velocity S-wave (km/s) = 3.45888 3.79853 3.63268
# Velocity P-wave (km/s) = 5.89739 6.84060 6.38643
#
# Compressibility (1/GPa) = 0.02900031
#
# Stress axis : x y z
#
# Youngs Moduli (GPa) = 79.94854 84.00113 34.16718
#
# Poissons Ratio (x) = 0.40186 0.02075
# Poissons Ratio (y) = 0.38247 0.23743
# Poissons Ratio (z) = 0.04855 0.58372
#
# Static dielectric constant tensor:
#      x y z
#    x 3.340370 0.000000 0.100840 
#    y 0.000000 5.439460 0.000000 
#    z 0.100840 0.000000 3.226130 
# 
# 
# High freq. dielectric constant tensor:
#      x y z
#    x 1.694170 0.000000 0.016630 
#    y 0.000000 1.714730 0.000000 
#    z 0.016630 0.000000 1.693430 
# 
# From -- ./inp_files/96280.got.cif
#   From: 2010.06.25/outbox.cif.g09.slc.cpg/sg12_49_cif.got.tgz:96280.got - 2010.06.28 00:19:55.
