data_PCOD8079907
_publ_section_title
;
Structure prediction by ZEFSAII (Michael W. Deem and Ramdas Pophale) SiO2 
 PCOD8079907
Probable space group: C 2/M
;
_chemical_formula_sum "Si O2"
_cell_formula_units_Z 64
_cell_length_a 28.677867
_cell_length_b 9.289408
_cell_length_c 20.258519
_cell_angle_alpha 90.000000
_cell_angle_beta 127.352656
_cell_angle_gamma 90.000000
_cell_volume 4290.065678
_symmetry_space_group_name_H-M "C 2/M"
_symmetry_group_IT_number 12
_symmetry_cell_setting 'monoclinic'
loop_
_space_group_symop_operation_xyz
x,y,z
-x,y,-z
-x,-y,-z
x,-y,z
1/2+x,1/2+y,z
1/2-x,1/2+y,-z
1/2-x,1/2-y,-z
1/2+x,1/2-y,z
loop_
_atom_site_type_symbol
_atom_site_label
_atom_site_fract_x
_atom_site_fract_y
_atom_site_fract_z
Si Si1 0.694586 0.837420 0.031224
Si Si2 0.733320 0.667094 0.331392
Si Si3 0.778299 0.164231 0.823847
Si Si4 0.067845 0.667934 0.553098
Si Si5 0.193828 0.163608 0.432878
Si Si6 0.350674 0.669135 0.471551
Si Si7 0.669162 0.337157 0.887296
Si Si8 0.644275 0.165168 0.742580
O O1 0.685771 0.765179 0.095284
O O2 0.762489 0.833950 0.070786
O O3 0.670643 0.000000 0.013061
O O4 0.657709 0.748901 0.945299
O O5 0.754025 0.500000 0.347780
O O6 0.703879 0.705544 0.235790
O O7 0.683014 0.693079 0.345131
O O8 0.790278 0.764483 0.392352
O O9 0.708927 0.189630 0.769713
O O10 0.794363 0.000000 0.855127
O O11 0.078402 0.500000 0.548256
O O12 0.093807 0.756842 0.514439
O O13 0.098717 0.714788 0.647664
O O14 0.000000 0.707211 0.500000
O O15 0.250000 0.250000 0.500000
O O16 0.143045 0.198992 0.443128
O O17 0.212077 0.000000 0.458631
O O18 0.350998 0.500000 0.455510
O O19 0.646566 0.500000 0.876453
O O20 0.633015 0.261785 0.797533
O O21 0.634407 0.000000 0.754750
#
# Coordination Sequence:
#
# PCOD8079907 Si02
#       8
#     8   8   8   8   8   8   8   8
#     4   9  16  24  34  51  74  99 125 156 188 223
#     4   9  15  26  41  56  77 106 137 162 191 233
#     4   9  15  23  37  54  74 101 130 161 191 224
#     4  10  20  33  46  58  74 102 139 173 206 244
#     4   8  15  25  38  56  76 100 129 161 195 235
#     4  10  18  27  40  58  79 100 128 168 209 240
#     4   9  16  25  37  52  70  95 126 157 189 229
#     4   9  16  27  40  54  70  94 128 165 200 231
#
# _framework density 14.918187
#
# number of rings (size 3 to 8) (size 9 to 14) (size 15 to 20)
#    0.000    2.875    1.250    1.125    0.000    4.750 
#    0.000    0.000    0.000    0.000    0.000    0.000 
#    0.000    0.000    0.000    1.125    0.000   23.500 
#
# Total GULP energy -396513.575150 kJ/mol
# GULP energy per Si atom -12391.049223 kJ/mol
# Density = 1.488423 g / cm^3
# Si number density = 14.918187 Si / 1000 Ang^3
#
#
#
# Elastic Constant Matrix: (Units=GPa)
#
#
# Indices 1 2 3 4 5 6 
#
# 1 78.8767 48.1912 53.1771 0.0000 -29.5811 0.0000
# 2 48.1912 85.1821 46.0071 0.0000 -23.1073 0.0000
# 3 53.1771 46.0071 79.6895 0.0000 -34.0795 0.0000
# 4 0.0000 0.0000 0.0000 20.3742 0.0000 -7.4880
# 5 -29.5811 -23.1073 -34.0795 0.0000 28.8678 0.0000
# 6 0.0000 0.0000 0.0000 -7.4880 0.0000 16.5627
#
#
#
# Elastic Compliance Matrix: (Units=1/GPa)
#
#
# Indices 1 2 3 4 5 6 
#
# 1 0.027954 -0.007665 -0.009295 0.000000 0.011536 0.000000
# 2 -0.007665 0.019404 -0.005663 0.000000 0.000991 0.000000
# 3 -0.009295 -0.005663 0.032332 0.000000 0.024111 0.000000
# 4 0.000000 0.000000 0.000000 0.058862 0.000000 0.026612
# 5 0.011536 0.000991 0.024111 0.000000 0.075720 0.000000
# 6 0.000000 0.000000 0.000000 0.026612 0.000000 0.072408
#
#
# Mechanical properties :
#
#
# Convention : Reuss Voigt Hill
#
# Bulk Modulus (GPa) = 29.03355 59.83323 44.43339
# Shear Modulus (GPa) = 14.55989 19.58579 17.07284
#
# Velocity S-wave (km/s) = 3.12746 3.62730 3.38661
# Velocity P-wave (km/s) = 5.70486 7.59853 6.71875
#
# Compressibility (1/GPa) = 0.03444292
#
# Stress axis : x y z
#
# Youngs Moduli (GPa) = 35.77279 51.53612 30.92869
#
# Poissons Ratio (x) = 0.39503 0.28749
# Poissons Ratio (y) = 0.27421 0.17516
# Poissons Ratio (z) = 0.33251 0.29187
#
# Static dielectric constant tensor:
#      x y z
#    x 2.880140 0.000000 -0.549350 
#    y 0.000000 2.974620 0.000000 
#    z -0.549350 0.000000 2.818720 
# 
# 
# High freq. dielectric constant tensor:
#      x y z
#    x 1.531110 0.000000 -0.051670 
#    y 0.000000 1.581800 0.000000 
#    z -0.051670 0.000000 1.544950 
# 
# From -- ./inp_files/326921.got.cif
#   From: 2010.06.25/outbox.cif.g09.slc.cpg/sg12_164_cif.got.tgz:326921.got - 2010.06.28 00:19:55.
