data_PCOD8079913
_publ_section_title
;
Structure prediction by ZEFSAII (Michael W. Deem and Ramdas Pophale) SiO2 
 PCOD8079913
Probable space group: C 2/M
;
_chemical_formula_sum "Si O2"
_cell_formula_units_Z 56
_cell_length_a 27.505692
_cell_length_b 9.147736
_cell_length_c 16.070687
_cell_angle_alpha 90.000000
_cell_angle_beta 115.298311
_cell_angle_gamma 90.000000
_cell_volume 3655.819785
_symmetry_space_group_name_H-M "C 2/M"
_symmetry_group_IT_number 12
_symmetry_cell_setting 'monoclinic'
loop_
_space_group_symop_operation_xyz
x,y,z
-x,y,-z
-x,-y,-z
x,-y,z
1/2+x,1/2+y,z
1/2-x,1/2+y,-z
1/2-x,1/2-y,-z
1/2+x,1/2-y,z
loop_
_atom_site_type_symbol
_atom_site_label
_atom_site_fract_x
_atom_site_fract_y
_atom_site_fract_z
Si Si1 0.100688 0.670029 0.677167
Si Si2 0.813515 0.828384 0.967128
Si Si3 0.557161 0.335198 0.497673
Si Si4 0.307198 0.829322 0.131907
Si Si5 0.418416 0.327536 0.957811
Si Si6 0.989651 0.671650 0.683922
Si Si7 0.513450 0.326609 0.144279
O O1 0.100339 0.500000 0.653283
O O2 0.099867 0.760622 0.590985
O O3 0.154993 0.717151 0.764159
O O4 0.050173 0.707812 0.699046
O O5 0.754279 0.786872 0.890161
O O6 0.857804 0.772796 0.932760
O O7 0.818942 0.000000 0.985937
O O8 0.826206 0.754004 0.063982
O O9 0.500000 0.333551 0.500000
O O10 0.575909 0.500000 0.491393
O O11 0.553571 0.243348 0.410198
O O12 0.313046 0.000000 0.117126
O O13 0.422136 0.500000 0.960846
O O14 0.437508 0.276370 0.880441
O O15 0.458422 0.273622 0.059881
O O16 0.978801 0.500000 0.678899
O O17 0.979525 0.740004 0.765938
O O18 0.513801 0.500000 0.162280
#
# Coordination Sequence:
#
# PCOD8079913 Si02
#       7
#     8   8   8   8   8   8   8
#     4   9  17  28  40  57  84 112 133 159 199 242
#     4   9  16  27  42  59  81 109 140 169 197 233
#     4   9  17  28  42  60  80 104 135 166 196 235
#     4   9  17  27  40  60  84 109 136 165 199 237
#     4   8  15  27  42  59  80 108 139 171 202 231
#     4  10  18  27  40  59  84 110 133 160 199 243
#     4   9  16  27  42  59  80 107 140 171 199 233
#
# _framework density 15.318040999999999
#
# number of rings (size 3 to 8) (size 9 to 14) (size 15 to 20)
#    0.000    3.000    0.000    2.571    0.000    2.857 
#    0.000    2.143    0.000    0.000    0.000    1.000 
#    0.000    0.000    0.000    0.000    0.000    0.000 
#
# Total GULP energy -347098.045877 kJ/mol
# GULP energy per Si atom -12396.358781 kJ/mol
# Density = 1.528318 g / cm^3
# Si number density = 15.318041 Si / 1000 Ang^3
#
#
#
# Elastic Constant Matrix: (Units=GPa)
#
#
# Indices 1 2 3 4 5 6 
#
# 1 90.9973 31.9163 58.9070 0.0000 -2.3675 0.0000
# 2 31.9163 59.9658 55.8031 0.0000 -2.7918 0.0000
# 3 58.9070 55.8031 140.9241 0.0000 -2.0355 0.0000
# 4 0.0000 0.0000 0.0000 28.8590 0.0000 -2.3541
# 5 -2.3675 -2.7918 -2.0355 0.0000 21.8999 0.0000
# 6 0.0000 0.0000 0.0000 -2.3541 0.0000 13.5778
#
#
#
# Elastic Compliance Matrix: (Units=1/GPa)
#
#
# Indices 1 2 3 4 5 6 
#
# 1 0.015534 -0.003484 -0.005103 0.000000 0.000761 0.000000
# 2 -0.003484 0.027315 -0.009327 0.000000 0.002238 0.000000
# 3 -0.005103 -0.009327 0.012915 0.000000 -0.000540 0.000000
# 4 0.000000 0.000000 0.000000 0.035148 0.000000 0.006094
# 5 0.000761 0.002238 -0.000540 0.000000 0.045980 0.000000
# 6 0.000000 0.000000 0.000000 0.006094 0.000000 0.074706
#
#
# Mechanical properties :
#
#
# Convention : Reuss Voigt Hill
#
# Bulk Modulus (GPa) = 50.16249 65.01557 57.58903
# Shear Modulus (GPa) = 19.67950 22.55140 21.11545
#
# Velocity S-wave (km/s) = 3.58820 3.84110 3.71680
# Velocity P-wave (km/s) = 7.07003 7.88721 7.48977
#
# Compressibility (1/GPa) = 0.01993521
#
# Stress axis : x y z
#
# Youngs Moduli (GPa) = 64.37295 36.61053 77.43117
#
# Poissons Ratio (x) = 0.12755 0.39512
# Poissons Ratio (y) = 0.22428 0.72223
# Poissons Ratio (z) = 0.32849 0.34148
#
# Static dielectric constant tensor:
#      x y z
#    x 3.103930 0.000000 0.019670 
#    y 0.000000 2.873640 0.000000 
#    z 0.019670 0.000000 2.947520 
# 
# 
# High freq. dielectric constant tensor:
#      x y z
#    x 1.560680 0.000000 0.002010 
#    y 0.000000 1.580880 0.000000 
#    z 0.002010 0.000000 1.583130 
# 
# From -- ./inp_files/243239.got.cif
#   From: 2010.06.25/outbox.cif.g09.slc.cpg/sg12_122_cif.got.tgz:243239.got - 2010.06.28 00:19:55.
