data_PCOD8079481
_publ_section_title
;
Structure prediction by ZEFSAII (Michael W. Deem and Ramdas Pophale) SiO2 
 PCOD8079481
Probable space group: C 2/M
;
_chemical_formula_sum "Si O2"
_cell_formula_units_Z 64
_cell_length_a 20.626550
_cell_length_b 8.909255
_cell_length_c 20.419469
_cell_angle_alpha 90.000000
_cell_angle_beta 73.424252
_cell_angle_gamma 90.000000
_cell_volume 3596.490397
_symmetry_space_group_name_H-M "C 2/M"
_symmetry_group_IT_number 12
_symmetry_cell_setting 'monoclinic'
loop_
_space_group_symop_operation_xyz
x,y,z
-x,y,-z
-x,-y,-z
x,-y,z
1/2+x,1/2+y,z
1/2-x,1/2+y,-z
1/2-x,1/2-y,-z
1/2+x,1/2-y,z
loop_
_atom_site_type_symbol
_atom_site_label
_atom_site_fract_x
_atom_site_fract_y
_atom_site_fract_z
Si Si1 0.921315 0.664834 0.506365
Si Si2 0.391723 0.179402 0.653364
Si Si3 0.041454 0.678261 0.638864
Si Si4 0.665757 0.822290 0.854297
Si Si5 0.425034 0.322279 0.863806
Si Si6 0.815864 0.822165 0.788905
Si Si7 0.424537 0.822713 0.000324
Si Si8 0.437608 0.822519 0.223356
O O1 0.888872 0.500000 0.508945
O O2 0.884865 0.741739 0.579839
O O3 0.916812 0.747297 0.436030
O O4 0.000000 0.649949 0.500000
O O5 0.463792 0.233953 0.661777
O O6 0.333122 0.252004 0.713510
O O7 0.385985 0.000000 0.656505
O O8 0.041314 0.500000 0.629653
O O9 0.075676 0.726348 0.697436
O O10 0.742060 0.760387 0.830777
O O11 0.626765 0.769179 0.799983
O O12 0.665811 0.000000 0.856874
O O13 0.626893 0.762378 0.929506
O O14 0.429469 0.500000 0.864962
O O15 0.368815 0.267590 0.828224
O O16 0.403133 0.260687 0.940527
O O17 0.496829 0.256863 0.823586
O O18 0.815623 0.000000 0.781522
O O19 0.418946 0.000000 0.990726
O O20 0.500000 0.777803 0.000000
O O21 0.450195 0.000000 0.214029
#
# Coordination Sequence:
#
# PCOD8079481 Si02
#       8
#     8   8   8   8   8   8   8   8
#     4   7  11  20  37  68 101 122 147 199 255 279
#     4   9  15  26  47  71  97 127 162 203 241 282
#     4   8  13  22  44  75  98 117 156 210 248 274
#     4   9  19  35  53  72  95 126 164 202 240 283
#     4  11  22  33  49  74 103 130 155 192 246 297
#     4  10  21  35  48  68 103 137 160 190 240 297
#     4  10  19  35  58  77  93 121 163 207 241 277
#     4  10  17  31  55  76  93 123 170 210 236 275
#
# _framework density 17.795124999999999
#
# number of rings (size 3 to 8) (size 9 to 14) (size 15 to 20)
#    0.000    2.750    2.500    1.875    0.000    1.250 
#    0.000    1.250    0.000    4.875    0.000    0.000 
#    0.000    0.000    0.000    0.000    0.000    0.000 
#
# Total GULP energy -396519.134661 kJ/mol
# GULP energy per Si atom -12391.222958 kJ/mol
# Density = 1.775462 g / cm^3
# Si number density = 17.795125 Si / 1000 Ang^3
#
#
#
# Elastic Constant Matrix: (Units=GPa)
#
#
# Indices 1 2 3 4 5 6 
#
# 1 83.7123 14.4036 53.0186 0.0000 -6.4509 0.0000
# 2 14.4036 19.0320 21.6955 0.0000 -0.3673 0.0000
# 3 53.0186 21.6955 173.2004 0.0000 0.4884 0.0000
# 4 0.0000 0.0000 0.0000 16.0287 0.0000 -5.3319
# 5 -6.4509 -0.3673 0.4884 0.0000 24.8928 0.0000
# 6 0.0000 0.0000 0.0000 -5.3319 0.0000 13.8483
#
#
#
# Elastic Compliance Matrix: (Units=1/GPa)
#
#
# Indices 1 2 3 4 5 6 
#
# 1 0.016091 -0.007548 -0.003992 0.000000 0.004137 0.000000
# 2 -0.007548 0.064863 -0.005812 0.000000 -0.000885 0.000000
# 3 -0.003992 -0.005812 0.007727 0.000000 -0.001272 0.000000
# 4 0.000000 0.000000 0.000000 0.071552 0.000000 0.027549
# 5 0.004137 -0.000885 -0.001272 0.000000 0.041256 0.000000
# 6 0.000000 0.000000 0.000000 0.027549 0.000000 0.082818
#
#
# Mechanical properties :
#
#
# Convention : Reuss Voigt Hill
#
# Bulk Modulus (GPa) = 18.52577 50.46446 34.49512
# Shear Modulus (GPa) = 14.83659 23.40910 19.12284
#
# Velocity S-wave (km/s) = 2.89060 3.63089 3.28168
# Velocity P-wave (km/s) = 4.64477 6.78218 5.81257
#
# Compressibility (1/GPa) = 0.05397887
#
# Stress axis : x y z
#
# Youngs Moduli (GPa) = 62.14491 15.41699 129.41166
#
# Poissons Ratio (x) = 0.11636 0.51661
# Poissons Ratio (y) = 0.46904 0.75215
# Poissons Ratio (z) = 0.24808 0.08960
#
# Static dielectric constant tensor:
#      x y z
#    x 3.188110 0.000000 0.071770 
#    y 0.000000 2.848180 0.000000 
#    z 0.071770 0.000000 3.894660 
# 
# 
# High freq. dielectric constant tensor:
#      x y z
#    x 1.655590 0.000000 0.004750 
#    y 0.000000 1.642310 0.000000 
#    z 0.004750 0.000000 1.716460 
# 
# From -- ./inp_files/319104.got.cif
#   From: 2010.06.25/outbox.cif.g09.slc.cpg/sg12_160_cif.got.tgz:319104.got - 2010.06.28 00:19:55.
