data_PCOD8079700
_publ_section_title
;
Structure prediction by ZEFSAII (Michael W. Deem and Ramdas Pophale) SiO2 
 PCOD8079700
Probable space group: C 2/M
;
_chemical_formula_sum "Si O2"
_cell_formula_units_Z 48
_cell_length_a 16.388534
_cell_length_b 19.471436
_cell_length_c 8.528474
_cell_angle_alpha 90.000000
_cell_angle_beta 123.929797
_cell_angle_gamma 90.000000
_cell_volume 2258.094345
_symmetry_space_group_name_H-M "C 2/M"
_symmetry_group_IT_number 12
_symmetry_cell_setting 'monoclinic'
loop_
_space_group_symop_operation_xyz
x,y,z
-x,y,-z
-x,-y,-z
x,-y,z
1/2+x,1/2+y,z
1/2-x,1/2+y,-z
1/2-x,1/2-y,-z
1/2+x,1/2-y,z
loop_
_atom_site_type_symbol
_atom_site_label
_atom_site_fract_x
_atom_site_fract_y
_atom_site_fract_z
Si Si1 0.203512 0.139304 0.239129
Si Si2 0.884505 0.500000 0.847199
Si Si3 0.672328 0.500000 0.069767
Si Si4 0.584728 0.146009 0.700938
Si Si5 0.824303 0.727693 0.947571
Si Si6 0.753603 0.886636 0.363454
Si Si7 0.117911 0.500000 0.809012
Si Si8 0.885072 0.000000 0.349370
O O1 0.310467 0.145009 0.272833
O O2 0.140227 0.205162 0.111344
O O3 0.211950 0.143290 0.434420
O O4 0.142856 0.070205 0.128146
O O5 0.845500 0.432294 0.715909
O O6 0.834197 0.500000 0.965285
O O7 0.000000 0.500000 0.000000
O O8 0.790285 0.500000 0.207818
O O9 0.628400 0.500000 0.851001
O O10 0.500000 0.177736 0.500000
O O11 0.552588 0.068027 0.712557
O O12 0.586575 0.189628 0.865211
O O13 0.768354 0.676538 0.772118
O O14 0.750000 0.750000 0.000000
O O15 0.839247 0.932225 0.378605
O O16 0.000000 0.000000 0.500000
#
# Coordination Sequence:
#
# PCOD8079700 Si02
#       8
#     8   4   4   8   8   8   4   4
#     4  10  22  36  62  85 118 161 197 249 305 356
#     4  11  22  32  59  93 130 157 182 234 304 365
#     4  10  18  41  59  85 115 152 198 242 294 362
#     4  10  20  34  56  87 122 163 204 236 283 367
#     4  10  20  38  60  82 116 167 202 238 299 362
#     4  11  21  40  59  90 123 153 203 251 302 354
#     4  10  17  34  55  83 122 161 189 228 286 362
#     4  11  22  39  66  86 109 155 208 261 306 352
#
# _framework density 21.25686
#
# number of rings (size 3 to 8) (size 9 to 14) (size 15 to 20)
#    0.000    1.667    3.333    3.750    2.333    0.000 
#    0.000    9.167    0.000    8.000    0.000    0.000 
#    0.000    0.000    0.000    0.000    0.000    0.000 
#
# Total GULP energy -297490.059875 kJ/mol
# GULP energy per Si atom -12395.419161 kJ/mol
# Density = 2.120848 g / cm^3
# Si number density = 21.256860 Si / 1000 Ang^3
#
#
#
# Elastic Constant Matrix: (Units=GPa)
#
#
# Indices 1 2 3 4 5 6 
#
# 1 33.3771 30.2850 31.5839 0.0000 5.2312 0.0000
# 2 30.2850 188.7398 96.4493 0.0000 -8.2284 0.0000
# 3 31.5839 96.4493 191.8944 0.0000 -18.0955 0.0000
# 4 0.0000 0.0000 0.0000 38.2257 0.0000 -11.1259
# 5 5.2312 -8.2284 -18.0955 0.0000 35.2647 0.0000
# 6 0.0000 0.0000 0.0000 -11.1259 0.0000 9.6426
#
#
#
# Elastic Compliance Matrix: (Units=1/GPa)
#
#
# Indices 1 2 3 4 5 6 
#
# 1 0.040432 -0.004093 -0.005520 0.000000 -0.009785 0.000000
# 2 -0.004093 0.007545 -0.003042 0.000000 0.000807 0.000000
# 3 -0.005520 -0.003042 0.008049 0.000000 0.004239 0.000000
# 4 0.000000 0.000000 0.000000 0.039388 0.000000 0.045447
# 5 -0.009785 0.000807 0.004239 0.000000 0.032172 0.000000
# 6 0.000000 0.000000 0.000000 0.045447 0.000000 0.156144
#
#
# Mechanical properties :
#
#
# Convention : Reuss Voigt Hill
#
# Bulk Modulus (GPa) = 32.55865 81.18307 56.87086
# Shear Modulus (GPa) = 15.66023 33.67280 24.66652
#
# Velocity S-wave (km/s) = 2.71719 3.98438 3.41016
# Velocity P-wave (km/s) = 5.01938 7.70983 6.50522
#
# Compressibility (1/GPa) = 0.03071380
#
# Stress axis : x y z
#
# Youngs Moduli (GPa) = 24.73291 132.53731 124.24421
#
# Poissons Ratio (x) = 0.54254 0.68583
# Poissons Ratio (y) = 0.10124 0.37801
# Poissons Ratio (z) = 0.13653 0.40324
#
# Static dielectric constant tensor:
#      x y z
#    x 3.405770 0.000000 -0.158320 
#    y 0.000000 4.484710 0.000000 
#    z -0.158320 0.000000 4.113410 
# 
# 
# High freq. dielectric constant tensor:
#      x y z
#    x 1.784540 0.000000 -0.018540 
#    y 0.000000 1.847890 0.000000 
#    z -0.018540 0.000000 1.848270 
# 
# From -- ./inp_files/77058.got.cif
#   From: 2010.06.25/outbox.cif.g09.slc.cpg/sg12_39_cif.got.tgz:77058.got - 2010.06.28 00:19:55.
