data_PCOD8079093
_publ_section_title
;
Structure prediction by ZEFSAII (Michael W. Deem and Ramdas Pophale) SiO2 
 PCOD8079093
Probable space group: C 2/M
;
_chemical_formula_sum "Si O2"
_cell_formula_units_Z 40
_cell_length_a 28.731701
_cell_length_b 8.863020
_cell_length_c 12.596986
_cell_angle_alpha 90.000000
_cell_angle_beta 44.899128
_cell_angle_gamma 90.000000
_cell_volume 2264.272918
_symmetry_space_group_name_H-M "C 2/M"
_symmetry_group_IT_number 12
_symmetry_cell_setting 'monoclinic'
loop_
_space_group_symop_operation_xyz
x,y,z
-x,y,-z
-x,-y,-z
x,-y,z
1/2+x,1/2+y,z
1/2-x,1/2+y,-z
1/2-x,1/2-y,-z
1/2+x,1/2-y,z
loop_
_atom_site_type_symbol
_atom_site_label
_atom_site_fract_x
_atom_site_fract_y
_atom_site_fract_z
Si Si1 0.423961 0.833510 0.153674
Si Si2 0.180028 0.820614 0.089764
Si Si3 0.569231 0.675853 0.426075
Si Si4 0.100268 0.678672 0.037361
Si Si5 0.960822 0.174494 0.292624
O O1 0.414101 0.721690 0.269220
O O2 0.399849 0.000000 0.227101
O O3 0.500000 0.839449 0.000000
O O4 0.385725 0.779606 0.109299
O O5 0.129933 0.757010 0.260797
O O6 0.155521 0.764840 0.014782
O O7 0.185574 0.000000 0.081356
O O8 0.250000 0.750000 0.000000
O O9 0.500000 0.749692 0.500000
O O10 0.566270 0.500000 0.404225
O O11 0.580120 0.705667 0.533614
O O12 0.105082 0.500000 0.047289
O O13 0.027768 0.730800 0.189798
O O14 0.980263 0.000000 0.250353
#
# Coordination Sequence:
#
# PCOD8079093 Si02
#       5
#     8   8   8   8   8
#     4   8  16  29  44  68 104 136 162 205 260 303
#     4  11  22  37  55  75 104 137 173 211 253 308
#     4   9  17  32  52  75 104 136 166 207 261 303
#     4  10  19  32  49  72 104 138 170 207 256 302
#     4  10  17  28  50  77 102 132 171 210 252 303
#
# _framework density 17.665714999999999
#
# number of rings (size 3 to 8) (size 9 to 14) (size 15 to 20)
#    0.000    2.400    2.000    3.000    0.000    4.400 
#    0.000    5.000    0.000    1.200    0.000    0.000 
#    0.000    0.000    0.000    0.000    0.000    0.000 
#
# Total GULP energy -247904.578053 kJ/mol
# GULP energy per Si atom -12395.228903 kJ/mol
# Density = 1.762551 g / cm^3
# Si number density = 17.665715 Si / 1000 Ang^3
#
#
#
# Elastic Constant Matrix: (Units=GPa)
#
#
# Indices 1 2 3 4 5 6 
#
# 1 129.8162 45.2586 72.5678 0.0000 17.6259 0.0000
# 2 45.2586 69.7043 37.3875 0.0000 9.7764 0.0000
# 3 72.5678 37.3875 97.6010 0.0000 11.9822 0.0000
# 4 0.0000 0.0000 0.0000 12.3601 0.0000 4.5201
# 5 17.6259 9.7764 11.9822 0.0000 31.1598 0.0000
# 6 0.0000 0.0000 0.0000 4.5201 0.0000 32.1823
#
#
#
# Elastic Compliance Matrix: (Units=1/GPa)
#
#
# Indices 1 2 3 4 5 6 
#
# 1 0.014569 -0.004262 -0.008766 0.000000 -0.003533 0.000000
# 2 -0.004262 0.019604 -0.004074 0.000000 -0.002173 0.000000
# 3 -0.008766 -0.004074 0.018428 0.000000 -0.000850 0.000000
# 4 0.000000 0.000000 0.000000 0.085286 0.000000 -0.011979
# 5 -0.003533 -0.002173 -0.000850 0.000000 0.035100 0.000000
# 6 0.000000 0.000000 0.000000 -0.011979 0.000000 0.032755
#
#
# Mechanical properties :
#
#
# Convention : Reuss Voigt Hill
#
# Bulk Modulus (GPa) = 54.35579 67.50547 60.93063
# Shear Modulus (GPa) = 20.31882 24.60096 22.45989
#
# Velocity S-wave (km/s) = 3.39512 3.73578 3.56951
# Velocity P-wave (km/s) = 6.79742 7.54346 7.18014
#
# Compressibility (1/GPa) = 0.01839730
#
# Stress axis : x y z
#
# Youngs Moduli (GPa) = 68.63885 51.01121 54.26511
#
# Poissons Ratio (x) = 0.21743 0.47568
# Poissons Ratio (y) = 0.29256 0.22105
# Poissons Ratio (z) = 0.60167 0.20780
#
# Static dielectric constant tensor:
#      x y z
#    x 3.480610 0.000000 0.470940 
#    y 0.000000 3.235620 0.000000 
#    z 0.470940 0.000000 3.328660 
# 
# 
# High freq. dielectric constant tensor:
#      x y z
#    x 1.673940 0.000000 0.037110 
#    y 0.000000 1.675680 0.000000 
#    z 0.037110 0.000000 1.660180 
# 
# From -- ./inp_files/162385.got.cif
#   From: 2010.06.25/outbox.cif.g09.slc.cpg/sg12_82_cif.got.tgz:162385.got - 2010.06.28 00:19:55.
