data_PCOD8079650
_publ_section_title
;
Structure prediction by ZEFSAII (Michael W. Deem and Ramdas Pophale) SiO2 
 PCOD8079650
Probable space group: C 2/M
;
_chemical_formula_sum "Si O2"
_cell_formula_units_Z 56
_cell_length_a 18.798484
_cell_length_b 14.093156
_cell_length_c 18.283181
_cell_angle_alpha 90.000000
_cell_angle_beta 40.035144
_cell_angle_gamma 90.000000
_cell_volume 3115.785929
_symmetry_space_group_name_H-M "C 2/M"
_symmetry_group_IT_number 12
_symmetry_cell_setting 'monoclinic'
loop_
_space_group_symop_operation_xyz
x,y,z
-x,y,-z
-x,-y,-z
x,-y,z
1/2+x,1/2+y,z
1/2-x,1/2+y,-z
1/2-x,1/2-y,-z
1/2+x,1/2-y,z
loop_
_atom_site_type_symbol
_atom_site_label
_atom_site_fract_x
_atom_site_fract_y
_atom_site_fract_z
Si Si1 0.297795 0.393432 0.024869
Si Si2 0.279093 0.109286 0.501305
Si Si3 0.967887 0.742972 0.940023
Si Si4 0.492704 0.102192 0.420947
Si Si5 0.613853 0.762301 0.231209
Si Si6 0.268339 0.106297 0.086762
Si Si7 0.398506 0.250710 0.305929
O O1 0.298260 0.500000 0.056499
O O2 0.187543 0.339187 0.132517
O O3 0.405375 0.340760 0.971163
O O4 0.296376 0.395284 0.938711
O O5 0.367697 0.122406 0.495726
O O6 0.325630 0.161388 0.391667
O O7 0.167645 0.153737 0.622219
O O8 0.256091 0.000000 0.498945
O O9 0.075492 0.737630 0.801561
O O10 0.890001 0.651999 0.985673
O O11 0.000000 0.742739 0.000000
O O12 0.500000 0.093738 0.500000
O O13 0.570535 0.188975 0.338432
O O14 0.529609 0.000000 0.357222
O O15 0.686471 0.671578 0.200116
O O16 0.514819 0.737702 0.254928
O O17 0.279552 0.000000 0.110262
#
# Coordination Sequence:
#
# PCOD8079650 Si02
#       7
#     8   8   8   8   8   8   8
#     4  10  19  34  56  83 108 136 178 222 267 327
#     4   9  20  34  53  76 101 137 178 226 267 309
#     4  11  22  36  54  81 118 148 175 221 279 330
#     4   9  18  32  52  79 106 134 171 216 275 331
#     4  10  17  33  56  76 102 137 180 223 266 315
#     4  10  20  35  55  79 106 140 187 224 255 316
#     4  10  19  35  52  76 105 136 184 219 265 329
#
# _framework density 17.972994
#
# number of rings (size 3 to 8) (size 9 to 14) (size 15 to 20)
#    0.000    2.143    2.857    1.286    0.000    5.143 
#    0.000    1.429    0.000    0.429    0.000    0.000 
#    0.000    0.000    0.000    0.000    0.000    0.000 
#
# Total GULP energy -347023.555261 kJ/mol
# GULP energy per Si atom -12393.698402 kJ/mol
# Density = 1.793209 g / cm^3
# Si number density = 17.972994 Si / 1000 Ang^3
#
#
#
# Elastic Constant Matrix: (Units=GPa)
#
#
# Indices 1 2 3 4 5 6 
#
# 1 65.3141 33.1250 43.6431 0.0000 4.1753 0.0000
# 2 33.1250 160.6703 68.5545 0.0000 -15.0678 0.0000
# 3 43.6431 68.5545 118.7753 0.0000 -1.6013 0.0000
# 4 0.0000 0.0000 0.0000 83.7064 0.0000 -30.4037
# 5 4.1753 -15.0678 -1.6013 0.0000 17.6861 0.0000
# 6 0.0000 0.0000 0.0000 -30.4037 0.0000 27.6102
#
#
#
# Elastic Compliance Matrix: (Units=1/GPa)
#
#
# Indices 1 2 3 4 5 6 
#
# 1 0.021397 -0.002290 -0.006643 0.000000 -0.007604 0.000000
# 2 -0.002290 0.009354 -0.004448 0.000000 0.008107 0.000000
# 3 -0.006643 -0.004448 0.013414 0.000000 -0.001007 0.000000
# 4 0.000000 0.000000 0.000000 0.019910 0.000000 0.021924
# 5 -0.007604 0.008107 -0.001007 0.000000 0.065153 0.000000
# 6 0.000000 0.000000 0.000000 0.021924 0.000000 0.060361
#
#
# Mechanical properties :
#
#
# Convention : Reuss Voigt Hill
#
# Bulk Modulus (GPa) = 57.46219 70.60054 64.03137
# Shear Modulus (GPa) = 22.50702 39.09632 30.80167
#
# Velocity S-wave (km/s) = 3.54258 4.66905 4.14427
# Velocity P-wave (km/s) = 6.98384 8.27245 7.65531
#
# Compressibility (1/GPa) = 0.01740275
#
# Stress axis : x y z
#
# Youngs Moduli (GPa) = 46.73557 106.90126 74.54849
#
# Poissons Ratio (x) = 0.24481 0.49522
# Poissons Ratio (y) = 0.10703 0.33162
# Poissons Ratio (z) = 0.31046 0.47554
#
# Static dielectric constant tensor:
#      x y z
#    x 3.117330 0.000000 -0.099290 
#    y 0.000000 3.823670 0.000000 
#    z -0.099290 0.000000 3.390700 
# 
# 
# High freq. dielectric constant tensor:
#      x y z
#    x 1.674380 0.000000 -0.012580 
#    y 0.000000 1.705420 0.000000 
#    z -0.012580 0.000000 1.691380 
# 
# From -- ./inp_files/277803.got.cif
#   From: 2010.06.25/outbox.cif.g09.slc.cpg/sg12_139_cif.got.tgz:277803.got - 2010.06.28 00:19:55.
