data_PCOD8079885
_publ_section_title
;
Structure prediction by ZEFSAII (Michael W. Deem and Ramdas Pophale) SiO2 
 PCOD8079885
Probable space group: C 2/M
;
_chemical_formula_sum "Si O2"
_cell_formula_units_Z 56
_cell_length_a 27.058041
_cell_length_b 16.717295
_cell_length_c 8.394546
_cell_angle_alpha 90.000000
_cell_angle_beta 90.896875
_cell_angle_gamma 90.000000
_cell_volume 3796.700683
_symmetry_space_group_name_H-M "C 2/M"
_symmetry_group_IT_number 12
_symmetry_cell_setting 'monoclinic'
loop_
_space_group_symop_operation_xyz
x,y,z
-x,y,-z
-x,-y,-z
x,-y,z
1/2+x,1/2+y,z
1/2-x,1/2+y,-z
1/2-x,1/2-y,-z
1/2+x,1/2-y,z
loop_
_atom_site_type_symbol
_atom_site_label
_atom_site_fract_x
_atom_site_fract_y
_atom_site_fract_z
Si Si1 0.348431 0.406394 0.425031
Si Si2 0.551706 0.594715 0.070806
Si Si3 0.719672 0.297719 0.368255
Si Si4 0.347588 0.353151 0.071482
Si Si5 0.951540 0.093014 0.576308
Si Si6 0.800456 0.712593 0.937258
Si Si7 0.749140 0.408778 0.106540
O O1 0.334101 0.500000 0.442009
O O2 0.321087 0.354285 0.555488
O O3 0.333973 0.374085 0.251445
O O4 0.406468 0.392976 0.454531
O O5 0.550663 0.500000 0.069700
O O6 0.559067 0.629802 0.249439
O O7 0.500000 0.628740 0.000000
O O8 0.597001 0.620591 0.962563
O O9 0.750000 0.250000 0.500000
O O10 0.694240 0.230861 0.251211
O O11 0.755158 0.356224 0.267624
O O12 0.344222 0.257417 0.036907
O O13 0.307150 0.398548 0.960008
O O14 0.000000 0.133516 0.500000
O O15 0.962275 0.000000 0.603411
O O16 0.750000 0.750000 0.000000
O O17 0.792367 0.619090 0.981911
O O18 0.759576 0.500000 0.148237
#
# Coordination Sequence:
#
# PCOD8079885 Si02
#       7
#     8   8   8   8   8   8   8
#     4  11  19  26  40  60  80 107 143 176 204 239
#     4  10  18  27  39  55  78 110 145 176 205 241
#     4  10  18  29  41  58  83 108 135 168 210 248
#     4  10  18  29  42  58  82 112 142 172 208 248
#     4   9  17  27  37  53  77 102 133 174 210 234
#     4   8  17  30  43  57  77 106 134 167 208 249
#     4  10  18  30  46  62  80 106 142 175 205 247
#
# _framework density 14.749648000000001
#
# number of rings (size 3 to 8) (size 9 to 14) (size 15 to 20)
#    0.000    2.571    0.000    6.857    0.000    3.429 
#    0.000    0.714    0.000    0.000    0.000    0.000 
#    0.000    0.571    0.000    0.143    0.000   36.857 
#
# Total GULP energy -346936.857305 kJ/mol
# GULP energy per Si atom -12390.602047 kJ/mol
# Density = 1.471608 g / cm^3
# Si number density = 14.749648 Si / 1000 Ang^3
#
#
#
# Elastic Constant Matrix: (Units=GPa)
#
#
# Indices 1 2 3 4 5 6 
#
# 1 53.4016 29.4512 30.6211 0.0000 -1.1953 0.0000
# 2 29.4512 71.3517 35.8139 0.0000 0.0385 0.0000
# 3 30.6211 35.8139 95.2066 0.0000 -5.5422 0.0000
# 4 0.0000 0.0000 0.0000 22.2863 0.0000 -2.7126
# 5 -1.1953 0.0385 -5.5422 0.0000 23.9424 0.0000
# 6 0.0000 0.0000 0.0000 -2.7126 0.0000 15.5258
#
#
#
# Elastic Compliance Matrix: (Units=1/GPa)
#
#
# Indices 1 2 3 4 5 6 
#
# 1 0.026318 -0.008157 -0.005392 0.000000 0.000079 0.000000
# 2 -0.008157 0.019862 -0.004940 0.000000 -0.001583 0.000000
# 3 -0.005392 -0.004940 0.014273 0.000000 0.003043 0.000000
# 4 0.000000 0.000000 0.000000 0.045846 0.000000 0.008010
# 5 0.000079 -0.001583 0.003043 0.000000 0.042478 0.000000
# 6 0.000000 0.000000 0.000000 0.008010 0.000000 0.065808
#
#
# Mechanical properties :
#
#
# Convention : Reuss Voigt Hill
#
# Bulk Modulus (GPa) = 42.59681 45.74802 44.17241
# Shear Modulus (GPa) = 19.27614 20.62248 19.94931
#
# Velocity S-wave (km/s) = 3.61901 3.74326 3.68166
# Velocity P-wave (km/s) = 6.81216 7.05453 6.93441
#
# Compressibility (1/GPa) = 0.02347594
#
# Stress axis : x y z
#
# Youngs Moduli (GPa) = 37.99696 50.34613 70.06177
#
# Poissons Ratio (x) = 0.41066 0.37775
# Poissons Ratio (y) = 0.30993 0.34613
# Poissons Ratio (z) = 0.20487 0.24873
#
# Static dielectric constant tensor:
#      x y z
#    x 2.866300 0.000000 -0.116150 
#    y 0.000000 3.184630 0.000000 
#    z -0.116150 0.000000 3.152710 
# 
# 
# High freq. dielectric constant tensor:
#      x y z
#    x 1.541800 0.000000 -0.006820 
#    y 0.000000 1.525120 0.000000 
#    z -0.006820 0.000000 1.583860 
# 
# From -- ./inp_files/97373.got.cif
#   From: 2010.06.25/outbox.cif.g09.slc.cpg/sg12_49_cif.got.tgz:97373.got - 2010.06.28 00:19:55.
