data_PCOD8079251
_publ_section_title
;
Structure prediction by ZEFSAII (Michael W. Deem and Ramdas Pophale) SiO2 
 PCOD8079251
Probable space group: C 2/M
;
_chemical_formula_sum "Si O2"
_cell_formula_units_Z 64
_cell_length_a 19.413411
_cell_length_b 21.393739
_cell_length_c 10.573260
_cell_angle_alpha 90.000000
_cell_angle_beta 132.547362
_cell_angle_gamma 90.000000
_cell_volume 3235.184882
_symmetry_space_group_name_H-M "C 2/M"
_symmetry_group_IT_number 12
_symmetry_cell_setting 'monoclinic'
loop_
_space_group_symop_operation_xyz
x,y,z
-x,y,-z
-x,-y,-z
x,-y,z
1/2+x,1/2+y,z
1/2-x,1/2+y,-z
1/2-x,1/2-y,-z
1/2+x,1/2-y,z
loop_
_atom_site_type_symbol
_atom_site_label
_atom_site_fract_x
_atom_site_fract_y
_atom_site_fract_z
Si Si1 0.511977 0.391145 0.326692
Si Si2 0.624280 0.571009 0.040572
Si Si3 0.361478 0.701710 0.844036
Si Si4 0.478232 0.260667 0.768550
Si Si5 0.948666 0.336098 0.316562
Si Si6 0.790856 0.431641 0.053558
Si Si7 0.296728 0.745202 0.195573
Si Si8 0.655211 0.605068 0.694079
O O1 0.518350 0.316125 0.328634
O O2 0.432532 0.408750 0.326648
O O3 0.615354 0.413851 0.504633
O O4 0.478129 0.423208 0.153819
O O5 0.633831 0.500000 0.106607
O O6 0.627852 0.625492 0.151243
O O7 0.709409 0.587677 0.050881
O O8 0.383784 0.731569 0.734760
O O9 0.258697 0.719261 0.762184
O O10 0.431391 0.732163 0.031439
O O11 0.481593 0.192562 0.704096
O O12 0.876978 0.384196 0.163715
O O13 0.897075 0.276812 0.312488
O O14 0.000000 0.369108 0.500000
O O15 0.830709 0.500000 0.135132
O O16 0.744096 0.434317 0.854954
O O17 0.308860 0.675379 0.255732
O O18 0.250000 0.750000 0.000000
#
# Coordination Sequence:
#
# PCOD8079251 Si02
#       8
#     8   8   8   8   8   8   8   8
#     4   9  17  29  46  77 111 139 175 222 269 330
#     4   9  17  32  53  77 109 151 185 216 266 329
#     4  10  19  32  54  80 119 141 181 231 262 334
#     4  10  19  33  50  83 116 141 173 225 281 329
#     4  12  22  35  56  81 113 147 184 232 283 325
#     4  10  20  34  54  80 106 144 195 229 264 321
#     4  12  17  32  56  80 105 143 181 222 282 338
#     4  10  17  29  52  75 105 141 180 225 276 320
#
# _framework density 19.782487
#
# number of rings (size 3 to 8) (size 9 to 14) (size 15 to 20)
#    0.000    1.750    5.000    1.500    0.000    0.750 
#    0.000   10.000    0.000    0.000    0.000    7.000 
#    0.000    0.000    0.000    0.000    0.000    0.000 
#
# Total GULP energy -396417.668223 kJ/mol
# GULP energy per Si atom -12388.052132 kJ/mol
# Density = 1.973746 g / cm^3
# Si number density = 19.782487 Si / 1000 Ang^3
#
#
#
# Elastic Constant Matrix: (Units=GPa)
#
#
# Indices 1 2 3 4 5 6 
#
# 1 78.1369 32.0991 19.1377 0.0000 0.8165 0.0000
# 2 32.0991 92.9669 23.4986 0.0000 0.0574 0.0000
# 3 19.1377 23.4986 79.6645 0.0000 2.1611 0.0000
# 4 0.0000 0.0000 0.0000 6.3246 0.0000 4.1348
# 5 0.8165 0.0574 2.1611 0.0000 10.4621 0.0000
# 6 0.0000 0.0000 0.0000 4.1348 0.0000 17.0045
#
#
#
# Elastic Compliance Matrix: (Units=1/GPa)
#
#
# Indices 1 2 3 4 5 6 
#
# 1 0.015294 -0.004707 -0.002267 0.000000 -0.000700 0.000000
# 2 -0.004707 0.013076 -0.002750 0.000000 0.000864 0.000000
# 3 -0.002267 -0.002750 0.013981 0.000000 -0.002696 0.000000
# 4 0.000000 0.000000 0.000000 0.187999 0.000000 -0.045714
# 5 -0.000700 0.000864 -0.002696 0.000000 0.096190 0.000000
# 6 0.000000 0.000000 0.000000 -0.045714 0.000000 0.069923
#
#
# Mechanical properties :
#
#
# Convention : Reuss Voigt Hill
#
# Bulk Modulus (GPa) = 43.65932 44.47101 44.06516
# Shear Modulus (GPa) = 11.80508 18.49378 15.14943
#
# Velocity S-wave (km/s) = 2.44548 3.06086 2.77031
# Velocity P-wave (km/s) = 5.48557 5.91782 5.70579
#
# Compressibility (1/GPa) = 0.02290462
#
# Stress axis : x y z
#
# Youngs Moduli (GPa) = 65.38363 76.47393 71.52373
#
# Poissons Ratio (x) = 0.35999 0.16212
# Poissons Ratio (y) = 0.30779 0.19667
# Poissons Ratio (z) = 0.14820 0.21028
#
# Static dielectric constant tensor:
#      x y z
#    x 3.470100 0.000000 -0.061840 
#    y 0.000000 3.455360 0.000000 
#    z -0.061840 0.000000 3.874480 
# 
# 
# High freq. dielectric constant tensor:
#      x y z
#    x 1.734460 0.000000 0.000830 
#    y 0.000000 1.756190 0.000000 
#    z 0.000830 0.000000 1.762880 
# 
# From -- ./inp_files/169713.got.cif
#   From: 2010.06.25/outbox.cif.g09.slc.cpg/sg12_85_cif.got.tgz:169713.got - 2010.06.28 00:19:55.
