data_PCOD8079688
_publ_section_title
;
Structure prediction by ZEFSAII (Michael W. Deem and Ramdas Pophale) SiO2 
 PCOD8079688
Probable space group: C 2/M
;
_chemical_formula_sum "Si O2"
_cell_formula_units_Z 48
_cell_length_a 13.778371
_cell_length_b 21.886112
_cell_length_c 12.432121
_cell_angle_alpha 90.000000
_cell_angle_beta 138.896017
_cell_angle_gamma 90.000000
_cell_volume 2464.675070
_symmetry_space_group_name_H-M "C 2/M"
_symmetry_group_IT_number 12
_symmetry_cell_setting 'monoclinic'
loop_
_space_group_symop_operation_xyz
x,y,z
-x,y,-z
-x,-y,-z
x,-y,z
1/2+x,1/2+y,z
1/2-x,1/2+y,-z
1/2-x,1/2-y,-z
1/2+x,1/2-y,z
loop_
_atom_site_type_symbol
_atom_site_label
_atom_site_fract_x
_atom_site_fract_y
_atom_site_fract_z
Si Si1 0.569720 0.141576 0.771793
Si Si2 0.838257 0.841071 0.863712
Si Si3 0.133583 0.709576 0.031700
Si Si4 0.658652 0.657656 0.641682
Si Si5 0.180581 0.717597 0.543401
Si Si6 0.915715 0.569534 0.816646
O O1 0.709673 0.119851 0.815599
O O2 0.449853 0.170137 0.590818
O O3 0.520778 0.083059 0.801761
O O4 0.600233 0.196288 0.880586
O O5 0.845699 0.781343 0.944216
O O6 0.799889 0.822538 0.709275
O O7 0.000000 0.873983 0.000000
O O8 0.279398 0.670456 0.186604
O O9 0.000000 0.689035 0.000000
O O10 0.500000 0.623922 0.500000
O O11 0.630626 0.724870 0.570940
O O12 0.775869 0.613930 0.680496
O O13 0.250000 0.750000 0.500000
O O14 0.860827 0.500000 0.764628
O O15 0.000000 0.580766 0.000000
#
# Coordination Sequence:
#
# PCOD8079688 Si02
#       6
#     8   8   8   8   8   8
#     4  12  19  37  57  81 118 156 192 238 288 350
#     4  10  22  32  50  84 121 150 186 227 292 356
#     4  10  17  34  53  81 119 156 183 219 280 362
#     4  11  20  34  55  87 120 147 188 241 297 344
#     4  11  20  34  56  85 120 157 187 234 290 366
#     4  11  23  42  63  82 109 157 209 241 282 347
#
# _framework density 19.475183000000001
#
# number of rings (size 3 to 8) (size 9 to 14) (size 15 to 20)
#    0.000    1.167    5.000    5.000    0.000    1.667 
#    0.000    0.000    0.000    2.500    0.000    0.000 
#    0.000    0.000    0.000    0.000    0.000    0.000 
#
# Total GULP energy -297316.641205 kJ/mol
# GULP energy per Si atom -12388.193384 kJ/mol
# Density = 1.943086 g / cm^3
# Si number density = 19.475183 Si / 1000 Ang^3
#
#
#
# Elastic Constant Matrix: (Units=GPa)
#
#
# Indices 1 2 3 4 5 6 
#
# 1 116.4167 9.5195 50.0472 0.0000 16.9190 0.0000
# 2 9.5195 58.6263 20.2022 0.0000 6.6348 0.0000
# 3 50.0472 20.2022 115.6079 0.0000 11.4634 0.0000
# 4 0.0000 0.0000 0.0000 13.1294 0.0000 1.7049
# 5 16.9190 6.6348 11.4634 0.0000 38.0570 0.0000
# 6 0.0000 0.0000 0.0000 1.7049 0.0000 -6.4000
#
#
#
# Elastic Compliance Matrix: (Units=1/GPa)
#
#
# Indices 1 2 3 4 5 6 
#
# 1 0.011005 0.000147 -0.004434 0.000000 -0.003582 0.000000
# 2 0.000147 0.018346 -0.003036 0.000000 -0.002349 0.000000
# 3 -0.004434 -0.003036 0.011186 0.000000 -0.000869 0.000000
# 4 0.000000 0.000000 0.000000 0.073618 0.000000 0.019611
# 5 -0.003582 -0.002349 -0.000869 0.000000 0.028540 0.000000
# 6 0.000000 0.000000 0.000000 0.019611 0.000000 -0.151026
#
#
# Mechanical properties :
#
#
# Convention : Reuss Voigt Hill
#
# Bulk Modulus (GPa) = 38.62761 50.02096 44.32429
# Shear Modulus (GPa) = 334.50727 23.01608 178.76168
#
# Velocity S-wave (km/s) = 13.11997 3.44148 9.59108
# Velocity P-wave (km/s) = 15.79205 6.44453 12.06070
#
# Compressibility (1/GPa) = 0.02588822
#
# Stress axis : x y z
#
# Youngs Moduli (GPa) = 90.86932 54.50913 89.39460
#
# Poissons Ratio (x) = -0.00799 0.39642
# Poissons Ratio (y) = -0.01332 0.27144
# Poissons Ratio (z) = 0.40295 0.16551
#
# Static dielectric constant tensor:
#      x y z
#    x 3.084860 0.000000 1.532380 
#    y 0.000000 3.257220 0.000000 
#    z 1.532380 0.000000 0.659950 
# 
# 
# High freq. dielectric constant tensor:
#      x y z
#    x 1.756090 0.000000 0.004750 
#    y 0.000000 1.698170 0.000000 
#    z 0.004750 0.000000 1.774020 
# 
# From -- ./inp_files/147998.got.cif
#   From: 2010.06.25/outbox.cif.g09.slc.cpg/sg12_74_cif.got.tgz:147998.got - 2010.06.28 00:19:55.
