data_PCOD8079604
_publ_section_title
;
Structure prediction by ZEFSAII (Michael W. Deem and Ramdas Pophale) SiO2 
 PCOD8079604
Probable space group: C 2/M
;
_chemical_formula_sum "Si O2"
_cell_formula_units_Z 56
_cell_length_a 25.158830
_cell_length_b 8.503688
_cell_length_c 12.434168
_cell_angle_alpha 90.000000
_cell_angle_beta 76.322736
_cell_angle_gamma 90.000000
_cell_volume 2584.765965
_symmetry_space_group_name_H-M "C 2/M"
_symmetry_group_IT_number 12
_symmetry_cell_setting 'monoclinic'
loop_
_space_group_symop_operation_xyz
x,y,z
-x,y,-z
-x,-y,-z
x,-y,z
1/2+x,1/2+y,z
1/2-x,1/2+y,-z
1/2-x,1/2-y,-z
1/2+x,1/2-y,z
loop_
_atom_site_type_symbol
_atom_site_label
_atom_site_fract_x
_atom_site_fract_y
_atom_site_fract_z
Si Si1 0.864225 0.815498 0.406187
Si Si2 0.646460 0.326839 0.996350
Si Si3 0.297167 0.313042 0.230720
Si Si4 0.820902 0.684450 0.637678
Si Si5 0.044211 0.826115 0.896464
Si Si6 0.404609 0.315538 0.762316
Si Si7 0.975192 0.320295 0.307961
O O1 0.843072 0.763741 0.297388
O O2 0.827344 0.721898 0.509047
O O3 0.928213 0.772734 0.396521
O O4 0.855895 0.000000 0.427783
O O5 0.666292 0.500000 0.023971
O O6 0.692597 0.243873 0.897298
O O7 0.600811 0.342377 0.927871
O O8 0.623638 0.239917 0.114935
O O9 0.297275 0.500000 0.221156
O O10 0.238175 0.252446 0.296936
O O11 0.827874 0.500000 0.656132
O O12 0.866478 0.780302 0.680293
O O13 0.044144 0.695339 0.805218
O O14 0.028254 0.000000 0.856732
O O15 0.000000 0.764303 0.000000
O O16 0.412284 0.500000 0.777283
O O17 0.463869 0.245527 0.707038
O O18 0.974724 0.500000 0.345905
#
# Coordination Sequence:
#
# PCOD8079604 Si02
#       7
#     8   8   8   8   8   8   8
#     4  11  22  41  68  92 116 158 210 250 297 369
#     4   9  17  33  61  92 120 156 203 246 288 351
#     4   9  19  37  65  94 121 156 199 251 307 355
#     4  11  24  42  61  88 126 161 199 256 312 351
#     4  10  17  32  58  87 120 162 203 244 294 359
#     4  11  23  41  63  88 121 168 213 242 286 369
#     4  12  24  37  58  93 129 157 193 254 317 360
#
# _framework density 21.665405
#
# number of rings (size 3 to 8) (size 9 to 14) (size 15 to 20)
#    0.000    1.571    2.857    3.000    0.000    1.429 
#    0.000    5.000    0.000    0.000    0.000    0.000 
#    0.000    0.000    0.000    0.000    0.000    0.000 
#
# Total GULP energy -346909.296822 kJ/mol
# GULP energy per Si atom -12389.617744 kJ/mol
# Density = 2.161609 g / cm^3
# Si number density = 21.665405 Si / 1000 Ang^3
#
#
#
# Elastic Constant Matrix: (Units=GPa)
#
#
# Indices 1 2 3 4 5 6 
#
# 1 92.3615 21.3623 23.8806 0.0000 -19.4261 0.0000
# 2 21.3623 47.7947 8.0848 0.0000 -2.5503 0.0000
# 3 23.8806 8.0848 68.1302 0.0000 -20.0795 0.0000
# 4 0.0000 0.0000 0.0000 28.2865 0.0000 -0.2509
# 5 -19.4261 -2.5503 -20.0795 0.0000 43.9646 0.0000
# 6 0.0000 0.0000 0.0000 -0.2509 0.0000 21.8375
#
#
#
# Elastic Compliance Matrix: (Units=1/GPa)
#
#
# Indices 1 2 3 4 5 6 
#
# 1 0.013761 -0.005428 -0.002866 0.000000 0.004457 0.000000
# 2 -0.005428 0.023493 -0.001376 0.000000 -0.001664 0.000000
# 3 -0.002866 -0.001376 0.017852 0.000000 0.006807 0.000000
# 4 0.000000 0.000000 0.000000 0.035356 0.000000 0.000406
# 5 0.004457 -0.001664 0.006807 0.000000 0.027727 0.000000
# 6 0.000000 0.000000 0.000000 0.000406 0.000000 0.045798
#
#
# Mechanical properties :
#
#
# Convention : Reuss Voigt Hill
#
# Bulk Modulus (GPa) = 27.95902 34.99353 31.47628
# Shear Modulus (GPa) = 25.60856 29.14828 27.37842
#
# Velocity S-wave (km/s) = 3.44176 3.67193 3.55870
# Velocity P-wave (km/s) = 5.35977 5.84502 5.60765
#
# Compressibility (1/GPa) = 0.03576663
#
# Stress axis : x y z
#
# Youngs Moduli (GPa) = 72.67045 42.56619 56.01687
#
# Poissons Ratio (x) = 0.23105 0.16053
# Poissons Ratio (y) = 0.39445 0.07706
# Poissons Ratio (z) = 0.20826 0.05856
#
# Static dielectric constant tensor:
#      x y z
#    x 3.936410 0.000000 -0.324010 
#    y 0.000000 3.542260 0.000000 
#    z -0.324010 0.000000 4.170200 
# 
# 
# High freq. dielectric constant tensor:
#      x y z
#    x 1.851090 0.000000 -0.021970 
#    y 0.000000 1.808830 0.000000 
#    z -0.021970 0.000000 1.866170 
# 
# From -- ./inp_files/180783.got.cif
#   From: 2010.06.25/outbox.cif.g09.slc.cpg/sg12_91_cif.got.tgz:180783.got - 2010.06.28 00:19:55.
