data_PCOD8079564
_publ_section_title
;
Structure prediction by ZEFSAII (Michael W. Deem and Ramdas Pophale) SiO2 
 PCOD8079564
Probable space group: C 2/M
;
_chemical_formula_sum "Si O2"
_cell_formula_units_Z 56
_cell_length_a 27.753232
_cell_length_b 13.674136
_cell_length_c 12.488378
_cell_angle_alpha 90.000000
_cell_angle_beta 38.876273
_cell_angle_gamma 90.000000
_cell_volume 2974.613949
_symmetry_space_group_name_H-M "C 2/M"
_symmetry_group_IT_number 12
_symmetry_cell_setting 'monoclinic'
loop_
_space_group_symop_operation_xyz
x,y,z
-x,y,-z
-x,-y,-z
x,-y,z
1/2+x,1/2+y,z
1/2-x,1/2+y,-z
1/2-x,1/2-y,-z
1/2+x,1/2-y,z
loop_
_atom_site_type_symbol
_atom_site_label
_atom_site_fract_x
_atom_site_fract_y
_atom_site_fract_z
Si Si1 0.254983 0.695239 0.659542
Si Si2 0.864900 0.232653 0.987541
Si Si3 0.837489 0.113497 0.712925
Si Si4 0.083194 0.715962 0.324914
Si Si5 0.567920 0.611078 0.953667
Si Si6 0.736901 0.390378 0.581095
Si Si7 0.762367 0.612324 0.914061
O O1 0.320883 0.651727 0.622214
O O2 0.244001 0.626433 0.576142
O O3 0.276781 0.806961 0.585867
O O4 0.173684 0.690929 0.863177
O O5 0.910967 0.285611 0.813687
O O6 0.926749 0.167168 0.943065
O O7 0.794891 0.166598 0.066168
O O8 0.907996 0.174469 0.641902
O O9 0.861072 0.000000 0.669900
O O10 0.762931 0.131490 0.918590
O O11 0.151335 0.649566 0.254652
O O12 0.000000 0.673197 0.500000
O O13 0.547173 0.500000 0.018239
O O14 0.645773 0.619904 0.751589
O O15 0.500000 0.657851 0.000000
O O16 0.764640 0.500000 0.566189
O O17 0.758296 0.500000 0.890036
#
# Coordination Sequence:
#
# PCOD8079564 Si02
#       7
#     8   8   8   8   8   8   8
#     4  10  17  32  54  74 106 138 185 233 265 319
#     4  10  18  35  55  77 107 149 190 222 275 330
#     4  10  19  34  56  80 107 143 186 223 273 333
#     4  11  22  36  52  82 119 146 180 230 279 335
#     4   9  18  32  50  77 110 142 177 217 272 337
#     4   9  19  31  49  79 109 137 178 228 277 324
#     4  10  19  35  58  79 107 146 192 233 267 328
#
# _framework density 18.825972
#
# number of rings (size 3 to 8) (size 9 to 14) (size 15 to 20)
#    0.000    2.143    2.857    1.714    0.000    2.857 
#    0.000    1.429    0.000    0.000    0.000    0.000 
#    0.000   11.429    0.000    0.000    0.000    0.000 
#
# Total GULP energy -347154.261129 kJ/mol
# GULP energy per Si atom -12398.366469 kJ/mol
# Density = 1.878312 g / cm^3
# Si number density = 18.825972 Si / 1000 Ang^3
#
#
#
# Elastic Constant Matrix: (Units=GPa)
#
#
# Indices 1 2 3 4 5 6 
#
# 1 75.0494 2.6731 25.5494 0.0000 2.9600 0.0000
# 2 2.6731 52.8736 9.9583 0.0000 -1.3081 0.0000
# 3 25.5494 9.9583 76.4796 0.0000 4.9409 0.0000
# 4 0.0000 0.0000 0.0000 19.9856 0.0000 4.1246
# 5 2.9600 -1.3081 4.9409 0.0000 32.7329 0.0000
# 6 0.0000 0.0000 0.0000 4.1246 0.0000 25.4902
#
#
#
# Elastic Compliance Matrix: (Units=1/GPa)
#
#
# Indices 1 2 3 4 5 6 
#
# 1 0.015048 0.000168 -0.005010 0.000000 -0.000598 0.000000
# 2 0.000168 0.019435 -0.002662 0.000000 0.001163 0.000000
# 3 -0.005010 -0.002662 0.015222 0.000000 -0.001951 0.000000
# 4 0.000000 0.000000 0.000000 0.051765 0.000000 -0.008376
# 5 -0.000598 0.001163 -0.001951 0.000000 0.030945 0.000000
# 6 0.000000 0.000000 0.000000 -0.008376 0.000000 0.040586
#
#
# Mechanical properties :
#
#
# Convention : Reuss Voigt Hill
#
# Bulk Modulus (GPa) = 28.82164 31.19604 30.00884
# Shear Modulus (GPa) = 25.05338 26.72319 25.88829
#
# Velocity S-wave (km/s) = 3.65195 3.77169 3.71231
# Velocity P-wave (km/s) = 5.75544 5.96442 5.86086
#
# Compressibility (1/GPa) = 0.03469615
#
# Stress axis : x y z
#
# Youngs Moduli (GPa) = 66.45492 51.45451 65.69531
#
# Poissons Ratio (x) = -0.00865 0.32915
# Poissons Ratio (y) = -0.01117 0.17487
# Poissons Ratio (z) = 0.33296 0.13697
#
# Static dielectric constant tensor:
#      x y z
#    x 3.403120 0.000000 0.252400 
#    y 0.000000 3.503020 0.000000 
#    z 0.252400 0.000000 3.364810 
# 
# 
# High freq. dielectric constant tensor:
#      x y z
#    x 1.723230 0.000000 0.025780 
#    y 0.000000 1.722720 0.000000 
#    z 0.025780 0.000000 1.713560 
# 
# From -- ./inp_files/183464.got.cif
#   From: 2010.06.25/outbox.cif.g09.slc.cpg/sg12_92_cif.got.tgz:183464.got - 2010.06.28 00:19:55.
