data_PCOD8079158
_publ_section_title
;
Structure prediction by ZEFSAII (Michael W. Deem and Ramdas Pophale) SiO2 
 PCOD8079158
Probable space group: C 2/M
;
_chemical_formula_sum "Si O2"
_cell_formula_units_Z 48
_cell_length_a 24.410057
_cell_length_b 8.791661
_cell_length_c 15.089101
_cell_angle_alpha 90.000000
_cell_angle_beta 62.112525
_cell_angle_gamma 90.000000
_cell_volume 2862.137238
_symmetry_space_group_name_H-M "C 2/M"
_symmetry_group_IT_number 12
_symmetry_cell_setting 'monoclinic'
loop_
_space_group_symop_operation_xyz
x,y,z
-x,y,-z
-x,-y,-z
x,-y,z
1/2+x,1/2+y,z
1/2-x,1/2+y,-z
1/2-x,1/2-y,-z
1/2+x,1/2-y,z
loop_
_atom_site_type_symbol
_atom_site_label
_atom_site_fract_x
_atom_site_fract_y
_atom_site_fract_z
Si Si1 0.042247 0.677548 0.667294
Si Si2 0.428553 0.328277 0.528271
Si Si3 0.902482 0.678272 0.722296
Si Si4 0.959608 0.819892 0.150329
Si Si5 0.084411 0.680180 0.986280
Si Si6 0.816999 0.678951 0.945133
O O1 0.052746 0.500000 0.675011
O O2 0.082579 0.730902 0.552299
O O3 0.066285 0.769851 0.734570
O O4 0.970423 0.718781 0.707116
O O5 0.500000 0.318559 0.500000
O O6 0.407042 0.500000 0.526875
O O7 0.388612 0.260287 0.639420
O O8 0.896608 0.500000 0.710331
O O9 0.853054 0.739612 0.831057
O O10 0.911329 0.763278 0.111939
O O11 0.967737 0.000000 0.138443
O O12 0.025065 0.738013 0.085252
O O13 0.078125 0.500000 0.978300
O O14 0.145527 0.724597 0.994932
O O15 0.810710 0.500000 0.942943
O O16 0.750000 0.750000 0.000000
#
# Coordination Sequence:
#
# PCOD8079158 Si02
#       6
#     8   8   8   8   8   8
#     4  10  17  29  47  67  95 131 161 189 235 294
#     4   9  17  27  41  67  96 122 155 196 240 283
#     4   9  17  31  46  64  92 128 164 195 234 287
#     4  11  20  29  46  73  99 125 158 201 245 285
#     4  10  19  34  49  66  94 130 165 196 238 295
#     4  10  21  35  51  71  95 128 169 205 239 281
#
# _framework density 16.770685
#
# number of rings (size 3 to 8) (size 9 to 14) (size 15 to 20)
#    0.000    2.167    1.667    4.000    0.000    4.667 
#    0.000    0.000    0.000    0.000    0.000    1.167 
#    0.000    0.000    0.000    0.000    0.000    0.000 
#
# Total GULP energy -297597.598596 kJ/mol
# GULP energy per Si atom -12399.899942 kJ/mol
# Density = 1.673251 g / cm^3
# Si number density = 16.770685 Si / 1000 Ang^3
#
#
#
# Elastic Constant Matrix: (Units=GPa)
#
#
# Indices 1 2 3 4 5 6 
#
# 1 73.7157 24.5057 47.8824 0.0000 9.5266 0.0000
# 2 24.5057 59.8690 39.6875 0.0000 10.5089 0.0000
# 3 47.8824 39.6875 131.6269 0.0000 22.8414 0.0000
# 4 0.0000 0.0000 0.0000 30.1047 0.0000 2.9223
# 5 9.5266 10.5089 22.8414 0.0000 23.6555 0.0000
# 6 0.0000 0.0000 0.0000 2.9223 0.0000 20.6169
#
#
#
# Elastic Compliance Matrix: (Units=1/GPa)
#
#
# Indices 1 2 3 4 5 6 
#
# 1 0.018460 -0.003847 -0.005480 0.000000 -0.000434 0.000000
# 2 -0.003847 0.021972 -0.004565 0.000000 -0.003803 0.000000
# 3 -0.005480 -0.004565 0.012292 0.000000 -0.007634 0.000000
# 4 0.000000 0.000000 0.000000 0.033681 0.000000 -0.004774
# 5 -0.000434 -0.003803 -0.007634 0.000000 0.051509 0.000000
# 6 0.000000 0.000000 0.000000 -0.004774 0.000000 0.049181
#
#
# Mechanical properties :
#
#
# Convention : Reuss Voigt Hill
#
# Bulk Modulus (GPa) = 40.09821 54.37365 47.23593
# Shear Modulus (GPa) = 22.40216 25.08448 23.74332
#
# Velocity S-wave (km/s) = 3.65881 3.87167 3.76675
# Velocity P-wave (km/s) = 6.46613 7.24421 6.86620
#
# Compressibility (1/GPa) = 0.02493877
#
# Stress axis : x y z
#
# Youngs Moduli (GPa) = 54.17035 45.51269 81.35400
#
# Poissons Ratio (x) = 0.17510 0.44583
# Poissons Ratio (y) = 0.20841 0.37141
# Poissons Ratio (z) = 0.29686 0.20778
#
# Static dielectric constant tensor:
#      x y z
#    x 2.661470 0.000000 0.403300 
#    y 0.000000 3.174390 0.000000 
#    z 0.403300 0.000000 3.279890 
# 
# 
# High freq. dielectric constant tensor:
#      x y z
#    x 1.592950 0.000000 0.031460 
#    y 0.000000 1.656650 0.000000 
#    z 0.031460 0.000000 1.652470 
# 
# From -- ./inp_files/229961.got.cif
#   From: 2010.06.25/outbox.cif.g09.slc.cpg/sg12_115_cif.got.tgz:229961.got - 2010.06.28 00:19:55.
