data_PCOD8079483
_publ_section_title
;
Structure prediction by ZEFSAII (Michael W. Deem and Ramdas Pophale) SiO2 
 PCOD8079483
Probable space group: C 2/M
;
_chemical_formula_sum "Si O2"
_cell_formula_units_Z 64
_cell_length_a 24.036053
_cell_length_b 8.893795
_cell_length_c 15.536941
_cell_angle_alpha 90.000000
_cell_angle_beta 90.915205
_cell_angle_gamma 90.000000
_cell_volume 3320.935016
_symmetry_space_group_name_H-M "C 2/M"
_symmetry_group_IT_number 12
_symmetry_cell_setting 'monoclinic'
loop_
_space_group_symop_operation_xyz
x,y,z
-x,y,-z
-x,-y,-z
x,-y,z
1/2+x,1/2+y,z
1/2-x,1/2+y,-z
1/2-x,1/2-y,-z
1/2+x,1/2-y,z
loop_
_atom_site_type_symbol
_atom_site_label
_atom_site_fract_x
_atom_site_fract_y
_atom_site_fract_z
Si Si1 0.441409 0.178533 0.753981
Si Si2 0.250068 0.678641 0.152829
Si Si3 0.748956 0.677882 0.653408
Si Si4 0.130790 0.821701 0.584795
Si Si5 0.933050 0.678753 0.259563
Si Si6 0.132889 0.321410 0.407954
Si Si7 0.359674 0.823568 0.097499
Si Si8 0.869382 0.677112 0.907626
O O1 0.504142 0.238512 0.748902
O O2 0.406407 0.232741 0.670656
O O3 0.413383 0.245444 0.840338
O O4 0.441656 0.000000 0.757973
O O5 0.253838 0.500000 0.149912
O O6 0.254847 0.741214 0.250080
O O7 0.300176 0.744618 0.098767
O O8 0.192364 0.739946 0.112375
O O9 0.752550 0.500000 0.658293
O O10 0.694506 0.731971 0.600655
O O11 0.804566 0.738396 0.608673
O O12 0.092089 0.755470 0.657499
O O13 0.110201 0.756587 0.493540
O O14 0.125541 0.000000 0.585796
O O15 0.930334 0.500000 0.270341
O O16 0.899883 0.733779 0.174206
O O17 0.130902 0.500000 0.419576
O O18 0.349543 0.000000 0.104976
O O19 0.387348 0.782792 0.005742
O O20 0.867613 0.500000 0.892894
#
# Coordination Sequence:
#
# PCOD8079483 Si02
#       8
#     8   8   8   8   8   8   8   8
#     4   9  18  34  56  77 100 136 179 217 254 301
#     4  10  17  31  55  78 104 139 174 205 251 316
#     4   9  17  31  54  79 101 132 170 207 252 310
#     4  11  22  36  54  78 107 137 169 208 263 318
#     4  10  21  36  53  76 105 138 177 217 254 297
#     4  10  19  35  58  80 101 130 174 219 257 303
#     4  10  20  32  50  81 113 136 167 213 260 301
#     4   9  17  31  54  81 106 135 172 215 258 302
#
# _framework density 19.271681000000001
#
# number of rings (size 3 to 8) (size 9 to 14) (size 15 to 20)
#    0.000    2.250    2.500    1.125    0.000    1.000 
#    0.000    6.875    0.000    2.250    0.000    1.750 
#    0.000    0.000    0.000    0.000    0.000    0.000 
#
# Total GULP energy -396782.875394 kJ/mol
# GULP energy per Si atom -12399.464856 kJ/mol
# Density = 1.922782 g / cm^3
# Si number density = 19.271681 Si / 1000 Ang^3
#
#
#
# Elastic Constant Matrix: (Units=GPa)
#
#
# Indices 1 2 3 4 5 6 
#
# 1 154.3181 22.8954 76.3097 0.0000 -16.7513 0.0000
# 2 22.8954 21.2913 26.6415 0.0000 -7.9429 0.0000
# 3 76.3097 26.6415 168.6721 0.0000 -19.1987 0.0000
# 4 0.0000 0.0000 0.0000 16.7118 0.0000 -2.1441
# 5 -16.7513 -7.9429 -19.1987 0.0000 17.1119 0.0000
# 6 0.0000 0.0000 0.0000 -2.1441 0.0000 21.4654
#
#
#
# Elastic Compliance Matrix: (Units=1/GPa)
#
#
# Indices 1 2 3 4 5 6 
#
# 1 0.009001 -0.004765 -0.002944 0.000000 0.003296 0.000000
# 2 -0.004765 0.067173 -0.006232 0.000000 0.019523 0.000000
# 3 -0.002944 -0.006232 0.008699 0.000000 0.003984 0.000000
# 4 0.000000 0.000000 0.000000 0.060615 0.000000 0.006054
# 5 0.003296 0.019523 0.003984 0.000000 0.075198 0.000000
# 6 0.000000 0.000000 0.000000 0.006054 0.000000 0.047191
#
#
# Mechanical properties :
#
#
# Convention : Reuss Voigt Hill
#
# Bulk Modulus (GPa) = 17.54703 66.21941 41.88322
# Shear Modulus (GPa) = 15.88535 25.62015 20.75275
#
# Velocity S-wave (km/s) = 2.87415 3.65008 3.28510
# Velocity P-wave (km/s) = 4.48767 7.22493 6.01410
#
# Compressibility (1/GPa) = 0.05698970
#
# Stress axis : x y z
#
# Youngs Moduli (GPa) = 111.10091 14.88693 114.96191
#
# Poissons Ratio (x) = 0.07094 0.33848
# Poissons Ratio (y) = 0.52942 0.71642
# Poissons Ratio (z) = 0.32711 0.09277
#
# Static dielectric constant tensor:
#      x y z
#    x 3.694110 0.000000 0.006870 
#    y 0.000000 3.014720 0.000000 
#    z 0.006870 0.000000 3.708850 
# 
# 
# High freq. dielectric constant tensor:
#      x y z
#    x 1.750460 0.000000 -0.002000 
#    y 0.000000 1.700380 0.000000 
#    z -0.002000 0.000000 1.768220 
# 
# From -- ./inp_files/238729.got.cif
#   From: 2010.06.25/outbox.cif.g09.slc.cpg/sg12_120_cif.got.tgz:238729.got - 2010.06.28 00:19:55.
