data_PCOD8079225
_publ_section_title
;
Structure prediction by ZEFSAII (Michael W. Deem and Ramdas Pophale) SiO2 
 PCOD8079225
Probable space group: C 2/M
;
_chemical_formula_sum "Si O2"
_cell_formula_units_Z 64
_cell_length_a 23.202237
_cell_length_b 13.391001
_cell_length_c 19.047574
_cell_angle_alpha 90.000000
_cell_angle_beta 139.250326
_cell_angle_gamma 90.000000
_cell_volume 3863.074395
_symmetry_space_group_name_H-M "C 2/M"
_symmetry_group_IT_number 12
_symmetry_cell_setting 'monoclinic'
loop_
_space_group_symop_operation_xyz
x,y,z
-x,y,-z
-x,-y,-z
x,-y,z
1/2+x,1/2+y,z
1/2-x,1/2+y,-z
1/2-x,1/2-y,-z
1/2+x,1/2-y,z
loop_
_atom_site_type_symbol
_atom_site_label
_atom_site_fract_x
_atom_site_fract_y
_atom_site_fract_z
Si Si1 0.325478 0.190048 0.159557
Si Si2 0.220270 0.113017 0.941216
Si Si3 0.260907 0.884040 0.244717
Si Si4 0.630304 0.106905 0.028095
Si Si5 0.399322 0.745161 0.882816
Si Si6 0.982807 0.615948 0.686292
Si Si7 0.934460 0.387200 0.792858
Si Si8 0.927688 0.616676 0.487256
O O1 0.344260 0.306479 0.155465
O O2 0.300370 0.180388 0.217469
O O3 0.412471 0.129538 0.220524
O O4 0.240825 0.144151 0.040149
O O5 0.181327 0.000000 0.900936
O O6 0.313662 0.125773 0.989311
O O7 0.161705 0.853559 0.177119
O O8 0.327701 0.864039 0.370743
O O9 0.259601 0.000000 0.222083
O O10 0.530383 0.103992 0.913292
O O11 0.655768 0.000000 0.085562
O O12 0.648766 0.189840 0.102500
O O13 0.387191 0.805225 0.798515
O O14 0.500000 0.719288 0.000000
O O15 0.962571 0.500000 0.671499
O O16 0.939522 0.658652 0.718388
O O17 0.939186 0.664463 0.575941
O O18 0.891849 0.500000 0.756021
O O19 0.949457 0.500000 0.513711
O O20 0.000000 0.663530 0.500000
#
# Coordination Sequence:
#
# PCOD8079225 Si02
#       8
#     8   8   8   8   8   8   8   8
#     4  11  19  29  49  72 101 130 156 193 245 296
#     4  10  19  28  42  70 104 130 155 188 235 289
#     4  11  21  33  48  71  98 128 163 202 244 292
#     4   9  15  27  44  66  93 121 153 193 236 279
#     4  10  20  32  46  66  96 132 167 193 226 283
#     4  10  17  29  50  76  97 120 154 205 260 296
#     4   9  17  29  48  70  93 121 157 199 245 286
#     4   9  17  29  48  73 100 121 151 203 258 295
#
# _framework density 16.567115000000001
#
# number of rings (size 3 to 8) (size 9 to 14) (size 15 to 20)
#    0.000    2.125    3.750    1.500    0.000    1.750 
#    0.000    0.625    0.000    0.750    0.000    3.500 
#    0.000    0.000    0.000    0.000    0.000    0.000 
#
# Total GULP energy -396486.126851 kJ/mol
# GULP energy per Si atom -12390.191464 kJ/mol
# Density = 1.652941 g / cm^3
# Si number density = 16.567115 Si / 1000 Ang^3
#
#
#
# Elastic Constant Matrix: (Units=GPa)
#
#
# Indices 1 2 3 4 5 6 
#
# 1 56.1608 23.4044 30.6148 0.0000 -14.9822 0.0000
# 2 23.4044 50.5882 29.3574 0.0000 -8.2195 0.0000
# 3 30.6148 29.3574 75.4760 0.0000 -15.3560 0.0000
# 4 0.0000 0.0000 0.0000 13.4694 0.0000 0.2249
# 5 -14.9822 -8.2195 -15.3560 0.0000 28.4234 0.0000
# 6 0.0000 0.0000 0.0000 0.2249 0.0000 14.2987
#
#
#
# Elastic Compliance Matrix: (Units=1/GPa)
#
#
# Indices 1 2 3 4 5 6 
#
# 1 0.026479 -0.007283 -0.006175 0.000000 0.008515 0.000000
# 2 -0.007283 0.027664 -0.007819 0.000000 -0.000063 0.000000
# 3 -0.006175 -0.007819 0.019856 0.000000 0.005211 0.000000
# 4 0.000000 0.000000 0.000000 0.074262 0.000000 -0.001168
# 5 0.008515 -0.000063 0.005211 0.000000 0.042467 0.000000
# 6 0.000000 0.000000 0.000000 -0.001168 0.000000 0.069955
#
#
# Mechanical properties :
#
#
# Convention : Reuss Voigt Hill
#
# Bulk Modulus (GPa) = 31.80267 38.77536 35.28902
# Shear Modulus (GPa) = 15.93781 17.82821 16.88301
#
# Velocity S-wave (km/s) = 3.10500 3.28399 3.19575
# Velocity P-wave (km/s) = 5.66504 6.15104 5.91303
#
# Compressibility (1/GPa) = 0.03144390
#
# Stress axis : x y z
#
# Youngs Moduli (GPa) = 37.76571 36.14770 50.36379
#
# Poissons Ratio (x) = 0.26328 0.31100
# Poissons Ratio (y) = 0.27506 0.39379
# Poissons Ratio (z) = 0.23321 0.28264
#
# Static dielectric constant tensor:
#      x y z
#    x 3.228770 0.000000 -0.340110 
#    y 0.000000 3.149290 0.000000 
#    z -0.340110 0.000000 3.074410 
# 
# 
# High freq. dielectric constant tensor:
#      x y z
#    x 1.633430 0.000000 -0.025450 
#    y 0.000000 1.614510 0.000000 
#    z -0.025450 0.000000 1.614610 
# 
# From -- ./inp_files/327505.got.cif
#   From: 2010.06.25/outbox.cif.g09.slc.cpg/sg12_164_cif.got.tgz:327505.got - 2010.06.28 00:19:55.
