data_PCOD8079149
_publ_section_title
;
Structure prediction by ZEFSAII (Michael W. Deem and Ramdas Pophale) SiO2 
 PCOD8079149
Probable space group: C 2/M
;
_chemical_formula_sum "Si O2"
_cell_formula_units_Z 56
_cell_length_a 20.047526
_cell_length_b 19.785144
_cell_length_c 15.637870
_cell_angle_alpha 90.000000
_cell_angle_beta 30.251234
_cell_angle_gamma 90.000000
_cell_volume 3124.851385
_symmetry_space_group_name_H-M "C 2/M"
_symmetry_group_IT_number 12
_symmetry_cell_setting 'monoclinic'
loop_
_space_group_symop_operation_xyz
x,y,z
-x,y,-z
-x,-y,-z
x,-y,z
1/2+x,1/2+y,z
1/2-x,1/2+y,-z
1/2-x,1/2-y,-z
1/2+x,1/2-y,z
loop_
_atom_site_type_symbol
_atom_site_label
_atom_site_fract_x
_atom_site_fract_y
_atom_site_fract_z
Si Si1 0.649529 0.293867 0.859420
Si Si2 0.100279 0.668846 0.139869
Si Si3 0.643274 0.324322 0.056453
Si Si4 0.626900 0.421861 0.412102
Si Si5 0.171193 0.316881 0.495609
Si Si6 0.618384 0.860372 0.928885
Si Si7 0.364355 0.340058 0.425161
O O1 0.754921 0.325313 0.676617
O O2 0.666494 0.213103 0.843708
O O3 0.500000 0.312440 0.000000
O O4 0.680414 0.327445 0.915817
O O5 0.122136 0.748589 0.111850
O O6 0.976678 0.651093 0.339277
O O7 0.236501 0.638282 0.026947
O O8 0.066496 0.640893 0.083376
O O9 0.506147 0.361703 0.228853
O O10 0.500000 0.393241 0.500000
O O11 0.604240 0.500000 0.458223
O O12 0.757860 0.411274 0.210242
O O13 0.654566 0.382650 0.468719
O O14 0.254324 0.356840 0.475794
O O15 0.152991 0.238486 0.536246
O O16 0.500000 0.887224 0.000000
#
# Coordination Sequence:
#
# PCOD8079149 Si02
#       7
#     8   8   8   8   8   8   8
#     4  10  17  29  46  74  99 130 165 199 252 313
#     4   9  18  28  41  68  94 127 162 198 244 300
#     4   9  17  28  43  64  98 125 159 200 246 299
#     4  11  23  36  51  73 101 138 181 213 244 294
#     4  10  18  29  50  72  96 126 168 202 255 313
#     4  10  19  33  50  66  97 135 169 208 248 293
#     4  10  18  32  49  68  94 133 167 207 252 295
#
# _framework density 17.920852
#
# number of rings (size 3 to 8) (size 9 to 14) (size 15 to 20)
#    0.000    2.143    2.857    1.714    4.000    2.000 
#    0.000    0.000    0.000    0.000    0.000    2.000 
#    0.000    0.000    0.000    9.143    0.000    0.143 
#
# Total GULP energy -347075.561061 kJ/mol
# GULP energy per Si atom -12395.555752 kJ/mol
# Density = 1.788006 g / cm^3
# Si number density = 17.920852 Si / 1000 Ang^3
#
#
#
# Elastic Constant Matrix: (Units=GPa)
#
#
# Indices 1 2 3 4 5 6 
#
# 1 108.7725 14.8894 53.7317 -0.0005 -10.5670 -0.0004
# 2 14.8894 20.2049 9.0012 -0.0004 -3.2026 0.0002
# 3 53.7317 9.0012 149.1192 -0.0010 -8.5203 0.0005
# 4 -0.0005 -0.0004 -0.0010 9.3119 0.0011 -2.6787
# 5 -10.5670 -3.2026 -8.5203 0.0011 30.6522 -0.0005
# 6 -0.0004 0.0002 0.0005 -2.6787 -0.0005 11.4037
#
#
#
# Elastic Compliance Matrix: (Units=1/GPa)
#
#
# Indices 1 2 3 4 5 6 
#
# 1 0.012294 -0.006949 -0.003871 0.000000 0.002436 0.000001
# 2 -0.006949 0.055416 -0.000658 0.000001 0.003212 -0.000001
# 3 -0.003871 -0.000658 0.008191 0.000000 0.000873 0.000000
# 4 0.000000 0.000001 0.000000 0.115172 -0.000003 0.027053
# 5 0.002436 0.003212 0.000873 -0.000003 0.034042 0.000001
# 6 0.000001 -0.000001 0.000000 0.027053 0.000001 0.094046
#
#
# Mechanical properties :
#
#
# Convention : Reuss Voigt Hill
#
# Bulk Modulus (GPa) = 18.88758 48.14900 33.51829
# Shear Modulus (GPa) = 13.89803 23.63850 18.76826
#
# Velocity S-wave (km/s) = 2.78784 3.63581 3.23969
# Velocity P-wave (km/s) = 4.57439 6.67469 5.72173
#
# Compressibility (1/GPa) = 0.05294484
#
# Stress axis : x y z
#
# Youngs Moduli (GPa) = 81.34323 18.04540 122.09262
#
# Poissons Ratio (x) = 0.12539 0.47263
# Poissons Ratio (y) = 0.56523 0.08030
# Poissons Ratio (z) = 0.31489 0.01187
#
# Static dielectric constant tensor:
#      x y z
#    x 3.518720 0.000000 -0.203990 
#    y 0.000000 2.649510 0.000000 
#    z -0.203990 0.000000 3.582670 
# 
# 
# High freq. dielectric constant tensor:
#      x y z
#    x 1.705350 0.000000 -0.007550 
#    y 0.000000 1.607950 0.000000 
#    z -0.007550 0.000000 1.712840 
# 
# From -- ./inp_files/77400.got.cif
#   From: 2010.06.25/outbox.cif.g09.slc.cpg/sg12_39_cif.got.tgz:77400.got - 2010.06.28 00:19:55.
