data_PCOD8079817
_publ_section_title
;
Structure prediction by ZEFSAII (Michael W. Deem and Ramdas Pophale) SiO2 
 PCOD8079817
Probable space group: C 2/M
;
_chemical_formula_sum "Si O2"
_cell_formula_units_Z 64
_cell_length_a 27.370391
_cell_length_b 9.270276
_cell_length_c 18.748638
_cell_angle_alpha 90.000000
_cell_angle_beta 66.665356
_cell_angle_gamma 90.000000
_cell_volume 4368.013891
_symmetry_space_group_name_H-M "C 2/M"
_symmetry_group_IT_number 12
_symmetry_cell_setting 'monoclinic'
loop_
_space_group_symop_operation_xyz
x,y,z
-x,y,-z
-x,-y,-z
x,-y,z
1/2+x,1/2+y,z
1/2-x,1/2+y,-z
1/2-x,1/2-y,-z
1/2+x,1/2-y,z
loop_
_atom_site_type_symbol
_atom_site_label
_atom_site_fract_x
_atom_site_fract_y
_atom_site_fract_z
Si Si1 0.306388 0.168036 0.884368
Si Si2 0.490792 0.328379 0.118557
Si Si3 0.382515 0.331036 0.736958
Si Si4 0.037413 0.661425 0.582028
Si Si5 0.001470 0.168423 0.270581
Si Si6 0.581382 0.329853 0.962534
Si Si7 0.314267 0.333086 0.023613
Si Si8 0.919688 0.337302 0.588518
O O1 0.335197 0.249421 0.803895
O O2 0.243449 0.191619 0.909001
O O3 0.321754 0.000000 0.875089
O O4 0.323985 0.235554 0.949067
O O5 0.492956 0.500000 0.123320
O O6 0.489518 0.265005 0.199324
O O7 0.438982 0.274886 0.103324
O O8 0.543391 0.270072 0.047564
O O9 0.370230 0.500000 0.742364
O O10 0.437551 0.295982 0.745331
O O11 0.383599 0.272016 0.655121
O O12 0.052571 0.500000 0.596789
O O13 0.077983 0.713165 0.495935
O O14 0.040285 0.762120 0.649814
O O15 0.978585 0.665241 0.585133
O O16 0.990672 0.000000 0.279923
O O17 0.575009 0.500000 0.965920
O O18 0.642289 0.284734 0.942360
O O19 0.322269 0.500000 0.996213
O O20 0.896646 0.500000 0.607303
#
# Coordination Sequence:
#
# PCOD8079817 Si02
#       8
#     8   8   8   8   8   8   8   8
#     4  10  19  28  39  56  77 101 128 158 192 227
#     4   8  13  21  36  58  78  97 123 156 192 223
#     4  10  18  26  38  56  78 103 130 159 187 218
#     4   8  14  24  37  52  73 103 131 153 183 223
#     4   9  16  24  36  56  79 101 128 160 188 218
#     4   8  13  23  39  56  75  98 125 158 192 223
#     4   9  17  29  43  57  74  98 129 162 191 222
#     4   8  14  25  38  52  73 101 131 157 183 220
#
# _framework density 14.651967000000001
#
# number of rings (size 3 to 8) (size 9 to 14) (size 15 to 20)
#    0.000    3.250    0.000    3.000    0.000    3.500 
#    0.000    2.500    0.000    0.750    0.000    2.625 
#    0.000    1.000    0.000    2.000    0.000    2.625 
#
# Total GULP energy -396543.747653 kJ/mol
# GULP energy per Si atom -12391.992114 kJ/mol
# Density = 1.461862 g / cm^3
# Si number density = 14.651967 Si / 1000 Ang^3
#
#
#
# Elastic Constant Matrix: (Units=GPa)
#
#
# Indices 1 2 3 4 5 6 
#
# 1 72.5441 25.8077 45.6271 0.0000 7.0341 0.0000
# 2 25.8077 55.7790 52.8385 0.0000 -1.0449 -0.0001
# 3 45.6271 52.8385 133.5411 0.0000 12.2741 0.0000
# 4 0.0000 0.0000 0.0000 27.6268 0.0000 -0.4833
# 5 7.0341 -1.0449 12.2741 0.0000 18.4851 0.0000
# 6 0.0000 -0.0001 0.0000 -0.4833 0.0000 9.3958
#
#
#
# Elastic Compliance Matrix: (Units=1/GPa)
#
#
# Indices 1 2 3 4 5 6 
#
# 1 0.018458 -0.004897 -0.003938 0.000000 -0.004686 0.000000
# 2 -0.004897 0.031726 -0.011945 0.000000 0.011588 0.000000
# 3 -0.003938 -0.011945 0.014361 0.000000 -0.008712 0.000000
# 4 0.000000 0.000000 0.000000 0.036229 0.000000 0.001863
# 5 -0.004686 0.011588 -0.008712 0.000000 0.062321 0.000000
# 6 0.000000 0.000000 0.000000 0.001863 0.000000 0.106527
#
#
# Mechanical properties :
#
#
# Convention : Reuss Voigt Hill
#
# Bulk Modulus (GPa) = 43.50813 56.71232 50.11022
# Shear Modulus (GPa) = 15.68161 20.27426 17.97793
#
# Velocity S-wave (km/s) = 3.27505 3.72388 3.50665
# Velocity P-wave (km/s) = 6.63778 7.56835 7.11829
#
# Compressibility (1/GPa) = 0.02298421
#
# Stress axis : x y z
#
# Youngs Moduli (GPa) = 54.17620 31.51970 69.63321
#
# Poissons Ratio (x) = 0.15437 0.27423
# Poissons Ratio (y) = 0.26532 0.83177
# Poissons Ratio (z) = 0.21336 0.37650
#
# Static dielectric constant tensor:
#      x y z
#    x 2.733430 0.000000 0.148130 
#    y 0.000000 2.741700 0.000000 
#    z 0.148130 0.000000 3.095220 
# 
# 
# High freq. dielectric constant tensor:
#      x y z
#    x 1.519120 0.000000 0.007780 
#    y 0.000000 1.544050 0.000000 
#    z 0.007780 0.000000 1.561600 
# 
# From -- ./inp_files/326593.got.cif
#   From: 2010.06.25/outbox.cif.g09.slc.cpg/sg12_164_cif.got.tgz:326593.got - 2010.06.28 00:19:55.
