data_PCOD8079635
_publ_section_title
;
Structure prediction by ZEFSAII (Michael W. Deem and Ramdas Pophale) SiO2 
 PCOD8079635
Probable space group: C 2/M
;
_chemical_formula_sum "Si O2"
_cell_formula_units_Z 48
_cell_length_a 18.987595
_cell_length_b 18.490887
_cell_length_c 8.422697
_cell_angle_alpha 90.000000
_cell_angle_beta 63.714091
_cell_angle_gamma 90.000000
_cell_volume 2651.400743
_symmetry_space_group_name_H-M "C 2/M"
_symmetry_group_IT_number 12
_symmetry_cell_setting 'monoclinic'
loop_
_space_group_symop_operation_xyz
x,y,z
-x,y,-z
-x,-y,-z
x,-y,z
1/2+x,1/2+y,z
1/2-x,1/2+y,-z
1/2-x,1/2-y,-z
1/2+x,1/2-y,z
loop_
_atom_site_type_symbol
_atom_site_label
_atom_site_fract_x
_atom_site_fract_y
_atom_site_fract_z
Si Si1 0.629995 0.744745 0.730519
Si Si2 0.212657 0.191597 0.359661
Si Si3 0.933079 0.135954 0.954532
Si Si4 0.707290 0.581639 0.084118
Si Si5 0.518602 0.757885 0.296906
Si Si6 0.687349 0.196695 0.144983
O O1 0.693374 0.806875 0.708986
O O2 0.665669 0.684965 0.571336
O O3 0.554472 0.787047 0.734634
O O4 0.609463 0.700716 0.908660
O O5 0.190418 0.126946 0.261849
O O6 0.184964 0.271609 0.325625
O O7 0.869438 0.079348 0.953082
O O8 0.972459 0.173321 0.760803
O O9 0.000000 0.098862 0.000000
O O10 0.729242 0.500000 0.108748
O O11 0.779652 0.615776 0.911044
O O12 0.500000 0.764052 0.500000
O O13 0.597972 0.801177 0.169449
O O14 0.750000 0.250000 0.000000
#
# Coordination Sequence:
#
# PCOD8079635 Si02
#       6
#     8   8   8   8   8   8
#     4  10  19  30  57  86 108 133 170 243 274 314
#     4  10  18  34  56  81 108 136 189 225 274 316
#     4  10  19  31  50  81 112 136 178 220 271 324
#     4  11  21  36  54  74 110 156 184 215 270 329
#     4  11  18  31  56  87 110 136 177 230 281 317
#     4  10  17  33  54  78 103 137 183 226 256 318
#
# _framework density 18.103636999999999
#
# number of rings (size 3 to 8) (size 9 to 14) (size 15 to 20)
#    0.000    1.667    6.667    1.000    0.000    0.333 
#    0.000    0.833    0.000   12.000    0.000    0.000 
#    0.000    0.000    0.000    0.000    0.000    0.000 
#
# Total GULP energy -297325.501717 kJ/mol
# GULP energy per Si atom -12388.562572 kJ/mol
# Density = 1.806243 g / cm^3
# Si number density = 18.103637 Si / 1000 Ang^3
#
#
#
# Elastic Constant Matrix: (Units=GPa)
#
#
# Indices 1 2 3 4 5 6 
#
# 1 155.5246 35.7619 20.2379 0.0000 -12.6787 0.0000
# 2 35.7619 73.6217 20.8214 0.0000 4.9492 0.0000
# 3 20.2379 20.8214 62.3338 0.0000 -1.8009 0.0000
# 4 0.0000 0.0000 0.0000 8.3672 0.0000 0.1858
# 5 -12.6787 4.9492 -1.8009 0.0000 30.1339 0.0000
# 6 0.0000 0.0000 0.0000 0.1858 0.0000 14.7861
#
#
#
# Elastic Compliance Matrix: (Units=1/GPa)
#
#
# Indices 1 2 3 4 5 6 
#
# 1 0.007738 -0.003682 -0.001173 0.000000 0.003790 0.000000
# 2 -0.003682 0.016986 -0.004612 0.000000 -0.004615 0.000000
# 3 -0.001173 -0.004612 0.018003 0.000000 0.001340 0.000000
# 4 0.000000 0.000000 0.000000 0.119547 0.000000 -0.001502
# 5 0.003790 -0.004615 0.001340 0.000000 0.035618 0.000000
# 6 0.000000 0.000000 0.000000 -0.001502 0.000000 0.067650
#
#
# Mechanical properties :
#
#
# Convention : Reuss Voigt Hill
#
# Bulk Modulus (GPa) = 42.02824 49.45804 45.74314
# Shear Modulus (GPa) = 17.09951 24.96805 21.03378
#
# Velocity S-wave (km/s) = 3.07666 3.71775 3.41230
# Velocity P-wave (km/s) = 5.99057 6.76813 6.39118
#
# Compressibility (1/GPa) = 0.02379352
#
# Stress axis : x y z
#
# Youngs Moduli (GPa) = 129.23054 58.87227 55.54730
#
# Poissons Ratio (x) = 0.21676 0.06515
# Poissons Ratio (y) = 0.47581 0.25617
# Poissons Ratio (z) = 0.15158 0.27150
#
# Static dielectric constant tensor:
#      x y z
#    x 3.824460 0.000000 -0.046250 
#    y 0.000000 2.793080 0.000000 
#    z -0.046250 0.000000 3.713700 
# 
# 
# High freq. dielectric constant tensor:
#      x y z
#    x 1.731330 0.000000 0.001170 
#    y 0.000000 1.614200 0.000000 
#    z 0.001170 0.000000 1.714700 
# 
# From -- ./inp_files/87145.got.cif
#   From: 2010.06.25/outbox.cif.g09.slc.cpg/sg12_44_cif.got.tgz:87145.got - 2010.06.28 00:19:55.
