data_PCOD8079258
_publ_section_title
;
Structure prediction by ZEFSAII (Michael W. Deem and Ramdas Pophale) SiO2 
 PCOD8079258
Probable space group: C 2/M
;
_chemical_formula_sum "Si O2"
_cell_formula_units_Z 56
_cell_length_a 14.928301
_cell_length_b 24.373129
_cell_length_c 10.112556
_cell_angle_alpha 90.000000
_cell_angle_beta 125.539470
_cell_angle_gamma 90.000000
_cell_volume 2994.022684
_symmetry_space_group_name_H-M "C 2/M"
_symmetry_group_IT_number 12
_symmetry_cell_setting 'monoclinic'
loop_
_space_group_symop_operation_xyz
x,y,z
-x,y,-z
-x,-y,-z
x,-y,z
1/2+x,1/2+y,z
1/2-x,1/2+y,-z
1/2-x,1/2-y,-z
1/2+x,1/2-y,z
loop_
_atom_site_type_symbol
_atom_site_label
_atom_site_fract_x
_atom_site_fract_y
_atom_site_fract_z
Si Si1 0.648187 0.335659 0.357522
Si Si2 0.112660 0.061551 0.169951
Si Si3 0.100230 0.830947 0.813053
Si Si4 0.126811 0.770368 0.092596
Si Si5 0.708942 0.560901 0.986750
Si Si6 0.873373 0.562583 0.910800
Si Si7 0.259147 0.166860 0.721106
O O1 0.642136 0.400307 0.319001
O O2 0.528031 0.316304 0.303044
O O3 0.689711 0.303858 0.262237
O O4 0.735284 0.322152 0.546936
O O5 0.098517 0.000000 0.212380
O O6 0.212897 0.065381 0.149473
O O7 0.000000 0.081108 0.000000
O O8 0.120796 0.895264 0.858298
O O9 0.150406 0.819056 0.712317
O O10 0.161508 0.793144 0.977497
O O11 0.147326 0.706085 0.135838
O O12 0.000000 0.784518 0.000000
O O13 0.664778 0.500000 0.909894
O O14 0.830964 0.569374 0.027091
O O15 0.855311 0.500000 0.845762
O O16 0.798923 0.603914 0.761937
O O17 0.000000 0.579330 0.000000
#
# Coordination Sequence:
#
# PCOD8079258 Si02
#       7
#     8   8   8   8   8   8   8
#     4  11  20  33  50  78 112 136 160 213 271 308
#     4  10  17  29  52  79 108 142 175 203 243 314
#     4  10  19  34  52  76 105 139 173 204 252 320
#     4  10  20  36  55  72  97 137 181 213 249 308
#     4   9  16  29  53  81 101 130 177 212 243 296
#     4   9  19  36  55  74 100 136 179 220 254 299
#     4  11  22  33  52  78 105 133 171 218 267 306
#
# _framework density 18.703931999999998
#
# number of rings (size 3 to 8) (size 9 to 14) (size 15 to 20)
#    0.000    2.000    2.857    2.143    0.000    0.571 
#    0.000    0.000    0.000    5.143    0.000    4.000 
#    0.000    0.000    0.000    0.000    0.000    0.000 
#
# Total GULP energy -346980.199206 kJ/mol
# GULP energy per Si atom -12392.149972 kJ/mol
# Density = 1.866136 g / cm^3
# Si number density = 18.703932 Si / 1000 Ang^3
#
#
#
# Elastic Constant Matrix: (Units=GPa)
#
#
# Indices 1 2 3 4 5 6 
#
# 1 67.6338 5.4160 15.5479 0.0000 -5.2957 0.0000
# 2 5.4160 84.1463 30.0173 0.0000 -0.6712 0.0000
# 3 15.5479 30.0173 83.3923 0.0000 -12.0819 0.0000
# 4 0.0000 0.0000 0.0000 18.8304 0.0000 -1.6926
# 5 -5.2957 -0.6712 -12.0819 0.0000 18.8463 0.0000
# 6 0.0000 0.0000 0.0000 -1.6926 0.0000 23.0832
#
#
#
# Elastic Compliance Matrix: (Units=1/GPa)
#
#
# Indices 1 2 3 4 5 6 
#
# 1 0.015579 -0.000102 -0.002463 0.000000 0.002795 0.000000
# 2 -0.000102 0.013784 -0.005375 0.000000 -0.002983 0.000000
# 3 -0.002463 -0.005375 0.015717 0.000000 0.009192 0.000000
# 4 0.000000 0.000000 0.000000 0.053458 0.000000 0.003920
# 5 0.002795 -0.002983 0.009192 0.000000 0.059633 0.000000
# 6 0.000000 0.000000 0.000000 0.003920 0.000000 0.043609
#
#
# Mechanical properties :
#
#
# Convention : Reuss Voigt Hill
#
# Bulk Modulus (GPa) = 34.24567 37.45942 35.85255
# Shear Modulus (GPa) = 21.98836 24.43139 23.20988
#
# Velocity S-wave (km/s) = 3.43242 3.61808 3.52648
# Velocity P-wave (km/s) = 5.83591 6.12577 5.98259
#
# Compressibility (1/GPa) = 0.02920077
#
# Stress axis : x y z
#
# Youngs Moduli (GPa) = 64.19021 72.54686 63.62443
#
# Poissons Ratio (x) = 0.00739 0.15670
# Poissons Ratio (y) = 0.00654 0.34198
# Poissons Ratio (z) = 0.15810 0.38993
#
# Static dielectric constant tensor:
#      x y z
#    x 3.586260 0.000000 -0.298240 
#    y 0.000000 3.547390 0.000000 
#    z -0.298240 0.000000 3.084410 
# 
# 
# High freq. dielectric constant tensor:
#      x y z
#    x 1.724950 0.000000 -0.026950 
#    y 0.000000 1.738440 0.000000 
#    z -0.026950 0.000000 1.679350 
# 
# From -- ./inp_files/67060.got.cif
#   From: 2010.06.25/outbox.cif.g09.slc.cpg/sg12_34_cif.got.tgz:67060.got - 2010.06.28 00:19:55.
