data_PCOD8079865
_publ_section_title
;
Structure prediction by ZEFSAII (Michael W. Deem and Ramdas Pophale) SiO2 
 PCOD8079865
Probable space group: C 2/M
;
_chemical_formula_sum "Si O2"
_cell_formula_units_Z 64
_cell_length_a 27.209079
_cell_length_b 9.368257
_cell_length_c 16.800026
_cell_angle_alpha 90.000000
_cell_angle_beta 103.389726
_cell_angle_gamma 90.000000
_cell_volume 4165.948816
_symmetry_space_group_name_H-M "C 2/M"
_symmetry_group_IT_number 12
_symmetry_cell_setting 'monoclinic'
loop_
_space_group_symop_operation_xyz
x,y,z
-x,y,-z
-x,-y,-z
x,-y,z
1/2+x,1/2+y,z
1/2-x,1/2+y,-z
1/2-x,1/2-y,-z
1/2+x,1/2-y,z
loop_
_atom_site_type_symbol
_atom_site_label
_atom_site_fract_x
_atom_site_fract_y
_atom_site_fract_z
Si Si1 0.057977 0.665664 0.513808
Si Si2 0.211320 0.665848 0.156992
Si Si3 0.799443 0.833918 0.993451
Si Si4 0.371121 0.664006 0.571974
Si Si5 0.828203 0.161846 0.173609
Si Si6 0.705267 0.339312 0.594518
Si Si7 0.183130 0.336313 0.324261
Si Si8 0.635154 0.165870 0.677165
O O1 0.064668 0.500000 0.493378
O O2 0.081955 0.759364 0.452853
O O3 0.084361 0.698399 0.608455
O O4 0.000000 0.709897 0.500000
O O5 0.202616 0.500000 0.134105
O O6 0.180528 0.760559 0.080325
O O7 0.270700 0.702689 0.175312
O O8 0.189640 0.707441 0.234833
O O9 0.787003 0.000000 0.973659
O O10 0.750000 0.750000 0.000000
O O11 0.838048 0.817690 0.082402
O O12 0.385754 0.500000 0.591881
O O13 0.320726 0.680495 0.500449
O O14 0.359909 0.738128 0.652418
O O15 0.867333 0.260942 0.236881
O O16 0.839176 0.000000 0.202774
O O17 0.695886 0.500000 0.623986
O O18 0.764689 0.311295 0.608603
O O19 0.683085 0.228123 0.648744
O O20 0.165815 0.500000 0.325277
O O21 0.644038 0.000000 0.692979
#
# Coordination Sequence:
#
# PCOD8079865 Si02
#       8
#     8   8   8   8   8   8   8   8
#     4   9  19  36  52  64  84 113 142 176 222 269
#     4   9  17  28  41  57  81 117 153 180 211 247
#     4   9  17  27  39  55  79 113 149 182 215 249
#     4  10  20  30  44  66  86 108 143 183 218 252
#     4   9  16  28  41  56  84 117 145 176 217 257
#     4   9  17  30  42  55  84 119 145 175 214 252
#     4  10  18  29  43  58  85 121 150 175 209 254
#     4  10  18  26  43  68  85 106 145 185 216 252
#
# _framework density 15.362647000000001
#
# number of rings (size 3 to 8) (size 9 to 14) (size 15 to 20)
#    0.000    2.625    1.250    2.250    0.000    4.750 
#    0.000    0.000    0.000    0.000    0.000    0.000 
#    0.000    1.000    0.000   11.250    0.000    5.625 
#
# Total GULP energy -396680.379342 kJ/mol
# GULP energy per Si atom -12396.261854 kJ/mol
# Density = 1.532768 g / cm^3
# Si number density = 15.362647 Si / 1000 Ang^3
#
#
#
# Elastic Constant Matrix: (Units=GPa)
#
#
# Indices 1 2 3 4 5 6 
#
# 1 58.2935 43.2705 42.8078 0.0000 -6.7695 0.0000
# 2 43.2705 93.6495 64.1201 0.0000 -5.5177 0.0000
# 3 42.8078 64.1201 106.4061 0.0000 -10.0859 0.0000
# 4 0.0000 0.0000 0.0000 32.2764 0.0000 -2.1983
# 5 -6.7695 -5.5177 -10.0859 0.0000 13.1993 0.0000
# 6 0.0000 0.0000 0.0000 -2.1983 0.0000 16.5877
#
#
#
# Elastic Compliance Matrix: (Units=1/GPa)
#
#
# Indices 1 2 3 4 5 6 
#
# 1 0.028704 -0.009187 -0.005369 0.000000 0.006778 0.000000
# 2 -0.009187 0.021127 -0.009320 0.000000 -0.003001 0.000000
# 3 -0.005369 -0.009320 0.017836 0.000000 0.006979 0.000000
# 4 0.000000 0.000000 0.000000 0.031265 0.000000 0.004143
# 5 0.006778 -0.003001 0.006979 0.000000 0.083316 0.000000
# 6 0.000000 0.000000 0.000000 0.004143 0.000000 0.060835
#
#
# Mechanical properties :
#
#
# Convention : Reuss Voigt Hill
#
# Bulk Modulus (GPa) = 50.21379 62.08286 56.14833
# Shear Modulus (GPa) = 16.80831 19.62273 18.21552
#
# Velocity S-wave (km/s) = 3.31131 3.57781 3.44714
# Velocity P-wave (km/s) = 6.88304 7.58729 7.24373
#
# Compressibility (1/GPa) = 0.01991485
#
# Stress axis : x y z
#
# Youngs Moduli (GPa) = 34.83833 47.33255 56.06791
#
# Poissons Ratio (x) = 0.43485 0.30104
# Poissons Ratio (y) = 0.32006 0.52253
# Poissons Ratio (z) = 0.18705 0.44112
#
# Static dielectric constant tensor:
#      x y z
#    x 2.481570 0.000000 0.050940 
#    y 0.000000 3.073480 0.000000 
#    z 0.050940 0.000000 3.275530 
# 
# 
# High freq. dielectric constant tensor:
#      x y z
#    x 1.524660 0.000000 -0.002530 
#    y 0.000000 1.600320 0.000000 
#    z -0.002530 0.000000 1.594010 
# 
# From -- ./inp_files/291608.got.cif
#   From: 2010.06.25/outbox.cif.g09.slc.cpg/sg12_146_cif.got.tgz:291608.got - 2010.06.28 00:19:55.
