data_PCOD8079946
_publ_section_title
;
Structure prediction by ZEFSAII (Michael W. Deem and Ramdas Pophale) SiO2 
 PCOD8079946
Probable space group: C 2/M
;
_chemical_formula_sum "Si O2"
_cell_formula_units_Z 64
_cell_length_a 27.651345
_cell_length_b 9.541724
_cell_length_c 20.296874
_cell_angle_alpha 90.000000
_cell_angle_beta 53.080487
_cell_angle_gamma 90.000000
_cell_volume 4281.342192
_symmetry_space_group_name_H-M "C 2/M"
_symmetry_group_IT_number 12
_symmetry_cell_setting 'monoclinic'
loop_
_space_group_symop_operation_xyz
x,y,z
-x,y,-z
-x,-y,-z
x,-y,z
1/2+x,1/2+y,z
1/2-x,1/2+y,-z
1/2-x,1/2-y,-z
1/2+x,1/2-y,z
loop_
_atom_site_type_symbol
_atom_site_label
_atom_site_fract_x
_atom_site_fract_y
_atom_site_fract_z
Si Si1 0.988008 0.664654 0.867741
Si Si2 0.361364 0.836542 0.756655
Si Si3 0.118706 0.837062 0.982411
Si Si4 0.057225 0.154221 0.905656
Si Si5 0.537163 0.657556 0.568150
Si Si6 0.511889 0.160929 0.284893
Si Si7 0.247751 0.163590 0.935453
Si Si8 0.906708 0.157999 0.609137
O O1 0.983000 0.500000 0.887857
O O2 0.999235 0.693399 0.782077
O O3 0.045898 0.730028 0.858591
O O4 0.925989 0.739624 0.939044
O O5 0.419726 0.795213 0.752439
O O6 0.302889 0.786966 0.844637
O O7 0.361363 0.758465 0.686079
O O8 0.359124 0.000000 0.742797
O O9 0.113033 0.805593 0.908339
O O10 0.186574 0.800910 0.946954
O O11 0.102415 0.000000 0.009942
O O12 0.067318 0.000000 0.865247
O O13 0.000000 0.149215 0.000000
O O14 0.551912 0.500000 0.578805
O O15 0.538050 0.755077 0.631887
O O16 0.471815 0.665328 0.589055
O O17 0.586463 0.706524 0.472952
O O18 0.501254 0.000000 0.310577
O O19 0.253119 0.000000 0.948564
O O20 0.250000 0.250000 0.000000
O O21 0.881333 0.000000 0.632840
#
# Coordination Sequence:
#
# PCOD8079946 Si02
#       8
#     8   8   8   8   8   8   8   8
#     4  10  18  27  41  61  83 105 131 166 205 242
#     4   9  17  28  40  55  77 106 137 165 193 229
#     4   9  18  31  44  57  77 107 139 170 202 236
#     4   8  15  28  43  58  76 100 132 166 201 243
#     4   8  14  24  38  55  75 101 131 160 190 228
#     4   9  17  26  36  55  83 108 129 157 194 235
#     4  10  20  32  44  59  81 109 141 173 202 232
#     4   8  14  25  39  55  75  99 130 165 195 225
#
# _framework density 14.948582999999999
#
# number of rings (size 3 to 8) (size 9 to 14) (size 15 to 20)
#    0.000    3.125    0.000    2.625    0.000    5.750 
#    0.000    5.000    0.000    0.000    0.000    0.000 
#    0.000    1.000    0.000    2.250    0.000    3.500 
#
# Total GULP energy -396611.532936 kJ/mol
# GULP energy per Si atom -12394.110404 kJ/mol
# Density = 1.491456 g / cm^3
# Si number density = 14.948583 Si / 1000 Ang^3
#
#
#
# Elastic Constant Matrix: (Units=GPa)
#
#
# Indices 1 2 3 4 5 6 
#
# 1 78.7388 40.4216 46.4899 -0.0001 12.0500 -0.0004
# 2 40.4216 78.1657 67.4201 -0.0041 12.7615 0.0014
# 3 46.4899 67.4201 119.3323 -0.0012 12.4751 0.0013
# 4 -0.0001 -0.0041 -0.0012 29.4564 0.0013 6.2277
# 5 12.0500 12.7615 12.4751 0.0013 15.3301 -0.0008
# 6 -0.0004 0.0014 0.0013 6.2277 -0.0008 17.7816
#
#
#
# Elastic Compliance Matrix: (Units=1/GPa)
#
#
# Indices 1 2 3 4 5 6 
#
# 1 0.018656 -0.005549 -0.003370 -0.000001 -0.007303 0.000001
# 2 -0.005549 0.028142 -0.012837 0.000004 -0.008619 -0.000003
# 3 -0.003370 -0.012837 0.016997 -0.000001 -0.000497 0.000000
# 4 -0.000001 0.000004 -0.000001 0.036663 -0.000006 -0.012841
# 5 -0.007303 -0.008619 -0.000497 -0.000006 0.078551 0.000006
# 6 0.000001 -0.000003 0.000000 -0.012841 0.000006 0.060735
#
#
# Mechanical properties :
#
#
# Convention : Reuss Voigt Hill
#
# Bulk Modulus (GPa) = 49.29828 64.98889 57.14359
# Shear Modulus (GPa) = 17.24035 20.64063 18.94049
#
# Velocity S-wave (km/s) = 3.39973 3.71991 3.56342
# Velocity P-wave (km/s) = 6.96139 7.87525 7.43238
#
# Compressibility (1/GPa) = 0.02028468
#
# Stress axis : x y z
#
# Youngs Moduli (GPa) = 53.60225 35.53386 58.83293
#
# Poissons Ratio (x) = 0.19717 0.19825
# Poissons Ratio (y) = 0.29743 0.75524
# Poissons Ratio (z) = 0.18062 0.45615
#
# Static dielectric constant tensor:
#      x y z
#    x 2.900530 0.000000 0.175620 
#    y 0.000000 2.981590 0.000010 
#    z 0.175620 0.000010 2.976420 
# 
# 
# High freq. dielectric constant tensor:
#      x y z
#    x 1.537790 0.000000 0.018800 
#    y 0.000000 1.576870 0.000000 
#    z 0.018800 0.000000 1.558940 
# 
# From -- ./inp_files/292725.got.cif
#   From: 2010.06.25/outbox.cif.g09.slc.cpg/sg12_147_cif.got.tgz:292725.got - 2010.06.28 00:19:55.
