data_PCOD8079166
_publ_section_title
;
Structure prediction by ZEFSAII (Michael W. Deem and Ramdas Pophale) SiO2 
 PCOD8079166
Probable space group: C 2/M
;
_chemical_formula_sum "Si O2"
_cell_formula_units_Z 64
_cell_length_a 30.363123
_cell_length_b 9.072730
_cell_length_c 15.037930
_cell_angle_alpha 90.000000
_cell_angle_beta 101.079269
_cell_angle_gamma 90.000000
_cell_volume 4065.386460
_symmetry_space_group_name_H-M "C 2/M"
_symmetry_group_IT_number 12
_symmetry_cell_setting 'monoclinic'
loop_
_space_group_symop_operation_xyz
x,y,z
-x,y,-z
-x,-y,-z
x,-y,z
1/2+x,1/2+y,z
1/2-x,1/2+y,-z
1/2-x,1/2-y,-z
1/2+x,1/2-y,z
loop_
_atom_site_type_symbol
_atom_site_label
_atom_site_fract_x
_atom_site_fract_y
_atom_site_fract_z
Si Si1 0.130165 0.172854 0.239071
Si Si2 0.653570 0.326284 0.929971
Si Si3 0.811077 0.829098 0.575042
Si Si4 0.056495 0.825138 0.936418
Si Si5 0.190007 0.325487 0.115883
Si Si6 0.539666 0.673800 0.127115
Si Si7 0.213331 0.672289 0.604315
Si Si8 0.211567 0.171806 0.784160
O O1 0.147917 0.212393 0.343974
O O2 0.155656 0.264432 0.174663
O O3 0.077249 0.217063 0.214774
O O4 0.137625 0.000000 0.221350
O O5 0.656564 0.500000 0.951307
O O6 0.601956 0.268079 0.907334
O O7 0.674905 0.286847 0.843740
O O8 0.681019 0.243256 0.016490
O O9 0.816864 0.736369 0.487400
O O10 0.765231 0.786121 0.607710
O O11 0.810984 0.000000 0.548987
O O12 0.010740 0.766878 0.869331
O O13 0.057409 0.000000 0.935420
O O14 0.055631 0.765690 0.037357
O O15 0.185005 0.500000 0.107895
O O16 0.239838 0.277136 0.163181
O O17 0.536139 0.500000 0.117877
O O18 0.205194 0.500000 0.605790
O O19 0.197530 0.742123 0.690286
O O20 0.211457 0.000000 0.761539
#
# Coordination Sequence:
#
# PCOD8079166 Si02
#       8
#     8   8   8   8   8   8   8   8
#     4  10  17  29  48  68  90 120 151 179 218 270
#     4  10  19  32  48  63  86 123 159 187 219 261
#     4   9  18  30  46  67  90 116 146 181 223 268
#     4   8  13  23  42  67  89 111 145 188 224 256
#     4  11  21  30  41  63  94 123 153 187 217 252
#     4   8  13  22  42  69  90 110 143 186 224 259
#     4  10  19  31  48  67  88 117 148 184 225 266
#     4  10  21  33  45  63  89 122 156 189 221 256
#
# _framework density 15.742660000000001
#
# number of rings (size 3 to 8) (size 9 to 14) (size 15 to 20)
#    0.000    2.500    2.500    1.875    0.000    2.000 
#    0.000    0.000    0.000    1.500    0.000    0.875 
#    0.000    7.000    0.000    0.000    0.000    0.000 
#
# Total GULP energy -396655.071684 kJ/mol
# GULP energy per Si atom -12395.470990 kJ/mol
# Density = 1.570683 g / cm^3
# Si number density = 15.742660 Si / 1000 Ang^3
#
#
#
# Elastic Constant Matrix: (Units=GPa)
#
#
# Indices 1 2 3 4 5 6 
#
# 1 93.8352 19.8287 61.6802 0.0000 11.4175 0.0000
# 2 19.8287 37.7774 42.2053 0.0000 0.3045 0.0000
# 3 61.6802 42.2053 122.1430 0.0000 9.2474 0.0000
# 4 0.0000 0.0000 0.0000 24.9747 0.0000 0.9412
# 5 11.4175 0.3045 9.2474 0.0000 23.2449 0.0000
# 6 0.0000 0.0000 0.0000 0.9412 0.0000 12.2538
#
#
#
# Elastic Compliance Matrix: (Units=1/GPa)
#
#
# Indices 1 2 3 4 5 6 
#
# 1 0.016488 0.000447 -0.008111 0.000000 -0.004877 0.000000
# 2 0.000447 0.043827 -0.015785 0.000000 0.005486 0.000000
# 3 -0.008111 -0.015785 0.017961 0.000000 -0.002955 0.000000
# 4 0.000000 0.000000 0.000000 0.040157 0.000000 -0.003084
# 5 -0.004877 0.005486 -0.002955 0.000000 0.046519 0.000000
# 6 0.000000 0.000000 0.000000 -0.003084 0.000000 0.081844
#
#
# Mechanical properties :
#
#
# Convention : Reuss Voigt Hill
#
# Bulk Modulus (GPa) = 31.86977 55.68711 43.77844
# Shear Modulus (GPa) = 16.43901 20.76411 18.60156
#
# Velocity S-wave (km/s) = 3.23497 3.63570 3.44117
# Velocity P-wave (km/s) = 5.85162 7.28523 6.60742
#
# Compressibility (1/GPa) = 0.03137769
#
# Stress axis : x y z
#
# Youngs Moduli (GPa) = 60.65137 22.81680 55.67519
#
# Poissons Ratio (x) = -0.01020 0.45160
# Poissons Ratio (y) = -0.02713 0.87885
# Poissons Ratio (z) = 0.49196 0.36017
#
# Static dielectric constant tensor:
#      x y z
#    x 3.297360 0.000000 0.180630 
#    y 0.000000 2.794750 0.000000 
#    z 0.180630 0.000000 2.937990 
# 
# 
# High freq. dielectric constant tensor:
#      x y z
#    x 1.595640 0.000000 0.013960 
#    y 0.000000 1.584090 0.000000 
#    z 0.013960 0.000000 1.589070 
# 
# From -- ./inp_files/248425.got.cif
#   From: 2010.06.25/outbox.cif.g09.slc.cpg/sg12_125_cif.got.tgz:248425.got - 2010.06.28 00:19:55.
