data_PCOD8079836
_publ_section_title
;
Structure prediction by ZEFSAII (Michael W. Deem and Ramdas Pophale) SiO2 
 PCOD8079836
Probable space group: C 2/M
;
_chemical_formula_sum "Si O2"
_cell_formula_units_Z 56
_cell_length_a 27.361144
_cell_length_b 9.349475
_cell_length_c 14.391392
_cell_angle_alpha 90.000000
_cell_angle_beta 103.823500
_cell_angle_gamma 90.000000
_cell_volume 3574.866045
_symmetry_space_group_name_H-M "C 2/M"
_symmetry_group_IT_number 12
_symmetry_cell_setting 'monoclinic'
loop_
_space_group_symop_operation_xyz
x,y,z
-x,y,-z
-x,-y,-z
x,-y,z
1/2+x,1/2+y,z
1/2-x,1/2+y,-z
1/2-x,1/2-y,-z
1/2+x,1/2-y,z
loop_
_atom_site_type_symbol
_atom_site_label
_atom_site_fract_x
_atom_site_fract_y
_atom_site_fract_z
Si Si1 0.444853 0.333503 0.472495
Si Si2 0.295580 0.833534 0.902639
Si Si3 0.183904 0.162994 0.913875
Si Si4 0.313297 0.338632 0.729953
Si Si5 0.636670 0.664153 0.707005
Si Si6 0.795882 0.335734 0.396246
Si Si7 0.357385 0.332608 0.563545
O O1 0.500000 0.258263 0.500000
O O2 0.452595 0.500000 0.492965
O O3 0.418649 0.303284 0.360399
O O4 0.409318 0.275869 0.540141
O O5 0.236451 0.799701 0.886230
O O6 0.316860 0.769069 0.817049
O O7 0.307531 0.000000 0.907204
O O8 0.325509 0.764545 0.002694
O O9 0.138755 0.188192 0.819333
O O10 0.185185 0.000000 0.950191
O O11 0.317513 0.500000 0.771150
O O12 0.263129 0.319972 0.647007
O O13 0.357756 0.306019 0.675130
O O14 0.652003 0.500000 0.691135
O O15 0.676880 0.769041 0.680443
O O16 0.812299 0.500000 0.413806
O O17 0.811009 0.251593 0.496102
O O18 0.349477 0.500000 0.537784
#
# Coordination Sequence:
#
# PCOD8079836 Si02
#       7
#     8   8   8   8   8   8   8
#     4   8  14  26  46  69  87 105 136 177 215 253
#     4  10  19  28  42  61  84 115 147 180 210 243
#     4   9  17  29  42  59  84 115 146 175 210 250
#     4  10  19  29  40  58  85 118 147 174 208 248
#     4   9  16  28  45  63  86 115 143 172 212 255
#     4  10  18  26  39  60  85 113 146 177 204 241
#     4   9  18  30  43  59  84 115 144 173 212 256
#
# _framework density 15.664923
#
# number of rings (size 3 to 8) (size 9 to 14) (size 15 to 20)
#    0.000    2.714    1.429    2.143    0.000    2.286 
#    0.000    0.000    0.000    6.857    0.000    1.000 
#    0.000    8.000    0.000    0.000    0.000    0.000 
#
# Total GULP energy -347038.082442 kJ/mol
# GULP energy per Si atom -12394.217230 kJ/mol
# Density = 1.562927 g / cm^3
# Si number density = 15.664923 Si / 1000 Ang^3
#
#
#
# Elastic Constant Matrix: (Units=GPa)
#
#
# Indices 1 2 3 4 5 6 
#
# 1 62.9837 25.0259 46.4243 0.0000 -0.2526 0.0000
# 2 25.0259 70.6619 54.4055 0.0000 -6.5784 0.0000
# 3 46.4243 54.4055 125.7795 0.0000 -9.3833 0.0000
# 4 0.0000 0.0000 0.0000 28.1784 0.0000 -2.2059
# 5 -0.2526 -6.5784 -9.3833 0.0000 16.7114 0.0000
# 6 0.0000 0.0000 0.0000 -2.2059 0.0000 9.2372
#
#
#
# Elastic Compliance Matrix: (Units=1/GPa)
#
#
# Indices 1 2 3 4 5 6 
#
# 1 0.022437 -0.002617 -0.007516 0.000000 -0.004911 0.000000
# 2 -0.002617 0.021704 -0.008128 0.000000 0.003940 0.000000
# 3 -0.007516 -0.008128 0.014605 0.000000 0.004887 0.000000
# 4 0.000000 0.000000 0.000000 0.036164 0.000000 0.008636
# 5 -0.004911 0.003940 0.004887 0.000000 0.064060 0.000000
# 6 0.000000 0.000000 0.000000 0.008636 0.000000 0.110320
#
#
# Mechanical properties :
#
#
# Convention : Reuss Voigt Hill
#
# Bulk Modulus (GPa) = 44.99630 56.79293 50.89461
# Shear Modulus (GPa) = 15.96327 19.73004 17.84665
#
# Velocity S-wave (km/s) = 3.19571 3.55280 3.37898
# Velocity P-wave (km/s) = 6.51179 7.29132 6.91255
#
# Compressibility (1/GPa) = 0.02222405
#
# Stress axis : x y z
#
# Youngs Moduli (GPa) = 44.56931 46.07534 68.47073
#
# Poissons Ratio (x) = 0.12057 0.51461
# Poissons Ratio (y) = 0.11663 0.55653
# Poissons Ratio (z) = 0.33497 0.37450
#
# Static dielectric constant tensor:
#      x y z
#    x 2.874500 0.000000 -0.020930 
#    y 0.000000 2.929480 0.000000 
#    z -0.020930 0.000000 3.039470 
# 
# 
# High freq. dielectric constant tensor:
#      x y z
#    x 1.554500 0.000000 -0.006640 
#    y 0.000000 1.594100 0.000000 
#    z -0.006640 0.000000 1.602460 
# 
# From -- ./inp_files/247773.got.cif
#   From: 2010.06.25/outbox.cif.g09.slc.cpg/sg12_124_cif.got.tgz:247773.got - 2010.06.28 00:19:55.
