data_PCOD8079104
_publ_section_title
;
Structure prediction by ZEFSAII (Michael W. Deem and Ramdas Pophale) SiO2 
 PCOD8079104
Probable space group: C 2/M
;
_chemical_formula_sum "Si O2"
_cell_formula_units_Z 52
_cell_length_a 21.441331
_cell_length_b 14.060713
_cell_length_c 19.165222
_cell_angle_alpha 90.000000
_cell_angle_beta 29.916005
_cell_angle_gamma 90.000000
_cell_volume 2881.630732
_symmetry_space_group_name_H-M "C 2/M"
_symmetry_group_IT_number 12
_symmetry_cell_setting 'monoclinic'
loop_
_space_group_symop_operation_xyz
x,y,z
-x,y,-z
-x,-y,-z
x,-y,z
1/2+x,1/2+y,z
1/2-x,1/2+y,-z
1/2-x,1/2-y,-z
1/2+x,1/2-y,z
loop_
_atom_site_type_symbol
_atom_site_label
_atom_site_fract_x
_atom_site_fract_y
_atom_site_fract_z
Si Si1 0.000000 0.770111 0.500000
Si Si2 0.644960 0.608822 0.473529
Si Si3 0.526247 0.727680 0.704189
Si Si4 0.667058 0.779129 0.221820
Si Si5 0.673040 0.391608 0.029125
Si Si6 0.687623 0.106089 0.963431
Si Si7 0.591223 0.892797 0.733962
O O1 0.923962 0.835395 0.520528
O O2 0.900866 0.703437 0.637831
O O3 0.599429 0.500000 0.515126
O O4 0.611614 0.650899 0.581925
O O5 0.795550 0.616792 0.320256
O O6 0.436886 0.778808 0.736398
O O7 0.447866 0.673319 0.840154
O O8 0.608491 0.811959 0.658274
O O9 0.736918 0.677208 0.159453
O O10 0.765315 0.860797 0.104668
O O11 0.629919 0.500000 0.064732
O O12 0.773423 0.376069 0.993850
O O13 0.725413 0.000000 0.903226
O O14 0.539676 0.123006 0.099079
O O15 0.593151 0.000000 0.699100
#
# Coordination Sequence:
#
# PCOD8079104 Si02
#       7
#     4   8   8   8   8   8   8
#     4  10  23  36  51  64  98 140 177 204 237 286
#     4  10  21  34  50  74 104 136 169 200 241 295
#     4  10  17  31  51  78 103 129 161 204 252 300
#     4  10  18  32  49  72  99 133 170 202 242 291
#     4  10  17  28  51  77 101 127 159 205 256 295
#     4   9  16  28  49  77 103 126 157 203 253 299
#     4  10  18  30  50  78 108 132 156 200 256 300
#
# _framework density 18.045338000000001
#
# number of rings (size 3 to 8) (size 9 to 14) (size 15 to 20)
#    0.000    2.154    3.077    2.077    0.000    4.308 
#    0.000    1.154    0.000    3.692    0.000    1.077 
#    0.000    0.000    0.000    0.000    0.000    0.000 
#
# Total GULP energy -322273.345754 kJ/mol
# GULP energy per Si atom -12395.128683 kJ/mol
# Density = 1.800427 g / cm^3
# Si number density = 18.045338 Si / 1000 Ang^3
#
#
#
# Elastic Constant Matrix: (Units=GPa)
#
#
# Indices 1 2 3 4 5 6 
#
# 1 53.0467 27.9270 34.2014 0.0001 -6.2795 0.0000
# 2 27.9270 69.6048 31.8117 0.0001 7.3542 0.0000
# 3 34.2014 31.8117 93.4702 0.0003 14.2870 -0.0001
# 4 0.0001 0.0001 0.0003 24.6143 -0.0001 -5.4498
# 5 -6.2795 7.3542 14.2870 -0.0001 31.0017 0.0001
# 6 0.0000 0.0000 -0.0001 -5.4498 0.0001 15.9747
#
#
#
# Elastic Compliance Matrix: (Units=1/GPa)
#
#
# Indices 1 2 3 4 5 6 
#
# 1 0.032428 -0.009570 -0.010714 0.000000 0.013776 0.000000
# 2 -0.009570 0.019900 -0.002424 0.000000 -0.005542 0.000000
# 3 -0.010714 -0.002424 0.016877 0.000000 -0.009373 0.000000
# 4 0.000000 0.000000 0.000000 0.043946 0.000000 0.014992
# 5 0.013776 -0.005542 -0.009373 0.000000 0.040681 0.000000
# 6 0.000000 0.000000 0.000000 0.014992 0.000000 0.067714
#
#
# Mechanical properties :
#
#
# Convention : Reuss Voigt Hill
#
# Bulk Modulus (GPa) = 42.03720 44.88909 43.46315
# Shear Modulus (GPa) = 18.18902 22.46357 20.32630
#
# Velocity S-wave (km/s) = 3.17829 3.53206 3.35983
# Velocity P-wave (km/s) = 6.06750 6.44699 6.26012
#
# Compressibility (1/GPa) = 0.02378845
#
# Stress axis : x y z
#
# Youngs Moduli (GPa) = 30.83742 50.25195 59.25318
#
# Poissons Ratio (x) = 0.48089 0.63487
# Poissons Ratio (y) = 0.29510 0.14363
# Poissons Ratio (z) = 0.33041 0.12181
#
# Static dielectric constant tensor:
#      x y z
#    x 2.988640 0.000000 -0.109520 
#    y 0.000000 3.399120 0.000000 
#    z -0.109520 0.000000 3.527020 
# 
# 
# High freq. dielectric constant tensor:
#      x y z
#    x 1.652580 0.000000 -0.019290 
#    y 0.000000 1.698080 0.000000 
#    z -0.019290 0.000000 1.703910 
# 
# From -- ./inp_files/284269.got.cif
#   From: 2010.06.25/outbox.cif.g09.slc.cpg/sg12_143_cif.got.tgz:284269.got - 2010.06.28 00:19:55.
