data_PCOD8079209
_publ_section_title
;
Structure prediction by ZEFSAII (Michael W. Deem and Ramdas Pophale) SiO2 
 PCOD8079209
Probable space group: C 2/M
;
_chemical_formula_sum "Si O2"
_cell_formula_units_Z 56
_cell_length_a 15.331765
_cell_length_b 18.454968
_cell_length_c 14.487434
_cell_angle_alpha 90.000000
_cell_angle_beta 135.391043
_cell_angle_gamma 90.000000
_cell_volume 2878.707546
_symmetry_space_group_name_H-M "C 2/M"
_symmetry_group_IT_number 12
_symmetry_cell_setting 'monoclinic'
loop_
_space_group_symop_operation_xyz
x,y,z
-x,y,-z
-x,-y,-z
x,-y,z
1/2+x,1/2+y,z
1/2-x,1/2+y,-z
1/2-x,1/2-y,-z
1/2+x,1/2-y,z
loop_
_atom_site_type_symbol
_atom_site_label
_atom_site_fract_x
_atom_site_fract_y
_atom_site_fract_z
Si Si1 0.928683 0.204660 0.119516
Si Si2 0.754809 0.783014 0.151157
Si Si3 0.840174 0.082752 0.937916
Si Si4 0.436354 0.082795 0.217989
Si Si5 0.606027 0.084194 0.504506
Si Si6 0.616543 0.917703 0.021969
Si Si7 0.813328 0.823534 0.751061
O O1 0.880333 0.227071 0.185218
O O2 0.077497 0.213640 0.227076
O O3 0.864840 0.253026 0.993092
O O4 0.890783 0.121116 0.068771
O O5 0.726535 0.868191 0.147591
O O6 0.765764 0.738686 0.254913
O O7 0.691071 0.090996 0.821403
O O8 0.883157 0.121661 0.875402
O O9 0.884631 0.000000 0.972326
O O10 0.549023 0.113863 0.364600
O O11 0.468052 0.000000 0.223385
O O12 0.423754 0.118255 0.107125
O O13 0.500000 0.093414 0.500000
O O14 0.724780 0.132975 0.615598
O O15 0.647022 0.000000 0.529569
O O16 0.667658 0.000000 0.048534
O O17 0.500000 0.916600 0.000000
#
# Coordination Sequence:
#
# PCOD8079209 Si02
#       7
#     8   8   8   8   8   8   8
#     4  10  21  32  50  77 107 152 183 223 285 336
#     4  10  20  36  52  73 111 147 178 234 286 334
#     4  10  17  29  49  78 115 144 175 221 274 336
#     4   9  17  30  51  81 112 142 180 221 272 325
#     4  10  19  33  54  81 116 155 185 221 270 329
#     4  10  19  33  57  84 106 138 188 240 282 327
#     4  11  21  33  51  81 110 150 193 217 272 343
#
# _framework density 19.453174000000001
#
# number of rings (size 3 to 8) (size 9 to 14) (size 15 to 20)
#    0.000    2.000    2.857    3.000    0.000    1.714 
#    0.000    0.000    0.000    7.714    0.000    0.000 
#    0.000    5.143    0.000    1.286    0.000    0.000 
#
# Total GULP energy -347093.251415 kJ/mol
# GULP energy per Si atom -12396.187551 kJ/mol
# Density = 1.940890 g / cm^3
# Si number density = 19.453174 Si / 1000 Ang^3
#
#
#
# Elastic Constant Matrix: (Units=GPa)
#
#
# Indices 1 2 3 4 5 6 
#
# 1 90.5741 29.4963 25.5343 0.0000 12.3970 0.0000
# 2 29.4963 71.4498 22.3448 0.0000 -5.4940 0.0000
# 3 25.5343 22.3448 59.8831 0.0000 2.4702 0.0000
# 4 0.0000 0.0000 0.0000 27.8417 0.0000 3.2398
# 5 12.3970 -5.4940 2.4702 0.0000 21.2558 0.0000
# 6 0.0000 0.0000 0.0000 3.2398 0.0000 21.3070
#
#
#
# Elastic Compliance Matrix: (Units=1/GPa)
#
#
# Indices 1 2 3 4 5 6 
#
# 1 0.015469 -0.005920 -0.003971 0.000000 -0.010091 0.000000
# 2 -0.005920 0.018615 -0.004785 0.000000 0.008820 0.000000
# 3 -0.003971 -0.004785 0.020230 0.000000 -0.001272 0.000000
# 4 0.000000 0.000000 0.000000 0.036564 0.000000 -0.005560
# 5 -0.010091 0.008820 -0.001272 0.000000 0.055359 0.000000
# 6 0.000000 0.000000 0.000000 -0.005560 0.000000 0.047778
#
#
# Mechanical properties :
#
#
# Convention : Reuss Voigt Hill
#
# Bulk Modulus (GPa) = 40.06148 41.85086 40.95617
# Shear Modulus (GPa) = 21.58066 23.71634 22.64850
#
# Velocity S-wave (km/s) = 3.33433 3.49542 3.41582
# Velocity P-wave (km/s) = 5.95501 6.15231 6.05447
#
# Compressibility (1/GPa) = 0.02496163
#
# Stress axis : x y z
#
# Youngs Moduli (GPa) = 64.64452 53.72126 49.43054
#
# Poissons Ratio (x) = 0.31804 0.19628
# Poissons Ratio (y) = 0.38271 0.23654
# Poissons Ratio (z) = 0.25669 0.25707
#
# Static dielectric constant tensor:
#      x y z
#    x 3.532000 0.000000 -0.125730 
#    y 0.000000 3.793260 0.000000 
#    z -0.125730 0.000000 3.327300 
# 
# 
# High freq. dielectric constant tensor:
#      x y z
#    x 1.753390 0.000000 0.002980 
#    y 0.000000 1.764440 0.000000 
#    z 0.002980 0.000000 1.706890 
# 
# From -- ./inp_files/217657.got.cif
#   From: 2010.06.25/outbox.cif.g09.slc.cpg/sg12_109_cif.got.tgz:217657.got - 2010.06.28 00:19:55.
