data_PCOD8079100
_publ_section_title
;
Structure prediction by ZEFSAII (Michael W. Deem and Ramdas Pophale) SiO2 
 PCOD8079100
Probable space group: C 2/M
;
_chemical_formula_sum "Si O2"
_cell_formula_units_Z 64
_cell_length_a 30.339755
_cell_length_b 8.784116
_cell_length_c 17.181098
_cell_angle_alpha 90.000000
_cell_angle_beta 134.108254
_cell_angle_gamma 90.000000
_cell_volume 3287.768574
_symmetry_space_group_name_H-M "C 2/M"
_symmetry_group_IT_number 12
_symmetry_cell_setting 'monoclinic'
loop_
_space_group_symop_operation_xyz
x,y,z
-x,y,-z
-x,-y,-z
x,-y,z
1/2+x,1/2+y,z
1/2-x,1/2+y,-z
1/2-x,1/2-y,-z
1/2+x,1/2-y,z
loop_
_atom_site_type_symbol
_atom_site_label
_atom_site_fract_x
_atom_site_fract_y
_atom_site_fract_z
Si Si1 0.554054 0.820814 0.389557
Si Si2 0.646071 0.320070 0.951105
Si Si3 0.622400 0.179401 0.629712
Si Si4 0.046592 0.180377 0.947679
Si Si5 0.759482 0.181660 0.810954
Si Si6 0.359367 0.319845 0.814355
Si Si7 0.072443 0.820057 0.718896
Si Si8 0.583215 0.680384 0.267938
O O1 0.595562 0.773158 0.513750
O O2 0.488894 0.737628 0.314421
O O3 0.591791 0.766645 0.359996
O O4 0.542935 0.000000 0.373218
O O5 0.646807 0.500000 0.958214
O O6 0.589270 0.256903 0.930995
O O7 0.632318 0.270954 0.844861
O O8 0.709585 0.261313 0.069016
O O9 0.690992 0.248753 0.721266
O O10 0.578600 0.248754 0.641614
O O11 0.622537 0.000000 0.641602
O O12 0.978512 0.242484 0.849564
O O13 0.043143 0.000000 0.942821
O O14 0.077423 0.236716 0.066415
O O15 0.799413 0.244102 0.786206
O O16 0.756803 0.000000 0.804625
O O17 0.357405 0.500000 0.819976
O O18 0.362107 0.275039 0.725955
O O19 0.067782 0.000000 0.705850
O O20 0.581645 0.500000 0.281804
#
# Coordination Sequence:
#
# PCOD8079100 Si02
#       8
#     8   8   8   8   8   8   8   8
#     4  11  23  37  51  71 104 142 176 207 250 306
#     4   8  14  26  48  79 107 128 155 203 259 305
#     4  10  22  38  54  72  99 140 180 210 246 303
#     4   8  12  22  42  74 109 130 153 198 255 302
#     4   8  15  31  52  75 105 137 171 207 246 299
#     4   8  14  24  47  80 105 130 166 210 253 297
#     4  11  21  35  57  83 104 124 162 217 270 309
#     4  10  17  28  50  80 106 129 168 216 258 295
#
# _framework density 19.466090000000001
#
# number of rings (size 3 to 8) (size 9 to 14) (size 15 to 20)
#    0.000    2.750    1.250    3.000    0.000    4.500 
#    0.000    0.625    0.000    3.000    0.000    0.000 
#    0.000    0.000    0.000    0.000    0.000    0.000 
#
# Total GULP energy -396446.314451 kJ/mol
# GULP energy per Si atom -12388.947327 kJ/mol
# Density = 1.942178 g / cm^3
# Si number density = 19.466090 Si / 1000 Ang^3
#
#
#
# Elastic Constant Matrix: (Units=GPa)
#
#
# Indices 1 2 3 4 5 6 
#
# 1 57.4096 16.2368 43.1589 0.0000 -15.9028 0.0000
# 2 16.2368 16.8280 28.0921 0.0000 -6.9899 0.0000
# 3 43.1589 28.0921 117.6913 0.0000 -15.0093 0.0000
# 4 0.0000 0.0000 0.0000 15.5470 0.0000 -0.8304
# 5 -15.9028 -6.9899 -15.0093 0.0000 36.6633 0.0000
# 6 0.0000 0.0000 0.0000 -0.8304 0.0000 13.9089
#
#
#
# Elastic Compliance Matrix: (Units=1/GPa)
#
#
# Indices 1 2 3 4 5 6 
#
# 1 0.027776 -0.013948 -0.005971 0.000000 0.006944 0.000000
# 2 -0.013948 0.109165 -0.020109 0.000000 0.006530 0.000000
# 3 -0.005971 -0.020109 0.015475 0.000000 -0.000088 0.000000
# 4 0.000000 0.000000 0.000000 0.064527 0.000000 0.003852
# 5 0.006944 0.006530 -0.000088 0.000000 0.031496 0.000000
# 6 0.000000 0.000000 0.000000 0.003852 0.000000 0.072126
#
#
# Mechanical properties :
#
#
# Convention : Reuss Voigt Hill
#
# Bulk Modulus (GPa) = 13.81992 40.76719 27.29356
# Shear Modulus (GPa) = 11.77189 20.18657 15.97923
#
# Velocity S-wave (km/s) = 2.46181 3.22376 2.86820
# Velocity P-wave (km/s) = 3.89815 5.90296 5.00203
#
# Compressibility (1/GPa) = 0.07235932
#
# Stress axis : x y z
#
# Youngs Moduli (GPa) = 36.00246 9.16048 64.62029
#
# Poissons Ratio (x) = 0.12777 0.38584
# Poissons Ratio (y) = 0.50217 1.29946
# Poissons Ratio (z) = 0.21497 0.18421
#
# Static dielectric constant tensor:
#      x y z
#    x 3.676250 0.000000 -0.054670 
#    y 0.000000 2.962690 0.000000 
#    z -0.054670 0.000000 3.832050 
# 
# 
# High freq. dielectric constant tensor:
#      x y z
#    x 1.756100 0.000000 -0.013080 
#    y 0.000000 1.698160 0.000000 
#    z -0.013080 0.000000 1.759750 
# 
# From -- ./inp_files/249981.got.cif
#   From: 2010.06.25/outbox.cif.g09.slc.cpg/sg12_125_cif.got.tgz:249981.got - 2010.06.28 00:19:55.
