data_PCOD8079782
_publ_section_title
;
Structure prediction by ZEFSAII (Michael W. Deem and Ramdas Pophale) SiO2 
 PCOD8079782
Probable space group: C 2/M
;
_chemical_formula_sum "Si O2"
_cell_formula_units_Z 36
_cell_length_a 14.567320
_cell_length_b 17.612323
_cell_length_c 14.051128
_cell_angle_alpha 90.000000
_cell_angle_beta 152.999234
_cell_angle_gamma 90.000000
_cell_volume 1636.687072
_symmetry_space_group_name_H-M "C 2/M"
_symmetry_group_IT_number 12
_symmetry_cell_setting 'monoclinic'
loop_
_space_group_symop_operation_xyz
x,y,z
-x,y,-z
-x,-y,-z
x,-y,z
1/2+x,1/2+y,z
1/2-x,1/2+y,-z
1/2-x,1/2-y,-z
1/2+x,1/2-y,z
loop_
_atom_site_type_symbol
_atom_site_label
_atom_site_fract_x
_atom_site_fract_y
_atom_site_fract_z
Si Si1 0.764403 0.376890 0.799136
Si Si2 0.153632 0.500000 0.765583
Si Si3 0.318902 0.500000 0.639688
Si Si4 0.500000 0.752993 0.500000
Si Si5 0.799486 0.500000 0.980626
Si Si6 0.271552 0.500000 0.386185
Si Si7 0.309561 0.626949 0.770705
O O1 0.634943 0.299906 0.693520
O O2 0.725454 0.424812 0.858043
O O3 0.679806 0.424620 0.629989
O O4 0.000000 0.358158 0.000000
O O5 0.196334 0.574333 0.743397
O O6 0.922204 0.500000 0.580076
O O7 0.280716 0.500000 0.983650
O O8 0.399198 0.500000 0.603975
O O9 0.394273 0.575932 0.762682
O O10 0.340521 0.807623 0.407638
O O11 0.039677 0.500000 0.199782
O O12 0.500000 0.665271 0.000000
#
# Coordination Sequence:
#
# PCOD8079782 Si02
#       7
#     8   4   4   4   4   4   8
#     4   9  19  39  60  87 115 154 185 234 289 332
#     4  10  17  37  65  87 110 144 202 245 273 329
#     4  10  17  37  65  87 110 144 202 245 273 329
#     4  12  22  38  58  82 128 150 190 222 290 364
#     4   8  17  35  66  88 111 144 199 244 274 327
#     4   8  17  35  66  88 111 144 199 244 274 327
#     4  11  22  38  58  85 113 157 190 238 289 328
#
# _framework density 21.995653000000001
#
# number of rings (size 3 to 8) (size 9 to 14) (size 15 to 20)
#    0.000    2.222    2.222    4.000    0.000    1.778 
#    8.000    2.222    0.000    0.000    0.000    0.000 
#    0.000    0.000    0.000    0.000    0.000    0.000 
#
# Total GULP energy -223086.346781 kJ/mol
# GULP energy per Si atom -12393.685932 kJ/mol
# Density = 2.194559 g / cm^3
# Si number density = 21.995653 Si / 1000 Ang^3
#
#
#
# Elastic Constant Matrix: (Units=GPa)
#
#
# Indices 1 2 3 4 5 6 
#
# 1 114.8378 41.0229 40.3774 0.0004 -18.2884 0.0000
# 2 41.0229 140.2602 62.6368 0.0001 2.5051 0.0000
# 3 40.3774 62.6368 100.2812 0.0008 -13.5675 0.0001
# 4 0.0004 0.0001 0.0008 45.6960 0.0005 4.4369
# 5 -18.2884 2.5051 -13.5675 0.0005 45.3921 0.0001
# 6 0.0000 0.0000 0.0001 4.4369 0.0001 1.7495
#
#
#
# Elastic Compliance Matrix: (Units=1/GPa)
#
#
# Indices 1 2 3 4 5 6 
#
# 1 0.010975 -0.002124 -0.002583 0.000000 0.003767 0.000000
# 2 -0.002124 0.010577 -0.006197 0.000000 -0.003291 0.000000
# 3 -0.002583 -0.006197 0.015411 0.000000 0.003908 0.000000
# 4 0.000000 0.000000 0.000000 0.029033 0.000000 -0.073631
# 5 0.003767 -0.003291 0.003908 0.000000 0.024898 0.000000
# 6 0.000000 0.000000 0.000000 -0.073631 0.000000 0.758325
#
#
# Mechanical properties :
#
#
# Convention : Reuss Voigt Hill
#
# Bulk Modulus (GPa) = 65.97893 71.49482 68.73687
# Shear Modulus (GPa) = 5.70727 32.65700 19.18214
#
# Velocity S-wave (km/s) = 1.61256 3.85736 2.95632
# Velocity P-wave (km/s) = 5.79039 7.23973 6.55524
#
# Compressibility (1/GPa) = 0.01515635
#
# Stress axis : x y z
#
# Youngs Moduli (GPa) = 91.11988 94.54669 64.88872
#
# Poissons Ratio (x) = 0.20079 0.16759
# Poissons Ratio (y) = 0.19351 0.40209
# Poissons Ratio (z) = 0.23533 0.58587
#
# Static dielectric constant tensor:
#      x y z
#    x 4.154450 0.000000 -0.160560 
#    y 0.000000 3.823550 0.000000 
#    z -0.160560 0.000000 4.562290 
# 
# 
# High freq. dielectric constant tensor:
#      x y z
#    x 1.840090 0.000000 0.023500 
#    y 0.000000 1.842960 0.000000 
#    z 0.023500 0.000000 1.908370 
# 
# From -- ./inp_files/216199.got.cif
#   From: 2010.06.25/outbox.cif.g09.slc.cpg/sg12_109_cif.got.tgz:216199.got - 2010.06.28 00:19:55.
