data_PCOD8079504
_publ_section_title
;
Structure prediction by ZEFSAII (Michael W. Deem and Ramdas Pophale) SiO2 
 PCOD8079504
Probable space group: C 2/M
;
_chemical_formula_sum "Si O2"
_cell_formula_units_Z 44
_cell_length_a 28.299066
_cell_length_b 14.870077
_cell_length_c 10.867272
_cell_angle_alpha 90.000000
_cell_angle_beta 30.618316
_cell_angle_gamma 90.000000
_cell_volume 2329.129536
_symmetry_space_group_name_H-M "C 2/M"
_symmetry_group_IT_number 12
_symmetry_cell_setting 'monoclinic'
loop_
_space_group_symop_operation_xyz
x,y,z
-x,y,-z
-x,-y,-z
x,-y,z
1/2+x,1/2+y,z
1/2-x,1/2+y,-z
1/2-x,1/2-y,-z
1/2+x,1/2-y,z
loop_
_atom_site_type_symbol
_atom_site_label
_atom_site_fract_x
_atom_site_fract_y
_atom_site_fract_z
Si Si1 0.351661 0.000000 0.360709
Si Si2 0.560094 0.809881 0.112732
Si Si3 0.377420 0.188252 0.664084
Si Si4 0.313747 0.692418 0.023877
Si Si5 0.000000 0.351178 0.000000
Si Si6 0.856857 0.500000 0.074894
Si Si7 0.205469 0.000000 0.909405
Si Si8 0.329193 0.000000 0.866446
O O1 0.276411 0.000000 0.636350
O O2 0.414505 0.087974 0.238157
O O3 0.305439 0.000000 0.324430
O O4 0.476817 0.783956 0.389642
O O5 0.654176 0.757273 0.937463
O O6 0.574165 0.916289 0.084608
O O7 0.532127 0.784505 0.036565
O O8 0.352786 0.269743 0.809313
O O9 0.386671 0.092346 0.714372
O O10 0.298633 0.184561 0.733565
O O11 0.353848 0.592186 0.963660
O O12 0.794588 0.500000 0.088515
O O13 0.245700 0.000000 0.958127
#
# Coordination Sequence:
#
# PCOD8079504 Si02
#       8
#     4   8   8   8   4   4   4   4
#     4   9  18  36  52  79 113 143 168 219 279 343
#     4  11  20  35  55  82 115 140 174 221 277 328
#     4  10  20  34  53  84 111 139 172 225 278 321
#     4  10  21  34  55  78 107 143 188 220 261 322
#     4   9  18  32  56  83 110 136 170 217 284 349
#     4  10  20  31  58  89 112 134 168 215 297 351
#     4  10  21  38  54  71 110 153 189 224 257 299
#     4  10  17  31  57  83 111 131 166 225 287 331
#
# _framework density 18.891178
#
# number of rings (size 3 to 8) (size 9 to 14) (size 15 to 20)
#    0.000    2.000    1.818    3.818    0.000    0.727 
#    0.000   10.000    0.000    0.545    0.000    0.000 
#    0.000    0.000    0.000    0.000    0.000    0.000 
#
# Total GULP energy -272576.304582 kJ/mol
# GULP energy per Si atom -12389.832026 kJ/mol
# Density = 1.884818 g / cm^3
# Si number density = 18.891178 Si / 1000 Ang^3
#
#
#
# Elastic Constant Matrix: (Units=GPa)
#
#
# Indices 1 2 3 4 5 6 
#
# 1 142.5809 31.4195 25.9968 0.0000 18.2561 0.0000
# 2 31.4195 114.7086 38.4240 0.0000 1.1696 0.0000
# 3 25.9968 38.4240 51.0642 0.0000 7.6407 0.0000
# 4 0.0000 0.0000 0.0000 13.3357 0.0000 1.3774
# 5 18.2561 1.1696 7.6407 0.0000 20.0514 0.0000
# 6 0.0000 0.0000 0.0000 1.3774 0.0000 23.4832
#
#
#
# Elastic Compliance Matrix: (Units=1/GPa)
#
#
# Indices 1 2 3 4 5 6 
#
# 1 0.008647 -0.001566 -0.002184 0.000000 -0.006949 0.000000
# 2 -0.001566 0.012092 -0.008918 0.000000 0.004119 0.000000
# 3 -0.002184 -0.008918 0.028664 0.000000 -0.008414 0.000000
# 4 0.000000 0.000000 0.000000 0.075444 0.000000 -0.004425
# 5 -0.006949 0.004119 -0.008414 0.000000 0.059165 0.000000
# 6 0.000000 0.000000 0.000000 -0.004425 0.000000 0.042843
#
#
# Mechanical properties :
#
#
# Convention : Reuss Voigt Hill
#
# Bulk Modulus (GPa) = 41.54970 55.55937 48.55453
# Shear Modulus (GPa) = 19.21513 25.54163 22.37838
#
# Velocity S-wave (km/s) = 3.19274 3.68100 3.44553
# Velocity P-wave (km/s) = 5.96937 6.89495 6.44879
#
# Compressibility (1/GPa) = 0.02406756
#
# Stress axis : x y z
#
# Youngs Moduli (GPa) = 115.65272 82.70045 34.88668
#
# Poissons Ratio (x) = 0.12951 0.07619
# Poissons Ratio (y) = 0.18111 0.31111
# Poissons Ratio (z) = 0.25257 0.73750
#
# Static dielectric constant tensor:
#      x y z
#    x 3.878620 0.000000 0.134890 
#    y 0.000000 3.639760 0.000000 
#    z 0.134890 0.000000 3.038040 
# 
# 
# High freq. dielectric constant tensor:
#      x y z
#    x 1.746090 0.000000 0.017390 
#    y 0.000000 1.726080 0.000000 
#    z 0.017390 0.000000 1.686120 
# 
# From -- ./inp_files/189156.got.cif
#   From: 2010.06.25/outbox.cif.g09.slc.cpg/sg12_95_cif.got.tgz:189156.got - 2010.06.28 00:19:55.
