data_PCOD8079021
_publ_section_title
;
Structure prediction by ZEFSAII (Michael W. Deem and Ramdas Pophale) SiO2 
 PCOD8079021
Probable space group: C 2/M
;
_chemical_formula_sum "Si O2"
_cell_formula_units_Z 48
_cell_length_a 13.962993
_cell_length_b 20.955248
_cell_length_c 18.684735
_cell_angle_alpha 90.000000
_cell_angle_beta 150.027877
_cell_angle_gamma 90.000000
_cell_volume 2731.253918
_symmetry_space_group_name_H-M "C 2/M"
_symmetry_group_IT_number 12
_symmetry_cell_setting 'monoclinic'
loop_
_space_group_symop_operation_xyz
x,y,z
-x,y,-z
-x,-y,-z
x,-y,z
1/2+x,1/2+y,z
1/2-x,1/2+y,-z
1/2-x,1/2-y,-z
1/2+x,1/2-y,z
loop_
_atom_site_type_symbol
_atom_site_label
_atom_site_fract_x
_atom_site_fract_y
_atom_site_fract_z
Si Si1 0.335399 0.314666 0.084970
Si Si2 0.318415 0.426995 0.336602
Si Si3 0.132060 0.191015 0.157132
Si Si4 0.726446 0.431160 0.161284
Si Si5 0.220836 0.678685 0.164524
Si Si6 0.594031 0.071124 0.874938
O O1 0.528742 0.324068 0.165432
O O2 0.358612 0.307720 0.185372
O O3 0.250000 0.250000 0.000000
O O4 0.197465 0.375599 0.988683
O O5 0.500000 0.404714 0.500000
O O6 0.342137 0.500000 0.325728
O O7 0.302642 0.383228 0.256530
O O8 0.133054 0.418695 0.266690
O O9 0.274895 0.129961 0.242443
O O10 0.238332 0.259322 0.228374
O O11 0.000000 0.193809 0.000000
O O12 0.782383 0.500000 0.232325
O O13 0.847242 0.420442 0.168510
O O14 0.500000 0.431308 0.000000
O O15 0.000000 0.666710 0.000000
O O16 0.651334 0.000000 0.939703
#
# Coordination Sequence:
#
# PCOD8079021 Si02
#       6
#     8   8   8   8   8   8
#     4  12  18  28  47  77 109 133 167 208 270 315
#     4  10  22  39  54  71 104 146 182 218 263 314
#     4  10  17  28  46  73 107 142 161 206 262 320
#     4   9  15  25  43  71 104 133 165 205 254 312
#     4  11  20  31  52  80 101 138 173 222 265 310
#     4  10  18  28  48  74 100 132 172 213 255 309
#
# _framework density 17.574345000000001
#
# number of rings (size 3 to 8) (size 9 to 14) (size 15 to 20)
#    0.000    1.667    8.333    0.000    0.000    1.000 
#    0.000    0.000    0.000    9.000    0.000    0.000 
#    0.000    6.000    0.000    0.000    0.000    0.000 
#
# Total GULP energy -297354.878412 kJ/mol
# GULP energy per Si atom -12389.786601 kJ/mol
# Density = 1.753435 g / cm^3
# Si number density = 17.574345 Si / 1000 Ang^3
#
#
#
# Elastic Constant Matrix: (Units=GPa)
#
#
# Indices 1 2 3 4 5 6 
#
# 1 135.8276 43.0928 30.5295 0.0036 5.8112 0.0010
# 2 43.0928 143.1800 37.9582 0.0117 -4.7996 0.0076
# 3 30.5295 37.9582 37.6180 0.0038 -1.3321 0.0215
# 4 0.0036 0.0117 0.0038 40.7069 -0.0100 -25.7074
# 5 5.8112 -4.7996 -1.3321 -0.0100 12.7459 -0.0028
# 6 0.0010 0.0076 0.0215 -25.7074 -0.0028 53.7810
#
#
#
# Elastic Compliance Matrix: (Units=1/GPa)
#
#
# Indices 1 2 3 4 5 6 
#
# 1 0.009489 -0.001293 -0.006591 0.000000 -0.005502 0.000003
# 2 -0.001293 0.009797 -0.008717 0.000001 0.003368 0.000003
# 3 -0.006591 -0.008717 0.040870 -0.000013 0.003994 -0.000021
# 4 0.000000 0.000001 -0.000013 0.035188 0.000030 0.016820
# 5 -0.005502 0.003368 0.003994 0.000030 0.082651 0.000017
# 6 0.000003 0.000003 -0.000021 0.016820 0.000017 0.026634
#
#
# Mechanical properties :
#
#
# Convention : Reuss Voigt Hill
#
# Bulk Modulus (GPa) = 37.10134 59.97631 48.53882
# Shear Modulus (GPa) = 20.25788 35.11643 27.68715
#
# Velocity S-wave (km/s) = 3.39882 4.47493 3.97347
# Velocity P-wave (km/s) = 6.04645 7.80393 6.98072
#
# Compressibility (1/GPa) = 0.02695321
#
# Stress axis : x y z
#
# Youngs Moduli (GPa) = 105.38028 102.06912 24.46789
#
# Poissons Ratio (x) = 0.13198 0.16128
# Poissons Ratio (y) = 0.13626 0.21329
# Poissons Ratio (z) = 0.69461 0.88976
#
# Static dielectric constant tensor:
#      x y z
#    x 2.198530 -0.000810 -0.179300 
#    y -0.000810 4.258160 -0.000300 
#    z -0.179300 -0.000300 2.550270 
# 
# 
# High freq. dielectric constant tensor:
#      x y z
#    x 1.694530 0.000000 0.020730 
#    y 0.000000 1.716340 0.000000 
#    z 0.020730 0.000000 1.587320 
# 
# From -- ./inp_files/311930.got.cif
#   From: 2010.06.25/outbox.cif.g09.slc.cpg/sg12_156_cif.got.tgz:311930.got - 2010.06.28 00:19:55.
