data_PCOD8079457
_publ_section_title
;
Structure prediction by ZEFSAII (Michael W. Deem and Ramdas Pophale) SiO2 
 PCOD8079457
Probable space group: C 2/M
;
_chemical_formula_sum "Si O2"
_cell_formula_units_Z 48
_cell_length_a 15.034123
_cell_length_b 17.569897
_cell_length_c 18.285117
_cell_angle_alpha 90.000000
_cell_angle_beta 37.270222
_cell_angle_gamma 90.000000
_cell_volume 2924.912768
_symmetry_space_group_name_H-M "C 2/M"
_symmetry_group_IT_number 12
_symmetry_cell_setting 'monoclinic'
loop_
_space_group_symop_operation_xyz
x,y,z
-x,y,-z
-x,-y,-z
x,-y,z
1/2+x,1/2+y,z
1/2-x,1/2+y,-z
1/2-x,1/2-y,-z
1/2+x,1/2-y,z
loop_
_atom_site_type_symbol
_atom_site_label
_atom_site_fract_x
_atom_site_fract_y
_atom_site_fract_z
Si Si1 0.868916 0.731181 0.361967
Si Si2 0.286506 0.586210 0.957528
Si Si3 0.663781 0.801865 0.772759
Si Si4 0.677591 0.704462 0.185863
Si Si5 0.576659 0.312338 0.019402
Si Si6 0.471875 0.915077 0.232607
O O1 0.750000 0.750000 0.500000
O O2 0.794728 0.743069 0.329946
O O3 0.930833 0.643680 0.325457
O O4 0.004784 0.787865 0.284980
O O5 0.334651 0.500000 0.908357
O O6 0.143360 0.587156 0.101948
O O7 0.264278 0.630403 0.895713
O O8 0.414672 0.627939 0.920127
O O9 0.795534 0.805553 0.744689
O O10 0.522091 0.760818 0.898700
O O11 0.616398 0.888106 0.782514
O O12 0.760563 0.779983 0.103315
O O13 0.500000 0.353827 0.000000
O O14 0.422582 0.000000 0.287346
#
# Coordination Sequence:
#
# PCOD8079457 Si02
#       6
#     8   8   8   8   8   8
#     4  10  20  35  55  72  96 140 181 210 244 293
#     4  11  19  30  51  78 109 139 160 201 269 316
#     4   9  19  31  55  76  99 134 167 214 256 297
#     4  11  18  33  52  77 105 129 173 213 249 304
#     4  10  17  31  52  74 102 135 167 214 255 301
#     4   9  18  33  50  76 107 129 165 210 256 310
#
# _framework density 16.410746
#
# number of rings (size 3 to 8) (size 9 to 14) (size 15 to 20)
#    1.000    1.000    5.000    0.500    0.000    1.667 
#    0.000    2.500    0.000    1.000    0.000    1.167 
#    0.000    0.000    0.000    0.000    0.000    0.000 
#
# Total GULP energy -297330.723712 kJ/mol
# GULP energy per Si atom -12388.780155 kJ/mol
# Density = 1.637339 g / cm^3
# Si number density = 16.410746 Si / 1000 Ang^3
#
#
#
# Elastic Constant Matrix: (Units=GPa)
#
#
# Indices 1 2 3 4 5 6 
#
# 1 112.7599 36.1357 29.6495 0.0017 6.6871 -0.0007
# 2 36.1357 93.0825 27.6054 0.0015 -2.3607 -0.0004
# 3 29.6495 27.6054 74.8766 0.0067 9.6375 -0.0025
# 4 0.0017 0.0015 0.0067 17.1201 -0.0024 1.4393
# 5 6.6871 -2.3607 9.6375 -0.0024 15.9371 0.0008
# 6 -0.0007 -0.0004 -0.0025 1.4393 0.0008 13.3876
#
#
#
# Elastic Compliance Matrix: (Units=1/GPa)
#
#
# Indices 1 2 3 4 5 6 
#
# 1 0.010890 -0.003565 -0.002539 0.000000 -0.003562 0.000000
# 2 -0.003565 0.013585 -0.004390 0.000002 0.006163 -0.000001
# 3 -0.002539 -0.004390 0.017270 -0.000008 -0.010029 0.000004
# 4 0.000000 0.000002 -0.000008 0.058944 0.000014 -0.006337
# 5 -0.003562 0.006163 -0.010029 0.000014 0.071219 -0.000008
# 6 0.000000 -0.000001 0.000004 -0.006337 -0.000008 0.075377
#
#
# Mechanical properties :
#
#
# Convention : Reuss Voigt Hill
#
# Bulk Modulus (GPa) = 48.17793 51.94446 50.06119
# Shear Modulus (GPa) = 18.16909 21.77752 19.97331
#
# Velocity S-wave (km/s) = 3.33099 3.64679 3.49246
# Velocity P-wave (km/s) = 6.64946 7.03232 6.84357
#
# Compressibility (1/GPa) = 0.02075639
#
# Stress axis : x y z
#
# Youngs Moduli (GPa) = 91.82983 73.60859 57.90291
#
# Poissons Ratio (x) = 0.26239 0.14704
# Poissons Ratio (y) = 0.32735 0.25421
# Poissons Ratio (z) = 0.23319 0.32317
#
# Static dielectric constant tensor:
#      x y z
#    x 3.253410 0.000000 0.028380 
#    y 0.000000 3.008620 0.000000 
#    z 0.028380 0.000000 2.715120 
# 
# 
# High freq. dielectric constant tensor:
#      x y z
#    x 1.633960 0.000000 -0.001150 
#    y 0.000000 1.614790 0.000000 
#    z -0.001150 0.000000 1.598340 
# 
# From -- ./inp_files/311324.got.cif
#   From: 2010.06.25/outbox.cif.g09.slc.cpg/sg12_156_cif.got.tgz:311324.got - 2010.06.28 00:19:55.
