data_PCOD8079646
_publ_section_title
;
Structure prediction by ZEFSAII (Michael W. Deem and Ramdas Pophale) SiO2 
 PCOD8079646
Probable space group: C 2/M
;
_chemical_formula_sum "Si O2"
_cell_formula_units_Z 48
_cell_length_a 18.966622
_cell_length_b 12.356317
_cell_length_c 14.714498
_cell_angle_alpha 90.000000
_cell_angle_beta 49.955567
_cell_angle_gamma 90.000000
_cell_volume 2639.949498
_symmetry_space_group_name_H-M "C 2/M"
_symmetry_group_IT_number 12
_symmetry_cell_setting 'monoclinic'
loop_
_space_group_symop_operation_xyz
x,y,z
-x,y,-z
-x,-y,-z
x,-y,z
1/2+x,1/2+y,z
1/2-x,1/2+y,-z
1/2-x,1/2-y,-z
1/2+x,1/2-y,z
loop_
_atom_site_type_symbol
_atom_site_label
_atom_site_fract_x
_atom_site_fract_y
_atom_site_fract_z
Si Si1 0.918158 0.000000 0.945330
Si Si2 0.546977 0.874346 0.184862
Si Si3 0.238079 0.677590 0.373628
Si Si4 0.177654 0.628503 0.242503
Si Si5 0.834576 0.622555 0.371511
Si Si6 0.672171 0.714839 0.997174
Si Si7 0.876551 0.000000 0.193405
O O1 0.875982 0.104371 0.930281
O O2 0.026303 0.000000 0.835992
O O3 0.894780 0.000000 0.071144
O O4 0.594965 0.843621 0.241869
O O5 0.440832 0.841257 0.277656
O O6 0.560796 0.000000 0.152144
O O7 0.594655 0.809252 0.061632
O O8 0.158078 0.669852 0.361697
O O9 0.195095 0.628410 0.499653
O O10 0.271790 0.800470 0.361310
O O11 0.323798 0.606847 0.269146
O O12 0.198176 0.500000 0.224805
O O13 0.273729 0.691922 0.141164
O O14 0.821754 0.500000 0.346807
O O15 0.750000 0.750000 0.000000
#
# Coordination Sequence:
#
# PCOD8079646 Si02
#       7
#     4   8   8   8   8   8   4
#     4  11  20  32  52  83 103 129 167 223 258 293
#     4   9  20  34  52  77 107 135 169 212 255 306
#     4  11  19  34  57  77 101 136 173 212 259 305
#     4  10  17  33  55  79 103 129 171 220 258 295
#     4  10  21  36  52  76 105 138 170 209 257 308
#     4  10  18  31  53  73 107 134 163 207 259 305
#     4  11  20  32  56  78 102 125 175 223 258 296
#
# _framework density 18.182167
#
# number of rings (size 3 to 8) (size 9 to 14) (size 15 to 20)
#    0.000    1.833    4.167    1.000    1.167    0.667 
#    0.000    3.333    1.833    2.000    0.000    2.333 
#    0.000    0.000    0.000    0.000    0.000    0.000 
#
# Total GULP energy -297384.717836 kJ/mol
# GULP energy per Si atom -12391.029910 kJ/mol
# Density = 1.814078 g / cm^3
# Si number density = 18.182167 Si / 1000 Ang^3
#
#
#
# Elastic Constant Matrix: (Units=GPa)
#
#
# Indices 1 2 3 4 5 6 
#
# 1 49.3194 28.0116 3.0323 0.0000 -1.7979 0.0000
# 2 28.0116 87.5906 20.6705 0.0000 -1.5474 0.0000
# 3 3.0323 20.6705 53.8044 0.0000 -5.5099 0.0000
# 4 0.0000 0.0000 0.0000 26.4837 0.0000 -1.9037
# 5 -1.7979 -1.5474 -5.5099 0.0000 27.2301 0.0000
# 6 0.0000 0.0000 0.0000 -1.9037 0.0000 29.2765
#
#
#
# Elastic Compliance Matrix: (Units=1/GPa)
#
#
# Indices 1 2 3 4 5 6 
#
# 1 0.025004 -0.008439 0.001994 0.000000 0.001575 0.000000
# 2 -0.008439 0.015405 -0.005525 0.000000 -0.000800 0.000000
# 3 0.001994 -0.005525 0.021013 0.000000 0.004070 0.000000
# 4 0.000000 0.000000 0.000000 0.037936 0.000000 0.002467
# 5 0.001575 -0.000800 0.004070 0.000000 0.037606 0.000000
# 6 0.000000 0.000000 0.000000 0.002467 0.000000 0.034318
#
#
# Mechanical properties :
#
#
# Convention : Reuss Voigt Hill
#
# Bulk Modulus (GPa) = 26.67895 32.68259 29.68077
# Shear Modulus (GPa) = 24.07147 25.86473 24.96810
#
# Velocity S-wave (km/s) = 3.64250 3.77574 3.70972
# Velocity P-wave (km/s) = 5.69169 6.08460 5.89142
#
# Compressibility (1/GPa) = 0.03748273
#
# Stress axis : x y z
#
# Youngs Moduli (GPa) = 39.99385 64.91314 47.59044
#
# Poissons Ratio (x) = 0.54781 -0.09491
# Poissons Ratio (y) = 0.33751 0.26292
# Poissons Ratio (z) = -0.07976 0.35862
#
# Static dielectric constant tensor:
#      x y z
#    x 3.379490 0.000000 0.066950 
#    y 0.000000 4.181100 0.000000 
#    z 0.066950 0.000000 3.045990 
# 
# 
# High freq. dielectric constant tensor:
#      x y z
#    x 1.694410 0.000000 -0.012650 
#    y 0.000000 1.706170 0.000000 
#    z -0.012650 0.000000 1.698140 
# 
# From -- ./inp_files/282511.got.cif
#   From: 2010.06.25/outbox.cif.g09.slc.cpg/sg12_142_cif.got.tgz:282511.got - 2010.06.28 00:19:55.
