data_PCOD8079239
_publ_section_title
;
Structure prediction by ZEFSAII (Michael W. Deem and Ramdas Pophale) SiO2 
 PCOD8079239
Probable space group: C 2/M
;
_chemical_formula_sum "Si O2"
_cell_formula_units_Z 48
_cell_length_a 20.053021
_cell_length_b 19.625598
_cell_length_c 11.979558
_cell_angle_alpha 90.000000
_cell_angle_beta 36.725335
_cell_angle_gamma 90.000000
_cell_volume 2819.225939
_symmetry_space_group_name_H-M "C 2/M"
_symmetry_group_IT_number 12
_symmetry_cell_setting 'monoclinic'
loop_
_space_group_symop_operation_xyz
x,y,z
-x,y,-z
-x,-y,-z
x,-y,z
1/2+x,1/2+y,z
1/2-x,1/2+y,-z
1/2-x,1/2-y,-z
1/2+x,1/2-y,z
loop_
_atom_site_type_symbol
_atom_site_label
_atom_site_fract_x
_atom_site_fract_y
_atom_site_fract_z
Si Si1 0.767917 0.691088 0.141585
Si Si2 0.353139 0.322712 0.930358
Si Si3 0.324346 0.921905 0.767036
Si Si4 0.444837 0.078170 0.958526
Si Si5 0.534407 0.122802 0.619632
Si Si6 0.555722 0.724603 0.545137
O O1 0.710263 0.685632 0.100251
O O2 0.839927 0.625279 0.072353
O O3 0.679228 0.695393 0.361854
O O4 0.839657 0.760404 0.035934
O O5 0.484412 0.326935 0.720412
O O6 0.299980 0.389631 0.059529
O O7 0.371869 0.915549 0.578245
O O8 0.410292 0.883405 0.733421
O O9 0.315727 0.000000 0.814835
O O10 0.404147 0.000000 0.018877
O O11 0.500000 0.101239 0.000000
O O12 0.536183 0.087703 0.738342
O O13 0.561907 0.202208 0.596377
O O14 0.500000 0.736328 0.500000
#
# Coordination Sequence:
#
# PCOD8079239 Si02
#       6
#     8   8   8   8   8   8
#     4  10  18  32  51  74 105 137 171 211 256 309
#     4  10  17  29  51  76 107 136 162 209 267 316
#     4  11  19  27  48  80 107 130 160 214 273 309
#     4  11  23  37  53  74 105 145 180 209 249 304
#     4  11  17  31  50  75 102 128 170 216 256 305
#     4  10  17  29  51  79 103 132 168 203 260 316
#
# _framework density 17.025949000000001
#
# number of rings (size 3 to 8) (size 9 to 14) (size 15 to 20)
#    0.000    1.500    6.667    3.000    0.000    0.000 
#    0.000    1.667    0.000    3.000    0.000    0.000 
#    0.000    4.667    0.000    0.000    0.000    0.000 
#
# Total GULP energy -297463.562571 kJ/mol
# GULP energy per Si atom -12394.315107 kJ/mol
# Density = 1.698720 g / cm^3
# Si number density = 17.025949 Si / 1000 Ang^3
#
#
#
# Elastic Constant Matrix: (Units=GPa)
#
#
# Indices 1 2 3 4 5 6 
#
# 1 35.8870 17.4770 31.1844 0.0000 12.5089 0.0000
# 2 17.4770 87.7845 45.5706 0.0000 -6.1942 0.0000
# 3 31.1844 45.5706 145.9455 0.0000 -0.6112 0.0000
# 4 0.0000 0.0000 0.0000 25.6336 0.0000 -1.1105
# 5 12.5089 -6.1942 -0.6112 0.0000 19.3298 0.0000
# 6 0.0000 0.0000 0.0000 -1.1105 0.0000 9.7945
#
#
#
# Elastic Compliance Matrix: (Units=1/GPa)
#
#
# Indices 1 2 3 4 5 6 
#
# 1 0.052467 -0.008538 -0.008700 0.000000 -0.036964 0.000000
# 2 -0.008538 0.015338 -0.002922 0.000000 0.010348 0.000000
# 3 -0.008700 -0.002922 0.009644 0.000000 0.004998 0.000000
# 4 0.000000 0.000000 0.000000 0.039204 0.000000 0.004445
# 5 -0.036964 0.010348 0.004998 0.000000 0.079128 0.000000
# 6 0.000000 0.000000 0.000000 0.004445 0.000000 0.102602
#
#
# Mechanical properties :
#
#
# Convention : Reuss Voigt Hill
#
# Bulk Modulus (GPa) = 26.93165 50.89790 38.91478
# Shear Modulus (GPa) = 14.24183 22.64391 18.44287
#
# Velocity S-wave (km/s) = 2.89533 3.65082 3.29480
# Velocity P-wave (km/s) = 5.19900 6.90873 6.11392
#
# Compressibility (1/GPa) = 0.03713103
#
# Stress axis : x y z
#
# Youngs Moduli (GPa) = 19.05959 65.19687 103.69216
#
# Poissons Ratio (x) = 0.55664 0.90208
# Poissons Ratio (y) = 0.16273 0.30295
# Poissons Ratio (z) = 0.16581 0.19048
#
# Static dielectric constant tensor:
#      x y z
#    x 2.715750 0.000000 0.077840 
#    y 0.000000 3.113310 0.000000 
#    z 0.077840 0.000000 3.737940 
# 
# 
# High freq. dielectric constant tensor:
#      x y z
#    x 1.586870 0.000000 0.012420 
#    y 0.000000 1.651280 0.000000 
#    z 0.012420 0.000000 1.678760 
# 
# From -- ./inp_files/144777.got.cif
#   From: 2010.06.25/outbox.cif.g09.slc.cpg/sg12_73_cif.got.tgz:144777.got - 2010.06.28 00:19:55.
