data_PCOD8079292
_publ_section_title
;
Structure prediction by ZEFSAII (Michael W. Deem and Ramdas Pophale) SiO2 
 PCOD8079292
Probable space group: C 2/M
;
_chemical_formula_sum "Si O2"
_cell_formula_units_Z 48
_cell_length_a 23.622647
_cell_length_b 27.195851
_cell_length_c 8.916938
_cell_angle_alpha 90.000000
_cell_angle_beta 149.339681
_cell_angle_gamma 90.000000
_cell_volume 2921.273713
_symmetry_space_group_name_H-M "C 2/M"
_symmetry_group_IT_number 12
_symmetry_cell_setting 'monoclinic'
loop_
_space_group_symop_operation_xyz
x,y,z
-x,y,-z
-x,-y,-z
x,-y,z
1/2+x,1/2+y,z
1/2-x,1/2+y,-z
1/2-x,1/2-y,-z
1/2+x,1/2-y,z
loop_
_atom_site_type_symbol
_atom_site_label
_atom_site_fract_x
_atom_site_fract_y
_atom_site_fract_z
Si Si1 0.119879 0.285218 0.329639
Si Si2 0.754815 0.300173 0.098841
Si Si3 0.128457 0.946815 0.809626
Si Si4 0.081016 0.853882 0.878929
Si Si5 0.320950 0.675860 0.602057
Si Si6 0.327138 0.628068 0.309430
O O1 0.140583 0.302003 0.548813
O O2 0.203377 0.312973 0.409288
O O3 0.130255 0.226233 0.352653
O O4 0.000000 0.301803 0.000000
O O5 0.750000 0.250000 0.000000
O O6 0.642298 0.307510 0.940827
O O7 0.764591 0.341817 0.993967
O O8 0.144220 0.904295 0.971421
O O9 0.179202 0.928253 0.764173
O O10 0.000000 0.956798 0.500000
O O11 0.184032 0.000000 0.978219
O O12 0.950876 0.853170 0.541949
O O13 0.093018 0.848243 0.085247
O O14 0.304877 0.635305 0.434223
#
# Coordination Sequence:
#
# PCOD8079292 Si02
#       6
#     8   8   8   8   8   8
#     4  10  20  33  44  61  92 128 155 190 224 258
#     4  10  18  29  42  65  89 119 160 187 211 271
#     4   8  15  28  45  65  91 122 153 184 225 275
#     4   9  18  29  46  65  93 128 151 184 230 271
#     4  10  19  30  45  65  91 121 160 186 221 275
#     4  10  17  30  46  68  93 122 154 190 226 267
#
# _framework density 16.431189
#
# number of rings (size 3 to 8) (size 9 to 14) (size 15 to 20)
#    0.000    2.500    1.667    3.000    0.000    0.000 
#    3.000    1.667    0.000    4.000    0.000    0.000 
#    0.000   78.667    0.000    0.000    0.000    0.000 
#
# Total GULP energy -297361.051635 kJ/mol
# GULP energy per Si atom -12390.043818 kJ/mol
# Density = 1.639379 g / cm^3
# Si number density = 16.431189 Si / 1000 Ang^3
#
#
#
# Elastic Constant Matrix: (Units=GPa)
#
#
# Indices 1 2 3 4 5 6 
#
# 1 63.0769 35.6277 18.6446 0.0000 -22.8976 0.0000
# 2 35.6277 100.1009 25.3466 0.0000 -12.9115 0.0000
# 3 18.6446 25.3466 87.9761 0.0000 -14.4824 0.0000
# 4 0.0000 0.0000 0.0000 6.7413 0.0000 -8.2848
# 5 -22.8976 -12.9115 -14.4824 0.0000 28.4326 0.0000
# 6 0.0000 0.0000 0.0000 -8.2848 0.0000 9.0892
#
#
#
# Elastic Compliance Matrix: (Units=1/GPa)
#
#
# Indices 1 2 3 4 5 6 
#
# 1 0.026432 -0.006943 -0.000673 0.000000 0.017791 0.000000
# 2 -0.006943 0.012951 -0.002415 0.000000 -0.000940 0.000000
# 3 -0.000673 -0.002415 0.013028 0.000000 0.004997 0.000000
# 4 0.000000 0.000000 0.000000 -1.233995 0.000000 -1.124793
# 5 0.017791 -0.000940 0.004997 0.000000 0.051618 0.000000
# 6 0.000000 0.000000 0.000000 -1.124793 0.000000 -0.915234
#
#
# Mechanical properties :
#
#
# Convention : Reuss Voigt Hill
#
# Bulk Modulus (GPa) = 30.91083 45.59908 38.25495
# Shear Modulus (GPa) = -2.48218 20.28828 8.90305
#
# Velocity S-wave (km/s) = -1.23042 3.51770 2.33027
# Velocity P-wave (km/s) = 4.10299 6.65663 5.52925
#
# Compressibility (1/GPa) = 0.03235112
#
# Stress axis : x y z
#
# Youngs Moduli (GPa) = 37.83231 77.21334 76.75975
#
# Poissons Ratio (x) = 0.53606 0.05164
# Poissons Ratio (y) = 0.26265 0.18535
# Poissons Ratio (z) = 0.02545 0.18645
#
# Static dielectric constant tensor:
#      x y z
#    x 3.121770 0.000000 -0.261430 
#    y 0.000000 3.252220 0.000000 
#    z -0.261430 0.000000 3.070590 
# 
# 
# High freq. dielectric constant tensor:
#      x y z
#    x 1.628020 0.000000 -0.025950 
#    y 0.000000 1.607210 0.000000 
#    z -0.025950 0.000000 1.613510 
# 
# From -- ./inp_files/51943.got.cif
#   From: 2010.06.25/outbox.cif.g09.slc.cpg/sg12_26_cif.got.tgz:51943.got - 2010.06.28 00:19:55.
