data_PCOD8079277
_publ_section_title
;
Structure prediction by ZEFSAII (Michael W. Deem and Ramdas Pophale) SiO2 
 PCOD8079277
Probable space group: C 2/M
;
_chemical_formula_sum "Si O2"
_cell_formula_units_Z 64
_cell_length_a 18.893209
_cell_length_b 29.246461
_cell_length_c 9.491497
_cell_angle_alpha 90.000000
_cell_angle_beta 143.198214
_cell_angle_gamma 90.000000
_cell_volume 3141.780156
_symmetry_space_group_name_H-M "C 2/M"
_symmetry_group_IT_number 12
_symmetry_cell_setting 'monoclinic'
loop_
_space_group_symop_operation_xyz
x,y,z
-x,y,-z
-x,-y,-z
x,-y,z
1/2+x,1/2+y,z
1/2-x,1/2+y,-z
1/2-x,1/2-y,-z
1/2+x,1/2-y,z
loop_
_atom_site_type_symbol
_atom_site_label
_atom_site_fract_x
_atom_site_fract_y
_atom_site_fract_z
Si Si1 0.284051 0.139486 0.893934
Si Si2 0.706499 0.369186 0.071070
Si Si3 0.065621 0.133448 0.363488
Si Si4 0.184154 0.550764 0.605339
Si Si5 0.105439 0.949405 0.265899
Si Si6 0.321854 0.311893 0.701252
Si Si7 0.447865 0.945901 0.072190
Si Si8 0.872490 0.711147 0.833765
O O1 0.283313 0.147236 0.060688
O O2 0.149619 0.147291 0.625252
O O3 0.348841 0.184428 0.940192
O O4 0.343248 0.090861 0.939556
O O5 0.570171 0.366566 0.807909
O O6 0.756670 0.419760 0.177571
O O7 0.726967 0.342264 0.248641
O O8 0.108575 0.081839 0.406773
O O9 0.080351 0.163709 0.242982
O O10 0.181988 0.500000 0.664797
O O11 0.266323 0.552941 0.598662
O O12 0.052003 0.565129 0.350091
O O13 0.071841 0.000000 0.261608
O O14 0.000000 0.929918 0.000000
O O15 0.210507 0.302982 0.426098
O O16 0.370967 0.265837 0.851126
O O17 0.407010 0.000000 0.019426
O O18 0.500000 0.937170 0.000000
O O19 0.000000 0.693476 0.000000
#
# Coordination Sequence:
#
# PCOD8079277 Si02
#       8
#     8   8   8   8   8   8   8   8
#     4  11  26  38  59  89 124 160 200 247 310 358
#     4  12  23  38  59  91 125 159 197 248 306 369
#     4  11  20  39  61  86 119 162 201 246 293 364
#     4  10  21  36  59  89 121 159 200 248 300 354
#     4  10  17  29  55  90 114 141 195 251 285 331
#     4  10  22  40  66  92 117 156 204 246 306 355
#     4  10  22  42  64  86 119 163 211 255 300 360
#     4  10  22  42  65  90 118 155 202 257 295 360
#
# _framework density 20.370615999999998
#
# number of rings (size 3 to 8) (size 9 to 14) (size 15 to 20)
#    0.000    1.500    2.500    2.625    3.500    3.000 
#    0.000    1.250    0.000    2.250    0.000    0.000 
#    0.000    0.000    0.000    0.000    0.000    0.000 
#
# Total GULP energy -396554.717408 kJ/mol
# GULP energy per Si atom -12392.334919 kJ/mol
# Density = 2.032425 g / cm^3
# Si number density = 20.370616 Si / 1000 Ang^3
#
#
#
# Elastic Constant Matrix: (Units=GPa)
#
#
# Indices 1 2 3 4 5 6 
#
# 1 108.5280 49.4279 38.7694 0.0000 -11.8819 0.0000
# 2 49.4279 106.6004 28.5331 0.0000 -2.0191 0.0000
# 3 38.7694 28.5331 57.6069 0.0000 14.5681 0.0000
# 4 0.0000 0.0000 0.0000 27.1071 0.0000 0.8807
# 5 -11.8819 -2.0191 14.5681 0.0000 31.1587 0.0000
# 6 0.0000 0.0000 0.0000 0.8807 0.0000 11.6282
#
#
#
# Elastic Compliance Matrix: (Units=1/GPa)
#
#
# Indices 1 2 3 4 5 6 
#
# 1 0.016826 -0.004319 -0.012176 0.000000 0.011829 0.000000
# 2 -0.004319 0.012299 -0.003369 0.000000 0.000725 0.000000
# 3 -0.012176 -0.003369 0.032267 0.000000 -0.019948 0.000000
# 4 0.000000 0.000000 0.000000 0.036982 0.000000 -0.002801
# 5 0.011829 0.000725 -0.019948 0.000000 0.045978 0.000000
# 6 0.000000 0.000000 0.000000 -0.002801 0.000000 0.086210
#
#
# Mechanical properties :
#
#
# Convention : Reuss Voigt Hill
#
# Bulk Modulus (GPa) = 46.15893 56.24400 51.20146
# Shear Modulus (GPa) = 18.01739 24.37911 21.19825
#
# Velocity S-wave (km/s) = 2.97725 3.46320 3.22938
# Velocity P-wave (km/s) = 5.87600 6.60772 6.25258
#
# Compressibility (1/GPa) = 0.02166428
#
# Stress axis : x y z
#
# Youngs Moduli (GPa) = 59.43217 81.31002 30.99175
#
# Poissons Ratio (x) = 0.35114 0.37737
# Poissons Ratio (y) = 0.25666 0.10440
# Poissons Ratio (z) = 0.72367 0.27390
#
# Static dielectric constant tensor:
#      x y z
#    x 3.472020 0.000000 0.197750 
#    y 0.000000 3.995760 0.000000 
#    z 0.197750 0.000000 3.876600 
# 
# 
# High freq. dielectric constant tensor:
#      x y z
#    x 1.773490 0.000000 0.013540 
#    y 0.000000 1.801290 0.000000 
#    z 0.013540 0.000000 1.803240 
# 
# From -- ./inp_files/80742.got.cif
#   From: 2010.06.25/outbox.cif.g09.slc.cpg/sg12_41_cif.got.tgz:80742.got - 2010.06.28 00:19:55.
