data_PCOD8079422
_publ_section_title
;
Structure prediction by ZEFSAII (Michael W. Deem and Ramdas Pophale) SiO2 
 PCOD8079422
Probable space group: C 2/M
;
_chemical_formula_sum "Si O2"
_cell_formula_units_Z 48
_cell_length_a 18.015371
_cell_length_b 12.966675
_cell_length_c 11.522557
_cell_angle_alpha 90.000000
_cell_angle_beta 53.387564
_cell_angle_gamma 90.000000
_cell_volume 2160.565796
_symmetry_space_group_name_H-M "C 2/M"
_symmetry_group_IT_number 12
_symmetry_cell_setting 'monoclinic'
loop_
_space_group_symop_operation_xyz
x,y,z
-x,y,-z
-x,-y,-z
x,-y,z
1/2+x,1/2+y,z
1/2-x,1/2+y,-z
1/2-x,1/2-y,-z
1/2+x,1/2-y,z
loop_
_atom_site_type_symbol
_atom_site_label
_atom_site_fract_x
_atom_site_fract_y
_atom_site_fract_z
Si Si1 0.714730 0.281194 0.192195
Si Si2 0.241595 0.616524 0.616942
Si Si3 0.464517 0.613642 0.649272
Si Si4 0.383334 0.386608 0.298611
Si Si5 0.041884 0.319296 0.838853
Si Si6 0.640347 0.876918 0.106114
O O1 0.719019 0.300731 0.326005
O O2 0.626602 0.334392 0.213514
O O3 0.694695 0.161989 0.172443
O O4 0.807835 0.329256 0.053610
O O5 0.273898 0.500000 0.619713
O O6 0.284783 0.644052 0.449737
O O7 0.130482 0.615457 0.715674
O O8 0.500000 0.672506 0.500000
O O9 0.432806 0.500000 0.641640
O O10 0.544906 0.610454 0.665343
O O11 0.378109 0.500000 0.242211
O O12 0.419698 0.298378 0.177665
O O13 0.965536 0.335665 0.808588
O O14 0.000000 0.358562 0.000000
O O15 0.642476 0.000000 0.103159
#
# Coordination Sequence:
#
# PCOD8079422 Si02
#       6
#     8   8   8   8   8   8
#     4  11  21  37  60  90 117 153 202 253 303 356
#     4  11  22  39  67  94 120 159 209 261 303 356
#     4  10  17  30  58  88 112 143 193 251 297 344
#     4  10  22  39  60  90 123 162 208 254 305 359
#     4  12  24  40  61  91 126 166 205 249 310 367
#     4  11  24  40  59  89 125 160 200 248 308 370
#
# _framework density 22.216403
#
# number of rings (size 3 to 8) (size 9 to 14) (size 15 to 20)
#    0.000    1.167    5.000    2.500    0.000    1.000 
#    0.000    0.833    0.000    5.500    0.000    0.000 
#    0.000    0.000    0.000    0.000    0.000    0.000 
#
# Total GULP energy -297379.470849 kJ/mol
# GULP energy per Si atom -12390.811285 kJ/mol
# Density = 2.216584 g / cm^3
# Si number density = 22.216403 Si / 1000 Ang^3
#
#
#
# Elastic Constant Matrix: (Units=GPa)
#
#
# Indices 1 2 3 4 5 6 
#
# 1 57.6929 14.8717 21.3457 0.0000 -21.0776 0.0000
# 2 14.8717 108.0553 19.4087 0.0000 -9.3555 0.0000
# 3 21.3457 19.4087 84.6419 0.0000 -28.9281 0.0000
# 4 0.0000 0.0000 0.0000 29.0219 0.0000 -1.3390
# 5 -21.0776 -9.3555 -28.9281 0.0000 36.4602 0.0000
# 6 0.0000 0.0000 0.0000 -1.3390 0.0000 27.5272
#
#
#
# Elastic Compliance Matrix: (Units=1/GPa)
#
#
# Indices 1 2 3 4 5 6 
#
# 1 0.022496 -0.001865 -0.001323 0.000000 0.011477 0.000000
# 2 -0.001865 0.009833 -0.001771 0.000000 0.000040 0.000000
# 3 -0.001323 -0.001771 0.016653 0.000000 0.011994 0.000000
# 4 0.000000 0.000000 0.000000 0.034534 0.000000 0.001680
# 5 0.011477 0.000040 0.011994 0.000000 0.043588 0.000000
# 6 0.000000 0.000000 0.000000 0.001680 0.000000 0.036409
#
#
# Mechanical properties :
#
#
# Convention : Reuss Voigt Hill
#
# Bulk Modulus (GPa) = 25.59859 40.18250 32.89054
# Shear Modulus (GPa) = 26.81635 31.58612 29.20123
#
# Velocity S-wave (km/s) = 3.47803 3.77470 3.62940
# Velocity P-wave (km/s) = 5.26083 6.09294 5.69211
#
# Compressibility (1/GPa) = 0.03906466
#
# Stress axis : x y z
#
# Youngs Moduli (GPa) = 44.45158 101.70147 60.04814
#
# Poissons Ratio (x) = 0.18966 0.07946
# Poissons Ratio (y) = 0.08290 0.10633
# Poissons Ratio (z) = 0.05882 0.18008
#
# Static dielectric constant tensor:
#      x y z
#    x 3.810970 0.000000 -0.350850 
#    y 0.000000 4.350900 0.000000 
#    z -0.350850 0.000000 4.178120 
# 
# 
# High freq. dielectric constant tensor:
#      x y z
#    x 1.861400 0.000000 -0.032820 
#    y 0.000000 1.867690 0.000000 
#    z -0.032820 0.000000 1.873310 
# 
# From -- ./inp_files/232787.got.cif
#   From: 2010.06.25/outbox.cif.g09.slc.cpg/sg12_117_cif.got.tgz:232787.got - 2010.06.28 00:19:55.
