data_PCOD8079798
_publ_section_title
;
Structure prediction by ZEFSAII (Michael W. Deem and Ramdas Pophale) SiO2 
 PCOD8079798
Probable space group: C 2/M
;
_chemical_formula_sum "Si O2"
_cell_formula_units_Z 64
_cell_length_a 27.387227
_cell_length_b 9.449982
_cell_length_c 18.408868
_cell_angle_alpha 90.000000
_cell_angle_beta 68.612381
_cell_angle_gamma 90.000000
_cell_volume 4436.276534
_symmetry_space_group_name_H-M "C 2/M"
_symmetry_group_IT_number 12
_symmetry_cell_setting 'monoclinic'
loop_
_space_group_symop_operation_xyz
x,y,z
-x,y,-z
-x,-y,-z
x,-y,z
1/2+x,1/2+y,z
1/2-x,1/2+y,-z
1/2-x,1/2-y,-z
1/2+x,1/2-y,z
loop_
_atom_site_type_symbol
_atom_site_label
_atom_site_fract_x
_atom_site_fract_y
_atom_site_fract_z
Si Si1 0.197260 0.835391 0.610499
Si Si2 0.992576 0.331850 0.622868
Si Si3 0.998424 0.166357 0.234312
Si Si4 0.185345 0.664795 0.473769
Si Si5 0.079378 0.341925 0.916021
Si Si6 0.464369 0.159703 0.912194
Si Si7 0.579583 0.833693 0.464694
Si Si8 0.386226 0.336287 0.227910
O O1 0.177699 0.749164 0.552027
O O2 0.258461 0.803344 0.593373
O O3 0.163745 0.786511 0.698028
O O4 0.187618 0.000000 0.598828
O O5 0.992651 0.500000 0.639585
O O6 0.942708 0.282784 0.600848
O O7 0.989092 0.244171 0.698009
O O8 0.044564 0.281312 0.551554
O O9 0.938614 0.199597 0.244538
O O10 0.038471 0.230154 0.152690
O O11 0.008966 0.000000 0.236046
O O12 0.179382 0.500000 0.496248
O O13 0.139895 0.714635 0.442689
O O14 0.102310 0.500000 0.899313
O O15 0.116797 0.242165 0.847948
O O16 0.021808 0.337303 0.914413
O O17 0.076518 0.293378 0.002190
O O18 0.451432 0.000000 0.892447
O O19 0.573741 0.000000 0.467605
O O20 0.383439 0.500000 0.210549
#
# Coordination Sequence:
#
# PCOD8079798 Si02
#       8
#     8   8   8   8   8   8   8   8
#     4   9  17  27  38  55  78 101 125 154 187 221
#     4   9  16  27  41  55  73  96 125 160 193 222
#     4  10  18  25  35  54  78 102 128 153 179 218
#     4   9  16  27  42  56  72  97 129 160 187 219
#     4   8  14  24  38  54  71  95 128 158 180 211
#     4   8  14  25  38  52  72  98 126 154 184 214
#     4   8  15  27  42  57  71  94 128 161 191 222
#     4   9  17  26  35  51  78 106 126 149 183 220
#
# _framework density 14.426512000000001
#
# number of rings (size 3 to 8) (size 9 to 14) (size 15 to 20)
#    0.000    3.250    0.000    2.625    0.000    1.500 
#    0.000    4.375    0.000    0.000    0.000    0.000 
#    0.000    1.000    0.000    2.000    0.000    2.625 
#
# Total GULP energy -396571.205612 kJ/mol
# GULP energy per Si atom -12392.850175 kJ/mol
# Density = 1.439368 g / cm^3
# Si number density = 14.426512 Si / 1000 Ang^3
#
#
#
# Elastic Constant Matrix: (Units=GPa)
#
#
# Indices 1 2 3 4 5 6 
#
# 1 68.9827 29.9084 48.3298 0.0000 -0.4564 0.0000
# 2 29.9084 58.8645 61.5286 0.0000 1.3622 0.0000
# 3 48.3298 61.5286 140.4030 0.0000 -2.0938 0.0000
# 4 0.0000 0.0000 0.0000 24.7679 0.0000 0.4389
# 5 -0.4564 1.3622 -2.0938 0.0000 17.3327 0.0000
# 6 0.0000 0.0000 0.0000 0.4389 0.0000 11.5834
#
#
#
# Elastic Compliance Matrix: (Units=1/GPa)
#
#
# Indices 1 2 3 4 5 6 
#
# 1 0.020020 -0.005508 -0.004471 0.000000 0.000420 0.000000
# 2 -0.005508 0.033160 -0.012700 0.000000 -0.004285 0.000000
# 3 -0.004471 -0.012700 0.014266 0.000000 0.002604 0.000000
# 4 0.000000 0.000000 0.000000 0.040402 0.000000 -0.001531
# 5 0.000420 -0.004285 0.002604 0.000000 0.058357 0.000000
# 6 0.000000 0.000000 0.000000 -0.001531 0.000000 0.086389
#
#
# Mechanical properties :
#
#
# Convention : Reuss Voigt Hill
#
# Bulk Modulus (GPa) = 45.27357 60.86488 53.06923
# Shear Modulus (GPa) = 16.37660 19.30236 17.83948
#
# Velocity S-wave (km/s) = 3.37289 3.66181 3.52031
# Velocity P-wave (km/s) = 6.82780 7.75626 7.30679
#
# Compressibility (1/GPa) = 0.02208794
#
# Stress axis : x y z
#
# Youngs Moduli (GPa) = 49.95054 30.15646 70.09828
#
# Poissons Ratio (x) = 0.16610 0.31343
# Poissons Ratio (y) = 0.27512 0.89023
# Poissons Ratio (z) = 0.22334 0.38298
#
# Static dielectric constant tensor:
#      x y z
#    x 2.759670 0.000000 -0.041640 
#    y 0.000000 2.778880 0.000000 
#    z -0.041640 0.000000 3.000420 
# 
# 
# High freq. dielectric constant tensor:
#      x y z
#    x 1.510510 0.000000 -0.002940 
#    y 0.000000 1.544930 0.000000 
#    z -0.002940 0.000000 1.551270 
# 
# From -- ./inp_files/294573.got.cif
#   From: 2010.06.25/outbox.cif.g09.slc.cpg/sg12_148_cif.got.tgz:294573.got - 2010.06.28 00:19:55.
