data_PCOD8079038
_publ_section_title
;
Structure prediction by ZEFSAII (Michael W. Deem and Ramdas Pophale) SiO2 
 PCOD8079038
Probable space group: C 2/M
;
_chemical_formula_sum "Si O2"
_cell_formula_units_Z 64
_cell_length_a 15.808194
_cell_length_b 25.494357
_cell_length_c 11.885234
_cell_angle_alpha 90.000000
_cell_angle_beta 48.315112
_cell_angle_gamma 90.000000
_cell_volume 3577.225210
_symmetry_space_group_name_H-M "C 2/M"
_symmetry_group_IT_number 12
_symmetry_cell_setting 'monoclinic'
loop_
_space_group_symop_operation_xyz
x,y,z
-x,y,-z
-x,-y,-z
x,-y,z
1/2+x,1/2+y,z
1/2-x,1/2+y,-z
1/2-x,1/2-y,-z
1/2+x,1/2-y,z
loop_
_atom_site_type_symbol
_atom_site_label
_atom_site_fract_x
_atom_site_fract_y
_atom_site_fract_z
Si Si1 0.014696 0.198199 0.759954
Si Si2 0.081146 0.876843 0.337708
Si Si3 0.248064 0.189792 0.672366
Si Si4 0.420429 0.810208 0.327634
Si Si5 0.426605 0.871619 0.960645
Si Si6 0.112749 0.871620 0.960645
Si Si7 0.276467 0.561096 0.947066
Si Si8 0.225351 0.698199 0.759954
O O1 0.145936 0.195063 0.675310
O O2 0.998025 0.258783 0.738732
O O3 0.992696 0.159515 0.677559
O O4 0.929949 0.180986 0.935954
O O5 0.135233 0.926741 0.229534
O O6 0.170254 0.840485 0.322441
O O7 0.000000 0.903231 0.500000
O O8 0.363550 0.178235 0.500000
O O9 0.213856 0.142442 0.785220
O O10 0.263244 0.241217 0.738732
O O11 0.499076 0.857558 0.214781
O O12 0.321245 0.804937 0.324691
O O13 0.500000 0.895532 0.000000
O O14 0.342074 0.914605 0.986845
O O15 0.365902 0.819013 0.064046
O O16 0.171082 0.914605 0.986845
O O17 0.000000 0.895533 0.000000
O O18 0.259688 0.500000 0.980625
#
# Coordination Sequence:
#
# PCOD8079038 Si02
#       8
#     8   8   8   8   8   8   8   8
#     4   9  17  29  46  72 104 135 158 184 230 290
#     4  10  18  30  49  74 100 121 152 201 251 291
#     4  10  17  28  47  72 103 135 165 191 223 275
#     4  10  17  28  47  72 103 135 165 191 223 275
#     4   9  19  34  52  72  98 131 163 198 241 289
#     4   9  19  34  52  72  98 131 163 198 241 289
#     4  10  22  38  54  71  91 122 167 211 251 295
#     4   9  17  29  46  72 104 135 158 184 230 290
#
# _framework density 17.890961999999998
#
# number of rings (size 3 to 8) (size 9 to 14) (size 15 to 20)
#    0.000    2.500    0.000    3.750    0.000    4.750 
#    0.000    5.625    0.000    1.500    0.000    0.000 
#    0.000    0.000    0.000    0.000    0.000    0.000 
#
# Total GULP energy -396519.719841 kJ/mol
# GULP energy per Si atom -12391.241245 kJ/mol
# Density = 1.785024 g / cm^3
# Si number density = 17.890962 Si / 1000 Ang^3
#
#
#
# Elastic Constant Matrix: (Units=GPa)
#
#
# Indices 1 2 3 4 5 6 
#
# 1 77.3844 50.5305 43.8283 0.0000 0.5848 0.0000
# 2 50.5305 100.7162 54.9062 0.0000 -0.2939 0.0000
# 3 43.8283 54.9062 139.9447 0.0000 -4.7744 0.0000
# 4 0.0000 0.0000 0.0000 9.5074 0.0000 0.4136
# 5 0.5848 -0.2939 -4.7744 0.0000 12.7698 0.0000
# 6 0.0000 0.0000 0.0000 0.4136 0.0000 15.6889
#
#
#
# Elastic Compliance Matrix: (Units=1/GPa)
#
#
# Indices 1 2 3 4 5 6 
#
# 1 0.020217 -0.008467 -0.003087 0.000000 -0.002275 0.000000
# 2 -0.008467 0.016208 -0.003729 0.000000 -0.000633 0.000000
# 3 -0.003087 -0.003729 0.009701 0.000000 0.003683 0.000000
# 4 0.000000 0.000000 0.000000 0.105302 0.000000 -0.002776
# 5 -0.002275 -0.000633 0.003683 0.000000 0.079776 0.000000
# 6 0.000000 0.000000 0.000000 -0.002776 0.000000 0.063813
#
#
# Mechanical properties :
#
#
# Convention : Reuss Voigt Hill
#
# Bulk Modulus (GPa) = 64.26766 68.50836 66.38801
# Shear Modulus (GPa) = 15.11629 18.84523 16.98076
#
# Velocity S-wave (km/s) = 2.90989 3.24904 3.08413
# Velocity P-wave (km/s) = 6.87676 7.24226 7.06187
#
# Compressibility (1/GPa) = 0.01555993
#
# Stress axis : x y z
#
# Youngs Moduli (GPa) = 49.46386 61.69909 103.07918
#
# Poissons Ratio (x) = 0.52238 0.31825
# Poissons Ratio (y) = 0.41879 0.38438
# Poissons Ratio (z) = 0.15271 0.23008
#
# Static dielectric constant tensor:
#      x y z
#    x 3.382510 0.000000 -0.001680 
#    y 0.000000 2.886450 0.000000 
#    z -0.001680 0.000000 3.407540 
# 
# 
# High freq. dielectric constant tensor:
#      x y z
#    x 1.693840 0.000000 -0.000430 
#    y 0.000000 1.643930 0.000000 
#    z -0.000430 0.000000 1.700330 
# 
# From -- ./inp_files/160284.got.cif
#   From: 2010.06.25/outbox.cif.g09.slc.cpg/sg12_81_cif.got.tgz:160284.got - 2010.06.28 00:19:55.
