data_PCOD8079327
_publ_section_title
;
Structure prediction by ZEFSAII (Michael W. Deem and Ramdas Pophale) SiO2 
 PCOD8079327
Probable space group: C 2/M
;
_chemical_formula_sum "Si O2"
_cell_formula_units_Z 48
_cell_length_a 12.489749
_cell_length_b 19.674307
_cell_length_c 15.140615
_cell_angle_alpha 90.000000
_cell_angle_beta 134.929305
_cell_angle_gamma 90.000000
_cell_volume 2634.006675
_symmetry_space_group_name_H-M "C 2/M"
_symmetry_group_IT_number 12
_symmetry_cell_setting 'monoclinic'
loop_
_space_group_symop_operation_xyz
x,y,z
-x,y,-z
-x,-y,-z
x,-y,z
1/2+x,1/2+y,z
1/2-x,1/2+y,-z
1/2-x,1/2-y,-z
1/2+x,1/2-y,z
loop_
_atom_site_type_symbol
_atom_site_label
_atom_site_fract_x
_atom_site_fract_y
_atom_site_fract_z
Si Si1 0.558155 0.733081 0.722057
Si Si2 0.598922 0.145271 0.300310
Si Si3 0.775196 0.854205 0.578086
Si Si4 0.500000 0.216749 0.500000
Si Si5 0.228583 0.000000 0.798522
Si Si6 0.873217 0.000000 0.614539
Si Si7 0.659913 0.146709 0.132468
Si Si8 0.837242 0.500000 0.667357
O O1 0.546445 0.807839 0.761061
O O2 0.423606 0.689084 0.685606
O O3 0.538287 0.735925 0.605170
O O4 0.716520 0.697553 0.837411
O O5 0.730338 0.159746 0.449168
O O6 0.662358 0.157633 0.239349
O O7 0.554281 0.065500 0.282787
O O8 0.642115 0.831787 0.565070
O O9 0.809952 0.932202 0.623955
O O10 0.305507 0.930687 0.879572
O O11 0.250720 0.000000 0.708137
O O12 0.053391 0.000000 0.720508
O O13 0.809631 0.000000 0.479133
O O14 0.500000 0.168861 0.000000
#
# Coordination Sequence:
#
# PCOD8079327 Si02
#       8
#     8   8   8   4   4   4   8   4
#     4  11  19  33  53  74 104 134 165 206 248 302
#     4   9  19  33  50  75 101 130 163 206 249 297
#     4  10  19  32  52  77 105 131 164 200 250 307
#     4  10  20  33  52  77 104 134 158 202 256 301
#     4  10  18  34  49  71 102 129 167 208 256 290
#     4  10  17  30  49  76 103 130 164 199 247 304
#     4  11  22  34  51  74 101 135 173 210 246 288
#     4   8  17  29  50  75 100 126 160 205 248 306
#
# _framework density 18.223188
#
# number of rings (size 3 to 8) (size 9 to 14) (size 15 to 20)
#    0.000    2.000    1.667    4.500    0.000    1.000 
#    0.000    0.833    0.000    0.000    0.000    0.583 
#    0.000    0.167    0.000    0.000    0.000    0.000 
#
# Total GULP energy -297472.531065 kJ/mol
# GULP energy per Si atom -12394.688794 kJ/mol
# Density = 1.818171 g / cm^3
# Si number density = 18.223188 Si / 1000 Ang^3
#
#
#
# Elastic Constant Matrix: (Units=GPa)
#
#
# Indices 1 2 3 4 5 6 
#
# 1 85.9832 47.7760 37.5662 0.0001 28.7456 0.0000
# 2 47.7760 99.1839 35.9652 0.0000 29.1876 0.0000
# 3 37.5662 35.9652 55.0444 0.0002 30.4149 0.0001
# 4 0.0001 0.0000 0.0002 17.7411 0.0001 10.1867
# 5 28.7456 29.1876 30.4149 0.0001 29.8428 0.0001
# 6 0.0000 0.0000 0.0001 10.1867 0.0001 34.2396
#
#
#
# Elastic Compliance Matrix: (Units=1/GPa)
#
#
# Indices 1 2 3 4 5 6 
#
# 1 0.019607 -0.004977 -0.005456 0.000000 -0.008458 0.000000
# 2 -0.004977 0.015750 -0.002361 0.000000 -0.008204 0.000000
# 3 -0.005456 -0.002361 0.044073 0.000000 -0.037353 0.000000
# 4 0.000000 0.000000 0.000000 0.067979 0.000000 -0.020225
# 5 -0.008458 -0.008204 -0.037353 0.000000 0.087748 0.000000
# 6 0.000000 0.000000 0.000000 -0.020225 0.000000 0.035223
#
#
# Mechanical properties :
#
#
# Convention : Reuss Voigt Hill
#
# Bulk Modulus (GPa) = 18.57298 53.64735 36.11017
# Shear Modulus (GPa) = 15.92784 24.29165 20.10975
#
# Velocity S-wave (km/s) = 2.95963 3.65500 3.32554
# Velocity P-wave (km/s) = 4.67903 6.87859 5.88253
#
# Compressibility (1/GPa) = 0.05384165
#
# Stress axis : x y z
#
# Youngs Moduli (GPa) = 51.00229 63.49172 22.68975
#
# Poissons Ratio (x) = 0.31601 0.12379
# Poissons Ratio (y) = 0.25385 0.05357
# Poissons Ratio (z) = 0.27825 0.14991
#
# Static dielectric constant tensor:
#      x y z
#    x 3.205440 0.000000 0.059980 
#    y 0.000000 3.810210 0.000000 
#    z 0.059980 0.000000 2.989130 
# 
# 
# High freq. dielectric constant tensor:
#      x y z
#    x 1.689100 0.000000 0.010300 
#    y 0.000000 1.725500 0.000000 
#    z 0.010300 0.000000 1.669200 
# 
# From -- ./inp_files/132542.got.cif
#   From: 2010.06.25/outbox.cif.g09.slc.cpg/sg12_67_cif.got.tgz:132542.got - 2010.06.28 00:19:55.
