data_PCOD8079023
_publ_section_title
;
Structure prediction by ZEFSAII (Michael W. Deem and Ramdas Pophale) SiO2 
 PCOD8079023
Probable space group: C 2/M
;
_chemical_formula_sum "Si O2"
_cell_formula_units_Z 64
_cell_length_a 16.036761
_cell_length_b 17.322208
_cell_length_c 12.532092
_cell_angle_alpha 90.000000
_cell_angle_beta 101.708303
_cell_angle_gamma 90.000000
_cell_volume 3408.881967
_symmetry_space_group_name_H-M "C 2/M"
_symmetry_group_IT_number 12
_symmetry_cell_setting 'monoclinic'
loop_
_space_group_symop_operation_xyz
x,y,z
-x,y,-z
-x,-y,-z
x,-y,z
1/2+x,1/2+y,z
1/2-x,1/2+y,-z
1/2-x,1/2-y,-z
1/2+x,1/2-y,z
loop_
_atom_site_type_symbol
_atom_site_label
_atom_site_fract_x
_atom_site_fract_y
_atom_site_fract_z
Si Si1 0.426018 0.265831 0.718328
Si Si2 0.881127 0.410785 0.918253
Si Si3 0.912355 0.665221 0.516928
Si Si4 0.740410 0.184066 0.241177
Si Si5 0.245176 0.586781 0.436748
Si Si6 0.328127 0.831286 0.275182
Si Si7 0.168665 0.911986 0.316441
Si Si8 0.963200 0.349655 0.145668
O O1 0.439336 0.237066 0.599847
O O2 0.337602 0.232949 0.735686
O O3 0.415544 0.358847 0.722097
O O4 0.502629 0.236666 0.815560
O O5 0.871705 0.500000 0.951293
O O6 0.790499 0.377660 0.855582
O O7 0.953364 0.404946 0.843669
O O8 0.910368 0.355058 0.022397
O O9 0.854522 0.604912 0.566911
O O10 0.858827 0.692851 0.400888
O O11 0.000000 0.624885 0.500000
O O12 0.782430 0.138802 0.351152
O O13 0.805542 0.248702 0.212451
O O14 0.248971 0.500000 0.396661
O O15 0.303014 0.599861 0.554484
O O16 0.247282 0.888507 0.260061
O O17 0.400927 0.875325 0.225889
O O18 0.143178 0.000000 0.284912
#
# Coordination Sequence:
#
# PCOD8079023 Si02
#       8
#     8   8   8   8   8   8   8   8
#     4   9  17  31  49  70  98 134 170 199 238 293
#     4  10  21  36  53  74 101 132 162 198 254 310
#     4  10  17  28  46  74 105 132 165 202 239 289
#     4   9  18  32  50  72  98 133 170 201 240 290
#     4   9  17  29  46  71 105 139 165 193 239 295
#     4  10  19  31  50  77 100 126 167 210 245 286
#     4   9  18  31  49  73 102 134 166 201 241 291
#     4  10  19  32  51  74  98 127 164 206 246 291
#
# _framework density 18.774484000000001
#
# number of rings (size 3 to 8) (size 9 to 14) (size 15 to 20)
#    0.000    2.500    1.250    1.875    0.000    4.750 
#    0.000    0.625    0.000    1.875    0.000   15.750 
#    0.000    0.000    0.000    0.000    0.000    0.000 
#
# Total GULP energy -396465.267311 kJ/mol
# GULP energy per Si atom -12389.539603 kJ/mol
# Density = 1.873175 g / cm^3
# Si number density = 18.774484 Si / 1000 Ang^3
#
#
#
# Elastic Constant Matrix: (Units=GPa)
#
#
# Indices 1 2 3 4 5 6 
#
# 1 24.8193 19.3142 20.4087 0.0000 4.7740 0.0000
# 2 19.3142 111.3437 44.8140 0.0000 13.2769 0.0000
# 3 20.4087 44.8140 75.1588 0.0000 3.0336 0.0000
# 4 0.0000 0.0000 0.0000 20.3546 0.0000 5.0601
# 5 4.7740 13.2769 3.0336 0.0000 20.7071 0.0000
# 6 0.0000 0.0000 0.0000 5.0601 0.0000 21.0789
#
#
#
# Elastic Compliance Matrix: (Units=1/GPa)
#
#
# Indices 1 2 3 4 5 6 
#
# 1 0.054924 -0.003471 -0.012497 0.000000 -0.008606 0.000000
# 2 -0.003471 0.013002 -0.006544 0.000000 -0.006577 0.000000
# 3 -0.012497 -0.006544 0.020436 0.000000 0.004083 0.000000
# 4 0.000000 0.000000 0.000000 0.052247 0.000000 -0.012542
# 5 -0.008606 -0.006577 0.004083 0.000000 0.053896 0.000000
# 6 0.000000 0.000000 0.000000 -0.012542 0.000000 0.050452
#
#
# Mechanical properties :
#
#
# Convention : Reuss Voigt Hill
#
# Bulk Modulus (GPa) = 23.07526 42.26615 32.67070
# Shear Modulus (GPa) = 16.42434 20.88044 18.65239
#
# Velocity S-wave (km/s) = 2.96095 3.33854 3.15540
# Velocity P-wave (km/s) = 4.89970 6.11740 5.54209
#
# Compressibility (1/GPa) = 0.04333647
#
# Stress axis : x y z
#
# Youngs Moduli (GPa) = 18.20696 76.91367 48.93376
#
# Poissons Ratio (x) = 0.26700 0.61152
# Poissons Ratio (y) = 0.06320 0.32023
# Poissons Ratio (z) = 0.22753 0.50334
#
# Static dielectric constant tensor:
#      x y z
#    x 3.411840 0.000000 0.052220 
#    y 0.000000 3.432860 0.000000 
#    z 0.052220 0.000000 3.373410 
# 
# 
# High freq. dielectric constant tensor:
#      x y z
#    x 1.705000 0.000000 0.003990 
#    y 0.000000 1.709720 0.000000 
#    z 0.003990 0.000000 1.715050 
# 
# From -- ./inp_files/156613.got.cif
#   From: 2010.06.25/outbox.cif.g09.slc.cpg/sg12_79_cif.got.tgz:156613.got - 2010.06.28 00:19:55.
