data_PCOD8079744
_publ_section_title
;
Structure prediction by ZEFSAII (Michael W. Deem and Ramdas Pophale) SiO2 
 PCOD8079744
Probable space group: C 2/M
;
_chemical_formula_sum "Si O2"
_cell_formula_units_Z 64
_cell_length_a 30.118697
_cell_length_b 15.063417
_cell_length_c 9.552535
_cell_angle_alpha 90.000000
_cell_angle_beta 135.292620
_cell_angle_gamma 90.000000
_cell_volume 3048.835062
_symmetry_space_group_name_H-M "C 2/M"
_symmetry_group_IT_number 12
_symmetry_cell_setting 'monoclinic'
loop_
_space_group_symop_operation_xyz
x,y,z
-x,y,-z
-x,-y,-z
x,-y,z
1/2+x,1/2+y,z
1/2-x,1/2+y,-z
1/2-x,1/2-y,-z
1/2+x,1/2-y,z
loop_
_atom_site_type_symbol
_atom_site_label
_atom_site_fract_x
_atom_site_fract_y
_atom_site_fract_z
Si Si1 0.320149 0.599368 0.420956
Si Si2 0.068092 0.136324 0.524412
Si Si3 0.600278 0.215612 0.980632
Si Si4 0.656684 0.099910 0.607624
Si Si5 0.528791 0.167830 0.420544
Si Si6 0.187542 0.397669 0.987817
Si Si7 0.817195 0.733593 0.579863
Si Si8 0.065229 0.904641 0.833059
O O1 0.318522 0.500000 0.481031
O O2 0.368286 0.604220 0.402510
O O3 0.252532 0.627221 0.208309
O O4 0.341375 0.669600 0.585834
O O5 0.064442 0.241628 0.542197
O O6 0.068126 0.089604 0.672977
O O7 0.008872 0.107137 0.294919
O O8 0.527312 0.185128 0.817001
O O9 0.606698 0.322668 0.981848
O O10 0.633857 0.166367 0.927467
O O11 0.633431 0.190306 0.200900
O O12 0.580976 0.106380 0.463747
O O13 0.685018 0.167279 0.556945
O O14 0.670527 0.000000 0.586443
O O15 0.693204 0.119383 0.834493
O O16 0.500000 0.126201 0.500000
O O17 0.168756 0.500000 0.974562
O O18 0.750000 0.750000 0.500000
O O19 0.089388 0.000000 0.947980
#
# Coordination Sequence:
#
# PCOD8079744 Si02
#       8
#     8   8   8   8   8   8   8   8
#     4  11  23  40  66  93 126 171 220 266 322 387
#     4  10  17  35  61  93 128 161 207 262 325 375
#     4  11  23  40  65  97 132 172 216 261 330 398
#     4  11  25  45  70 100 131 169 222 279 330 391
#     4  11  19  39  70 100 129 170 213 273 333 390
#     4  10  22  42  69  99 125 163 222 279 325 384
#     4  12  27  45  64  91 133 181 213 265 328 389
#     4  10  19  33  59  94 129 161 204 260 318 381
#
# _framework density 20.991624999999999
#
# number of rings (size 3 to 8) (size 9 to 14) (size 15 to 20)
#    0.000    1.250    6.250    1.500    0.000    4.250 
#    0.000    1.875    0.000    2.250    0.000    0.000 
#    0.000    0.000    0.000    0.000    0.000    0.000 
#
# Total GULP energy -396732.968801 kJ/mol
# GULP energy per Si atom -12397.905275 kJ/mol
# Density = 2.094385 g / cm^3
# Si number density = 20.991625 Si / 1000 Ang^3
#
#
#
# Elastic Constant Matrix: (Units=GPa)
#
#
# Indices 1 2 3 4 5 6 
#
# 1 84.0108 31.8339 11.8825 0.0000 3.1056 0.0000
# 2 31.8339 105.3294 15.4143 0.0000 -8.3595 0.0000
# 3 11.8825 15.4143 74.4442 0.0000 -4.4214 0.0000
# 4 0.0000 0.0000 0.0000 16.7004 0.0000 16.5430
# 5 3.1056 -8.3595 -4.4214 0.0000 26.6047 0.0000
# 6 0.0000 0.0000 0.0000 16.5430 0.0000 3.7571
#
#
#
# Elastic Compliance Matrix: (Units=1/GPa)
#
#
# Indices 1 2 3 4 5 6 
#
# 1 0.013832 -0.004211 -0.001526 0.000000 -0.003191 0.000000
# 2 -0.004211 0.011278 -0.001438 0.000000 0.003796 0.000000
# 3 -0.001526 -0.001438 0.014097 0.000000 0.002069 0.000000
# 4 0.000000 0.000000 0.000000 -0.017812 0.000000 0.078430
# 5 -0.003191 0.003796 0.002069 0.000000 0.039497 0.000000
# 6 0.000000 0.000000 0.000000 0.078430 0.000000 -0.079176
#
#
# Mechanical properties :
#
#
# Convention : Reuss Voigt Hill
#
# Bulk Modulus (GPa) = 40.22540 42.44955 41.33748
# Shear Modulus (GPa) = 1149.38973 23.05601 586.22287
#
# Velocity S-wave (km/s) = 23.42510 3.31772 16.72936
# Velocity P-wave (km/s) = 27.40167 5.91121 19.82163
#
# Compressibility (1/GPa) = 0.02485992
#
# Stress axis : x y z
#
# Youngs Moduli (GPa) = 72.29353 88.66578 70.93720
#
# Poissons Ratio (x) = 0.37334 0.10822
# Poissons Ratio (y) = 0.30440 0.10199
# Poissons Ratio (z) = 0.11029 0.12748
#
# Static dielectric constant tensor:
#      x y z
#    x 3.734220 0.000000 0.120130 
#    y 0.000000 3.917500 0.000000 
#    z 0.120130 0.000000 3.691960 
# 
# 
# High freq. dielectric constant tensor:
#      x y z
#    x 1.811440 0.000000 0.011480 
#    y 0.000000 1.829870 0.000000 
#    z 0.011480 0.000000 1.807150 
# 
# From -- ./inp_files/112038.got.cif
#   From: 2010.06.25/outbox.cif.g09.slc.cpg/sg12_57_cif.got.tgz:112038.got - 2010.06.28 00:19:55.
