data_PCOD8079035
_publ_section_title
;
Structure prediction by ZEFSAII (Michael W. Deem and Ramdas Pophale) SiO2 
 PCOD8079035
Probable space group: C 2/M
;
_chemical_formula_sum "Si O2"
_cell_formula_units_Z 48
_cell_length_a 12.376584
_cell_length_b 23.964111
_cell_length_c 12.593794
_cell_angle_alpha 90.000000
_cell_angle_beta 47.372341
_cell_angle_gamma 90.000000
_cell_volume 2748.279654
_symmetry_space_group_name_H-M "C 2/M"
_symmetry_group_IT_number 12
_symmetry_cell_setting 'monoclinic'
loop_
_space_group_symop_operation_xyz
x,y,z
-x,y,-z
-x,-y,-z
x,-y,z
1/2+x,1/2+y,z
1/2-x,1/2+y,-z
1/2-x,1/2-y,-z
1/2+x,1/2-y,z
loop_
_atom_site_type_symbol
_atom_site_label
_atom_site_fract_x
_atom_site_fract_y
_atom_site_fract_z
Si Si1 0.328200 0.303937 0.493449
Si Si2 0.173573 0.195674 0.264168
Si Si3 0.325130 0.500000 0.237695
Si Si4 0.325476 0.690993 0.116203
Si Si5 0.824696 0.000000 0.995520
Si Si6 0.827146 0.882573 0.310385
Si Si7 0.673942 0.617465 0.079480
O O1 0.250000 0.250000 0.500000
O O2 0.277849 0.315740 0.647249
O O3 0.500942 0.293001 0.370508
O O4 0.281449 0.357884 0.455213
O O5 0.255462 0.248239 0.160467
O O6 0.219074 0.141583 0.164464
O O7 0.500183 0.500000 0.123396
O O8 0.262334 0.444996 0.339147
O O9 0.269386 0.500000 0.153646
O O10 0.266962 0.658216 0.258647
O O11 0.500000 0.697499 0.000000
O O12 0.266796 0.658025 0.052361
O O13 0.761764 0.945014 0.977913
O O14 0.000444 0.885823 0.182419
#
# Coordination Sequence:
#
# PCOD8079035 Si02
#       7
#     8   8   4   8   4   8   8
#     4  10  19  33  48  64  94 129 162 190 222 273
#     4  10  20  31  46  69  97 127 155 189 231 276
#     4   9  14  24  43  67  91 118 153 186 235 273
#     4  10  17  28  47  71 100 120 145 191 238 277
#     4   9  14  24  43  65  93 123 145 184 238 280
#     4   9  16  27  45  68  92 121 152 191 232 271
#     4   9  17  27  42  69  97 117 149 192 235 280
#
# _framework density 17.465471999999998
#
# number of rings (size 3 to 8) (size 9 to 14) (size 15 to 20)
#    0.000    2.500    3.333    0.500    0.000    0.000 
#    0.000    0.833    0.000    5.000    0.000    4.083 
#    0.000    0.000    0.000    0.000    0.000    0.000 
#
# Total GULP energy -297512.060287 kJ/mol
# GULP energy per Si atom -12396.335845 kJ/mol
# Density = 1.742572 g / cm^3
# Si number density = 17.465472 Si / 1000 Ang^3
#
#
#
# Elastic Constant Matrix: (Units=GPa)
#
#
# Indices 1 2 3 4 5 6 
#
# 1 46.1976 43.2331 37.2697 0.0000 30.8850 0.0000
# 2 43.2331 171.9063 68.3917 0.0000 33.7317 0.0000
# 3 37.2697 68.3917 86.2041 0.0000 40.1588 0.0000
# 4 0.0000 0.0000 0.0000 28.3535 0.0000 8.0408
# 5 30.8850 33.7317 40.1588 0.0000 31.7881 0.0000
# 6 0.0000 0.0000 0.0000 8.0408 0.0000 24.5712
#
#
#
# Elastic Compliance Matrix: (Units=1/GPa)
#
#
# Indices 1 2 3 4 5 6 
#
# 1 0.066972 -0.006693 0.008164 0.000000 -0.068281 0.000000
# 2 -0.006693 0.009188 -0.007007 0.000000 0.005605 0.000000
# 3 0.008164 -0.007007 0.033687 0.000000 -0.043055 0.000000
# 4 0.000000 0.000000 0.000000 0.038877 0.000000 -0.012722
# 5 -0.068281 0.005605 -0.043055 0.000000 0.146244 0.000000
# 6 0.000000 0.000000 0.000000 -0.012722 0.000000 0.044861
#
#
# Mechanical properties :
#
#
# Convention : Reuss Voigt Hill
#
# Bulk Modulus (GPa) = 10.12393 66.89968 38.51180
# Shear Modulus (GPa) = 13.02675 27.30347 20.16511
#
# Velocity S-wave (km/s) = 2.73400 3.95813 3.40158
# Velocity P-wave (km/s) = 3.97184 7.69910 6.12583
#
# Compressibility (1/GPa) = 0.09877584
#
# Stress axis : x y z
#
# Youngs Moduli (GPa) = 14.93167 108.83457 29.68491
#
# Poissons Ratio (x) = 0.72840 -0.24236
# Poissons Ratio (y) = 0.09993 0.20801
# Poissons Ratio (z) = -0.12191 0.76263
#
# Static dielectric constant tensor:
#      x y z
#    x 2.969950 0.000000 0.360830 
#    y 0.000000 3.584220 0.000000 
#    z 0.360830 0.000000 3.223080 
# 
# 
# High freq. dielectric constant tensor:
#      x y z
#    x 1.634940 0.000000 0.033250 
#    y 0.000000 1.681930 0.000000 
#    z 0.033250 0.000000 1.660040 
# 
# From -- ./inp_files/51473.got.cif
#   From: 2010.06.25/outbox.cif.g09.slc.cpg/sg12_26_cif.got.tgz:51473.got - 2010.06.28 00:19:55.
