data_PCOD8079191
_publ_section_title
;
Structure prediction by ZEFSAII (Michael W. Deem and Ramdas Pophale) SiO2 
 PCOD8079191
Probable space group: C 2/M
;
_chemical_formula_sum "Si O2"
_cell_formula_units_Z 48
_cell_length_a 27.491698
_cell_length_b 10.218288
_cell_length_c 18.583924
_cell_angle_alpha 90.000000
_cell_angle_beta 31.660968
_cell_angle_gamma 90.000000
_cell_volume 2740.229996
_symmetry_space_group_name_H-M "C 2/M"
_symmetry_group_IT_number 12
_symmetry_cell_setting 'monoclinic'
loop_
_space_group_symop_operation_xyz
x,y,z
-x,y,-z
-x,-y,-z
x,-y,z
1/2+x,1/2+y,z
1/2-x,1/2+y,-z
1/2-x,1/2-y,-z
1/2+x,1/2-y,z
loop_
_atom_site_type_symbol
_atom_site_label
_atom_site_fract_x
_atom_site_fract_y
_atom_site_fract_z
Si Si1 0.481149 0.000000 0.634515
Si Si2 0.897971 0.650169 0.148413
Si Si3 0.156955 0.500000 0.309798
Si Si4 0.274901 0.254535 0.713671
Si Si5 0.145843 0.000000 0.317697
Si Si6 0.662983 0.153561 0.613241
Si Si7 0.510145 0.500000 0.364733
Si Si8 0.940996 0.741407 0.392474
O O1 0.487982 0.870470 0.673280
O O2 0.565652 0.000000 0.472911
O O3 0.380167 0.000000 0.724973
O O4 0.883336 0.500000 0.143536
O O5 0.825659 0.737490 0.195411
O O6 0.883862 0.666463 0.250704
O O7 0.000000 0.700185 0.000000
O O8 0.220804 0.624645 0.244118
O O9 0.292049 0.372608 0.747293
O O10 0.349083 0.249973 0.556253
O O11 0.108937 0.000000 0.281760
O O12 0.063903 0.000000 0.478428
O O13 0.750000 0.250000 0.500000
O O14 0.587812 0.208636 0.652227
O O15 0.689518 0.000000 0.563831
O O16 0.497924 0.375989 0.327750
#
# Coordination Sequence:
#
# PCOD8079191 Si02
#       8
#     4   8   4   8   4   8   4   8
#     4   9  16  30  42  70 108 136 165 201 252 320
#     4  10  21  37  55  76 103 141 186 221 252 309
#     4   9  18  26  46  71 104 137 161 203 266 313
#     4  10  17  29  49  72 101 134 171 210 258 306
#     4   9  16  28  44  71 100 137 171 207 250 307
#     4  11  22  34  55  79 104 139 177 215 268 315
#     4   9  18  26  44  72 106 130 165 211 262 300
#     4  10  18  29  47  74 104 134 165 210 260 309
#
# _framework density 17.516777000000001
#
# number of rings (size 3 to 8) (size 9 to 14) (size 15 to 20)
#    0.000    2.167    3.333    1.000    1.167    4.000 
#    0.000    0.417    0.000    0.000    0.000    7.000 
#    0.000    0.000    0.000    0.000    0.000    0.000 
#
# Total GULP energy -297545.466354 kJ/mol
# GULP energy per Si atom -12397.727765 kJ/mol
# Density = 1.747691 g / cm^3
# Si number density = 17.516777 Si / 1000 Ang^3
#
#
#
# Elastic Constant Matrix: (Units=GPa)
#
#
# Indices 1 2 3 4 5 6 
#
# 1 183.6795 91.7179 34.1057 -0.0002 -11.0252 0.0000
# 2 91.7179 160.5282 28.5067 -0.0018 -5.7645 0.0005
# 3 34.1057 28.5067 45.4993 -0.0006 -5.2360 0.0002
# 4 -0.0002 -0.0018 -0.0006 10.0091 0.0003 -3.6976
# 5 -11.0252 -5.7645 -5.2360 0.0003 13.3173 0.0000
# 6 0.0000 0.0005 0.0002 -3.6976 0.0000 38.2183
#
#
#
# Elastic Compliance Matrix: (Units=1/GPa)
#
#
# Indices 1 2 3 4 5 6 
#
# 1 0.008285 -0.004018 -0.003251 -0.000001 0.003842 0.000000
# 2 -0.004018 0.008982 -0.002672 0.000001 -0.000489 0.000000
# 3 -0.003251 -0.002672 0.026861 0.000001 0.006714 0.000000
# 4 -0.000001 0.000001 0.000001 0.103613 -0.000002 0.010024
# 5 0.003842 -0.000489 0.006714 -0.000002 0.080698 0.000000
# 6 0.000000 0.000000 0.000000 0.010024 0.000000 0.027135
#
#
# Mechanical properties :
#
#
# Convention : Reuss Voigt Hill
#
# Bulk Modulus (GPa) = 41.24195 77.59638 59.41917
# Shear Modulus (GPa) = 17.63424 28.00071 22.81747
#
# Velocity S-wave (km/s) = 3.17630 4.00247 3.61308
# Velocity P-wave (km/s) = 6.08665 8.10890 7.16943
#
# Compressibility (1/GPa) = 0.02424716
#
# Stress axis : x y z
#
# Youngs Moduli (GPa) = 120.70040 111.33055 37.22800
#
# Poissons Ratio (x) = 0.44738 0.12101
# Poissons Ratio (y) = 0.48503 0.09947
# Poissons Ratio (z) = 0.39234 0.29745
#
# Static dielectric constant tensor:
#      x y z
#    x 3.489980 0.000000 -0.021410 
#    y 0.000000 3.479890 0.000000 
#    z -0.021410 0.000000 2.679250 
# 
# 
# High freq. dielectric constant tensor:
#      x y z
#    x 1.699620 0.000000 -0.004830 
#    y 0.000000 1.688410 0.000000 
#    z -0.004830 0.000000 1.606430 
# 
# From -- ./inp_files/295433.got.cif
#   From: 2010.06.25/outbox.cif.g09.slc.cpg/sg12_148_cif.got.tgz:295433.got - 2010.06.28 00:19:55.
