data_PCOD8079571
_publ_section_title
;
Structure prediction by ZEFSAII (Michael W. Deem and Ramdas Pophale) SiO2 
 PCOD8079571
Probable space group: C 2/M
;
_chemical_formula_sum "Si O2"
_cell_formula_units_Z 52
_cell_length_a 19.570670
_cell_length_b 24.966337
_cell_length_c 8.724834
_cell_angle_alpha 90.000000
_cell_angle_beta 41.026782
_cell_angle_gamma 90.000000
_cell_volume 2798.298445
_symmetry_space_group_name_H-M "C 2/M"
_symmetry_group_IT_number 12
_symmetry_cell_setting 'monoclinic'
loop_
_space_group_symop_operation_xyz
x,y,z
-x,y,-z
-x,-y,-z
x,-y,z
1/2+x,1/2+y,z
1/2-x,1/2+y,-z
1/2-x,1/2-y,-z
1/2+x,1/2-y,z
loop_
_atom_site_type_symbol
_atom_site_label
_atom_site_fract_x
_atom_site_fract_y
_atom_site_fract_z
Si Si1 0.643844 0.337655 0.544150
Si Si2 0.115278 0.119366 0.274299
Si Si3 0.792500 0.660731 0.561154
Si Si4 0.500000 0.405657 0.000000
Si Si5 0.974484 0.732290 0.219154
Si Si6 0.807068 0.059914 0.136756
Si Si7 0.829768 0.775978 0.981762
O O1 0.672994 0.368376 0.337178
O O2 0.750052 0.335823 0.460210
O O3 0.601915 0.278020 0.584388
O O4 0.552704 0.368682 0.784681
O O5 0.107390 0.174236 0.193158
O O6 0.000000 0.097581 0.500000
O O7 0.174458 0.074984 0.072895
O O8 0.914754 0.675989 0.348876
O O9 0.778425 0.600662 0.649624
O O10 0.728540 0.703742 0.768481
O O11 0.413482 0.440142 0.056791
O O12 0.084055 0.731176 0.123522
O O13 0.000000 0.743397 0.000000
O O14 0.761009 0.000000 0.220522
O O15 0.750000 0.750000 0.000000
#
# Coordination Sequence:
#
# PCOD8079571 Si02
#       7
#     8   8   8   4   8   8   8
#     4  11  18  34  52  80 120 150 179 225 281 352
#     4  11  20  33  52  79 114 147 184 240 289 337
#     4  10  23  37  55  82 114 156 194 231 279 345
#     4  10  17  32  54  80 114 150 189 228 294 364
#     4  12  21  34  57  84 119 160 185 221 276 342
#     4  10  21  38  54  78 110 151 197 248 300 339
#     4  11  23  35  54  85 119 156 188 228 280 340
#
# _framework density 18.582720999999999
#
# number of rings (size 3 to 8) (size 9 to 14) (size 15 to 20)
#    0.000    1.231    5.385    2.538    2.154    0.308 
#    0.000    0.769    0.000    0.462    0.000    8.615 
#    0.000    0.000    0.000    0.000    0.000    0.000 
#
# Total GULP energy -322381.514445 kJ/mol
# GULP energy per Si atom -12399.289017 kJ/mol
# Density = 1.854043 g / cm^3
# Si number density = 18.582721 Si / 1000 Ang^3
#
#
#
# Elastic Constant Matrix: (Units=GPa)
#
#
# Indices 1 2 3 4 5 6 
#
# 1 124.2349 47.1771 45.1581 0.0000 6.5822 0.0000
# 2 47.1771 105.7309 35.6878 0.0000 -9.1240 0.0000
# 3 45.1581 35.6878 57.9783 0.0000 4.8916 0.0000
# 4 0.0000 0.0000 0.0000 14.1826 0.0000 -1.6265
# 5 6.5822 -9.1240 4.8916 0.0000 33.0244 0.0000
# 6 0.0000 0.0000 0.0000 -1.6265 0.0000 17.1765
#
#
#
# Elastic Compliance Matrix: (Units=1/GPa)
#
#
# Indices 1 2 3 4 5 6 
#
# 1 0.011966 -0.003082 -0.007240 0.000000 -0.002164 0.000000
# 2 -0.003082 0.013412 -0.006298 0.000000 0.005253 0.000000
# 3 -0.007240 -0.006298 0.027128 0.000000 -0.004315 0.000000
# 4 0.000000 0.000000 0.000000 0.071283 0.000000 0.006750
# 5 -0.002164 0.005253 -0.004315 0.000000 0.032802 0.000000
# 6 0.000000 0.000000 0.000000 0.006750 0.000000 0.058858
#
#
# Mechanical properties :
#
#
# Convention : Reuss Voigt Hill
#
# Bulk Modulus (GPa) = 51.90797 60.44332 56.17564
# Shear Modulus (GPa) = 19.59907 23.53811 21.56859
#
# Velocity S-wave (km/s) = 3.25113 3.56289 3.41057
# Velocity P-wave (km/s) = 6.48747 7.03724 6.76794
#
# Compressibility (1/GPa) = 0.01926486
#
# Stress axis : x y z
#
# Youngs Moduli (GPa) = 83.56891 74.55760 36.86193
#
# Poissons Ratio (x) = 0.22980 0.26690
# Poissons Ratio (y) = 0.25757 0.23217
# Poissons Ratio (z) = 0.60508 0.46959
#
# Static dielectric constant tensor:
#      x y z
#    x 3.523870 0.000000 0.262300 
#    y 0.000000 3.185740 0.000000 
#    z 0.262300 0.000000 3.448790 
# 
# 
# High freq. dielectric constant tensor:
#      x y z
#    x 1.719570 0.000000 0.023490 
#    y 0.000000 1.686640 0.000000 
#    z 0.023490 0.000000 1.714540 
# 
# From -- ./inp_files/52550.got.cif
#   From: 2010.06.25/outbox.cif.g09.slc.cpg/sg12_27_cif.got.tgz:52550.got - 2010.06.28 00:19:55.
