data_PCOD8079594
_publ_section_title
;
Structure prediction by ZEFSAII (Michael W. Deem and Ramdas Pophale) SiO2 
 PCOD8079594
Probable space group: C 2/M
;
_chemical_formula_sum "Si O2"
_cell_formula_units_Z 64
_cell_length_a 20.176862
_cell_length_b 9.017884
_cell_length_c 21.093085
_cell_angle_alpha 90.000000
_cell_angle_beta 115.735583
_cell_angle_gamma 90.000000
_cell_volume 3457.246755
_symmetry_space_group_name_H-M "C 2/M"
_symmetry_group_IT_number 12
_symmetry_cell_setting 'monoclinic'
loop_
_space_group_symop_operation_xyz
x,y,z
-x,y,-z
-x,-y,-z
x,-y,z
1/2+x,1/2+y,z
1/2-x,1/2+y,-z
1/2-x,1/2-y,-z
1/2+x,1/2-y,z
loop_
_atom_site_type_symbol
_atom_site_label
_atom_site_fract_x
_atom_site_fract_y
_atom_site_fract_z
Si Si1 0.004450 0.326220 0.732251
Si Si2 0.082498 0.325419 0.054732
Si Si3 0.172200 0.328219 0.792915
Si Si4 0.396208 0.823759 0.793763
Si Si5 0.236125 0.175524 0.699205
Si Si6 0.889257 0.824754 0.438613
Si Si7 0.717922 0.325202 0.048696
Si Si8 0.477603 0.324529 0.591784
O O1 0.991946 0.500000 0.719284
O O2 0.961180 0.264482 0.775738
O O3 0.969485 0.251771 0.655970
O O4 0.089437 0.286601 0.778809
O O5 0.098728 0.500000 0.056365
O O6 0.093319 0.264227 0.130608
O O7 0.137903 0.240856 0.031084
O O8 0.000000 0.287417 0.000000
O O9 0.179114 0.500000 0.777456
O O10 0.191776 0.230898 0.741073
O O11 0.226195 0.285406 0.871983
O O12 0.319046 0.762030 0.733563
O O13 0.397111 0.000000 0.795983
O O14 0.192258 0.227669 0.617385
O O15 0.237621 0.000000 0.704166
O O16 0.908935 0.773025 0.518244
O O17 0.948544 0.765785 0.412041
O O18 0.896163 0.000000 0.440056
O O19 0.711018 0.500000 0.034911
O O20 0.750000 0.250000 0.000000
O O21 0.478527 0.500000 0.602486
#
# Coordination Sequence:
#
# PCOD8079594 Si02
#       8
#     8   8   8   8   8   8   8   8
#     4  10  20  34  51  76 109 141 174 215 268 322
#     4  10  21  38  62  85 110 147 186 222 270 334
#     4  10  21  35  54  78 108 139 172 223 273 311
#     4   9  19  34  54  78 105 140 178 215 259 321
#     4  10  17  32  57  79  99 134 184 224 257 313
#     4   8  15  27  49  76 103 133 172 223 267 310
#     4  11  24  40  59  84 115 146 182 229 277 326
#     4   9  16  30  49  74 104 136 176 219 266 313
#
# _framework density 18.511839999999999
#
# number of rings (size 3 to 8) (size 9 to 14) (size 15 to 20)
#    0.000    2.375    2.500    1.125    1.750    0.750 
#    0.000    3.750    0.000    0.000    0.000    0.000 
#    0.000    0.000    0.000    0.000    0.000    0.000 
#
# Total GULP energy -396700.626682 kJ/mol
# GULP energy per Si atom -12396.894584 kJ/mol
# Density = 1.846971 g / cm^3
# Si number density = 18.511840 Si / 1000 Ang^3
#
#
#
# Elastic Constant Matrix: (Units=GPa)
#
#
# Indices 1 2 3 4 5 6 
#
# 1 131.1727 31.7580 58.8988 0.0000 8.1014 0.0000
# 2 31.7580 33.7478 31.7101 0.0000 2.2924 0.0000
# 3 58.8988 31.7101 117.4595 0.0000 16.9472 0.0000
# 4 0.0000 0.0000 0.0000 24.4709 0.0000 -5.1148
# 5 8.1014 2.2924 16.9472 0.0000 35.9975 0.0000
# 6 0.0000 0.0000 0.0000 -5.1148 0.0000 22.7019
#
#
#
# Elastic Compliance Matrix: (Units=1/GPa)
#
#
# Indices 1 2 3 4 5 6 
#
# 1 0.010914 -0.006902 -0.003560 0.000000 -0.000341 0.000000
# 2 -0.006902 0.044314 -0.008925 0.000000 0.002933 0.000000
# 3 -0.003560 -0.008925 0.013423 0.000000 -0.004950 0.000000
# 4 0.000000 0.000000 0.000000 0.042884 0.000000 0.009662
# 5 -0.000341 0.002933 -0.004950 0.000000 0.030000 0.000000
# 6 0.000000 0.000000 0.000000 0.009662 0.000000 0.046226
#
#
# Mechanical properties :
#
#
# Convention : Reuss Voigt Hill
#
# Bulk Modulus (GPa) = 33.47297 58.56820 46.02059
# Shear Modulus (GPa) = 21.14202 27.30161 24.22181
#
# Velocity S-wave (km/s) = 3.38314 3.84450 3.62117
# Velocity P-wave (km/s) = 5.77771 7.17035 6.51137
#
# Compressibility (1/GPa) = 0.02987485
#
# Stress axis : x y z
#
# Youngs Moduli (GPa) = 91.62254 22.56612 74.50144
#
# Poissons Ratio (x) = 0.15576 0.26525
# Poissons Ratio (y) = 0.63241 0.66496
# Poissons Ratio (z) = 0.32621 0.20141
#
# Static dielectric constant tensor:
#      x y z
#    x 3.491540 0.000000 0.214740 
#    y 0.000000 3.082430 0.000000 
#    z 0.214740 0.000000 3.854530 
# 
# 
# High freq. dielectric constant tensor:
#      x y z
#    x 1.712160 0.000000 0.010880 
#    y 0.000000 1.685610 0.000000 
#    z 0.010880 0.000000 1.733640 
# 
# From -- ./inp_files/320137.got.cif
#   From: 2010.06.25/outbox.cif.g09.slc.cpg/sg12_161_cif.got.tgz:320137.got - 2010.06.28 00:19:55.
