data_PCOD8079180
_publ_section_title
;
Structure prediction by ZEFSAII (Michael W. Deem and Ramdas Pophale) SiO2 
 PCOD8079180
Probable space group: C 2/M
;
_chemical_formula_sum "Si O2"
_cell_formula_units_Z 48
_cell_length_a 8.034091
_cell_length_b 29.625848
_cell_length_c 10.303159
_cell_angle_alpha 90.000000
_cell_angle_beta 93.584898
_cell_angle_gamma 90.000000
_cell_volume 2447.525910
_symmetry_space_group_name_H-M "C 2/M"
_symmetry_group_IT_number 12
_symmetry_cell_setting 'monoclinic'
loop_
_space_group_symop_operation_xyz
x,y,z
-x,y,-z
-x,-y,-z
x,-y,z
1/2+x,1/2+y,z
1/2-x,1/2+y,-z
1/2-x,1/2-y,-z
1/2+x,1/2-y,z
loop_
_atom_site_type_symbol
_atom_site_label
_atom_site_fract_x
_atom_site_fract_y
_atom_site_fract_z
Si Si1 0.088921 0.366135 0.639764
Si Si2 0.343473 0.688859 0.271262
Si Si3 0.484706 0.770019 0.641639
Si Si4 0.377496 0.125414 0.880417
Si Si5 0.960890 0.102780 0.639062
Si Si6 0.116051 0.947875 0.883472
O O1 0.112927 0.312164 0.658320
O O2 0.265810 0.390379 0.654600
O O3 0.000000 0.378104 0.500000
O O4 0.973269 0.384143 0.750824
O O5 0.469113 0.731035 0.249982
O O6 0.257692 0.666468 0.140097
O O7 0.439767 0.649840 0.352103
O O8 0.199946 0.710325 0.353438
O O9 0.500000 0.747635 0.500000
O O10 0.286336 0.079366 0.915191
O O11 0.500000 0.140834 0.000000
O O12 0.024291 0.067793 0.748823
O O13 0.000000 0.081552 0.500000
O O14 0.163498 0.000000 0.873266
O O15 0.000000 0.938138 0.000000
#
# Coordination Sequence:
#
# PCOD8079180 Si02
#       6
#     8   8   8   8   8   8
#     4  10  20  35  56  83 113 149 189 228 270 320
#     4  10  20  31  50  78 109 148 190 229 271 318
#     4  10  17  29  48  76 110 145 191 233 265 311
#     4  10  21  38  57  81 111 144 182 229 281 329
#     4  11  20  35  58  83 114 147 182 228 280 326
#     4  10  22  40  62  86 109 140 181 222 272 337
#
# _framework density 19.611643000000001
#
# number of rings (size 3 to 8) (size 9 to 14) (size 15 to 20)
#    0.000    1.833    0.000    7.000    0.000    0.667 
#    0.000    4.167    0.000   12.000    0.000    0.000 
#    0.000    0.000    0.000    0.000    0.000    0.000 
#
# Total GULP energy -297527.923679 kJ/mol
# GULP energy per Si atom -12396.996820 kJ/mol
# Density = 1.956701 g / cm^3
# Si number density = 19.611643 Si / 1000 Ang^3
#
#
#
# Elastic Constant Matrix: (Units=GPa)
#
#
# Indices 1 2 3 4 5 6 
#
# 1 93.4094 45.7584 32.2534 0.0000 6.7269 0.0000
# 2 45.7584 101.7680 46.2168 0.0000 -3.9078 0.0000
# 3 32.2534 46.2168 106.6625 0.0000 5.5110 0.0000
# 4 0.0000 0.0000 0.0000 20.0897 0.0000 -5.2404
# 5 6.7269 -3.9078 5.5110 0.0000 32.1580 0.0000
# 6 0.0000 0.0000 0.0000 -5.2404 0.0000 24.8697
#
#
#
# Elastic Compliance Matrix: (Units=1/GPa)
#
#
# Indices 1 2 3 4 5 6 
#
# 1 0.014388 -0.005859 -0.001634 0.000000 -0.003442 0.000000
# 2 -0.005859 0.014809 -0.004844 0.000000 0.003855 0.000000
# 3 -0.001634 -0.004844 0.012088 0.000000 -0.002318 0.000000
# 4 0.000000 0.000000 0.000000 0.052672 0.000000 0.011099
# 5 -0.003442 0.003855 -0.002318 0.000000 0.032682 0.000000
# 6 0.000000 0.000000 0.000000 0.011099 0.000000 0.042548
#
#
# Mechanical properties :
#
#
# Convention : Reuss Voigt Hill
#
# Bulk Modulus (GPa) = 60.20476 61.14415 60.67446
# Shear Modulus (GPa) = 25.07538 27.26423 26.16981
#
# Velocity S-wave (km/s) = 3.57963 3.73259 3.65691
# Velocity P-wave (km/s) = 6.91738 7.05843 6.98826
#
# Compressibility (1/GPa) = 0.01660998
#
# Stress axis : x y z
#
# Youngs Moduli (GPa) = 69.50240 67.52754 82.72545
#
# Poissons Ratio (x) = 0.39567 0.13518
# Poissons Ratio (y) = 0.40724 0.40072
# Poissons Ratio (z) = 0.11357 0.32710
#
# Static dielectric constant tensor:
#      x y z
#    x 3.726100 0.000000 0.086030 
#    y 0.000000 3.573900 0.000000 
#    z 0.086030 0.000000 3.497580 
# 
# 
# High freq. dielectric constant tensor:
#      x y z
#    x 1.778460 0.000000 0.006310 
#    y 0.000000 1.748180 0.000000 
#    z 0.006310 0.000000 1.750570 
# 
# From -- ./inp_files/42171.got.cif
#   From: 2010.06.25/outbox.cif.g09.slc.cpg/sg12_22_cif.got.tgz:42171.got - 2010.06.28 00:19:55.
