data_PCOD8079443
_publ_section_title
;
Structure prediction by ZEFSAII (Michael W. Deem and Ramdas Pophale) SiO2 
 PCOD8079443
Probable space group: C 2/M
;
_chemical_formula_sum "Si O2"
_cell_formula_units_Z 40
_cell_length_a 22.319995
_cell_length_b 7.721224
_cell_length_c 30.527439
_cell_angle_alpha 90.000000
_cell_angle_beta 154.518359
_cell_angle_gamma 90.000000
_cell_volume 2263.409292
_symmetry_space_group_name_H-M "C 2/M"
_symmetry_group_IT_number 12
_symmetry_cell_setting 'monoclinic'
loop_
_space_group_symop_operation_xyz
x,y,z
-x,y,-z
-x,-y,-z
x,-y,z
1/2+x,1/2+y,z
1/2-x,1/2+y,-z
1/2-x,1/2-y,-z
1/2+x,1/2-y,z
loop_
_atom_site_type_symbol
_atom_site_label
_atom_site_fract_x
_atom_site_fract_y
_atom_site_fract_z
Si Si1 0.215379 0.500000 0.167966
Si Si2 0.584188 0.691550 0.510681
Si Si3 0.661984 0.810435 0.702805
Si Si4 0.913067 0.500000 0.009512
Si Si5 0.121585 0.198903 0.945049
Si Si6 0.672614 0.206579 0.272796
O O1 0.305524 0.669390 0.238813
O O2 0.189133 0.500000 0.099115
O O3 0.073276 0.500000 0.101442
O O4 0.500000 0.682485 0.500000
O O5 0.597892 0.500000 0.499558
O O6 0.499919 0.803683 0.419634
O O7 0.737563 0.764868 0.624980
O O8 0.763615 0.787311 0.728842
O O9 0.687605 0.000000 0.740208
O O10 0.883496 0.325113 0.016689
O O11 0.983345 0.223696 0.824277
O O12 0.134501 0.000000 0.969475
O O13 0.250000 0.250000 0.000000
O O14 0.676144 0.000000 0.269979
#
# Coordination Sequence:
#
# PCOD8079443 Si02
#       6
#     4   8   8   4   8   8
#     4  11  22  38  54  75 120 143 180 222 270 320
#     4   8  15  26  45  70 106 142 170 211 266 323
#     4  11  18  29  50  75 107 147 176 210 267 329
#     4  11  24  40  55  80 107 149 181 228 269 318
#     4  12  22  37  59  80 108 140 183 226 273 319
#     4  10  17  31  49  75 111 141 174 220 272 320
#
# _framework density 17.672454999999999
#
# number of rings (size 3 to 8) (size 9 to 14) (size 15 to 20)
#    0.000    1.600    6.000    1.800    0.000    5.200 
#    0.000    2.000    0.000    0.000    0.000    1.400 
#    0.000    0.000    0.000    0.000    0.000    0.000 
#
# Total GULP energy -247893.524413 kJ/mol
# GULP energy per Si atom -12394.676221 kJ/mol
# Density = 1.763223 g / cm^3
# Si number density = 17.672455 Si / 1000 Ang^3
#
#
#
# Elastic Constant Matrix: (Units=GPa)
#
#
# Indices 1 2 3 4 5 6 
#
# 1 51.2158 31.2816 47.1512 -0.0007 3.0641 -0.0003
# 2 31.2816 154.2145 60.5307 -0.0016 -10.3775 -0.0006
# 3 47.1512 60.5307 153.3954 -0.0101 0.6364 0.0024
# 4 -0.0007 -0.0016 -0.0101 18.3676 0.0023 6.7685
# 5 3.0641 -10.3775 0.6364 0.0023 21.8404 -0.0008
# 6 -0.0003 -0.0006 0.0024 6.7685 -0.0008 11.3273
#
#
#
# Elastic Compliance Matrix: (Units=1/GPa)
#
#
# Indices 1 2 3 4 5 6 
#
# 1 0.028766 -0.003234 -0.007544 -0.000004 -0.005353 0.000004
# 2 -0.003234 0.008354 -0.002321 -0.000002 0.004491 0.000002
# 3 -0.007544 -0.002321 0.009755 0.000007 -0.000329 -0.000007
# 4 -0.000004 -0.000002 0.000007 0.069817 -0.000009 -0.041719
# 5 -0.005353 0.004491 -0.000329 -0.000009 0.048681 0.000009
# 6 0.000004 0.000002 -0.000007 -0.041719 0.000009 0.113211
#
#
# Mechanical properties :
#
#
# Convention : Reuss Voigt Hill
#
# Bulk Modulus (GPa) = 48.36287 70.75029 59.55658
# Shear Modulus (GPa) = 16.04243 24.96454 20.50349
#
# Velocity S-wave (km/s) = 3.01618 3.76257 3.40986
# Velocity P-wave (km/s) = 6.28931 7.68095 7.01970
#
# Compressibility (1/GPa) = 0.02067702
#
# Stress axis : x y z
#
# Youngs Moduli (GPa) = 34.76346 119.70770 102.51038
#
# Poissons Ratio (x) = 0.38716 0.77331
# Poissons Ratio (y) = 0.11243 0.23792
# Poissons Ratio (z) = 0.26224 0.27783
#
# Static dielectric constant tensor:
#      x y z
#    x 2.702790 0.000000 0.128420 
#    y 0.000000 3.440220 0.000000 
#    z 0.128420 0.000000 3.836600 
# 
# 
# High freq. dielectric constant tensor:
#      x y z
#    x 1.605780 0.000000 0.008780 
#    y 0.000000 1.696550 0.000000 
#    z 0.008780 0.000000 1.703910 
# 
# From -- ./inp_files/365297.got.cif
#   From: 2010.06.25/outbox.cif.g09.slc.cpg/sg12_183_cif.got.tgz:365297.got - 2010.06.28 00:19:55.
