data_PCOD8079060
_publ_section_title
;
Structure prediction by ZEFSAII (Michael W. Deem and Ramdas Pophale) SiO2 
 PCOD8079060
Probable space group: C 2/M
;
_chemical_formula_sum "Si O2"
_cell_formula_units_Z 56
_cell_length_a 25.334473
_cell_length_b 9.055165
_cell_length_c 25.784014
_cell_angle_alpha 90.000000
_cell_angle_beta 34.394643
_cell_angle_gamma 90.000000
_cell_volume 3341.354439
_symmetry_space_group_name_H-M "C 2/M"
_symmetry_group_IT_number 12
_symmetry_cell_setting 'monoclinic'
loop_
_space_group_symop_operation_xyz
x,y,z
-x,y,-z
-x,-y,-z
x,-y,z
1/2+x,1/2+y,z
1/2-x,1/2+y,-z
1/2-x,1/2-y,-z
1/2+x,1/2-y,z
loop_
_atom_site_type_symbol
_atom_site_label
_atom_site_fract_x
_atom_site_fract_y
_atom_site_fract_z
Si Si1 0.186643 0.673365 0.885224
Si Si2 0.984962 0.174396 0.595493
Si Si3 0.654246 0.173413 0.092575
Si Si4 0.845470 0.326338 0.206287
Si Si5 0.373521 0.825681 0.767807
Si Si6 0.538963 0.825114 0.088963
Si Si7 0.355486 0.674915 0.606806
O O1 0.206908 0.500000 0.875989
O O2 0.146581 0.708847 0.861012
O O3 0.282594 0.758734 0.814857
O O4 0.112018 0.734487 0.987112
O O5 0.964924 0.259546 0.665321
O O6 0.910025 0.229866 0.613634
O O7 0.088367 0.219464 0.490893
O O8 0.977786 0.000000 0.610969
O O9 0.621279 0.221604 0.176270
O O10 0.573273 0.222904 0.118173
O O11 0.672452 0.000000 0.074096
O O12 0.750000 0.250000 0.000000
O O13 0.844010 0.500000 0.216890
O O14 0.749620 0.258284 0.308089
O O15 0.936035 0.256891 0.161601
O O16 0.372111 0.000000 0.762557
O O17 0.533736 0.000000 0.087276
O O18 0.351656 0.500000 0.614123
#
# Coordination Sequence:
#
# PCOD8079060 Si02
#       7
#     8   8   8   8   8   8   8
#     4  10  17  28  48  71  94 122 152 186 230 278
#     4   9  16  29  48  70  93 119 152 191 234 275
#     4  10  20  33  48  67  91 123 160 195 226 264
#     4   9  15  25  46  75  97 114 146 196 237 269
#     4  11  21  30  44  68  98 126 154 188 228 275
#     4   9  17  28  45  70  95 119 154 194 231 267
#     4   8  14  25  46  73  95 114 146 194 237 272
#
# _framework density 16.759671000000001
#
# number of rings (size 3 to 8) (size 9 to 14) (size 15 to 20)
#    0.000    2.571    2.857    1.714    0.000    2.286 
#    0.000    1.429    0.000    3.429    0.000    0.000 
#    0.000    0.000    0.000    0.000    0.000    0.143 
#
# Total GULP energy -347066.808476 kJ/mol
# GULP energy per Si atom -12395.243160 kJ/mol
# Density = 1.672153 g / cm^3
# Si number density = 16.759671 Si / 1000 Ang^3
#
#
#
# Elastic Constant Matrix: (Units=GPa)
#
#
# Indices 1 2 3 4 5 6 
#
# 1 84.2330 21.5865 48.1911 0.0044 8.8521 -0.0080
# 2 21.5865 26.5857 27.3088 -0.0078 7.8025 -0.0012
# 3 48.1911 27.3088 136.3500 -0.0013 11.9440 0.0001
# 4 0.0044 -0.0078 -0.0013 19.1887 0.0003 4.2159
# 5 8.8521 7.8025 11.9440 0.0003 24.6415 0.0015
# 6 -0.0080 -0.0012 0.0001 4.2159 0.0015 13.0086
#
#
#
# Elastic Compliance Matrix: (Units=1/GPa)
#
#
# Indices 1 2 3 4 5 6 
#
# 1 0.016572 -0.009065 -0.003939 -0.000011 -0.001174 0.000013
# 2 -0.009065 0.055272 -0.006912 0.000026 -0.010894 -0.000007
# 3 -0.003939 -0.006912 0.010229 -0.000001 -0.001355 -0.000003
# 4 -0.000011 0.000026 -0.000001 0.056109 -0.000004 -0.018184
# 5 -0.001174 -0.010894 -0.001355 -0.000004 0.045110 -0.000006
# 6 0.000013 -0.000007 -0.000003 -0.018184 -0.000006 0.082765
#
#
# Mechanical properties :
#
#
# Convention : Reuss Voigt Hill
#
# Bulk Modulus (GPa) = 23.67344 49.03794 36.35569
# Shear Modulus (GPa) = 15.62650 21.37326 18.49988
#
# Velocity S-wave (km/s) = 3.05681 3.57498 3.32600
# Velocity P-wave (km/s) = 5.15895 6.80909 6.04063
#
# Compressibility (1/GPa) = 0.04224143
#
# Stress axis : x y z
#
# Youngs Moduli (GPa) = 60.34392 18.09228 97.76033
#
# Poissons Ratio (x) = 0.16401 0.38504
# Poissons Ratio (y) = 0.54704 0.67570
# Poissons Ratio (z) = 0.23767 0.12505
#
# Static dielectric constant tensor:
#      x y z
#    x 3.268100 -0.000010 -0.117390 
#    y -0.000010 2.743380 0.000010 
#    z -0.117390 0.000010 3.647830 
# 
# 
# High freq. dielectric constant tensor:
#      x y z
#    x 1.628480 0.000000 0.002600 
#    y 0.000000 1.600040 0.000000 
#    z 0.002600 0.000000 1.657540 
# 
# From -- ./inp_files/348474.got.cif
#   From: 2010.06.25/outbox.cif.g09.slc.cpg/sg12_175_cif.got.tgz:348474.got - 2010.06.28 00:19:55.
