data_PCOD8079773
_publ_section_title
;
Structure prediction by ZEFSAII (Michael W. Deem and Ramdas Pophale) SiO2 
 PCOD8079773
Probable space group: C 2/M
;
_chemical_formula_sum "Si O2"
_cell_formula_units_Z 64
_cell_length_a 14.442265
_cell_length_b 18.699870
_cell_length_c 12.963698
_cell_angle_alpha 90.000000
_cell_angle_beta 122.546220
_cell_angle_gamma 90.000000
_cell_volume 2951.267689
_symmetry_space_group_name_H-M "C 2/M"
_symmetry_group_IT_number 12
_symmetry_cell_setting 'monoclinic'
loop_
_space_group_symop_operation_xyz
x,y,z
-x,y,-z
-x,-y,-z
x,-y,z
1/2+x,1/2+y,z
1/2-x,1/2+y,-z
1/2-x,1/2-y,-z
1/2+x,1/2-y,z
loop_
_atom_site_type_symbol
_atom_site_label
_atom_site_fract_x
_atom_site_fract_y
_atom_site_fract_z
Si Si1 0.678560 0.083217 0.393563
Si Si2 0.512490 0.693544 0.715714
Si Si3 0.876528 0.695173 0.965199
Si Si4 0.705485 0.321078 0.683326
Si Si5 0.950072 0.642394 0.210432
Si Si6 0.244358 0.418938 0.795707
Si Si7 0.727777 0.673336 0.378115
Si Si8 0.096047 0.150239 0.975200
O O1 0.775821 0.109234 0.375884
O O2 0.561863 0.097244 0.268901
O O3 0.682892 0.129251 0.502124
O O4 0.695158 0.000000 0.428279
O O5 0.581431 0.678681 0.652985
O O6 0.522662 0.775402 0.754242
O O7 0.383448 0.679299 0.620355
O O8 0.554475 0.641679 0.832981
O O9 0.791060 0.670964 0.828243
O O10 0.839245 0.774220 0.978370
O O11 0.880036 0.638530 0.061851
O O12 0.000000 0.701768 0.000000
O O13 0.726958 0.251224 0.625583
O O14 0.879408 0.608348 0.259982
O O15 0.241110 0.500000 0.755995
O O16 0.300177 0.370098 0.742014
O O17 0.316342 0.411292 0.943216
O O18 0.000000 0.144794 0.000000
#
# Coordination Sequence:
#
# PCOD8079773 Si02
#       8
#     8   8   8   8   8   8   8   8
#     4  12  28  48  66  95 140 184 224 276 339 399
#     4  11  22  40  73 105 125 168 231 286 331 389
#     4  10  17  36  70 102 129 165 215 278 340 389
#     4  12  22  43  72 101 132 170 228 283 334 402
#     4  11  22  41  70 100 136 168 218 285 338 400
#     4  12  24  40  63  99 141 180 219 272 344 408
#     4  12  24  47  67  97 131 181 232 281 323 391
#     4  10  18  37  64  98 138 171 214 274 338 392
#
# _framework density 21.685596
#
# number of rings (size 3 to 8) (size 9 to 14) (size 15 to 20)
#    0.000    0.750    6.250    2.625    0.000    3.250 
#    0.000    6.875    0.000    0.000    0.000    0.000 
#    0.000    0.000    0.000    0.000    0.000    0.000 
#
# Total GULP energy -396789.741191 kJ/mol
# GULP energy per Si atom -12399.679412 kJ/mol
# Density = 2.163624 g / cm^3
# Si number density = 21.685596 Si / 1000 Ang^3
#
#
#
# Elastic Constant Matrix: (Units=GPa)
#
#
# Indices 1 2 3 4 5 6 
#
# 1 137.3597 38.0942 14.3926 0.0000 3.9899 0.0000
# 2 38.0942 97.6213 34.6092 0.0000 2.8916 0.0000
# 3 14.3926 34.6092 79.1136 0.0000 -6.0735 0.0000
# 4 0.0000 0.0000 0.0000 19.8018 0.0000 1.1529
# 5 3.9899 2.8916 -6.0735 0.0000 18.5670 0.0000
# 6 0.0000 0.0000 0.0000 1.1529 0.0000 16.3343
#
#
#
# Elastic Compliance Matrix: (Units=1/GPa)
#
#
# Indices 1 2 3 4 5 6 
#
# 1 0.008197 -0.003068 -0.000254 0.000000 -0.001367 0.000000
# 2 -0.003068 0.013528 -0.005612 0.000000 -0.003283 0.000000
# 3 -0.000254 -0.005612 0.015604 0.000000 0.006033 0.000000
# 4 0.000000 0.000000 0.000000 0.050709 0.000000 -0.003579
# 5 -0.001367 -0.003283 0.006033 0.000000 0.056637 0.000000
# 6 0.000000 0.000000 0.000000 -0.003579 0.000000 0.061473
#
#
# Mechanical properties :
#
#
# Convention : Reuss Voigt Hill
#
# Bulk Modulus (GPa) = 51.38354 54.25407 52.81881
# Shear Modulus (GPa) = 21.69159 26.07388 23.88274
#
# Velocity S-wave (km/s) = 3.16615 3.47127 3.32221
# Velocity P-wave (km/s) = 6.09198 6.41397 6.25505
#
# Compressibility (1/GPa) = 0.01946149
#
# Stress axis : x y z
#
# Youngs Moduli (GPa) = 121.98987 73.92226 64.08493
#
# Poissons Ratio (x) = 0.22682 0.01627
# Poissons Ratio (y) = 0.37430 0.35963
# Poissons Ratio (z) = 0.03098 0.41483
#
# Static dielectric constant tensor:
#      x y z
#    x 4.043010 0.000000 -0.063330 
#    y 0.000000 3.610170 0.000000 
#    z -0.063330 0.000000 3.970320 
# 
# 
# High freq. dielectric constant tensor:
#      x y z
#    x 1.859940 0.000000 0.000250 
#    y 0.000000 1.814090 0.000000 
#    z 0.000250 0.000000 1.855960 
# 
# From -- ./inp_files/216860.got.cif
#   From: 2010.06.25/outbox.cif.g09.slc.cpg/sg12_109_cif.got.tgz:216860.got - 2010.06.28 00:19:55.
