data_PCOD8079448
_publ_section_title
;
Structure prediction by ZEFSAII (Michael W. Deem and Ramdas Pophale) SiO2 
 PCOD8079448
Probable space group: C 2/M
;
_chemical_formula_sum "Si O2"
_cell_formula_units_Z 64
_cell_length_a 29.947484
_cell_length_b 8.867765
_cell_length_c 15.194999
_cell_angle_alpha 90.000000
_cell_angle_beta 101.934509
_cell_angle_gamma 90.000000
_cell_volume 3948.069656
_symmetry_space_group_name_H-M "C 2/M"
_symmetry_group_IT_number 12
_symmetry_cell_setting 'monoclinic'
loop_
_space_group_symop_operation_xyz
x,y,z
-x,y,-z
-x,-y,-z
x,-y,z
1/2+x,1/2+y,z
1/2-x,1/2+y,-z
1/2-x,1/2-y,-z
1/2+x,1/2-y,z
loop_
_atom_site_type_symbol
_atom_site_label
_atom_site_fract_x
_atom_site_fract_y
_atom_site_fract_z
Si Si1 0.050433 0.676901 0.938410
Si Si2 0.307591 0.179286 0.886856
Si Si3 0.714468 0.322136 0.601433
Si Si4 0.850819 0.324655 0.084849
Si Si5 0.458165 0.679275 0.877625
Si Si6 0.124880 0.677922 0.238106
Si Si7 0.791783 0.821123 0.204603
Si Si8 0.187130 0.323677 0.422460
O O1 0.041227 0.500000 0.948433
O O2 0.095169 0.705039 0.898377
O O3 0.007820 0.755005 0.872147
O O4 0.057976 0.751733 0.036407
O O5 0.340256 0.237262 0.822210
O O6 0.256559 0.241958 0.851142
O O7 0.307990 0.000000 0.885015
O O8 0.326020 0.240398 0.987600
O O9 0.711239 0.500000 0.595745
O O10 0.700439 0.263949 0.692451
O O11 0.766046 0.266764 0.603536
O O12 0.680207 0.254604 0.514415
O O13 0.839714 0.500000 0.090182
O O14 0.833014 0.239379 0.163074
O O15 0.460715 0.500000 0.884929
O O16 0.422465 0.731850 0.789029
O O17 0.116001 0.500000 0.224243
O O18 0.145246 0.718349 0.341874
O O19 0.791299 0.000000 0.201046
O O20 0.189618 0.500000 0.439672
#
# Coordination Sequence:
#
# PCOD8079448 Si02
#       8
#     8   8   8   8   8   8   8   8
#     4  10  19  34  52  67  90 129 165 193 236 288
#     4   9  16  30  47  65  93 129 167 196 223 272
#     4   9  17  30  46  67  95 126 158 196 242 283
#     4  10  20  32  48  68  92 126 167 204 231 267
#     4  11  21  31  47  73 100 120 152 202 246 281
#     4  10  17  31  51  69  94 131 165 190 231 291
#     4  10  19  31  48  67  94 132 165 196 237 280
#     4   9  17  29  49  70  91 123 162 200 234 277
#
# _framework density 16.210453000000001
#
# number of rings (size 3 to 8) (size 9 to 14) (size 15 to 20)
#    0.000    2.250    2.500    2.625    0.000    2.000 
#    0.000    0.625    0.000    0.000    0.000    0.875 
#    0.000    7.000    0.000    0.000    0.000    0.000 
#
# Total GULP energy -396788.134286 kJ/mol
# GULP energy per Si atom -12399.629196 kJ/mol
# Density = 1.617356 g / cm^3
# Si number density = 16.210453 Si / 1000 Ang^3
#
#
#
# Elastic Constant Matrix: (Units=GPa)
#
#
# Indices 1 2 3 4 5 6 
#
# 1 100.0018 37.8443 63.7772 0.0000 7.2150 0.0000
# 2 37.8443 57.6338 40.4790 0.0000 5.7005 0.0000
# 3 63.7772 40.4790 126.0531 0.0000 2.4875 0.0000
# 4 0.0000 0.0000 0.0000 25.4576 0.0000 0.0810
# 5 7.2150 5.7005 2.4875 0.0000 23.4179 0.0000
# 6 0.0000 0.0000 0.0000 0.0810 0.0000 22.4106
#
#
#
# Elastic Compliance Matrix: (Units=1/GPa)
#
#
# Indices 1 2 3 4 5 6 
#
# 1 0.016595 -0.006132 -0.006369 0.000000 -0.002944 0.000000
# 2 -0.006132 0.025198 -0.004916 0.000000 -0.003722 0.000000
# 3 -0.006369 -0.004916 0.012698 0.000000 0.001810 0.000000
# 4 0.000000 0.000000 0.000000 0.039281 0.000000 -0.000142
# 5 -0.002944 -0.003722 0.001810 0.000000 0.044323 0.000000
# 6 0.000000 0.000000 0.000000 -0.000142 0.000000 0.044622
#
#
# Mechanical properties :
#
#
# Convention : Reuss Voigt Hill
#
# Bulk Modulus (GPa) = 50.87084 63.09885 56.98484
# Shear Modulus (GPa) = 22.31102 23.69644 23.00373
#
# Velocity S-wave (km/s) = 3.71392 3.82750 3.77114
# Velocity P-wave (km/s) = 7.05979 7.65129 7.36148
#
# Compressibility (1/GPa) = 0.01965763
#
# Stress axis : x y z
#
# Youngs Moduli (GPa) = 60.26034 39.68509 78.75042
#
# Poissons Ratio (x) = 0.24336 0.50155
# Poissons Ratio (y) = 0.36954 0.38712
# Poissons Ratio (z) = 0.38379 0.19508
#
# Static dielectric constant tensor:
#      x y z
#    x 3.030080 0.000000 0.124310 
#    y 0.000000 2.892040 0.000000 
#    z 0.124310 0.000000 3.094740 
# 
# 
# High freq. dielectric constant tensor:
#      x y z
#    x 1.607430 0.000000 0.011730 
#    y 0.000000 1.611610 0.000000 
#    z 0.011730 0.000000 1.611880 
# 
# From -- ./inp_files/248486.got.cif
#   From: 2010.06.25/outbox.cif.g09.slc.cpg/sg12_125_cif.got.tgz:248486.got - 2010.06.28 00:19:55.
