data_PCOD8079664
_publ_section_title
;
Structure prediction by ZEFSAII (Michael W. Deem and Ramdas Pophale) SiO2 
 PCOD8079664
Probable space group: C 2/M
;
_chemical_formula_sum "Si O2"
_cell_formula_units_Z 40
_cell_length_a 29.375400
_cell_length_b 9.641805
_cell_length_c 13.593411
_cell_angle_alpha 90.000000
_cell_angle_beta 148.040399
_cell_angle_gamma 90.000000
_cell_volume 2037.932762
_symmetry_space_group_name_H-M "C 2/M"
_symmetry_group_IT_number 12
_symmetry_cell_setting 'monoclinic'
loop_
_space_group_symop_operation_xyz
x,y,z
-x,y,-z
-x,-y,-z
x,-y,z
1/2+x,1/2+y,z
1/2-x,1/2+y,-z
1/2-x,1/2-y,-z
1/2+x,1/2-y,z
loop_
_atom_site_type_symbol
_atom_site_label
_atom_site_fract_x
_atom_site_fract_y
_atom_site_fract_z
Si Si1 0.278661 0.000000 0.405982
Si Si2 0.251523 0.500000 0.873459
Si Si3 0.605934 0.721639 0.880493
Si Si4 0.212572 0.000000 0.705439
Si Si5 0.312388 0.221161 0.773292
Si Si6 0.981419 0.000000 0.582038
Si Si7 0.350526 0.000000 0.124514
Si Si8 0.601725 0.000000 0.202792
O O1 0.292698 0.000000 0.314701
O O2 0.223786 0.135384 0.336790
O O3 0.370371 0.000000 0.630918
O O4 0.309228 0.636428 0.996703
O O5 0.173097 0.500000 0.804612
O O6 0.520406 0.636041 0.703503
O O7 0.612906 0.751852 0.009372
O O8 0.595097 0.862463 0.798748
O O9 0.234290 0.864182 0.680703
O O10 0.116988 0.000000 0.569528
O O11 0.266212 0.000000 0.903431
O O12 0.357199 0.137223 0.768627
O O13 0.000000 0.000000 0.500000
O O14 0.500000 0.000000 0.000000
#
# Coordination Sequence:
#
# PCOD8079664 Si02
#       8
#     4   4   8   4   8   4   4   4
#     4  10  20  36  58  83 110 142 185 228 270 332
#     4   9  17  30  54  82 107 147 190 221 265 328
#     4   9  19  34  54  80 112 145 183 228 267 315
#     4   9  19  35  58  80 111 153 188 219 265 322
#     4   9  20  40  60  80 107 146 188 222 268 334
#     4  11  22  35  52  83 121 152 181 223 271 315
#     4  10  17  33  57  80 108 150 191 223 260 319
#     4  11  23  39  59  84 111 138 174 232 291 330
#
# _framework density 19.627734
#
# number of rings (size 3 to 8) (size 9 to 14) (size 15 to 20)
#    0.000    2.400    0.000    3.600    0.000    4.800 
#    0.000    2.000    0.000    0.000    0.000    0.000 
#    0.000    0.000    0.000    0.000    0.000    0.000 
#
# Total GULP energy -247995.072597 kJ/mol
# GULP energy per Si atom -12399.753630 kJ/mol
# Density = 1.958306 g / cm^3
# Si number density = 19.627734 Si / 1000 Ang^3
#
#
#
# Elastic Constant Matrix: (Units=GPa)
#
#
# Indices 1 2 3 4 5 6 
#
# 1 82.8152 40.6305 47.3366 0.0000 4.0711 0.0000
# 2 40.6305 155.3328 44.2188 0.0000 4.4926 0.0000
# 3 47.3366 44.2188 93.2055 0.0000 10.4411 0.0000
# 4 0.0000 0.0000 0.0000 24.1363 0.0000 2.3454
# 5 4.0711 4.4926 10.4411 0.0000 26.6398 0.0000
# 6 0.0000 0.0000 0.0000 2.3454 0.0000 -8.5662
#
#
#
# Elastic Compliance Matrix: (Units=1/GPa)
#
#
# Indices 1 2 3 4 5 6 
#
# 1 0.017774 -0.002401 -0.007979 0.000000 0.000816 0.000000
# 2 -0.002401 0.007768 -0.002468 0.000000 0.000024 0.000000
# 3 -0.007979 -0.002468 0.016493 0.000000 -0.004829 0.000000
# 4 0.000000 0.000000 0.000000 0.040358 0.000000 0.011050
# 5 0.000816 0.000024 -0.004829 0.000000 0.039302 0.000000
# 6 0.000000 0.000000 0.000000 0.011050 0.000000 -0.113713
#
#
# Mechanical properties :
#
#
# Convention : Reuss Voigt Hill
#
# Bulk Modulus (GPa) = 61.20895 66.19170 63.70032
# Shear Modulus (GPa) = 127.79500 21.71981 74.75740
#
# Velocity S-wave (km/s) = 8.07779 3.33015 6.17821
# Velocity P-wave (km/s) = 10.87445 6.97017 9.13337
#
# Compressibility (1/GPa) = 0.01633748
#
# Stress axis : x y z
#
# Youngs Moduli (GPa) = 56.26238 128.73506 60.63051
#
# Poissons Ratio (x) = 0.30913 0.48377
# Poissons Ratio (y) = 0.13510 0.14966
# Poissons Ratio (z) = 0.44892 0.31778
#
# Static dielectric constant tensor:
#      x y z
#    x 3.307850 0.000000 -0.246760 
#    y 0.000000 3.944490 0.000000 
#    z -0.246760 0.000000 3.400520 
# 
# 
# High freq. dielectric constant tensor:
#      x y z
#    x 1.745580 0.000000 -0.022590 
#    y 0.000000 1.787030 0.000000 
#    z -0.022590 0.000000 1.748060 
# 
# From -- ./inp_files/250286.got.cif
#   From: 2010.06.25/outbox.cif.g09.slc.cpg/sg12_126_cif.got.tgz:250286.got - 2010.06.28 00:19:55.
