data_PCOD8079437
_publ_section_title
;
Structure prediction by ZEFSAII (Michael W. Deem and Ramdas Pophale) SiO2 
 PCOD8079437
Probable space group: C 2/M
;
_chemical_formula_sum "Si O2"
_cell_formula_units_Z 40
_cell_length_a 18.344659
_cell_length_b 26.861456
_cell_length_c 8.006114
_cell_angle_alpha 90.000000
_cell_angle_beta 28.818631
_cell_angle_gamma 90.000000
_cell_volume 1901.703380
_symmetry_space_group_name_H-M "C 2/M"
_symmetry_group_IT_number 12
_symmetry_cell_setting 'monoclinic'
loop_
_space_group_symop_operation_xyz
x,y,z
-x,y,-z
-x,-y,-z
x,-y,z
1/2+x,1/2+y,z
1/2-x,1/2+y,-z
1/2-x,1/2-y,-z
1/2+x,1/2-y,z
loop_
_atom_site_type_symbol
_atom_site_label
_atom_site_fract_x
_atom_site_fract_y
_atom_site_fract_z
Si Si1 0.668703 0.108807 0.502079
Si Si2 0.595243 0.221646 0.651012
Si Si3 0.342942 0.942080 0.157438
Si Si4 0.806555 0.284487 0.032682
Si Si5 0.820435 0.608508 0.884117
O O1 0.671024 0.167873 0.528747
O O2 0.750153 0.080945 0.496388
O O3 0.749262 0.097141 0.160933
O O4 0.498693 0.088125 0.837558
O O5 0.720182 0.264594 0.372083
O O6 0.500000 0.238925 0.000000
O O7 0.486473 0.217747 0.705805
O O8 0.369500 0.000000 0.134280
O O9 0.266974 0.932971 0.127627
O O10 0.750000 0.250000 0.000000
O O11 0.757116 0.339998 0.084846
O O12 0.000000 0.610892 0.500000
#
# Coordination Sequence:
#
# PCOD8079437 Si02
#       5
#     8   8   8   8   8
#     4  10  17  31  49  70 108 141 183 219 279 324
#     4  12  22  36  55  81 111 158 189 233 277 338
#     4  10  19  30  50  75 109 147 185 226 282 345
#     4  12  21  36  56  79 112 155 195 226 283 332
#     4  10  18  33  50  74 110 147 179 229 279 327
#
# _framework density 21.033776
#
# number of rings (size 3 to 8) (size 9 to 14) (size 15 to 20)
#    0.000    1.200    8.000    2.400    0.000    4.400 
#    0.000    0.000    0.000    0.000    0.000    0.000 
#    0.000   12.000    0.000    0.000    0.000    0.000 
#
# Total GULP energy -247800.619095 kJ/mol
# GULP energy per Si atom -12390.030955 kJ/mol
# Density = 2.098590 g / cm^3
# Si number density = 21.033776 Si / 1000 Ang^3
#
#
#
# Elastic Constant Matrix: (Units=GPa)
#
#
# Indices 1 2 3 4 5 6 
#
# 1 82.7494 37.0316 31.8223 0.0000 42.1688 0.0000
# 2 37.0316 114.3396 32.5787 0.0000 28.5534 0.0000
# 3 31.8223 32.5787 40.0512 0.0000 30.3187 0.0000
# 4 0.0000 0.0000 0.0000 17.1969 0.0000 14.9637
# 5 42.1688 28.5534 30.3187 0.0000 43.0685 0.0000
# 6 0.0000 0.0000 0.0000 14.9637 0.0000 25.7894
#
#
#
# Elastic Compliance Matrix: (Units=1/GPa)
#
#
# Indices 1 2 3 4 5 6 
#
# 1 0.024664 -0.002166 -0.001372 0.000000 -0.021746 0.000000
# 2 -0.002166 0.011673 -0.007539 0.000000 -0.000311 0.000000
# 3 -0.001372 -0.007539 0.058639 0.000000 -0.034938 0.000000
# 4 0.000000 0.000000 0.000000 0.117446 0.000000 -0.068146
# 5 -0.021746 -0.000311 -0.034938 0.000000 0.069312 0.000000
# 6 0.000000 0.000000 0.000000 -0.068146 0.000000 0.078316
#
#
# Mechanical properties :
#
#
# Convention : Reuss Voigt Hill
#
# Bulk Modulus (GPa) = 13.73231 48.88947 31.31089
# Shear Modulus (GPa) = 12.30082 26.25814 19.27948
#
# Velocity S-wave (km/s) = 2.42091 3.53707 3.03082
# Velocity P-wave (km/s) = 3.78910 6.32258 5.21211
#
# Compressibility (1/GPa) = 0.07282098
#
# Stress axis : x y z
#
# Youngs Moduli (GPa) = 40.54559 85.66691 17.05364
#
# Poissons Ratio (x) = 0.18559 0.02340
# Poissons Ratio (y) = 0.08784 0.12856
# Poissons Ratio (z) = 0.05564 0.64580
#
# Static dielectric constant tensor:
#      x y z
#    x 5.197560 0.000000 1.050150 
#    y 0.000000 3.878050 0.000000 
#    z 1.050150 0.000000 4.663870 
# 
# 
# High freq. dielectric constant tensor:
#      x y z
#    x 1.833000 0.000000 0.066600 
#    y 0.000000 1.815180 0.000000 
#    z 0.066600 0.000000 1.768820 
# 
# From -- ./inp_files/39180.got.cif
#   From: 2010.06.25/outbox.cif.g09.slc.cpg/sg12_20_cif.got.tgz:39180.got - 2010.06.28 00:19:55.
