data_PCOD8079309
_publ_section_title
;
Structure prediction by ZEFSAII (Michael W. Deem and Ramdas Pophale) SiO2 
 PCOD8079309
Probable space group: C 2/M
;
_chemical_formula_sum "Si O2"
_cell_formula_units_Z 48
_cell_length_a 27.565110
_cell_length_b 8.603614
_cell_length_c 20.984892
_cell_angle_alpha 90.000000
_cell_angle_beta 32.995121
_cell_angle_gamma 90.000000
_cell_volume 2710.186625
_symmetry_space_group_name_H-M "C 2/M"
_symmetry_group_IT_number 12
_symmetry_cell_setting 'monoclinic'
loop_
_space_group_symop_operation_xyz
x,y,z
-x,y,-z
-x,-y,-z
x,-y,z
1/2+x,1/2+y,z
1/2-x,1/2+y,-z
1/2-x,1/2-y,-z
1/2+x,1/2-y,z
loop_
_atom_site_type_symbol
_atom_site_label
_atom_site_fract_x
_atom_site_fract_y
_atom_site_fract_z
Si Si1 0.726158 0.181616 0.129686
Si Si2 0.234465 0.182265 0.254411
Si Si3 0.956034 0.680531 0.729331
Si Si4 0.413683 0.184301 0.910413
Si Si5 0.574210 0.316354 0.967582
Si Si6 0.559421 0.814726 0.494818
O O1 0.702130 0.275413 0.219666
O O2 0.648055 0.217852 0.166290
O O3 0.732895 0.000000 0.139685
O O4 0.818294 0.241410 0.999793
O O5 0.330317 0.258964 0.162611
O O6 0.159170 0.247043 0.384633
O O7 0.244917 0.000000 0.251867
O O8 0.973491 0.500000 0.702587
O O9 0.976675 0.730626 0.780179
O O10 0.017043 0.756413 0.607001
O O11 0.402468 0.000000 0.928089
O O12 0.452430 0.248527 0.933827
O O13 0.575843 0.500000 0.971566
O O14 0.500000 0.257751 0.000000
O O15 0.500000 0.757925 0.500000
O O16 0.564202 0.000000 0.489109
#
# Coordination Sequence:
#
# PCOD8079309 Si02
#       6
#     8   8   8   8   8   8
#     4  10  17  30  48  68  99 140 178 203 238 297
#     4  11  21  32  49  78 108 132 167 215 260 296
#     4   9  18  30  47  71 101 140 176 203 241 294
#     4  10  19  31  48  75 105 129 162 210 261 303
#     4  10  21  38  59  78  96 126 169 212 257 313
#     4  10  18  33  53  70 100 147 184 207 235 289
#
# _framework density 17.710955999999999
#
# number of rings (size 3 to 8) (size 9 to 14) (size 15 to 20)
#    0.000    2.000    1.667    5.500    0.000    1.667 
#    0.000    4.167    0.000    1.000    0.000    0.000 
#    0.000    0.000    0.000    0.000    0.000    0.000 
#
# Total GULP energy -297433.369735 kJ/mol
# GULP energy per Si atom -12393.057072 kJ/mol
# Density = 1.767065 g / cm^3
# Si number density = 17.710956 Si / 1000 Ang^3
#
#
#
# Elastic Constant Matrix: (Units=GPa)
#
#
# Indices 1 2 3 4 5 6 
#
# 1 126.7009 63.8383 85.8786 0.0082 14.6873 0.0010
# 2 63.8383 128.6519 47.7960 0.0300 8.5101 -0.0154
# 3 85.8786 47.7960 129.9729 0.0028 21.2207 -0.0071
# 4 0.0082 0.0300 0.0028 22.0252 -0.0036 0.1737
# 5 14.6873 8.5101 21.2207 -0.0036 19.8685 0.0010
# 6 0.0010 -0.0154 -0.0071 0.1737 0.0010 12.0952
#
#
#
# Elastic Compliance Matrix: (Units=1/GPa)
#
#
# Indices 1 2 3 4 5 6 
#
# 1 0.016508 -0.004791 -0.009070 0.000002 -0.000464 -0.000013
# 2 -0.004791 0.010396 -0.000616 -0.000012 -0.000253 0.000013
# 3 -0.009070 -0.000616 0.015474 0.000001 -0.009558 0.000010
# 4 0.000002 -0.000012 0.000001 0.045408 0.000012 -0.000652
# 5 -0.000464 -0.000253 -0.009558 0.000012 0.060991 -0.000011
# 6 -0.000013 0.000013 0.000010 -0.000652 -0.000011 0.082687
#
#
# Mechanical properties :
#
#
# Convention : Reuss Voigt Hill
#
# Bulk Modulus (GPa) = 74.49434 86.70573 80.60003
# Shear Modulus (GPa) = 18.87559 23.31862 21.09710
#
# Velocity S-wave (km/s) = 3.26814 3.63246 3.45511
# Velocity P-wave (km/s) = 7.50956 8.16427 7.84375
#
# Compressibility (1/GPa) = 0.01342384
#
# Stress axis : x y z
#
# Youngs Moduli (GPa) = 60.57641 96.19170 64.62482
#
# Poissons Ratio (x) = 0.46087 0.58615
# Poissons Ratio (y) = 0.29023 0.03980
# Poissons Ratio (z) = 0.54943 0.05925
#
# Static dielectric constant tensor:
#      x y z
#    x 3.186030 -0.000010 0.103090 
#    y -0.000010 3.216220 0.000020 
#    z 0.103090 0.000020 3.284280 
# 
# 
# High freq. dielectric constant tensor:
#      x y z
#    x 1.657560 0.000000 0.016660 
#    y 0.000000 1.679720 0.000000 
#    z 0.016660 0.000000 1.686440 
# 
# From -- ./inp_files/329012.got.cif
#   From: 2010.06.25/outbox.cif.g09.slc.cpg/sg12_165_cif.got.tgz:329012.got - 2010.06.28 00:19:55.
