data_PCOD8079364
_publ_section_title
;
Structure prediction by ZEFSAII (Michael W. Deem and Ramdas Pophale) SiO2 
 PCOD8079364
Probable space group: C 2/M
;
_chemical_formula_sum "Si O2"
_cell_formula_units_Z 52
_cell_length_a 10.387555
_cell_length_b 29.423055
_cell_length_c 8.696635
_cell_angle_alpha 90.000000
_cell_angle_beta 94.718147
_cell_angle_gamma 90.000000
_cell_volume 2648.976997
_symmetry_space_group_name_H-M "C 2/M"
_symmetry_group_IT_number 12
_symmetry_cell_setting 'monoclinic'
loop_
_space_group_symop_operation_xyz
x,y,z
-x,y,-z
-x,-y,-z
x,-y,z
1/2+x,1/2+y,z
1/2-x,1/2+y,-z
1/2-x,1/2-y,-z
1/2+x,1/2-y,z
loop_
_atom_site_type_symbol
_atom_site_label
_atom_site_fract_x
_atom_site_fract_y
_atom_site_fract_z
Si Si1 0.650622 0.947873 0.991022
Si Si2 0.174696 0.373752 0.740378
Si Si3 0.000000 0.428123 0.500000
Si Si4 0.233511 0.549273 0.335918
Si Si5 0.746692 0.278103 0.654750
Si Si6 0.351663 0.634316 0.497227
Si Si7 0.972132 0.714779 0.313594
O O1 0.701514 0.909435 0.879102
O O2 0.678065 0.000000 0.936464
O O3 0.500000 0.940619 0.000000
O O4 0.724193 0.937593 0.156254
O O5 0.310414 0.359871 0.672762
O O6 0.091305 0.329273 0.776070
O O7 0.100432 0.397302 0.596225
O O8 0.912940 0.456240 0.611425
O O9 0.299597 0.500000 0.359446
O O10 0.325986 0.583883 0.432422
O O11 0.750000 0.250000 0.500000
O O12 0.725906 0.331114 0.619018
O O13 0.626251 0.256295 0.736085
O O14 0.887943 0.274516 0.750839
O O15 0.500000 0.647074 0.500000
O O16 0.000000 0.707428 0.500000
#
# Coordination Sequence:
#
# PCOD8079364 Si02
#       7
#     8   8   4   8   8   8   8
#     4  10  21  36  56  83 114 152 188 227 290 356
#     4  11  19  32  55  83 115 144 191 235 283 337
#     4  10  17  30  54  84 112 134 176 236 287 328
#     4  10  21  36  55  81 114 145 184 232 286 346
#     4  10  18  30  53  82 119 147 184 234 287 346
#     4  11  22  36  56  85 113 148 193 242 288 330
#     4  10  17  30  51  85 116 149 185 237 287 336
#
# _framework density 19.630219
#
# number of rings (size 3 to 8) (size 9 to 14) (size 15 to 20)
#    0.000    1.692    5.385    2.538    0.000    2.769 
#    0.000    0.769    0.000    2.769    0.000    0.000 
#    0.000    0.000    0.000    0.000    0.000    0.000 
#
# Total GULP energy -322152.287218 kJ/mol
# GULP energy per Si atom -12390.472585 kJ/mol
# Density = 1.958554 g / cm^3
# Si number density = 19.630219 Si / 1000 Ang^3
#
#
#
# Elastic Constant Matrix: (Units=GPa)
#
#
# Indices 1 2 3 4 5 6 
#
# 1 131.5175 40.2921 22.0709 0.0000 -5.9809 0.0000
# 2 40.2921 116.1296 31.4490 0.0000 -4.9318 0.0000
# 3 22.0709 31.4490 52.7491 0.0000 -8.7730 0.0000
# 4 0.0000 0.0000 0.0000 15.1762 0.0000 -0.3668
# 5 -5.9809 -4.9318 -8.7730 0.0000 12.0608 0.0000
# 6 0.0000 0.0000 0.0000 -0.3668 0.0000 9.6280
#
#
#
# Elastic Compliance Matrix: (Units=1/GPa)
#
#
# Indices 1 2 3 4 5 6 
#
# 1 0.008758 -0.002446 -0.001877 0.000000 0.001977 0.000000
# 2 -0.002446 0.010953 -0.005647 0.000000 -0.000842 0.000000
# 3 -0.001877 -0.005647 0.025677 0.000000 0.015438 0.000000
# 4 0.000000 0.000000 0.000000 0.065953 0.000000 0.002512
# 5 0.001977 -0.000842 0.015438 0.000000 0.094779 0.000000
# 6 0.000000 0.000000 0.000000 0.002512 0.000000 0.103959
#
#
# Mechanical properties :
#
#
# Convention : Reuss Voigt Hill
#
# Bulk Modulus (GPa) = 39.29566 54.22449 46.76008
# Shear Modulus (GPa) = 14.77091 21.14528 17.95810
#
# Velocity S-wave (km/s) = 2.74607 3.28560 3.02788
# Velocity P-wave (km/s) = 5.48780 6.48664 6.00801
#
# Compressibility (1/GPa) = 0.02544810
#
# Stress axis : x y z
#
# Youngs Moduli (GPa) = 114.18208 91.29666 38.94509
#
# Poissons Ratio (x) = 0.22334 0.07310
# Poissons Ratio (y) = 0.27933 0.21991
# Poissons Ratio (z) = 0.21433 0.51553
#
# Static dielectric constant tensor:
#      x y z
#    x 3.938380 0.000000 -0.164380 
#    y 0.000000 3.845460 0.000000 
#    z -0.164380 0.000000 3.185070 
# 
# 
# High freq. dielectric constant tensor:
#      x y z
#    x 1.754990 0.000000 -0.002920 
#    y 0.000000 1.780550 0.000000 
#    z -0.002920 0.000000 1.710270 
# 
# From -- ./inp_files/53802.got.cif
#   From: 2010.06.25/outbox.cif.g09.slc.cpg/sg12_27_cif.got.tgz:53802.got - 2010.06.28 00:19:55.
