data_PCOD8079811
_publ_section_title
;
Structure prediction by ZEFSAII (Michael W. Deem and Ramdas Pophale) SiO2 
 PCOD8079811
Probable space group: C 2/M
;
_chemical_formula_sum "Si O2"
_cell_formula_units_Z 56
_cell_length_a 24.141664
_cell_length_b 28.045714
_cell_length_c 5.180511
_cell_angle_alpha 90.000000
_cell_angle_beta 92.876521
_cell_angle_gamma 90.000000
_cell_volume 3503.150122
_symmetry_space_group_name_H-M "C 2/M"
_symmetry_group_IT_number 12
_symmetry_cell_setting 'monoclinic'
loop_
_space_group_symop_operation_xyz
x,y,z
-x,y,-z
-x,-y,-z
x,-y,z
1/2+x,1/2+y,z
1/2-x,1/2+y,-z
1/2-x,1/2-y,-z
1/2+x,1/2-y,z
loop_
_atom_site_type_symbol
_atom_site_label
_atom_site_fract_x
_atom_site_fract_y
_atom_site_fract_z
Si Si1 0.971587 0.806290 0.744229
Si Si2 0.352966 0.231639 0.177538
Si Si3 0.020040 0.703162 0.757450
Si Si4 0.210706 0.289906 0.365776
Si Si5 0.683930 0.337641 0.764125
Si Si6 0.964017 0.945941 0.736388
Si Si7 0.128853 0.867863 0.258425
O O1 0.906864 0.818920 0.742662
O O2 0.000000 0.829949 0.500000
O O3 0.979282 0.749558 0.743850
O O4 0.000000 0.830405 0.000000
O O5 0.417064 0.218245 0.195651
O O6 0.327419 0.196820 0.395609
O O7 0.346972 0.286623 0.256551
O O8 0.325503 0.226486 0.888866
O O9 0.000000 0.673936 0.500000
O O10 0.000000 0.672459 0.000000
O O11 0.250000 0.250000 0.500000
O O12 0.249794 0.331902 0.264462
O O13 0.663125 0.371286 0.529584
O O14 0.671483 0.364663 0.029070
O O15 0.909895 0.913878 0.765699
O O16 0.000000 0.928226 0.500000
O O17 0.943690 0.000000 0.684459
O O18 0.000000 0.942028 0.000000
#
# Coordination Sequence:
#
# PCOD8079811 Si02
#       7
#     8   8   8   8   8   8   8
#     4  10  18  26  36  55  77  94 118 157 204 248
#     4  11  19  31  44  57  82 113 134 167 221 264
#     4  10  18  27  38  56  76  98 129 166 204 246
#     4  10  20  32  43  57  79 109 139 167 210 267
#     4  11  20  30  44  62  79 100 137 175 209 254
#     4  10  21  36  50  65  88 116 142 170 219 289
#     4  12  20  30  46  64  82 104 133 178 223 252
#
# _framework density 15.985612
#
# number of rings (size 3 to 8) (size 9 to 14) (size 15 to 20)
#    0.000    1.429    0.000   11.143    0.000    0.000 
#    0.000    0.000    0.000    0.000    0.000    0.000 
#    0.000    0.000    0.000    0.000    0.000    0.000 
#
# Total GULP energy -346901.723609 kJ/mol
# GULP energy per Si atom -12389.347272 kJ/mol
# Density = 1.594923 g / cm^3
# Si number density = 15.985612 Si / 1000 Ang^3
#
#
#
# Elastic Constant Matrix: (Units=GPa)
#
#
# Indices 1 2 3 4 5 6 
#
# 1 74.3227 17.5006 41.5940 0.0000 -7.7215 0.0000
# 2 17.5006 30.1136 10.9101 0.0000 -3.1936 0.0000
# 3 41.5940 10.9101 157.9269 0.0000 -8.2626 0.0000
# 4 0.0000 0.0000 0.0000 21.5529 0.0000 3.2896
# 5 -7.7215 -3.1936 -8.2626 0.0000 36.7310 0.0000
# 6 0.0000 0.0000 0.0000 3.2896 0.0000 18.1262
#
#
#
# Elastic Compliance Matrix: (Units=1/GPa)
#
#
# Indices 1 2 3 4 5 6 
#
# 1 0.017991 -0.008774 -0.004022 0.000000 0.002115 0.000000
# 2 -0.008774 0.038561 -0.000277 0.000000 0.001446 0.000000
# 3 -0.004022 -0.000277 0.007453 0.000000 0.000807 0.000000
# 4 0.000000 0.000000 0.000000 0.047719 0.000000 -0.008660
# 5 0.002115 0.001446 0.000807 0.000000 0.027977 0.000000
# 6 0.000000 0.000000 0.000000 -0.008660 0.000000 0.056741
#
#
# Mechanical properties :
#
#
# Convention : Reuss Voigt Hill
#
# Bulk Modulus (GPa) = 26.41459 44.70806 35.56133
# Shear Modulus (GPa) = 21.25786 28.10592 24.68189
#
# Velocity S-wave (km/s) = 3.65061 4.19764 3.93365
# Velocity P-wave (km/s) = 5.85911 7.17788 6.55176
#
# Compressibility (1/GPa) = 0.03785787
#
# Stress axis : x y z
#
# Youngs Moduli (GPa) = 55.58243 25.93313 134.18096
#
# Poissons Ratio (x) = 0.22755 0.53963
# Poissons Ratio (y) = 0.48770 0.03721
# Poissons Ratio (z) = 0.22353 0.00719
#
# Static dielectric constant tensor:
#      x y z
#    x 3.309370 0.000000 -0.445050 
#    y 0.000000 2.484410 0.000000 
#    z -0.445050 0.000000 4.315690 
# 
# 
# High freq. dielectric constant tensor:
#      x y z
#    x 1.615210 0.000000 -0.010270 
#    y 0.000000 1.518910 0.000000 
#    z -0.010270 0.000000 1.657370 
# 
# From -- ./inp_files/22208.got.cif
#   From: 2010.06.25/outbox.cif.g09.slc.cpg/sg12_12_cif.got.tgz:22208.got - 2010.06.28 00:19:55.
