data_PCOD8079544
_publ_section_title
;
Structure prediction by ZEFSAII (Michael W. Deem and Ramdas Pophale) SiO2 
 PCOD8079544
Probable space group: C 2/M
;
_chemical_formula_sum "Si O2"
_cell_formula_units_Z 56
_cell_length_a 27.215662
_cell_length_b 13.794995
_cell_length_c 24.837479
_cell_angle_alpha 90.000000
_cell_angle_beta 159.890344
_cell_angle_gamma 90.000000
_cell_volume 3206.095946
_symmetry_space_group_name_H-M "C 2/M"
_symmetry_group_IT_number 12
_symmetry_cell_setting 'monoclinic'
loop_
_space_group_symop_operation_xyz
x,y,z
-x,y,-z
-x,-y,-z
x,-y,z
1/2+x,1/2+y,z
1/2-x,1/2+y,-z
1/2-x,1/2-y,-z
1/2+x,1/2-y,z
loop_
_atom_site_type_symbol
_atom_site_label
_atom_site_fract_x
_atom_site_fract_y
_atom_site_fract_z
Si Si1 0.663809 0.393946 0.183512
Si Si2 0.211627 0.115652 0.115854
Si Si3 0.189726 0.336901 0.472121
Si Si4 0.601082 0.306809 0.226767
Si Si5 0.261729 0.110491 0.974612
Si Si6 0.389706 0.204044 0.209440
Si Si7 0.434598 0.103856 0.760547
O O1 0.723950 0.500000 0.262253
O O2 0.741191 0.355898 0.208876
O O3 0.678792 0.321248 0.249156
O O4 0.500000 0.406263 0.000000
O O5 0.343854 0.162005 0.220101
O O6 0.204296 0.000000 0.101583
O O7 0.062925 0.160788 0.941569
O O8 0.250000 0.250000 0.500000
O O9 0.316164 0.371099 0.642602
O O10 0.139591 0.411438 0.374642
O O11 0.057766 0.308226 0.374612
O O12 0.622417 0.192737 0.262408
O O13 0.140440 0.180927 0.826016
O O14 0.204703 0.000000 0.916638
O O15 0.297635 0.143020 0.071980
O O16 0.398312 0.122322 0.076944
O O17 0.411306 0.000000 0.766549
#
# Coordination Sequence:
#
# PCOD8079544 Si02
#       7
#     8   8   8   8   8   8   8
#     4   8  16  30  49  72  97 123 162 209 248 285
#     4  10  19  32  52  76  95 126 169 207 248 288
#     4   9  20  33  47  70 103 134 160 193 242 297
#     4  10  17  32  51  71  96 137 166 199 243 297
#     4   9  17  29  48  70  94 127 162 196 239 284
#     4  10  18  32  49  70 100 126 162 206 238 283
#     4   9  17  30  47  71 102 131 158 197 244 287
#
# _framework density 17.466726999999999
#
# number of rings (size 3 to 8) (size 9 to 14) (size 15 to 20)
#    0.000    2.714    1.429    1.714    2.000    1.714 
#    0.000    3.571    0.000    6.429    0.000    0.000 
#    0.000    5.714    0.000    0.000    0.000    0.000 
#
# Total GULP energy -346897.604421 kJ/mol
# GULP energy per Si atom -12389.200158 kJ/mol
# Density = 1.742697 g / cm^3
# Si number density = 17.466727 Si / 1000 Ang^3
#
#
#
# Elastic Constant Matrix: (Units=GPa)
#
#
# Indices 1 2 3 4 5 6 
#
# 1 129.9861 49.7287 29.1271 0.0026 1.2874 0.0004
# 2 49.7287 108.8328 17.4635 0.0035 -5.2903 0.0012
# 3 29.1271 17.4635 46.1674 0.0109 -2.4246 0.0037
# 4 0.0026 0.0035 0.0109 3.9582 0.0061 -3.1358
# 5 1.2874 -5.2903 -2.4246 0.0061 22.9121 0.0020
# 6 0.0004 0.0012 0.0037 -3.1358 0.0020 21.9957
#
#
#
# Elastic Compliance Matrix: (Units=1/GPa)
#
#
# Indices 1 2 3 4 5 6 
#
# 1 0.010410 -0.004030 -0.005151 0.000017 -0.002061 0.000004
# 2 -0.004030 0.011423 -0.001637 -0.000009 0.002691 -0.000002
# 3 -0.005151 -0.001637 0.025668 -0.000083 0.002628 -0.000016
# 4 0.000017 -0.000009 -0.000083 0.284809 -0.000091 0.040604
# 5 -0.002061 0.002691 0.002628 -0.000091 0.044660 -0.000018
# 6 0.000004 -0.000002 -0.000016 0.040604 -0.000018 0.051252
#
#
# Mechanical properties :
#
#
# Convention : Reuss Voigt Hill
#
# Bulk Modulus (GPa) = 38.66436 53.06942 45.86689
# Shear Modulus (GPa) = 10.90561 22.35100 16.62830
#
# Velocity S-wave (km/s) = 2.50144 3.58108 3.08880
# Velocity P-wave (km/s) = 5.52512 6.89550 6.24800
#
# Compressibility (1/GPa) = 0.02586361
#
# Stress axis : x y z
#
# Youngs Moduli (GPa) = 96.06541 87.54009 38.95968
#
# Poissons Ratio (x) = 0.35279 0.20069
# Poissons Ratio (y) = 0.38714 0.06378
# Poissons Ratio (z) = 0.49486 0.14332
#
# Static dielectric constant tensor:
#      x y z
#    x 3.547290 0.005950 -0.203980 
#    y 0.005950 1.470010 -0.004210 
#    z -0.203980 -0.004210 3.276690 
# 
# 
# High freq. dielectric constant tensor:
#      x y z
#    x 1.668870 0.000000 0.004410 
#    y 0.000000 1.666990 0.000000 
#    z 0.004410 0.000000 1.647600 
# 
# From -- ./inp_files/352075.got.cif
#   From: 2010.06.25/outbox.cif.g09.slc.cpg/sg12_177_cif.got.tgz:352075.got - 2010.06.28 00:19:55.
