data_PCOD8079965
_publ_section_title
;
Structure prediction by ZEFSAII (Michael W. Deem and Ramdas Pophale) SiO2 
 PCOD8079965
Probable space group: C 2/M
;
_chemical_formula_sum "Si O2"
_cell_formula_units_Z 48
_cell_length_a 24.273461
_cell_length_b 9.438370
_cell_length_c 15.250166
_cell_angle_alpha 90.000000
_cell_angle_beta 118.593545
_cell_angle_gamma 90.000000
_cell_volume 3067.722285
_symmetry_space_group_name_H-M "C 2/M"
_symmetry_group_IT_number 12
_symmetry_cell_setting 'monoclinic'
loop_
_space_group_symop_operation_xyz
x,y,z
-x,y,-z
-x,-y,-z
x,-y,z
1/2+x,1/2+y,z
1/2-x,1/2+y,-z
1/2-x,1/2-y,-z
1/2+x,1/2-y,z
loop_
_atom_site_type_symbol
_atom_site_label
_atom_site_fract_x
_atom_site_fract_y
_atom_site_fract_z
Si Si1 0.652080 0.666658 0.760730
Si Si2 0.278662 0.664359 0.819738
Si Si3 0.301629 0.337723 0.646453
Si Si4 0.838166 0.336814 0.519003
Si Si5 0.427384 0.835132 0.431353
Si Si6 0.190030 0.839954 0.972139
O O1 0.653619 0.500000 0.738540
O O2 0.717980 0.736381 0.783004
O O3 0.595243 0.742000 0.667753
O O4 0.639350 0.691729 0.856493
O O5 0.255781 0.500000 0.796970
O O6 0.315646 0.702318 0.758505
O O7 0.328012 0.686846 0.938952
O O8 0.316927 0.500000 0.637753
O O9 0.228646 0.302847 0.575191
O O10 0.345848 0.246931 0.616221
O O11 0.846215 0.500000 0.548761
O O12 0.891195 0.286591 0.491496
O O13 0.500000 0.803636 0.500000
O O14 0.414083 0.000000 0.401192
O O15 0.212441 0.000000 0.977941
O O16 0.250000 0.750000 0.000000
#
# Coordination Sequence:
#
# PCOD8079965 Si02
#       6
#     8   8   8   8   8   8
#     4  10  18  27  41  64  91 114 141 179 222 253
#     4   9  15  27  44  62  88 119 148 170 203 260
#     4   9  16  26  43  64  86 114 141 170 212 256
#     4   9  17  29  42  61  85 110 142 178 215 253
#     4  10  20  34  49  62  81 116 155 182 211 256
#     4   8  15  25  39  60  86 115 141 171 209 255
#
# _framework density 15.646787
#
# number of rings (size 3 to 8) (size 9 to 14) (size 15 to 20)
#    0.000    2.833    1.667    0.500    0.000    2.333 
#    0.000    0.000    0.000    0.000    0.000    1.167 
#    0.000    9.333    0.000    0.000    0.000    0.000 
#
# Total GULP energy -297327.899446 kJ/mol
# GULP energy per Si atom -12388.662477 kJ/mol
# Density = 1.561117 g / cm^3
# Si number density = 15.646787 Si / 1000 Ang^3
#
#
#
# Elastic Constant Matrix: (Units=GPa)
#
#
# Indices 1 2 3 4 5 6 
#
# 1 60.4942 28.6493 52.8544 0.0000 -11.0109 0.0000
# 2 28.6493 61.6281 61.5214 0.0000 -6.6560 0.0000
# 3 52.8544 61.5214 151.5428 0.0000 -26.8024 0.0000
# 4 0.0000 0.0000 0.0000 24.4031 0.0000 -3.9539
# 5 -11.0109 -6.6560 -26.8024 0.0000 21.7957 0.0000
# 6 0.0000 0.0000 0.0000 -3.9539 0.0000 16.7345
#
#
#
# Elastic Compliance Matrix: (Units=1/GPa)
#
#
# Indices 1 2 3 4 5 6 
#
# 1 0.024830 -0.005303 -0.005847 0.000000 0.003734 0.000000
# 2 -0.005303 0.029218 -0.011384 0.000000 -0.007755 0.000000
# 3 -0.005847 -0.011384 0.015491 0.000000 0.012620 0.000000
# 4 0.000000 0.000000 0.000000 0.042610 0.000000 0.010067
# 5 0.003734 -0.007755 0.012620 0.000000 0.060918 0.000000
# 6 0.000000 0.000000 0.000000 0.010067 0.000000 0.062135
#
#
# Mechanical properties :
#
#
# Convention : Reuss Voigt Hill
#
# Bulk Modulus (GPa) = 40.86159 62.19059 51.52609
# Shear Modulus (GPa) = 17.33550 21.29601 19.31576
#
# Velocity S-wave (km/s) = 3.33217 3.69324 3.51734
# Velocity P-wave (km/s) = 6.40126 7.61706 7.03547
#
# Compressibility (1/GPa) = 0.02447286
#
# Stress axis : x y z
#
# Youngs Moduli (GPa) = 40.27378 34.22580 64.55208
#
# Poissons Ratio (x) = 0.18149 0.37743
# Poissons Ratio (y) = 0.21356 0.73483
# Poissons Ratio (z) = 0.23548 0.38961
#
# Static dielectric constant tensor:
#      x y z
#    x 2.474180 0.000000 -0.377660 
#    y 0.000000 3.029730 0.000000 
#    z -0.377660 0.000000 3.580710 
# 
# 
# High freq. dielectric constant tensor:
#      x y z
#    x 1.541690 0.000000 -0.029440 
#    y 0.000000 1.606770 0.000000 
#    z -0.029440 0.000000 1.612830 
# 
# From -- ./inp_files/236840.got.cif
#   From: 2010.06.25/outbox.cif.g09.slc.cpg/sg12_119_cif.got.tgz:236840.got - 2010.06.28 00:19:55.
