data_PCOD8079431
_publ_section_title
;
Structure prediction by ZEFSAII (Michael W. Deem and Ramdas Pophale) SiO2 
 PCOD8079431
Probable space group: C 2/M
;
_chemical_formula_sum "Si O2"
_cell_formula_units_Z 64
_cell_length_a 12.771160
_cell_length_b 21.253691
_cell_length_c 19.094486
_cell_angle_alpha 90.000000
_cell_angle_beta 46.658497
_cell_angle_gamma 90.000000
_cell_volume 3769.396369
_symmetry_space_group_name_H-M "C 2/M"
_symmetry_group_IT_number 12
_symmetry_cell_setting 'monoclinic'
loop_
_space_group_symop_operation_xyz
x,y,z
-x,y,-z
-x,-y,-z
x,-y,z
1/2+x,1/2+y,z
1/2-x,1/2+y,-z
1/2-x,1/2-y,-z
1/2+x,1/2-y,z
loop_
_atom_site_type_symbol
_atom_site_label
_atom_site_fract_x
_atom_site_fract_y
_atom_site_fract_z
Si Si1 0.874749 0.359008 0.106821
Si Si2 0.575776 0.575169 0.243870
Si Si3 0.374098 0.241433 0.614220
Si Si4 0.838904 0.358215 0.278614
Si Si5 0.120322 0.212590 0.892727
Si Si6 0.914356 0.180798 0.251059
Si Si7 0.580147 0.428558 0.398679
Si Si8 0.937245 0.291225 0.738851
O O1 0.734645 0.399898 0.152714
O O2 0.921046 0.364415 0.167051
O O3 0.853038 0.285522 0.101863
O O4 0.000000 0.386476 0.000000
O O5 0.568387 0.500000 0.236488
O O6 0.460116 0.608834 0.245805
O O7 0.537941 0.596801 0.340862
O O8 0.500000 0.247919 0.500000
O O9 0.289820 0.306398 0.667271
O O10 0.251040 0.191072 0.647710
O O11 0.450536 0.218497 0.649938
O O12 0.752345 0.422549 0.332713
O O13 0.950428 0.344911 0.289246
O O14 0.068408 0.198619 0.838172
O O15 0.278501 0.182999 0.832518
O O16 0.000000 0.183810 0.000000
O O17 0.024483 0.225981 0.241074
O O18 0.500000 0.392852 0.500000
O O19 0.532677 0.500000 0.421886
#
# Coordination Sequence:
#
# PCOD8079431 Si02
#       8
#     8   8   8   8   8   8   8   8
#     4  10  18  31  50  75 104 130 160 202 253 297
#     4  10  20  34  53  73 102 135 168 207 242 295
#     4  10  20  31  45  70 101 128 159 203 249 297
#     4  10  18  30  48  71  99 131 159 199 250 302
#     4  10  19  31  50  74 102 130 159 209 252 294
#     4  10  19  33  49  72 100 128 167 202 244 306
#     4   9  18  32  50  73  99 129 168 209 247 294
#     4  10  17  31  45  69  98 126 160 198 244 300
#
# _framework density 16.978846000000001
#
# number of rings (size 3 to 8) (size 9 to 14) (size 15 to 20)
#    0.000    2.125    5.000    1.125    0.000    4.750 
#    0.000    0.000    0.000    3.750    0.000    0.000 
#    0.000    0.000    0.000    0.000    0.000    0.000 
#
# Total GULP energy -396509.387849 kJ/mol
# GULP energy per Si atom -12390.918370 kJ/mol
# Density = 1.694020 g / cm^3
# Si number density = 16.978846 Si / 1000 Ang^3
#
#
#
# Elastic Constant Matrix: (Units=GPa)
#
#
# Indices 1 2 3 4 5 6 
#
# 1 101.3324 27.4375 46.3754 -0.0016 0.3046 0.0020
# 2 27.4375 50.9023 19.1569 -0.0012 1.1491 0.0014
# 3 46.3754 19.1569 150.5228 -0.0020 -0.0085 0.0017
# 4 -0.0016 -0.0012 -0.0020 11.9830 0.0014 -3.5438
# 5 0.3046 1.1491 -0.0085 0.0014 14.0327 -0.0014
# 6 0.0020 0.0014 0.0017 -3.5438 -0.0014 24.0838
#
#
#
# Elastic Compliance Matrix: (Units=1/GPa)
#
#
# Indices 1 2 3 4 5 6 
#
# 1 0.012908 -0.005740 -0.003246 0.000000 0.000188 0.000000
# 2 -0.005740 0.023227 -0.001188 0.000001 -0.001778 -0.000001
# 3 -0.003246 -0.001188 0.007795 0.000001 0.000172 0.000000
# 4 0.000000 0.000001 0.000001 0.087248 -0.000007 0.012838
# 5 0.000188 -0.001778 0.000172 -0.000007 0.071404 0.000003
# 6 0.000000 -0.000001 0.000000 0.012838 0.000003 0.043411
#
#
# Mechanical properties :
#
#
# Convention : Reuss Voigt Hill
#
# Bulk Modulus (GPa) = 42.40662 54.29968 48.35315
# Shear Modulus (GPa) = 18.23483 24.00573 21.12028
#
# Velocity S-wave (km/s) = 3.28071 3.76421 3.53075
# Velocity P-wave (km/s) = 6.27544 7.13741 6.72026
#
# Compressibility (1/GPa) = 0.02358122
#
# Stress axis : x y z
#
# Youngs Moduli (GPa) = 77.47199 43.05394 128.28996
#
# Poissons Ratio (x) = 0.24714 0.41647
# Poissons Ratio (y) = 0.44470 0.15236
# Poissons Ratio (z) = 0.25150 0.05113
#
# Static dielectric constant tensor:
#      x y z
#    x 3.191480 0.000000 -0.071060 
#    y 0.000000 2.995910 0.000000 
#    z -0.071060 0.000000 3.549500 
# 
# 
# High freq. dielectric constant tensor:
#      x y z
#    x 1.648650 0.000000 0.001170 
#    y 0.000000 1.619510 0.000000 
#    z 0.001170 0.000000 1.664040 
# 
# From -- ./inp_files/265516.got.cif
#   From: 2010.06.25/outbox.cif.g09.slc.cpg/sg12_133_cif.got.tgz:265516.got - 2010.06.28 00:19:55.
