data_PCOD8079762
_publ_section_title
;
Structure prediction by ZEFSAII (Michael W. Deem and Ramdas Pophale) SiO2 
 PCOD8079762
Probable space group: C 2/M
;
_chemical_formula_sum "Si O2"
_cell_formula_units_Z 48
_cell_length_a 18.594145
_cell_length_b 17.961457
_cell_length_c 23.652544
_cell_angle_alpha 90.000000
_cell_angle_beta 19.685110
_cell_angle_gamma 90.000000
_cell_volume 2660.926829
_symmetry_space_group_name_H-M "C 2/M"
_symmetry_group_IT_number 12
_symmetry_cell_setting 'monoclinic'
loop_
_space_group_symop_operation_xyz
x,y,z
-x,y,-z
-x,-y,-z
x,-y,z
1/2+x,1/2+y,z
1/2-x,1/2+y,-z
1/2-x,1/2-y,-z
1/2+x,1/2-y,z
loop_
_atom_site_type_symbol
_atom_site_label
_atom_site_fract_x
_atom_site_fract_y
_atom_site_fract_z
Si Si1 0.354138 0.813840 0.162508
Si Si2 0.437695 0.313087 0.315960
Si Si3 0.841754 0.416613 0.269167
Si Si4 0.618165 0.303562 0.518478
Si Si5 0.181385 0.223135 0.988287
Si Si6 0.668496 0.583907 0.059549
O O1 0.319592 0.892022 0.220221
O O2 0.124917 0.781475 0.315219
O O3 0.500000 0.827041 0.000000
O O4 0.461970 0.757049 0.127291
O O5 0.356529 0.339715 0.437465
O O6 0.252963 0.273069 0.416119
O O7 0.621182 0.251290 0.195654
O O8 0.523640 0.383631 0.217547
O O9 0.751598 0.500000 0.341963
O O10 0.704135 0.363353 0.410726
O O11 0.088769 0.413211 0.101256
O O12 0.250000 0.250000 0.000000
O O13 0.147926 0.133838 0.017590
O O14 0.593115 0.500000 0.101861
#
# Coordination Sequence:
#
# PCOD8079762 Si02
#       6
#     8   8   8   8   8   8
#     4  12  22  37  58  84 109 149 191 230 279 328
#     4  10  19  37  58  82 111 144 193 236 268 327
#     4  11  22  35  52  80 119 153 182 222 275 336
#     4  11  22  34  57  85 113 146 187 236 277 317
#     4  10  17  36  59  80 104 141 188 233 258 326
#     4  10  19  35  59  81 110 151 185 221 281 336
#
# _framework density 18.038827999999999
#
# number of rings (size 3 to 8) (size 9 to 14) (size 15 to 20)
#    0.000    1.333    6.667    1.500    0.000    2.333 
#    0.000    0.000    0.000    2.500    0.000    0.000 
#    0.000    0.000    0.000    0.000    0.000    0.000 
#
# Total GULP energy -297466.053628 kJ/mol
# GULP energy per Si atom -12394.418901 kJ/mol
# Density = 1.799777 g / cm^3
# Si number density = 18.038828 Si / 1000 Ang^3
#
#
#
# Elastic Constant Matrix: (Units=GPa)
#
#
# Indices 1 2 3 4 5 6 
#
# 1 88.5545 50.6892 40.3210 -0.0217 0.6856 0.0047
# 2 50.6892 120.8363 47.9092 -0.0768 4.6221 0.0065
# 3 40.3210 47.9092 109.2574 -0.1376 -6.6064 0.0513
# 4 -0.0217 -0.0768 -0.1376 22.3541 0.0270 -1.3532
# 5 0.6856 4.6221 -6.6064 0.0270 38.1127 -0.0029
# 6 0.0047 0.0065 0.0513 -1.3532 -0.0029 18.5905
#
#
#
# Elastic Compliance Matrix: (Units=1/GPa)
#
#
# Indices 1 2 3 4 5 6 
#
# 1 0.015937 -0.005249 -0.003596 -0.000024 -0.000273 0.000006
# 2 -0.005249 0.011899 -0.003398 0.000018 -0.001938 0.000007
# 3 -0.003596 -0.003398 0.012126 0.000055 0.002579 -0.000027
# 4 -0.000024 0.000018 0.000055 0.044933 -0.000024 0.003270
# 5 -0.000273 -0.001938 0.002579 -0.000024 0.026925 -0.000004
# 6 0.000006 0.000007 -0.000027 0.003270 -0.000004 0.054029
#
#
# Mechanical properties :
#
#
# Convention : Reuss Voigt Hill
#
# Bulk Modulus (GPa) = 64.61844 66.27633 65.44738
# Shear Modulus (GPa) = 25.57651 27.79337 26.68494
#
# Velocity S-wave (km/s) = 3.76953 3.92950 3.85035
# Velocity P-wave (km/s) = 7.40577 7.57685 7.49180
#
# Compressibility (1/GPa) = 0.01547546
#
# Stress axis : x y z
#
# Youngs Moduli (GPa) = 62.74882 84.04275 82.46920
#
# Poissons Ratio (x) = 0.44113 0.29658
# Poissons Ratio (y) = 0.32936 0.28020
# Poissons Ratio (z) = 0.22566 0.28555
#
# Static dielectric constant tensor:
#      x y z
#    x 3.390240 0.000020 0.104420 
#    y 0.000020 3.678320 0.000460 
#    z 0.104420 0.000460 3.621150 
# 
# 
# High freq. dielectric constant tensor:
#      x y z
#    x 1.689710 0.000000 0.008180 
#    y 0.000000 1.674010 0.000040 
#    z 0.008180 0.000040 1.714830 
# 
# From -- ./inp_files/75110.got.cif
#   From: 2010.06.25/outbox.cif.g09.slc.cpg/sg12_38_cif.got.tgz:75110.got - 2010.06.28 00:19:55.
