data_PCOD8079223
_publ_section_title
;
Structure prediction by ZEFSAII (Michael W. Deem and Ramdas Pophale) SiO2 
 PCOD8079223
Probable space group: C 2/M
;
_chemical_formula_sum "Si O2"
_cell_formula_units_Z 64
_cell_length_a 27.555994
_cell_length_b 17.337780
_cell_length_c 19.101226
_cell_angle_alpha 90.000000
_cell_angle_beta 158.068156
_cell_angle_gamma 90.000000
_cell_volume 3408.516277
_symmetry_space_group_name_H-M "C 2/M"
_symmetry_group_IT_number 12
_symmetry_cell_setting 'monoclinic'
loop_
_space_group_symop_operation_xyz
x,y,z
-x,y,-z
-x,-y,-z
x,-y,z
1/2+x,1/2+y,z
1/2-x,1/2+y,-z
1/2-x,1/2-y,-z
1/2+x,1/2-y,z
loop_
_atom_site_type_symbol
_atom_site_label
_atom_site_fract_x
_atom_site_fract_y
_atom_site_fract_z
Si Si1 0.356170 0.286752 0.287920
Si Si2 0.160742 0.911768 0.622317
Si Si3 0.645529 0.841144 0.215463
Si Si4 0.598863 0.702885 0.951723
Si Si5 0.861786 0.687747 0.646199
Si Si6 0.186820 0.687890 0.569259
Si Si7 0.107670 0.090103 0.084976
Si Si8 0.464176 0.302288 0.291623
O O1 0.500000 0.255430 0.500000
O O2 0.331103 0.368373 0.292392
O O3 0.346753 0.296022 0.190822
O O4 0.246336 0.227899 0.167095
O O5 0.292905 0.903760 0.754187
O O6 0.046855 0.877432 0.422220
O O7 0.133018 0.000000 0.602378
O O8 0.653587 0.869678 0.307852
O O9 0.713244 0.758406 0.301075
O O10 0.500000 0.826537 0.000000
O O11 0.502820 0.772633 0.840855
O O12 0.588817 0.681590 0.856566
O O13 0.563795 0.630090 0.953575
O O14 0.750000 0.750000 0.500000
O O15 0.843907 0.646991 0.547006
O O16 0.250535 0.622178 0.702580
O O17 0.051612 0.724405 0.416147
O O18 0.121408 0.000000 0.088597
O O19 0.000000 0.107521 0.000000
#
# Coordination Sequence:
#
# PCOD8079223 Si02
#       8
#     8   8   8   8   8   8   8   8
#     4  10  20  35  57  82 102 134 177 219 266 307
#     4  10  21  34  49  76 111 141 171 209 259 318
#     4  10  17  29  50  75 101 137 178 216 259 305
#     4  11  20  35  57  81 107 132 175 226 262 306
#     4   9  17  29  52  78 101 134 174 216 258 299
#     4   9  17  33  51  72 101 134 179 220 255 305
#     4  11  22  33  49  76 110 144 173 209 260 315
#     4   9  20  35  57  80  98 131 174 223 267 301
#
# _framework density 18.776498
#
# number of rings (size 3 to 8) (size 9 to 14) (size 15 to 20)
#    0.000    2.125    0.000    6.750    0.000    3.000 
#    0.000    1.875    0.000    7.875    0.000    3.500 
#    0.000    0.000    0.000    0.000    0.000    0.000 
#
# Total GULP energy -396572.984141 kJ/mol
# GULP energy per Si atom -12392.905754 kJ/mol
# Density = 1.873376 g / cm^3
# Si number density = 18.776498 Si / 1000 Ang^3
#
#
#
# Elastic Constant Matrix: (Units=GPa)
#
#
# Indices 1 2 3 4 5 6 
#
# 1 128.1605 38.5437 36.2057 -0.0001 -7.8481 0.0000
# 2 38.5437 73.7551 25.3080 0.0000 -4.0641 0.0000
# 3 36.2057 25.3080 72.1611 -0.0001 0.2989 -0.0001
# 4 -0.0001 0.0000 -0.0001 13.3541 0.0000 -1.5264
# 5 -7.8481 -4.0641 0.2989 0.0000 31.3148 0.0000
# 6 0.0000 0.0000 -0.0001 -1.5264 0.0000 17.1166
#
#
#
# Elastic Compliance Matrix: (Units=1/GPa)
#
#
# Indices 1 2 3 4 5 6 
#
# 1 0.010162 -0.003915 -0.003734 0.000000 0.002074 0.000000
# 2 -0.003915 0.017055 -0.004022 0.000000 0.001271 0.000000
# 3 -0.003734 -0.004022 0.017149 0.000000 -0.001622 0.000000
# 4 0.000000 0.000000 0.000000 0.075655 0.000000 0.006746
# 5 0.002074 0.001271 -0.001622 0.000000 0.032634 0.000000
# 6 0.000000 0.000000 0.000000 0.006746 0.000000 0.059025
#
#
# Mechanical properties :
#
#
# Convention : Reuss Voigt Hill
#
# Bulk Modulus (GPa) = 47.56799 52.68796 50.12798
# Shear Modulus (GPa) = 20.65868 23.95838 22.30853
#
# Velocity S-wave (km/s) = 3.32059 3.57596 3.45064
# Velocity P-wave (km/s) = 6.33171 6.72097 6.52924
#
# Compressibility (1/GPa) = 0.02102254
#
# Stress axis : x y z
#
# Youngs Moduli (GPa) = 98.40509 58.63553 58.31296
#
# Poissons Ratio (x) = 0.22956 0.21775
# Poissons Ratio (y) = 0.38525 0.23455
# Poissons Ratio (z) = 0.36747 0.23585
#
# Static dielectric constant tensor:
#      x y z
#    x 3.895620 0.000000 -0.046010 
#    y 0.000000 2.961190 0.000000 
#    z -0.046010 0.000000 3.557260 
# 
# 
# High freq. dielectric constant tensor:
#      x y z
#    x 1.756000 0.000000 -0.005630 
#    y 0.000000 1.669670 0.000000 
#    z -0.005630 0.000000 1.731080 
# 
# From -- ./inp_files/330396.got.cif
#   From: 2010.06.25/outbox.cif.g09.slc.cpg/sg12_166_cif.got.tgz:330396.got - 2010.06.28 00:19:55.
