data_PCOD8079086
_publ_section_title
;
Structure prediction by ZEFSAII (Michael W. Deem and Ramdas Pophale) SiO2 
 PCOD8079086
Probable space group: C 2/M
;
_chemical_formula_sum "Si O2"
_cell_formula_units_Z 56
_cell_length_a 11.286227
_cell_length_b 17.465257
_cell_length_c 14.804263
_cell_angle_alpha 90.000000
_cell_angle_beta 91.278102
_cell_angle_gamma 90.000000
_cell_volume 2917.443745
_symmetry_space_group_name_H-M "C 2/M"
_symmetry_group_IT_number 12
_symmetry_cell_setting 'monoclinic'
loop_
_space_group_symop_operation_xyz
x,y,z
-x,y,-z
-x,-y,-z
x,-y,z
1/2+x,1/2+y,z
1/2-x,1/2+y,-z
1/2-x,1/2-y,-z
1/2+x,1/2-y,z
loop_
_atom_site_type_symbol
_atom_site_label
_atom_site_fract_x
_atom_site_fract_y
_atom_site_fract_z
Si Si1 0.108108 0.412680 0.317271
Si Si2 0.974506 0.837553 0.094724
Si Si3 0.259347 0.164695 0.836664
Si Si4 0.723601 0.666885 0.185535
Si Si5 0.382729 0.173325 0.027582
Si Si6 0.841503 0.585968 0.344073
Si Si7 0.362703 0.192487 0.512157
O O1 0.143036 0.500000 0.345705
O O2 0.163484 0.392919 0.220968
O O3 0.149301 0.350881 0.392309
O O4 0.968432 0.406802 0.298403
O O5 0.867339 0.876680 0.148693
O O6 0.932353 0.751599 0.071233
O O7 0.085977 0.839215 0.161502
O O8 0.000000 0.880880 0.000000
O O9 0.244191 0.246075 0.786100
O O10 0.309264 0.188469 0.935779
O O11 0.801192 0.633949 0.102385
O O12 0.743258 0.616773 0.274169
O O13 0.500000 0.123919 0.000000
O O14 0.807949 0.500000 0.367867
O O15 0.841534 0.628958 0.437739
O O16 0.500000 0.226170 0.500000
O O17 0.250000 0.250000 0.500000
#
# Coordination Sequence:
#
# PCOD8079086 Si02
#       7
#     8   8   8   8   8   8   8
#     4  10  22  40  61  86 119 156 192 233 291 353
#     4  10  17  31  50  80 111 153 198 242 297 334
#     4  11  19  31  55  85 113 150 199 250 284 339
#     4  11  19  32  54  83 116 148 199 247 286 341
#     4  10  17  28  49  80 111 144 194 251 291 325
#     4  10  22  39  61  87 118 155 193 234 291 350
#     4  10  21  43  70  96 120 147 191 246 294 350
#
# _framework density 19.194886
#
# number of rings (size 3 to 8) (size 9 to 14) (size 15 to 20)
#    0.000    1.714    4.286    3.000    2.000    1.714 
#    2.571    1.429    0.000    4.286    0.000    0.000 
#    0.000    0.000    0.000    0.000    0.000    0.000 
#
# Total GULP energy -346905.191728 kJ/mol
# GULP energy per Si atom -12389.471133 kJ/mol
# Density = 1.915120 g / cm^3
# Si number density = 19.194886 Si / 1000 Ang^3
#
#
#
# Elastic Constant Matrix: (Units=GPa)
#
#
# Indices 1 2 3 4 5 6 
#
# 1 122.9872 28.3932 31.2544 0.0000 11.5099 0.0000
# 2 28.3932 62.6772 18.7769 0.0000 9.0353 0.0000
# 3 31.2544 18.7769 77.3518 0.0000 14.8337 0.0000
# 4 0.0000 0.0000 0.0000 4.8184 0.0000 -8.6952
# 5 11.5099 9.0353 14.8337 0.0000 30.6961 0.0000
# 6 0.0000 0.0000 0.0000 -8.6952 0.0000 13.7441
#
#
#
# Elastic Compliance Matrix: (Units=1/GPa)
#
#
# Indices 1 2 3 4 5 6 
#
# 1 0.009761 -0.003375 -0.002880 0.000000 -0.001275 0.000000
# 2 -0.003375 0.018693 -0.002603 0.000000 -0.002979 0.000000
# 3 -0.002880 -0.002603 0.015837 0.000000 -0.005807 0.000000
# 4 0.000000 0.000000 0.000000 -1.465119 0.000000 -0.926903
# 5 -0.001275 -0.002979 -0.005807 0.000000 0.036739 0.000000
# 6 0.000000 0.000000 0.000000 -0.926903 0.000000 -0.513644
#
#
# Mechanical properties :
#
#
# Convention : Reuss Voigt Hill
#
# Bulk Modulus (GPa) = 37.62934 46.65169 42.14051
# Shear Modulus (GPa) = -2.67214 22.15784 9.74285
#
# Velocity S-wave (km/s) = -1.18116 3.40128 2.25539
# Velocity P-wave (km/s) = 4.21737 6.30729 5.36508
#
# Compressibility (1/GPa) = 0.02657501
#
# Stress axis : x y z
#
# Youngs Moduli (GPa) = 102.44384 53.49620 63.14264
#
# Poissons Ratio (x) = 0.18057 0.18187
# Poissons Ratio (y) = 0.34578 0.16433
# Poissons Ratio (z) = 0.29507 0.13923
#
# Static dielectric constant tensor:
#      x y z
#    x 4.209610 0.000000 -0.260220 
#    y 0.000000 3.143300 0.000000 
#    z -0.260220 0.000000 3.620910 
# 
# 
# High freq. dielectric constant tensor:
#      x y z
#    x 1.762560 0.000000 -0.005040 
#    y 0.000000 1.696140 0.000000 
#    z -0.005040 0.000000 1.751540 
# 
# From -- ./inp_files/204990.got.cif
#   From: 2010.06.25/outbox.cif.g09.slc.cpg/sg12_103_cif.got.tgz:204990.got - 2010.06.28 00:19:55.
