data_PCOD8079458
_publ_section_title
;
Structure prediction by ZEFSAII (Michael W. Deem and Ramdas Pophale) SiO2 
 PCOD8079458
Probable space group: C 2/M
;
_chemical_formula_sum "Si O2"
_cell_formula_units_Z 56
_cell_length_a 19.320640
_cell_length_b 8.457584
_cell_length_c 18.063904
_cell_angle_alpha 90.000000
_cell_angle_beta 81.671570
_cell_angle_gamma 90.000000
_cell_volume 2920.620102
_symmetry_space_group_name_H-M "C 2/M"
_symmetry_group_IT_number 12
_symmetry_cell_setting 'monoclinic'
loop_
_space_group_symop_operation_xyz
x,y,z
-x,y,-z
-x,-y,-z
x,-y,z
1/2+x,1/2+y,z
1/2-x,1/2+y,-z
1/2-x,1/2-y,-z
1/2+x,1/2-y,z
loop_
_atom_site_type_symbol
_atom_site_label
_atom_site_fract_x
_atom_site_fract_y
_atom_site_fract_z
Si Si1 0.531577 0.181935 0.598985
Si Si2 0.766569 0.685211 0.917303
Si Si3 0.956281 0.183035 0.245252
Si Si4 0.192200 0.813313 0.312932
Si Si5 0.678526 0.814580 0.797215
Si Si6 0.109996 0.186033 0.184453
Si Si7 0.101289 0.815907 0.455913
O O1 0.555113 0.216999 0.678574
O O2 0.596280 0.218648 0.533192
O O3 0.467182 0.291729 0.584631
O O4 0.509952 0.000000 0.594422
O O5 0.752504 0.500000 0.915405
O O6 0.715300 0.773186 0.868362
O O7 0.847655 0.723794 0.886497
O O8 0.750000 0.750000 0.000000
O O9 0.893714 0.220254 0.198583
O O10 0.028174 0.229890 0.192657
O O11 0.957626 0.000000 0.266856
O O12 0.270951 0.762260 0.279166
O O13 0.138592 0.750343 0.258820
O O14 0.168027 0.751928 0.397747
O O15 0.185567 0.000000 0.314157
O O16 0.662980 0.000000 0.797244
O O17 0.123469 0.000000 0.172491
O O18 0.108530 0.000000 0.473799
#
# Coordination Sequence:
#
# PCOD8079458 Si02
#       7
#     8   8   8   8   8   8   8
#     4  11  21  31  46  76 111 144 182 236 288 327
#     4  11  22  39  63  90 116 146 182 220 266 323
#     4  11  21  37  57  81 112 150 189 227 277 336
#     4   8  15  31  54  77 103 141 184 228 276 326
#     4  10  21  38  58  84 116 147 180 227 279 328
#     4   9  18  35  58  83 111 144 184 229 273 323
#     4  10  17  31  52  75 102 143 191 234 281 334
#
# _framework density 19.174009999999999
#
# number of rings (size 3 to 8) (size 9 to 14) (size 15 to 20)
#    0.000    2.000    1.429    5.571    0.000    1.143 
#    0.000    3.571    0.000    4.286    0.000    0.000 
#    0.000    0.000    0.000    0.000    0.000    0.000 
#
# Total GULP energy -347156.770988 kJ/mol
# GULP energy per Si atom -12398.456107 kJ/mol
# Density = 1.913037 g / cm^3
# Si number density = 19.174010 Si / 1000 Ang^3
#
#
#
# Elastic Constant Matrix: (Units=GPa)
#
#
# Indices 1 2 3 4 5 6 
#
# 1 110.7893 21.4060 45.2246 0.0000 -15.6678 0.0000
# 2 21.4060 60.3286 20.8749 0.0000 -8.4378 0.0000
# 3 45.2246 20.8749 118.1496 0.0000 -22.7444 0.0000
# 4 0.0000 0.0000 0.0000 27.3754 0.0000 -0.0763
# 5 -15.6678 -8.4378 -22.7444 0.0000 24.3310 0.0000
# 6 0.0000 0.0000 0.0000 -0.0763 0.0000 25.0783
#
#
#
# Elastic Compliance Matrix: (Units=1/GPa)
#
#
# Indices 1 2 3 4 5 6 
#
# 1 0.011297 -0.002410 -0.003242 0.000000 0.003408 0.000000
# 2 -0.002410 0.018480 -0.001717 0.000000 0.003252 0.000000
# 3 -0.003242 -0.001717 0.011575 0.000000 0.008137 0.000000
# 4 0.000000 0.000000 0.000000 0.036529 0.000000 0.000111
# 5 0.003408 0.003252 0.008137 0.000000 0.052028 0.000000
# 6 0.000000 0.000000 0.000000 0.000111 0.000000 0.039876
#
#
# Mechanical properties :
#
#
# Convention : Reuss Voigt Hill
#
# Bulk Modulus (GPa) = 37.57438 51.58650 44.58044
# Shear Modulus (GPa) = 25.85395 28.80774 27.33085
#
# Velocity S-wave (km/s) = 3.67602 3.88033 3.77956
# Velocity P-wave (km/s) = 6.13649 6.85848 6.50751
#
# Compressibility (1/GPa) = 0.02661388
#
# Stress axis : x y z
#
# Youngs Moduli (GPa) = 88.51653 54.11319 86.39621
#
# Poissons Ratio (x) = 0.13041 0.28014
# Poissons Ratio (y) = 0.21332 0.14830
# Poissons Ratio (z) = 0.28701 0.09289
#
# Static dielectric constant tensor:
#      x y z
#    x 3.421870 0.000000 -0.356360 
#    y 0.000000 3.370360 0.000000 
#    z -0.356360 0.000000 3.598100 
# 
# 
# High freq. dielectric constant tensor:
#      x y z
#    x 1.727740 0.000000 -0.022090 
#    y 0.000000 1.740570 0.000000 
#    z -0.022090 0.000000 1.738260 
# 
# From -- ./inp_files/280167.got.cif
#   From: 2010.06.25/outbox.cif.g09.slc.cpg/sg12_141_cif.got.tgz:280167.got - 2010.06.28 00:19:55.
