data_PCOD8079583
_publ_section_title
;
Structure prediction by ZEFSAII (Michael W. Deem and Ramdas Pophale) SiO2 
 PCOD8079583
Probable space group: C 2/M
;
_chemical_formula_sum "Si O2"
_cell_formula_units_Z 56
_cell_length_a 21.374001
_cell_length_b 16.973680
_cell_length_c 11.064867
_cell_angle_alpha 90.000000
_cell_angle_beta 49.683255
_cell_angle_gamma 90.000000
_cell_volume 3060.807903
_symmetry_space_group_name_H-M "C 2/M"
_symmetry_group_IT_number 12
_symmetry_cell_setting 'monoclinic'
loop_
_space_group_symop_operation_xyz
x,y,z
-x,y,-z
-x,-y,-z
x,-y,z
1/2+x,1/2+y,z
1/2-x,1/2+y,-z
1/2-x,1/2-y,-z
1/2+x,1/2-y,z
loop_
_atom_site_type_symbol
_atom_site_label
_atom_site_fract_x
_atom_site_fract_y
_atom_site_fract_z
Si Si1 0.265645 0.306717 0.233680
Si Si2 0.604971 0.762640 0.105013
Si Si3 0.420706 0.909450 0.017421
Si Si4 0.410740 0.791009 0.604322
Si Si5 0.431210 0.715945 0.330330
Si Si6 0.314264 0.829703 0.337959
Si Si7 0.324425 0.591155 0.348987
O O1 0.173057 0.338796 0.322831
O O2 0.258336 0.239869 0.348931
O O3 0.321576 0.378261 0.213775
O O4 0.312701 0.271202 0.059142
O O5 0.613570 0.753016 0.237680
O O6 0.524951 0.713135 0.166269
O O7 0.585671 0.853671 0.092624
O O8 0.343853 0.887909 0.196513
O O9 0.416582 0.000000 0.978636
O O10 0.500000 0.893232 0.000000
O O11 0.500000 0.837805 0.500000
O O12 0.425545 0.724929 0.482999
O O13 0.388687 0.790005 0.317393
O O14 0.394739 0.632150 0.339381
O O15 0.264098 0.886039 0.488356
O O16 0.342694 0.500000 0.329544
#
# Coordination Sequence:
#
# PCOD8079583 Si02
#       7
#     8   8   8   8   8   8   8
#     4  10  19  35  55  82 104 140 180 226 262 318
#     4  10  21  33  58  78 109 143 187 214 267 317
#     4  10  19  31  50  79 112 138 170 220 273 319
#     4  10  19  34  58  79 104 143 189 221 253 312
#     4  10  18  36  55  82 105 140 184 223 255 326
#     4  10  17  32  56  76 106 136 179 223 267 314
#     4  11  21  33  56  82 110 139 175 230 279 315
#
# _framework density 18.295822999999999
#
# number of rings (size 3 to 8) (size 9 to 14) (size 15 to 20)
#    0.000    1.857    4.286    1.714    0.000    0.000 
#    0.000    2.143    0.000    6.429    0.000    0.000 
#    0.000    0.000    0.000    0.000    0.000    0.000 
#
# Total GULP energy -346891.342570 kJ/mol
# GULP energy per Si atom -12388.976520 kJ/mol
# Density = 1.825418 g / cm^3
# Si number density = 18.295823 Si / 1000 Ang^3
#
#
#
# Elastic Constant Matrix: (Units=GPa)
#
#
# Indices 1 2 3 4 5 6 
#
# 1 94.1996 30.0336 37.6402 0.0000 -4.1761 0.0000
# 2 30.0336 98.8579 27.6138 0.0000 0.4572 0.0000
# 3 37.6402 27.6138 77.2963 0.0000 3.8349 0.0000
# 4 0.0000 0.0000 0.0000 11.4760 0.0000 -4.8150
# 5 -4.1761 0.4572 3.8349 0.0000 31.0401 0.0000
# 6 0.0000 0.0000 0.0000 -4.8150 0.0000 8.4881
#
#
#
# Elastic Compliance Matrix: (Units=1/GPa)
#
#
# Indices 1 2 3 4 5 6 
#
# 1 0.013955 -0.002574 -0.006008 0.000000 0.002658 0.000000
# 2 -0.002574 0.011715 -0.002924 0.000000 -0.000158 0.000000
# 3 -0.006008 -0.002924 0.017050 0.000000 -0.002872 0.000000
# 4 0.000000 0.000000 0.000000 0.114356 0.000000 0.064870
# 5 0.002658 -0.000158 -0.002872 0.000000 0.032931 0.000000
# 6 0.000000 0.000000 0.000000 0.064870 0.000000 0.154610
#
#
# Mechanical properties :
#
#
# Convention : Reuss Voigt Hill
#
# Bulk Modulus (GPa) = 50.73952 51.21434 50.97693
# Shear Modulus (GPa) = 13.36196 21.87193 17.61695
#
# Velocity S-wave (km/s) = 2.70539 3.46129 3.10642
# Velocity P-wave (km/s) = 6.12796 6.63530 6.38667
#
# Compressibility (1/GPa) = 0.01970850
#
# Stress axis : x y z
#
# Youngs Moduli (GPa) = 71.66032 85.36136 58.65150
#
# Poissons Ratio (x) = 0.21969 0.35237
# Poissons Ratio (y) = 0.18443 0.17150
# Poissons Ratio (z) = 0.43052 0.24960
#
# Static dielectric constant tensor:
#      x y z
#    x 3.578240 0.000000 -0.034820 
#    y 0.000000 2.977400 0.000000 
#    z -0.034820 0.000000 3.531430 
# 
# 
# High freq. dielectric constant tensor:
#      x y z
#    x 1.716350 0.000000 -0.004590 
#    y 0.000000 1.654460 0.000000 
#    z -0.004590 0.000000 1.726560 
# 
# From -- ./inp_files/157981.got.cif
#   From: 2010.06.25/outbox.cif.g09.slc.cpg/sg12_79_cif.got.tgz:157981.got - 2010.06.28 00:19:55.
