data_PCOD8079609
_publ_section_title
;
Structure prediction by ZEFSAII (Michael W. Deem and Ramdas Pophale) SiO2 
 PCOD8079609
Probable space group: C 2/M
;
_chemical_formula_sum "Si O2"
_cell_formula_units_Z 52
_cell_length_a 27.932080
_cell_length_b 9.151532
_cell_length_c 12.452236
_cell_angle_alpha 90.000000
_cell_angle_beta 124.698626
_cell_angle_gamma 90.000000
_cell_volume 2616.974842
_symmetry_space_group_name_H-M "C 2/M"
_symmetry_group_IT_number 12
_symmetry_cell_setting 'monoclinic'
loop_
_space_group_symop_operation_xyz
x,y,z
-x,y,-z
-x,-y,-z
x,-y,z
1/2+x,1/2+y,z
1/2-x,1/2+y,-z
1/2-x,1/2-y,-z
1/2+x,1/2-y,z
loop_
_atom_site_type_symbol
_atom_site_label
_atom_site_fract_x
_atom_site_fract_y
_atom_site_fract_z
Si Si1 0.125331 0.843954 0.728006
Si Si2 0.025474 0.173261 0.307591
Si Si3 0.400836 0.667896 0.067979
Si Si4 0.703224 0.830576 0.672120
Si Si5 0.136404 0.668594 0.373123
Si Si6 0.000000 0.202073 0.500000
Si Si7 0.178852 0.670557 0.192898
O O1 0.128770 0.792377 0.855828
O O2 0.153556 0.720190 0.691118
O O3 0.058271 0.880506 0.612181
O O4 0.158153 0.000000 0.755437
O O5 0.080886 0.226947 0.312405
O O6 0.019886 0.274047 0.410770
O O7 0.969968 0.197080 0.160800
O O8 0.032061 0.000000 0.347035
O O9 0.388179 0.500000 0.021784
O O10 0.375459 0.771917 0.944588
O O11 0.682347 0.796581 0.525243
O O12 0.762610 0.747241 0.772491
O O13 0.714403 0.000000 0.705866
O O14 0.116149 0.500000 0.350455
O O15 0.168252 0.708154 0.303514
O O16 0.185576 0.500000 0.181758
#
# Coordination Sequence:
#
# PCOD8079609 Si02
#       7
#     8   8   8   8   8   4   8
#     4  10  19  35  61  89 119 151 189 234 288 348
#     4  10  19  34  61  90 118 152 191 234 286 346
#     4   9  21  39  59  88 120 154 194 238 283 339
#     4  11  23  39  60  88 118 148 191 247 295 342
#     4  10  23  40  58  87 119 150 192 243 295 342
#     4  10  17  32  59  90 119 148 185 230 281 342
#     4  11  24  42  61  79 112 160 203 240 285 344
#
# _framework density 19.870272
#
# number of rings (size 3 to 8) (size 9 to 14) (size 15 to 20)
#    0.000    1.846    1.538    3.692    0.000    4.308 
#    0.000    6.154    0.000    0.000    0.000    0.000 
#    0.000    0.000    0.000    0.000    0.000    0.000 
#
# Total GULP energy -322138.227198 kJ/mol
# GULP energy per Si atom -12389.931815 kJ/mol
# Density = 1.982505 g / cm^3
# Si number density = 19.870272 Si / 1000 Ang^3
#
#
#
# Elastic Constant Matrix: (Units=GPa)
#
#
# Indices 1 2 3 4 5 6 
#
# 1 73.5669 41.3004 11.3221 0.0000 9.9971 0.0000
# 2 41.3004 79.4322 35.4457 0.0000 5.4323 0.0000
# 3 11.3221 35.4457 72.8628 0.0000 7.2942 0.0000
# 4 0.0000 0.0000 0.0000 47.7566 0.0000 42.6409
# 5 9.9971 5.4323 7.2942 0.0000 25.3312 0.0000
# 6 0.0000 0.0000 0.0000 42.6409 0.0000 101.9912
#
#
#
# Elastic Compliance Matrix: (Units=1/GPa)
#
#
# Indices 1 2 3 4 5 6 
#
# 1 0.020516 -0.011611 0.003111 0.000000 -0.006503 0.000000
# 2 -0.011611 0.022689 -0.009478 0.000000 0.002446 0.000000
# 3 0.003111 -0.009478 0.018299 0.000000 -0.004465 0.000000
# 4 0.000000 0.000000 0.000000 0.033412 0.000000 -0.013969
# 5 -0.006503 0.002446 -0.004465 0.000000 0.042804 0.000000
# 6 0.000000 0.000000 0.000000 -0.013969 0.000000 0.015645
#
#
# Mechanical properties :
#
#
# Convention : Reuss Voigt Hill
#
# Bulk Modulus (GPa) = 39.14151 44.66647 41.90399
# Shear Modulus (GPa) = 25.27336 44.20205 34.73771
#
# Velocity S-wave (km/s) = 3.57027 4.72161 4.18571
# Velocity P-wave (km/s) = 6.06111 7.22860 6.67044
#
# Compressibility (1/GPa) = 0.02554833
#
# Stress axis : x y z
#
# Youngs Moduli (GPa) = 48.74162 44.07488 54.64877
#
# Poissons Ratio (x) = 0.51176 -0.17004
# Poissons Ratio (y) = 0.56594 0.51796
# Poissons Ratio (z) = -0.15166 0.41774
#
# Static dielectric constant tensor:
#      x y z
#    x 3.515680 0.000000 -0.068870 
#    y 0.000000 3.356460 0.000000 
#    z -0.068870 0.000000 3.648550 
# 
# 
# High freq. dielectric constant tensor:
#      x y z
#    x 1.778240 0.000000 -0.001420 
#    y 0.000000 1.754320 0.000000 
#    z -0.001420 0.000000 1.781350 
# 
# From -- ./inp_files/181223.got.cif
#   From: 2010.06.25/outbox.cif.g09.slc.cpg/sg12_91_cif.got.tgz:181223.got - 2010.06.28 00:19:55.
