data_PCOD8079120
_publ_section_title
;
Structure prediction by ZEFSAII (Michael W. Deem and Ramdas Pophale) SiO2 
 PCOD8079120
Probable space group: C 2/M
;
_chemical_formula_sum "Si O2"
_cell_formula_units_Z 40
_cell_length_a 9.262900
_cell_length_b 27.950279
_cell_length_c 9.347033
_cell_angle_alpha 90.000000
_cell_angle_beta 123.320995
_cell_angle_gamma 90.000000
_cell_volume 2022.127400
_symmetry_space_group_name_H-M "C 2/M"
_symmetry_group_IT_number 12
_symmetry_cell_setting 'monoclinic'
loop_
_space_group_symop_operation_xyz
x,y,z
-x,y,-z
-x,-y,-z
x,-y,z
1/2+x,1/2+y,z
1/2-x,1/2+y,-z
1/2-x,1/2-y,-z
1/2+x,1/2-y,z
loop_
_atom_site_type_symbol
_atom_site_label
_atom_site_fract_x
_atom_site_fract_y
_atom_site_fract_z
Si Si1 0.006819 0.053884 0.173726
Si Si2 0.673251 0.884792 0.679539
Si Si3 0.884433 0.207303 0.798112
Si Si4 0.666375 0.108383 0.008445
Si Si5 0.778970 0.787291 0.143607
O O1 0.838287 0.079631 0.148292
O O2 0.179281 0.082215 0.312183
O O3 0.015436 0.000000 0.238629
O O4 0.000000 0.054421 0.000000
O O5 0.500000 0.894370 0.500000
O O6 0.729575 0.829731 0.695157
O O7 0.636935 0.897576 0.823997
O O8 0.803924 0.260919 0.763807
O O9 0.013525 0.205086 0.731642
O O10 0.000000 0.191966 0.000000
O O11 0.681832 0.163461 0.063432
O O12 0.500000 0.086674 0.000000
O O13 0.750000 0.750000 0.000000
#
# Coordination Sequence:
#
# PCOD8079120 Si02
#       5
#     8   8   8   8   8
#     4   9  19  38  62  83 107 146 193 234 272 330
#     4  11  21  36  56  83 117 147 182 232 283 333
#     4  10  17  32  53  77 106 148 193 223 263 326
#     4  11  20  35  60  85 110 143 192 235 269 329
#     4  10  17  28  56  78 103 141 196 221 259 316
#
# _framework density 19.781148000000002
#
# number of rings (size 3 to 8) (size 9 to 14) (size 15 to 20)
#    0.000    1.800    6.000    2.400    0.000    0.800 
#    0.000    2.000    0.000    1.200    0.000    0.000 
#    0.000    0.000    0.000    0.000    0.000    0.000 
#
# Total GULP energy -247916.238838 kJ/mol
# GULP energy per Si atom -12395.811942 kJ/mol
# Density = 1.973612 g / cm^3
# Si number density = 19.781148 Si / 1000 Ang^3
#
#
#
# Elastic Constant Matrix: (Units=GPa)
#
#
# Indices 1 2 3 4 5 6 
#
# 1 170.7011 47.9780 45.6896 0.0000 29.9396 0.0000
# 2 47.9780 125.3479 33.0103 0.0000 19.1206 0.0000
# 3 45.6896 33.0103 58.8494 0.0000 27.7454 0.0000
# 4 0.0000 0.0000 0.0000 9.9467 0.0000 2.9128
# 5 29.9396 19.1206 27.7454 0.0000 27.9305 0.0000
# 6 0.0000 0.0000 0.0000 2.9128 0.0000 26.6510
#
#
#
# Elastic Compliance Matrix: (Units=1/GPa)
#
#
# Indices 1 2 3 4 5 6 
#
# 1 0.007900 -0.001516 -0.003348 0.000000 -0.004105 0.000000
# 2 -0.001516 0.009727 -0.003585 0.000000 -0.001473 0.000000
# 3 -0.003348 -0.003585 0.035274 0.000000 -0.028997 0.000000
# 4 0.000000 0.000000 0.000000 0.103860 0.000000 -0.011351
# 5 -0.004105 -0.001473 -0.028997 0.000000 0.070017 0.000000
# 6 0.000000 0.000000 0.000000 -0.011351 0.000000 0.038763
#
#
# Mechanical properties :
#
#
# Convention : Reuss Voigt Hill
#
# Bulk Modulus (GPa) = 27.77495 67.58379 47.67937
# Shear Modulus (GPa) = 16.98145 28.12035 22.55090
#
# Velocity S-wave (km/s) = 2.93314 3.77447 3.38008
# Velocity P-wave (km/s) = 5.05398 7.29626 6.27607
#
# Compressibility (1/GPa) = 0.03600367
#
# Stress axis : x y z
#
# Youngs Moduli (GPa) = 126.57578 102.80935 28.34975
#
# Poissons Ratio (x) = 0.15587 0.09491
# Poissons Ratio (y) = 0.19190 0.10162
# Poissons Ratio (z) = 0.42376 0.36853
#
# Static dielectric constant tensor:
#      x y z
#    x 4.441550 0.000000 0.138330 
#    y 0.000000 3.757430 0.000000 
#    z 0.138330 0.000000 2.959790 
# 
# 
# High freq. dielectric constant tensor:
#      x y z
#    x 1.795140 0.000000 0.023500 
#    y 0.000000 1.769180 0.000000 
#    z 0.023500 0.000000 1.700320 
# 
# From -- ./inp_files/40533.got.cif
#   From: 2010.06.25/outbox.cif.g09.slc.cpg/sg12_21_cif.got.tgz:40533.got - 2010.06.28 00:19:55.
