data_PCOD8079825
_publ_section_title
;
Structure prediction by ZEFSAII (Michael W. Deem and Ramdas Pophale) SiO2 
 PCOD8079825
Probable space group: C 2/M
;
_chemical_formula_sum "Si O2"
_cell_formula_units_Z 64
_cell_length_a 26.600917
_cell_length_b 9.082691
_cell_length_c 19.770346
_cell_angle_alpha 90.000000
_cell_angle_beta 121.228970
_cell_angle_gamma 90.000000
_cell_volume 4084.542826
_symmetry_space_group_name_H-M "C 2/M"
_symmetry_group_IT_number 12
_symmetry_cell_setting 'monoclinic'
loop_
_space_group_symop_operation_xyz
x,y,z
-x,y,-z
-x,-y,-z
x,-y,z
1/2+x,1/2+y,z
1/2-x,1/2+y,-z
1/2-x,1/2-y,-z
1/2+x,1/2-y,z
loop_
_atom_site_type_symbol
_atom_site_label
_atom_site_fract_x
_atom_site_fract_y
_atom_site_fract_z
Si Si1 0.126719 0.173454 0.827620
Si Si2 0.526137 0.173214 0.683245
Si Si3 0.078811 0.172384 0.444812
Si Si4 0.721102 0.833750 0.672476
Si Si5 0.715034 0.672157 0.534551
Si Si6 0.198161 0.168221 0.998910
Si Si7 0.235403 0.672464 0.830034
Si Si8 0.416462 0.165852 0.418084
O O1 0.065620 0.253822 0.769002
O O2 0.138086 0.206716 0.916406
O O3 0.180226 0.235696 0.819772
O O4 0.120769 0.000000 0.808701
O O5 0.460909 0.244234 0.638771
O O6 0.554732 0.215205 0.631631
O O7 0.522032 0.000000 0.693388
O O8 0.146579 0.212388 0.477887
O O9 0.060681 0.228259 0.506728
O O10 0.067008 0.000000 0.431963
O O11 0.739564 0.728509 0.623827
O O12 0.751507 0.782567 0.764093
O O13 0.652545 0.821730 0.639866
O O14 0.739285 0.000000 0.665434
O O15 0.726443 0.500000 0.538645
O O16 0.750000 0.750000 0.500000
O O17 0.212047 0.000000 0.995441
O O18 0.250000 0.250000 0.000000
O O19 0.204516 0.202309 0.083935
O O20 0.217077 0.500000 0.818868
O O21 0.435128 0.000000 0.450947
#
# Coordination Sequence:
#
# PCOD8079825 Si02
#       8
#     8   8   8   8   8   8   8   8
#     4  10  18  26  38  59  87 120 154 190 224 250
#     4  11  20  30  43  60  85 120 155 183 212 257
#     4  10  21  33  45  65  86 108 140 182 224 258
#     4   9  16  28  46  66  88 116 149 183 218 257
#     4  10  21  36  52  68  88 112 140 178 224 269
#     4   8  15  25  38  56  81 115 153 187 219 253
#     4   9  15  27  43  60  85 118 154 186 217 261
#     4   9  17  29  42  59  84 117 151 179 210 252
#
# _framework density 15.668829000000001
#
# number of rings (size 3 to 8) (size 9 to 14) (size 15 to 20)
#    0.000    2.500    1.250    1.875    0.000    5.000 
#    0.000    0.000    0.000    0.000    0.000    0.000 
#    0.000    1.000    0.000   11.500    0.000    3.250 
#
# Total GULP energy -396532.299500 kJ/mol
# GULP energy per Si atom -12391.634359 kJ/mol
# Density = 1.563317 g / cm^3
# Si number density = 15.668829 Si / 1000 Ang^3
#
#
#
# Elastic Constant Matrix: (Units=GPa)
#
#
# Indices 1 2 3 4 5 6 
#
# 1 39.1449 27.9573 42.9912 0.0000 -6.6494 0.0000
# 2 27.9573 75.1887 61.0883 0.0000 1.3549 0.0000
# 3 42.9912 61.0883 153.5657 0.0000 1.3785 0.0000
# 4 0.0000 0.0000 0.0000 24.8054 0.0000 0.1267
# 5 -6.6494 1.3549 1.3785 0.0000 15.7790 0.0000
# 6 0.0000 0.0000 0.0000 0.1267 0.0000 17.6487
#
#
#
# Elastic Compliance Matrix: (Units=1/GPa)
#
#
# Indices 1 2 3 4 5 6 
#
# 1 0.046520 -0.010261 -0.009133 0.000000 0.021283 0.000000
# 2 -0.010261 0.021930 -0.005800 0.000000 -0.005700 0.000000
# 3 -0.009133 -0.005800 0.011415 0.000000 -0.004348 0.000000
# 4 0.000000 0.000000 0.000000 0.040315 0.000000 -0.000289
# 5 0.021283 -0.005700 -0.004348 0.000000 0.073213 0.000000
# 6 0.000000 0.000000 0.000000 -0.000289 0.000000 0.056663
#
#
# Mechanical properties :
#
#
# Convention : Reuss Voigt Hill
#
# Bulk Modulus (GPa) = 33.92408 59.10811 46.51610
# Shear Modulus (GPa) = 16.11500 20.70412 18.40956
#
# Velocity S-wave (km/s) = 3.21046 3.63899 3.43142
# Velocity P-wave (km/s) = 5.95319 7.44726 6.74174
#
# Compressibility (1/GPa) = 0.02947759
#
# Stress axis : x y z
#
# Youngs Moduli (GPa) = 21.49633 45.59909 87.60495
#
# Poissons Ratio (x) = 0.46789 0.80006
# Poissons Ratio (y) = 0.22057 0.50812
# Poissons Ratio (z) = 0.19632 0.26448
#
# Static dielectric constant tensor:
#      x y z
#    x 2.557780 0.000000 0.061970 
#    y 0.000000 3.054760 0.000000 
#    z 0.061970 0.000000 3.679830 
# 
# 
# High freq. dielectric constant tensor:
#      x y z
#    x 1.537470 0.000000 0.007140 
#    y 0.000000 1.611480 0.000000 
#    z 0.007140 0.000000 1.616210 
# 
# From -- ./inp_files/326616.got.cif
#   From: 2010.06.25/outbox.cif.g09.slc.cpg/sg12_164_cif.got.tgz:326616.got - 2010.06.28 00:19:55.
