data_PCOD8079644
_publ_section_title
;
Structure prediction by ZEFSAII (Michael W. Deem and Ramdas Pophale) SiO2 
 PCOD8079644
Probable space group: C 2/M
;
_chemical_formula_sum "Si O2"
_cell_formula_units_Z 48
_cell_length_a 25.313921
_cell_length_b 14.671707
_cell_length_c 19.873933
_cell_angle_alpha 90.000000
_cell_angle_beta 20.499667
_cell_angle_gamma 90.000000
_cell_volume 2584.892173
_symmetry_space_group_name_H-M "C 2/M"
_symmetry_group_IT_number 12
_symmetry_cell_setting 'monoclinic'
loop_
_space_group_symop_operation_xyz
x,y,z
-x,y,-z
-x,-y,-z
x,-y,z
1/2+x,1/2+y,z
1/2-x,1/2+y,-z
1/2-x,1/2-y,-z
1/2+x,1/2-y,z
loop_
_atom_site_type_symbol
_atom_site_label
_atom_site_fract_x
_atom_site_fract_y
_atom_site_fract_z
Si Si1 0.838091 0.900597 0.663332
Si Si2 0.338737 0.838836 0.875217
Si Si3 0.416227 0.897326 0.930471
Si Si4 0.887096 0.229654 0.483233
Si Si5 0.129964 0.236838 0.700135
Si Si6 0.532330 0.396186 0.194769
O O1 0.839113 0.821164 0.607772
O O2 0.000000 0.912670 0.500000
O O3 0.787511 0.000000 0.693718
O O4 0.735520 0.872458 0.848840
O O5 0.391912 0.888181 0.879686
O O6 0.487614 0.809568 0.654593
O O7 0.250000 0.750000 0.000000
O O8 0.216410 0.898331 0.979617
O O9 0.540802 0.831047 0.812072
O O10 0.469874 0.000000 0.881052
O O11 0.729981 0.277819 0.647723
O O12 0.955280 0.156872 0.348830
O O13 0.250000 0.250000 0.500000
O O14 0.018696 0.152743 0.814254
O O15 0.474330 0.500000 0.263673
#
# Coordination Sequence:
#
# PCOD8079644 Si02
#       6
#     8   8   8   8   8   8
#     4  10  21  34  54  86 120 152 183 221 285 350
#     4  10  17  33  55  77 111 143 194 231 267 327
#     4  11  21  34  55  85 120 149 181 230 281 338
#     4  10  20  35  53  79 119 147 185 228 276 344
#     4  10  20  36  51  79 115 148 191 228 277 337
#     4  10  19  32  55  81 109 144 188 242 282 319
#
# _framework density 18.569441000000001
#
# number of rings (size 3 to 8) (size 9 to 14) (size 15 to 20)
#    0.000    1.833    5.000    3.000    0.000    5.333 
#    0.000    1.667    0.000    0.000    0.000    5.833 
#    0.000    0.000    0.000    0.000    0.000    0.000 
#
# Total GULP energy -297350.076046 kJ/mol
# GULP energy per Si atom -12389.586502 kJ/mol
# Density = 1.852718 g / cm^3
# Si number density = 18.569441 Si / 1000 Ang^3
#
#
#
# Elastic Constant Matrix: (Units=GPa)
#
#
# Indices 1 2 3 4 5 6 
#
# 1 63.9175 20.2372 20.1281 0.0014 -12.5236 -0.0009
# 2 20.2372 81.4066 31.0937 0.0018 -1.6568 -0.0012
# 3 20.1281 31.0937 83.5961 0.0027 -11.2367 -0.0024
# 4 0.0014 0.0018 0.0027 52.0270 -0.0012 -20.1689
# 5 -12.5236 -1.6568 -11.2367 -0.0012 34.4090 0.0007
# 6 -0.0009 -0.0012 -0.0024 -20.1689 0.0007 50.2205
#
#
#
# Elastic Compliance Matrix: (Units=1/GPa)
#
#
# Indices 1 2 3 4 5 6 
#
# 1 0.018684 -0.003622 -0.002364 0.000000 0.005854 0.000000
# 2 -0.003622 0.015060 -0.005030 0.000000 -0.002236 0.000000
# 3 -0.002364 -0.005030 0.014909 0.000000 0.003766 0.000000
# 4 0.000000 0.000000 0.000000 0.022765 0.000000 0.009143
# 5 0.005854 -0.002236 0.003766 0.000000 0.032315 0.000000
# 6 0.000000 0.000000 0.000000 0.009143 0.000000 0.023584
#
#
# Mechanical properties :
#
#
# Convention : Reuss Voigt Hill
#
# Bulk Modulus (GPa) = 37.56738 41.31536 39.44137
# Shear Modulus (GPa) = 31.60098 37.82870 34.71484
#
# Velocity S-wave (km/s) = 4.12973 4.51837 4.32842
# Velocity P-wave (km/s) = 6.55852 7.03693 6.80193
#
# Compressibility (1/GPa) = 0.02661883
#
# Stress axis : x y z
#
# Youngs Moduli (GPa) = 53.52299 66.39987 67.07485
#
# Poissons Ratio (x) = 0.24053 0.15859
# Poissons Ratio (y) = 0.19388 0.33739
# Poissons Ratio (z) = 0.12655 0.33399
#
# Static dielectric constant tensor:
#      x y z
#    x 0.455660 0.000060 -0.183600 
#    y 0.000060 3.739990 0.000000 
#    z -0.183600 0.000000 3.634000 
# 
# 
# High freq. dielectric constant tensor:
#      x y z
#    x 1.698990 0.000000 -0.030150 
#    y 0.000000 1.709590 0.000000 
#    z -0.030150 0.000000 1.716090 
# 
# From -- ./inp_files/328207.got.cif
#   From: 2010.06.25/outbox.cif.g09.slc.cpg/sg12_165_cif.got.tgz:328207.got - 2010.06.28 00:19:55.
