data_PCOD8079574
_publ_section_title
;
Structure prediction by ZEFSAII (Michael W. Deem and Ramdas Pophale) SiO2 
 PCOD8079574
Probable space group: C 2/M
;
_chemical_formula_sum "Si O2"
_cell_formula_units_Z 64
_cell_length_a 21.937078
_cell_length_b 17.431944
_cell_length_c 12.061234
_cell_angle_alpha 90.000000
_cell_angle_beta 131.186747
_cell_angle_gamma 90.000000
_cell_volume 3471.056311
_symmetry_space_group_name_H-M "C 2/M"
_symmetry_group_IT_number 12
_symmetry_cell_setting 'monoclinic'
loop_
_space_group_symop_operation_xyz
x,y,z
-x,y,-z
-x,-y,-z
x,-y,z
1/2+x,1/2+y,z
1/2-x,1/2+y,-z
1/2-x,1/2-y,-z
1/2+x,1/2-y,z
loop_
_atom_site_type_symbol
_atom_site_label
_atom_site_fract_x
_atom_site_fract_y
_atom_site_fract_z
Si Si1 0.725212 0.413823 0.130481
Si Si2 0.316219 0.314370 0.109028
Si Si3 0.123874 0.277789 0.374285
Si Si4 0.191622 0.648937 0.117201
Si Si5 0.917568 0.412634 0.836477
Si Si6 0.785388 0.206725 0.707257
Si Si7 0.610789 0.911760 0.805191
Si Si8 0.478719 0.771704 0.352752
O O1 0.695317 0.500000 0.106349
O O2 0.714225 0.377266 0.238795
O O3 0.817568 0.407990 0.198687
O O4 0.668291 0.372529 0.972889
O O5 0.282362 0.363156 0.175612
O O6 0.398770 0.273679 0.229996
O O7 0.250000 0.250000 0.000000
O O8 0.099865 0.359525 0.290681
O O9 0.146806 0.216204 0.306721
O O10 0.196973 0.282410 0.548907
O O11 0.047515 0.245908 0.349418
O O12 0.161932 0.592369 0.179098
O O13 0.192081 0.735061 0.166281
O O14 0.130781 0.633910 0.942263
O O15 0.926739 0.500000 0.806050
O O16 0.000000 0.386669 0.000000
O O17 0.535079 0.864229 0.665758
O O18 0.586654 0.000000 0.801715
O O19 0.500000 0.744982 0.500000
#
# Coordination Sequence:
#
# PCOD8079574 Si02
#       8
#     8   8   8   8   8   8   8   8
#     4  10  19  33  58  84 109 147 183 223 282 331
#     4  11  19  35  57  82 112 146 186 239 263 317
#     4  10  23  34  55  79 108 147 185 228 277 330
#     4  10  17  32  55  73 102 151 184 220 261 305
#     4  10  21  34  50  77 113 147 179 217 267 337
#     4  10  19  38  53  76 110 143 189 233 269 324
#     4  10  19  31  50  84 121 147 176 214 265 339
#     4  12  22  35  56  84 111 147 187 225 283 330
#
# _framework density 18.438191
#
# number of rings (size 3 to 8) (size 9 to 14) (size 15 to 20)
#    0.000    1.625    3.750    2.625    0.000    2.750 
#    0.000    0.000    0.000    1.875    0.000    0.000 
#    0.000    0.000    0.000    0.000    0.000    0.000 
#
# Total GULP energy -396524.749614 kJ/mol
# GULP energy per Si atom -12391.398425 kJ/mol
# Density = 1.839622 g / cm^3
# Si number density = 18.438191 Si / 1000 Ang^3
#
#
#
# Elastic Constant Matrix: (Units=GPa)
#
#
# Indices 1 2 3 4 5 6 
#
# 1 129.4682 40.1920 59.4081 0.0000 -6.4276 0.0000
# 2 40.1920 94.9938 49.7581 0.0000 -6.6147 0.0000
# 3 59.4081 49.7581 76.4992 0.0000 -3.5483 0.0000
# 4 0.0000 0.0000 0.0000 17.0429 0.0000 2.9977
# 5 -6.4276 -6.6147 -3.5483 0.0000 30.4647 0.0000
# 6 0.0000 0.0000 0.0000 2.9977 0.0000 18.6201
#
#
#
# Elastic Compliance Matrix: (Units=1/GPa)
#
#
# Indices 1 2 3 4 5 6 
#
# 1 0.012067 -0.000200 -0.009174 0.000000 0.001434 0.000000
# 2 -0.000200 0.016128 -0.010230 0.000000 0.002268 0.000000
# 3 -0.009174 -0.010230 0.026802 0.000000 -0.001035 0.000000
# 4 0.000000 0.000000 0.000000 0.060385 0.000000 -0.009721
# 5 0.001434 0.002268 -0.001035 0.000000 0.033499 0.000000
# 6 0.000000 0.000000 0.000000 -0.009721 0.000000 0.055271
#
#
# Mechanical properties :
#
#
# Convention : Reuss Voigt Hill
#
# Bulk Modulus (GPa) = 63.33466 66.63084 64.98275
# Shear Modulus (GPa) = 20.11072 23.33241 21.72156
#
# Velocity S-wave (km/s) = 3.30617 3.56116 3.43603
# Velocity P-wave (km/s) = 6.99990 7.28869 7.14576
#
# Compressibility (1/GPa) = 0.01578914
#
# Stress axis : x y z
#
# Youngs Moduli (GPa) = 82.87072 62.00429 37.31008
#
# Poissons Ratio (x) = 0.01241 0.34230
# Poissons Ratio (y) = 0.01659 0.38167
# Poissons Ratio (z) = 0.76028 0.63428
#
# Static dielectric constant tensor:
#      x y z
#    x 3.807740 0.000000 -0.079560 
#    y 0.000000 3.438620 0.000000 
#    z -0.079560 0.000000 3.475540 
# 
# 
# High freq. dielectric constant tensor:
#      x y z
#    x 1.723190 0.000000 -0.018530 
#    y 0.000000 1.695110 0.000000 
#    z -0.018530 0.000000 1.704240 
# 
# From -- ./inp_files/168797.got.cif
#   From: 2010.06.25/outbox.cif.g09.slc.cpg/sg12_85_cif.got.tgz:168797.got - 2010.06.28 00:19:55.
