data_PCOD8079919
_publ_section_title
;
Structure prediction by ZEFSAII (Michael W. Deem and Ramdas Pophale) SiO2 
 PCOD8079919
Probable space group: C 2/M
;
_chemical_formula_sum "Si O2"
_cell_formula_units_Z 56
_cell_length_a 16.558192
_cell_length_b 15.311696
_cell_length_c 16.957773
_cell_angle_alpha 90.000000
_cell_angle_beta 133.672564
_cell_angle_gamma 90.000000
_cell_volume 3109.726742
_symmetry_space_group_name_H-M "C 2/M"
_symmetry_group_IT_number 12
_symmetry_cell_setting 'monoclinic'
loop_
_space_group_symop_operation_xyz
x,y,z
-x,y,-z
-x,-y,-z
x,-y,z
1/2+x,1/2+y,z
1/2-x,1/2+y,-z
1/2-x,1/2-y,-z
1/2+x,1/2-y,z
loop_
_atom_site_type_symbol
_atom_site_label
_atom_site_fract_x
_atom_site_fract_y
_atom_site_fract_z
Si Si1 0.924058 0.770104 0.234074
Si Si2 0.538667 0.743245 0.156805
Si Si3 0.426576 0.400722 0.375451
Si Si4 0.320709 0.171854 0.969028
Si Si5 0.171995 0.402894 0.196337
Si Si6 0.123949 0.905057 0.114687
Si Si7 0.167434 0.401690 0.850814
O O1 0.956631 0.831490 0.328068
O O2 0.801248 0.784973 0.113549
O O3 0.918764 0.666015 0.250305
O O4 0.018001 0.788084 0.232005
O O5 0.596014 0.837824 0.194853
O O6 0.625382 0.674004 0.178162
O O7 0.418801 0.754158 0.031262
O O8 0.500000 0.375919 0.500000
O O9 0.451754 0.500000 0.363312
O O10 0.297951 0.391173 0.311978
O O11 0.334426 0.111541 0.901779
O O12 0.331931 0.113538 0.054711
O O13 0.128281 0.500000 0.184733
O O14 0.209213 0.886149 0.101362
O O15 0.153159 0.000000 0.173372
O O16 0.000000 0.910401 0.000000
O O17 0.125822 0.500000 0.806090
#
# Coordination Sequence:
#
# PCOD8079919 Si02
#       7
#     8   8   8   8   8   8   8
#     4  10  20  33  50  73  99 132 167 201 243 294
#     4  11  20  30  45  71 105 133 158 194 237 291
#     4   9  19  38  61  78  92 117 160 214 262 300
#     4  10  19  31  47  68 103 140 172 203 235 281
#     4  10  20  32  50  75 100 129 165 206 252 295
#     4  10  18  27  40  59  89 130 167 196 226 265
#     4  10  19  30  45  67  99 137 170 197 231 284
#
# _framework density 18.008012999999998
#
# number of rings (size 3 to 8) (size 9 to 14) (size 15 to 20)
#    0.000    2.000    0.000    6.857    0.000    4.571 
#    0.000    0.714    0.000    0.429    0.000    0.000 
#    0.000    0.000    0.000    0.000    0.000    0.000 
#
# Total GULP energy -347052.045768 kJ/mol
# GULP energy per Si atom -12394.715920 kJ/mol
# Density = 1.796703 g / cm^3
# Si number density = 18.008013 Si / 1000 Ang^3
#
#
#
# Elastic Constant Matrix: (Units=GPa)
#
#
# Indices 1 2 3 4 5 6 
#
# 1 82.5439 40.0241 33.2211 0.0000 -7.0198 0.0000
# 2 40.0241 124.2243 45.5421 0.0000 -13.9756 0.0000
# 3 33.2211 45.5421 76.6251 0.0000 -12.7358 0.0000
# 4 0.0000 0.0000 0.0000 16.6425 0.0000 -0.5585
# 5 -7.0198 -13.9756 -12.7358 0.0000 10.7685 0.0000
# 6 0.0000 0.0000 0.0000 -0.5585 0.0000 31.7610
#
#
#
# Elastic Compliance Matrix: (Units=1/GPa)
#
#
# Indices 1 2 3 4 5 6 
#
# 1 0.015648 -0.003246 -0.004804 0.000000 0.000306 0.000000
# 2 -0.003246 0.011494 -0.004103 0.000000 0.007949 0.000000
# 3 -0.004804 -0.004103 0.020122 0.000000 0.015341 0.000000
# 4 0.000000 0.000000 0.000000 0.060122 0.000000 0.001057
# 5 0.000306 0.007949 0.015341 0.000000 0.121523 0.000000
# 6 0.000000 0.000000 0.000000 0.001057 0.000000 0.031504
#
#
# Mechanical properties :
#
#
# Convention : Reuss Voigt Hill
#
# Bulk Modulus (GPa) = 43.55815 57.88533 50.72174
# Shear Modulus (GPa) = 17.10141 22.80814 19.95478
#
# Velocity S-wave (km/s) = 3.08499 3.56273 3.33243
# Velocity P-wave (km/s) = 6.07703 7.00985 6.56004
#
# Compressibility (1/GPa) = 0.02295782
#
# Stress axis : x y z
#
# Youngs Moduli (GPa) = 63.90481 86.99944 49.69692
#
# Poissons Ratio (x) = 0.28240 0.23875
# Poissons Ratio (y) = 0.20744 0.20391
# Poissons Ratio (z) = 0.30701 0.35697
#
# Static dielectric constant tensor:
#      x y z
#    x 3.464090 0.000000 0.093510 
#    y 0.000000 3.756880 0.000000 
#    z 0.093510 0.000000 2.869140 
# 
# 
# High freq. dielectric constant tensor:
#      x y z
#    x 1.709000 0.000000 0.007040 
#    y 0.000000 1.718890 0.000000 
#    z 0.007040 0.000000 1.629410 
# 
# From -- ./inp_files/277892.got.cif
#   From: 2010.06.25/outbox.cif.g09.slc.cpg/sg12_139_cif.got.tgz:277892.got - 2010.06.28 00:19:55.
