data_PCOD8079220
_publ_section_title
;
Structure prediction by ZEFSAII (Michael W. Deem and Ramdas Pophale) SiO2 
 PCOD8079220
Probable space group: C 2/M
;
_chemical_formula_sum "Si O2"
_cell_formula_units_Z 64
_cell_length_a 30.275439
_cell_length_b 8.933719
_cell_length_c 14.902050
_cell_angle_alpha 90.000000
_cell_angle_beta 79.090906
_cell_angle_gamma 90.000000
_cell_volume 3957.753136
_symmetry_space_group_name_H-M "C 2/M"
_symmetry_group_IT_number 12
_symmetry_cell_setting 'monoclinic'
loop_
_space_group_symop_operation_xyz
x,y,z
-x,y,-z
-x,-y,-z
x,-y,z
1/2+x,1/2+y,z
1/2-x,1/2+y,-z
1/2-x,1/2-y,-z
1/2+x,1/2-y,z
loop_
_atom_site_type_symbol
_atom_site_label
_atom_site_fract_x
_atom_site_fract_y
_atom_site_fract_z
Si Si1 0.369345 0.324644 0.246054
Si Si2 0.310275 0.176360 0.117375
Si Si3 0.283150 0.826713 0.613985
Si Si4 0.687247 0.672334 0.567305
Si Si5 0.443299 0.677523 0.928921
Si Si6 0.458006 0.323652 0.124172
Si Si7 0.146272 0.677426 0.084514
Si Si8 0.710220 0.676699 0.201198
O O1 0.364204 0.500000 0.229094
O O2 0.336902 0.244385 0.189557
O O3 0.355264 0.286713 0.353410
O O4 0.421085 0.271401 0.211664
O O5 0.258495 0.227129 0.143782
O O6 0.314931 0.000000 0.122843
O O7 0.330207 0.235862 0.015862
O O8 0.314991 0.776251 0.519351
O O9 0.231666 0.794273 0.608229
O O10 0.295645 0.728342 0.694542
O O11 0.291808 0.000000 0.631808
O O12 0.686451 0.500000 0.536701
O O13 0.435641 0.500000 0.922808
O O14 0.491689 0.730423 0.869464
O O15 0.404686 0.763762 0.890274
O O16 0.442234 0.733323 0.032568
O O17 0.460811 0.500000 0.115626
O O18 0.146853 0.500000 0.090107
O O19 0.172065 0.743564 0.158881
O O20 0.703717 0.500000 0.198318
#
# Coordination Sequence:
#
# PCOD8079220 Si02
#       8
#     8   8   8   8   8   8   8   8
#     4  10  17  29  50  73  97 128 163 196 234 279
#     4  10  21  33  45  67  98 129 163 200 235 276
#     4  10  19  32  49  70  95 125 158 199 241 281
#     4   9  18  30  47  71  97 126 158 194 237 285
#     4   9  16  30  49  69  94 126 163 198 237 280
#     4   8  15  27  48  73  95 123 160 200 236 279
#     4  11  22  34  47  68  97 129 166 202 238 281
#     4  11  22  35  50  67  92 129 168 203 238 280
#
# _framework density 16.170791999999999
#
# number of rings (size 3 to 8) (size 9 to 14) (size 15 to 20)
#    0.000    2.250    2.500    2.250    0.000    2.000 
#    0.000    1.875    0.000    0.000    0.000    0.875 
#    0.000    7.000    0.000    0.000    0.000    0.000 
#
# Total GULP energy -396763.028819 kJ/mol
# GULP energy per Si atom -12398.844651 kJ/mol
# Density = 1.613399 g / cm^3
# Si number density = 16.170792 Si / 1000 Ang^3
#
#
#
# Elastic Constant Matrix: (Units=GPa)
#
#
# Indices 1 2 3 4 5 6 
#
# 1 119.7667 32.3463 52.4342 0.0000 -10.5135 0.0000
# 2 32.3463 35.1298 24.0443 0.0000 1.7013 0.0000
# 3 52.4342 24.0443 76.8240 0.0000 -11.8527 0.0000
# 4 0.0000 0.0000 0.0000 24.8978 0.0000 3.2358
# 5 -10.5135 1.7013 -11.8527 0.0000 24.3446 0.0000
# 6 0.0000 0.0000 0.0000 3.2358 0.0000 21.7652
#
#
#
# Elastic Compliance Matrix: (Units=1/GPa)
#
#
# Indices 1 2 3 4 5 6 
#
# 1 0.013634 -0.008562 -0.006082 0.000000 0.003525 0.000000
# 2 -0.008562 0.043393 -0.009489 0.000000 -0.011350 0.000000
# 3 -0.006082 -0.009489 0.021446 0.000000 0.008478 0.000000
# 4 0.000000 0.000000 0.000000 0.040956 0.000000 -0.006089
# 5 0.003525 -0.011350 0.008478 0.000000 0.047520 0.000000
# 6 0.000000 0.000000 0.000000 -0.006089 0.000000 0.046850
#
#
# Mechanical properties :
#
#
# Convention : Reuss Voigt Hill
#
# Bulk Modulus (GPa) = 33.10369 49.93000 41.51685
# Shear Modulus (GPa) = 18.37336 22.39456 20.38396
#
# Velocity S-wave (km/s) = 3.37442 3.72543 3.55426
# Velocity P-wave (km/s) = 5.97478 7.03198 6.52483
#
# Compressibility (1/GPa) = 0.03020811
#
# Stress axis : x y z
#
# Youngs Moduli (GPa) = 73.34556 23.04499 46.62946
#
# Poissons Ratio (x) = 0.19730 0.28360
# Poissons Ratio (y) = 0.62796 0.44246
# Poissons Ratio (z) = 0.44609 0.21867
#
# Static dielectric constant tensor:
#      x y z
#    x 3.288170 0.000000 -0.352330 
#    y 0.000000 2.951450 0.000000 
#    z -0.352330 0.000000 3.114100 
# 
# 
# High freq. dielectric constant tensor:
#      x y z
#    x 1.608570 0.000000 -0.014330 
#    y 0.000000 1.615730 0.000000 
#    z -0.014330 0.000000 1.608940 
# 
# From -- ./inp_files/248275.got.cif
#   From: 2010.06.25/outbox.cif.g09.slc.cpg/sg12_125_cif.got.tgz:248275.got - 2010.06.28 00:19:55.
