data_PCOD8079896
_publ_section_title
;
Structure prediction by ZEFSAII (Michael W. Deem and Ramdas Pophale) SiO2 
 PCOD8079896
Probable space group: C 2/M
;
_chemical_formula_sum "Si O2"
_cell_formula_units_Z 64
_cell_length_a 22.969484
_cell_length_b 9.008187
_cell_length_c 23.370300
_cell_angle_alpha 90.000000
_cell_angle_beta 54.280101
_cell_angle_gamma 90.000000
_cell_volume 3925.953913
_symmetry_space_group_name_H-M "C 2/M"
_symmetry_group_IT_number 12
_symmetry_cell_setting 'monoclinic'
loop_
_space_group_symop_operation_xyz
x,y,z
-x,y,-z
-x,-y,-z
x,-y,z
1/2+x,1/2+y,z
1/2-x,1/2+y,-z
1/2-x,1/2-y,-z
1/2+x,1/2-y,z
loop_
_atom_site_type_symbol
_atom_site_label
_atom_site_fract_x
_atom_site_fract_y
_atom_site_fract_z
Si Si1 0.555899 0.666918 0.519681
Si Si2 0.093694 0.324139 0.891360
Si Si3 0.157049 0.328844 0.201019
Si Si4 0.768044 0.176229 0.232153
Si Si5 0.663699 0.325637 0.368046
Si Si6 0.322471 0.822275 0.937289
Si Si7 0.050435 0.328806 0.353972
Si Si8 0.434260 0.175389 0.965862
O O1 0.500000 0.682662 0.500000
O O2 0.556965 0.500000 0.543001
O O3 0.634894 0.709518 0.449262
O O4 0.531141 0.774021 0.586476
O O5 0.105782 0.500000 0.878543
O O6 0.152486 0.237845 0.821008
O O7 0.016506 0.273472 0.910805
O O8 0.098197 0.270767 0.954868
O O9 0.175480 0.500000 0.183313
O O10 0.217640 0.263442 0.209119
O O11 0.161072 0.257971 0.135625
O O12 0.076403 0.307959 0.273189
O O13 0.736729 0.238663 0.310440
O O14 0.768723 0.000000 0.235137
O O15 0.676383 0.500000 0.353053
O O16 0.602333 0.274259 0.360314
O O17 0.386215 0.763340 0.941585
O O18 0.316662 0.000000 0.942712
O O19 0.250000 0.750000 0.000000
O O20 0.058743 0.500000 0.367787
O O21 0.433811 0.000000 0.967412
#
# Coordination Sequence:
#
# PCOD8079896 Si02
#       8
#     8   8   8   8   8   8   8   8
#     4   8  14  23  34  50  73 102 135 166 196 232
#     4   9  16  29  45  61  80 103 135 172 204 238
#     4   8  16  27  38  55  82 109 134 165 198 238
#     4  10  18  27  39  59  83 108 136 165 202 243
#     4   9  16  25  36  52  76 106 136 166 198 234
#     4  10  18  30  45  61  82 108 136 167 202 237
#     4   9  15  23  35  52  75 105 136 165 199 237
#     4   8  16  29  46  63  79 104 138 170 201 240
#
# _framework density 16.301770999999999
#
# number of rings (size 3 to 8) (size 9 to 14) (size 15 to 20)
#    0.000    3.125    0.000    4.125    0.000    2.750 
#    0.000    5.000    0.000    0.000    0.000    0.000 
#    0.000    1.000    0.000    2.000    0.000    3.625 
#
# Total GULP energy -396427.329362 kJ/mol
# GULP energy per Si atom -12388.354043 kJ/mol
# Density = 1.626467 g / cm^3
# Si number density = 16.301771 Si / 1000 Ang^3
#
#
#
# Elastic Constant Matrix: (Units=GPa)
#
#
# Indices 1 2 3 4 5 6 
#
# 1 61.5835 19.9608 45.9740 -0.0002 -9.6607 -0.0013
# 2 19.9608 49.7330 47.2469 0.0008 -9.8970 -0.0016
# 3 45.9740 47.2469 155.9741 0.0008 -24.3726 0.0004
# 4 -0.0002 0.0008 0.0008 26.7954 0.0000 -7.4109
# 5 -9.6607 -9.8970 -24.3726 0.0000 19.7102 -0.0004
# 6 -0.0013 -0.0016 0.0004 -7.4109 -0.0004 11.2689
#
#
#
# Elastic Compliance Matrix: (Units=1/GPa)
#
#
# Indices 1 2 3 4 5 6 
#
# 1 0.021396 -0.003447 -0.004827 0.000001 0.002788 0.000003
# 2 -0.003447 0.029108 -0.007166 0.000001 0.004065 0.000005
# 3 -0.004827 -0.007166 0.011246 -0.000001 0.007942 -0.000002
# 4 0.000001 0.000001 -0.000001 0.045617 0.000001 0.030000
# 5 0.002788 0.004065 0.007942 0.000001 0.063963 0.000003
# 6 0.000003 0.000005 -0.000002 0.030000 0.000003 0.108469
#
#
# Mechanical properties :
#
#
# Convention : Reuss Voigt Hill
#
# Bulk Modulus (GPa) = 32.39434 54.85045 43.62240
# Shear Modulus (GPa) = 15.57788 21.82882 18.70335
#
# Velocity S-wave (km/s) = 3.09462 3.66327 3.39089
# Velocity P-wave (km/s) = 5.71697 7.18420 6.49216
#
# Compressibility (1/GPa) = 0.03086959
#
# Stress axis : x y z
#
# Youngs Moduli (GPa) = 46.73745 34.35536 88.92328
#
# Poissons Ratio (x) = 0.11843 0.42921
# Poissons Ratio (y) = 0.16112 0.63720
# Poissons Ratio (z) = 0.22559 0.24618
#
# Static dielectric constant tensor:
#      x y z
#    x 2.907470 -0.000010 -0.055400 
#    y -0.000010 2.915120 0.000000 
#    z -0.055400 0.000000 3.731370 
# 
# 
# High freq. dielectric constant tensor:
#      x y z
#    x 1.563160 0.000000 -0.018030 
#    y 0.000000 1.612480 0.000000 
#    z -0.018030 0.000000 1.647450 
# 
# From -- ./inp_files/348520.got.cif
#   From: 2010.06.25/outbox.cif.g09.slc.cpg/sg12_175_cif.got.tgz:348520.got - 2010.06.28 00:19:55.
