data_PCOD8079405
_publ_section_title
;
Structure prediction by ZEFSAII (Michael W. Deem and Ramdas Pophale) SiO2 
 PCOD8079405
Probable space group: C 2/M
;
_chemical_formula_sum "Si O2"
_cell_formula_units_Z 64
_cell_length_a 28.741392
_cell_length_b 9.090675
_cell_length_c 14.696463
_cell_angle_alpha 90.000000
_cell_angle_beta 58.727230
_cell_angle_gamma 90.000000
_cell_volume 3281.960300
_symmetry_space_group_name_H-M "C 2/M"
_symmetry_group_IT_number 12
_symmetry_cell_setting 'monoclinic'
loop_
_space_group_symop_operation_xyz
x,y,z
-x,y,-z
-x,-y,-z
x,-y,z
1/2+x,1/2+y,z
1/2-x,1/2+y,-z
1/2-x,1/2-y,-z
1/2+x,1/2-y,z
loop_
_atom_site_type_symbol
_atom_site_label
_atom_site_fract_x
_atom_site_fract_y
_atom_site_fract_z
Si Si1 0.606289 0.837380 0.539387
Si Si2 0.801067 0.325137 0.902073
Si Si3 0.986843 0.664671 0.607814
Si Si4 0.267699 0.671259 0.389510
Si Si5 0.189610 0.329205 0.311339
Si Si6 0.111950 0.168620 0.707311
Si Si7 0.493193 0.825416 0.109558
Si Si8 0.581580 0.825186 0.162379
O O1 0.541639 0.841162 0.610181
O O2 0.629584 0.798149 0.415080
O O3 0.626350 0.716064 0.589816
O O4 0.628920 0.000000 0.543455
O O5 0.793597 0.500000 0.910770
O O6 0.806439 0.260429 0.793779
O O7 0.854970 0.280422 0.906084
O O8 0.750000 0.250000 0.000000
O O9 0.966116 0.500000 0.603044
O O10 0.000000 0.751174 0.500000
O O11 0.942464 0.741357 0.718182
O O12 0.254892 0.500000 0.417285
O O13 0.250000 0.750000 0.500000
O O14 0.233902 0.735293 0.337667
O O15 0.331152 0.694069 0.297977
O O16 0.200764 0.500000 0.286623
O O17 0.064014 0.266187 0.796495
O O18 0.093178 0.000000 0.728466
O O19 0.545627 0.766300 0.113888
O O20 0.490161 0.000000 0.117204
O O21 0.500000 0.768330 0.000000
O O22 0.574805 0.000000 0.174100
#
# Coordination Sequence:
#
# PCOD8079405 Si02
#       8
#     8   8   8   8   8   8   8   8
#     4  10  17  30  55  80 105 139 179 220 266 322
#     4  10  21  38  58  80 108 142 183 229 273 318
#     4   9  15  24  47  82 107 127 167 220 268 310
#     4  10  20  34  53  79 111 147 184 223 271 328
#     4   9  18  33  55  81 107 140 183 228 269 317
#     4  11  22  34  51  79 114 146 176 218 275 328
#     4  10  21  38  59  81 106 142 188 230 266 315
#     4   9  17  32  54  80 106 133 174 226 265 307
#
# _framework density 19.500540999999998
#
# number of rings (size 3 to 8) (size 9 to 14) (size 15 to 20)
#    0.000    2.250    2.500    1.125    0.000    4.750 
#    0.000    1.875    0.000    0.375    0.000    0.000 
#    0.000    0.000    0.000    0.000    0.000    0.000 
#
# Total GULP energy -396524.205659 kJ/mol
# GULP energy per Si atom -12391.381427 kJ/mol
# Density = 1.945616 g / cm^3
# Si number density = 19.500541 Si / 1000 Ang^3
#
#
#
# Elastic Constant Matrix: (Units=GPa)
#
#
# Indices 1 2 3 4 5 6 
#
# 1 117.3543 20.8117 61.5378 0.0000 -10.1609 0.0000
# 2 20.8117 21.9567 20.1314 0.0000 -0.9480 0.0000
# 3 61.5378 20.1314 133.8001 0.0000 -3.8302 0.0000
# 4 0.0000 0.0000 0.0000 22.7946 0.0000 -6.0776
# 5 -10.1609 -0.9480 -3.8302 0.0000 36.5559 0.0000
# 6 0.0000 0.0000 0.0000 -6.0776 0.0000 19.2975
#
#
#
# Elastic Compliance Matrix: (Units=1/GPa)
#
#
# Indices 1 2 3 4 5 6 
#
# 1 0.012474 -0.007559 -0.004520 0.000000 0.002798 0.000000
# 2 -0.007559 0.057423 -0.005196 0.000000 -0.001156 0.000000
# 3 -0.004520 -0.005196 0.010326 0.000000 -0.000309 0.000000
# 4 0.000000 0.000000 0.000000 0.047891 0.000000 0.015083
# 5 0.002798 -0.001156 -0.000309 0.000000 0.028071 0.000000
# 6 0.000000 0.000000 0.000000 0.015083 0.000000 0.056571
#
#
# Mechanical properties :
#
#
# Convention : Reuss Voigt Hill
#
# Bulk Modulus (GPa) = 21.89480 53.11922 37.50701
# Shear Modulus (GPa) = 19.04547 27.10494 23.07521
#
# Velocity S-wave (km/s) = 3.12855 3.73226 3.44366
# Velocity P-wave (km/s) = 4.92977 6.77289 5.92346
#
# Compressibility (1/GPa) = 0.04567295
#
# Stress axis : x y z
#
# Youngs Moduli (GPa) = 80.16719 17.41454 96.84707
#
# Poissons Ratio (x) = 0.13163 0.43772
# Poissons Ratio (y) = 0.60596 0.50327
# Poissons Ratio (z) = 0.36233 0.09049
#
# Static dielectric constant tensor:
#      x y z
#    x 3.872480 0.000000 0.102710 
#    y 0.000000 3.066890 0.000000 
#    z 0.102710 0.000000 3.654550 
# 
# 
# High freq. dielectric constant tensor:
#      x y z
#    x 1.775580 0.000000 -0.004650 
#    y 0.000000 1.698440 0.000000 
#    z -0.004650 0.000000 1.761240 
# 
# From -- ./inp_files/248953.got.cif
#   From: 2010.06.25/outbox.cif.g09.slc.cpg/sg12_125_cif.got.tgz:248953.got - 2010.06.28 00:19:55.
