data_PCOD8079546
_publ_section_title
;
Structure prediction by ZEFSAII (Michael W. Deem and Ramdas Pophale) SiO2 
 PCOD8079546
Probable space group: C 2/M
;
_chemical_formula_sum "Si O2"
_cell_formula_units_Z 64
_cell_length_a 27.127280
_cell_length_b 19.460044
_cell_length_c 8.471584
_cell_angle_alpha 90.000000
_cell_angle_beta 126.282605
_cell_angle_gamma 90.000000
_cell_volume 3605.021922
_symmetry_space_group_name_H-M "C 2/M"
_symmetry_group_IT_number 12
_symmetry_cell_setting 'monoclinic'
loop_
_space_group_symop_operation_xyz
x,y,z
-x,y,-z
-x,-y,-z
x,-y,z
1/2+x,1/2+y,z
1/2-x,1/2+y,-z
1/2-x,1/2-y,-z
1/2+x,1/2-y,z
loop_
_atom_site_type_symbol
_atom_site_label
_atom_site_fract_x
_atom_site_fract_y
_atom_site_fract_z
Si Si1 0.246095 0.785915 0.247644
Si Si2 0.816899 0.177468 0.172287
Si Si3 0.811411 0.672072 0.663440
Si Si4 0.435034 0.772359 0.938947
Si Si5 0.410211 0.376696 0.773773
Si Si6 0.210200 0.080931 0.613578
Si Si7 0.056115 0.790265 0.702511
Si Si8 0.979104 0.922759 0.204879
O O1 0.279620 0.730486 0.205699
O O2 0.201190 0.747264 0.284266
O O3 0.292228 0.830709 0.442114
O O4 0.208342 0.833881 0.054276
O O5 0.812453 0.105197 0.256021
O O6 0.883646 0.211370 0.290486
O O7 0.885228 0.666795 0.815461
O O8 0.776332 0.612385 0.692300
O O9 0.418227 0.704885 0.805684
O O10 0.500000 0.800570 0.000000
O O11 0.436784 0.753842 0.126333
O O12 0.339394 0.394572 0.609848
O O13 0.451523 0.401525 0.705922
O O14 0.433684 0.417623 0.970060
O O15 0.217300 0.000000 0.629270
O O16 0.044603 0.871204 0.707838
O O17 0.000000 0.757197 0.500000
O O18 0.977611 0.000000 0.268650
#
# Coordination Sequence:
#
# PCOD8079546 Si02
#       8
#     8   8   8   8   8   8   8   8
#     4   9  18  34  55  79 101 138 174 226 277 327
#     4  10  20  33  51  74 112 141 177 214 279 324
#     4  10  20  35  59  79 102 136 184 230 275 314
#     4  11  20  35  56  81 107 135 182 231 276 317
#     4  10  17  32  51  72  99 141 183 229 257 297
#     4  11  23  36  54  78 109 146 185 220 268 326
#     4  11  22  31  46  75 109 144 174 223 261 314
#     4  10  19  30  45  67 103 149 189 215 245 296
#
# _framework density 17.753012999999999
#
# number of rings (size 3 to 8) (size 9 to 14) (size 15 to 20)
#    0.000    1.750    3.750    4.500    3.500    0.750 
#    0.000    0.625    0.000    0.375    0.000    0.000 
#    0.000    1.500    0.000    0.000    0.000    0.000 
#
# Total GULP energy -396733.049529 kJ/mol
# GULP energy per Si atom -12397.907798 kJ/mol
# Density = 1.771261 g / cm^3
# Si number density = 17.753013 Si / 1000 Ang^3
#
#
#
# Elastic Constant Matrix: (Units=GPa)
#
#
# Indices 1 2 3 4 5 6 
#
# 1 78.5734 12.6073 42.7780 0.0000 19.4824 0.0000
# 2 12.6073 35.2128 29.9788 0.0000 9.2500 0.0000
# 3 42.7780 29.9788 115.2597 0.0000 10.2934 0.0000
# 4 0.0000 0.0000 0.0000 12.8212 0.0000 6.3389
# 5 19.4824 9.2500 10.2934 0.0000 34.1662 0.0000
# 6 0.0000 0.0000 0.0000 6.3389 0.0000 15.0131
#
#
#
# Elastic Compliance Matrix: (Units=1/GPa)
#
#
# Indices 1 2 3 4 5 6 
#
# 1 0.018110 0.001120 -0.006231 0.000000 -0.008753 0.000000
# 2 0.001120 0.038360 -0.009669 0.000000 -0.008111 0.000000
# 3 -0.006231 -0.009669 0.013311 0.000000 0.002161 0.000000
# 4 0.000000 0.000000 0.000000 0.098573 0.000000 -0.041620
# 5 -0.008753 -0.008111 0.002161 0.000000 0.035805 0.000000
# 6 0.000000 0.000000 0.000000 -0.041620 0.000000 0.084182
#
#
# Mechanical properties :
#
#
# Convention : Reuss Voigt Hill
#
# Bulk Modulus (GPa) = 24.86246 44.41935 34.64090
# Shear Modulus (GPa) = 15.09177 21.97888 18.53533
#
# Velocity S-wave (km/s) = 2.91880 3.52239 3.23471
# Velocity P-wave (km/s) = 5.03927 6.45120 5.78845
#
# Compressibility (1/GPa) = 0.04022128
#
# Stress axis : x y z
#
# Youngs Moduli (GPa) = 55.21851 26.06877 75.12842
#
# Poissons Ratio (x) = -0.02920 0.46813
# Poissons Ratio (y) = -0.06186 0.72640
# Poissons Ratio (z) = 0.34407 0.25205
#
# Static dielectric constant tensor:
#      x y z
#    x 3.403510 0.000000 -0.013650 
#    y 0.000000 2.882880 0.000000 
#    z -0.013650 0.000000 3.606690 
# 
# 
# High freq. dielectric constant tensor:
#      x y z
#    x 1.693590 0.000000 -0.001240 
#    y 0.000000 1.627400 0.000000 
#    z -0.001240 0.000000 1.697730 
# 
# From -- ./inp_files/106417.got.cif
#   From: 2010.06.25/outbox.cif.g09.slc.cpg/sg12_54_cif.got.tgz:106417.got - 2010.06.28 00:19:55.
