data_PCOD8079210
_publ_section_title
;
Structure prediction by ZEFSAII (Michael W. Deem and Ramdas Pophale) SiO2 
 PCOD8079210
Probable space group: C 2/M
;
_chemical_formula_sum "Si O2"
_cell_formula_units_Z 64
_cell_length_a 24.566952
_cell_length_b 19.679807
_cell_length_c 13.449196
_cell_angle_alpha 90.000000
_cell_angle_beta 148.945236
_cell_angle_gamma 90.000000
_cell_volume 3354.268880
_symmetry_space_group_name_H-M "C 2/M"
_symmetry_group_IT_number 12
_symmetry_cell_setting 'monoclinic'
loop_
_space_group_symop_operation_xyz
x,y,z
-x,y,-z
-x,-y,-z
x,-y,z
1/2+x,1/2+y,z
1/2-x,1/2+y,-z
1/2-x,1/2-y,-z
1/2+x,1/2-y,z
loop_
_atom_site_type_symbol
_atom_site_label
_atom_site_fract_x
_atom_site_fract_y
_atom_site_fract_z
Si Si1 0.757273 0.080753 0.499050
Si Si2 0.124422 0.242947 0.678902
Si Si3 0.517765 0.078935 0.134352
Si Si4 0.658349 0.368138 0.574251
Si Si5 0.335252 0.922149 0.985661
Si Si6 0.935873 0.921178 0.165956
Si Si7 0.755717 0.151651 0.981996
Si Si8 0.392594 0.426167 0.886093
O O1 0.638413 0.091037 0.350007
O O2 0.788357 0.126728 0.451966
O O3 0.818469 0.111489 0.690037
O O4 0.781366 0.000000 0.514965
O O5 0.154384 0.206558 0.620464
O O6 0.164216 0.201898 0.837181
O O7 0.000000 0.255104 0.500000
O O8 0.190620 0.313526 0.789420
O O9 0.486872 0.000000 0.078112
O O10 0.500000 0.114160 0.000000
O O11 0.435772 0.110414 0.084971
O O12 0.727335 0.416630 0.753251
O O13 0.537011 0.390641 0.379618
O O14 0.330378 0.879064 0.078245
O O15 0.354819 0.000000 0.044012
O O16 0.829226 0.909729 0.059891
O O17 0.959832 0.000000 0.189455
O O18 0.915238 0.886628 0.024902
O O19 0.340699 0.500000 0.829630
O O20 0.500000 0.439162 0.000000
#
# Coordination Sequence:
#
# PCOD8079210 Si02
#       8
#     8   8   8   8   8   8   8   8
#     4  10  17  29  49  79 120 154 179 218 281 349
#     4  10  21  41  58  77 102 144 205 235 272 328
#     4   9  16  27  46  75 116 157 184 214 269 345
#     4  11  19  30  57  88 112 142 183 236 285 333
#     4  10  19  32  52  85 120 146 180 229 287 342
#     4  11  20  33  56  90 121 144 176 233 299 344
#     4  10  22  38  58  79 108 152 189 235 282 337
#     4   9  17  28  46  77 117 154 179 207 275 362
#
# _framework density 19.080165000000001
#
# number of rings (size 3 to 8) (size 9 to 14) (size 15 to 20)
#    0.000    2.000    3.750    1.500    0.000    0.000 
#    2.250    1.875    0.000    1.500    9.750    0.000 
#    0.000    0.000    0.000    0.000    0.000    0.000 
#
# Total GULP energy -396440.678245 kJ/mol
# GULP energy per Si atom -12388.771195 kJ/mol
# Density = 1.903674 g / cm^3
# Si number density = 19.080165 Si / 1000 Ang^3
#
#
#
# Elastic Constant Matrix: (Units=GPa)
#
#
# Indices 1 2 3 4 5 6 
#
# 1 126.6610 33.8057 56.3249 0.0000 11.3532 0.0000
# 2 33.8057 43.6872 38.4308 0.0000 0.7565 0.0000
# 3 56.3249 38.4308 122.8050 0.0000 0.3093 0.0000
# 4 0.0000 0.0000 0.0000 22.0725 0.0000 -7.7888
# 5 11.3532 0.7565 0.3093 0.0000 33.9237 0.0000
# 6 0.0000 0.0000 0.0000 -7.7888 0.0000 20.6022
#
#
#
# Elastic Compliance Matrix: (Units=1/GPa)
#
#
# Indices 1 2 3 4 5 6 
#
# 1 0.011227 -0.005662 -0.003368 0.000000 -0.003600 0.000000
# 2 -0.005662 0.034453 -0.008188 0.000000 0.001201 0.000000
# 3 -0.003368 -0.008188 0.012247 0.000000 0.001198 0.000000
# 4 0.000000 0.000000 0.000000 0.052280 0.000000 0.019765
# 5 -0.003600 0.001201 0.001198 0.000000 0.030645 0.000000
# 6 0.000000 0.000000 0.000000 0.019765 0.000000 0.056011
#
#
# Mechanical properties :
#
#
# Convention : Reuss Voigt Hill
#
# Bulk Modulus (GPa) = 42.56999 61.14177 51.85588
# Shear Modulus (GPa) = 20.90912 26.29246 23.60079
#
# Velocity S-wave (km/s) = 3.31396 3.71617 3.52081
# Velocity P-wave (km/s) = 6.08298 7.10827 6.61552
#
# Compressibility (1/GPa) = 0.02349073
#
# Stress axis : x y z
#
# Youngs Moduli (GPa) = 89.07223 29.02468 81.65144
#
# Poissons Ratio (x) = 0.16434 0.27502
# Poissons Ratio (y) = 0.50434 0.66856
# Poissons Ratio (z) = 0.30002 0.23765
#
# Static dielectric constant tensor:
#      x y z
#    x 3.583200 0.000000 0.035460 
#    y 0.000000 3.131580 0.000000 
#    z 0.035460 0.000000 4.045750 
# 
# 
# High freq. dielectric constant tensor:
#      x y z
#    x 1.745860 0.000000 0.003610 
#    y 0.000000 1.684440 0.000000 
#    z 0.003610 0.000000 1.753390 
# 
# From -- ./inp_files/170178.got.cif
#   From: 2010.06.25/outbox.cif.g09.slc.cpg/sg12_86_cif.got.tgz:170178.got - 2010.06.28 00:19:55.
