data_PCOD8079413
_publ_section_title
;
Structure prediction by ZEFSAII (Michael W. Deem and Ramdas Pophale) SiO2 
 PCOD8079413
Probable space group: C 2/M
;
_chemical_formula_sum "Si O2"
_cell_formula_units_Z 64
_cell_length_a 31.040544
_cell_length_b 8.927275
_cell_length_c 12.003200
_cell_angle_alpha 90.000000
_cell_angle_beta 90.948426
_cell_angle_gamma 90.000000
_cell_volume 3325.720726
_symmetry_space_group_name_H-M "C 2/M"
_symmetry_group_IT_number 12
_symmetry_cell_setting 'monoclinic'
loop_
_space_group_symop_operation_xyz
x,y,z
-x,y,-z
-x,-y,-z
x,-y,z
1/2+x,1/2+y,z
1/2-x,1/2+y,-z
1/2-x,1/2-y,-z
1/2+x,1/2-y,z
loop_
_atom_site_type_symbol
_atom_site_label
_atom_site_fract_x
_atom_site_fract_y
_atom_site_fract_z
Si Si1 0.454396 0.823363 0.738567
Si Si2 0.176632 0.677623 0.500996
Si Si3 0.872151 0.678449 0.107015
Si Si4 0.920837 0.322792 0.501715
Si Si5 0.050818 0.323077 0.733405
Si Si6 0.201359 0.175265 0.282253
Si Si7 0.296127 0.175275 0.258418
Si Si8 0.121540 0.822205 0.132101
O O1 0.447791 0.771056 0.610532
O O2 0.503173 0.779615 0.774023
O O3 0.422969 0.734776 0.818448
O O4 0.445475 0.000000 0.751703
O O5 0.180649 0.500000 0.494068
O O6 0.127737 0.733657 0.485238
O O7 0.203949 0.747152 0.402178
O O8 0.194122 0.741984 0.618788
O O9 0.872378 0.500000 0.091515
O O10 0.913780 0.735277 0.177771
O O11 0.829243 0.738505 0.168008
O O12 0.872925 0.756311 0.989047
O O13 0.921938 0.500000 0.491955
O O14 0.940734 0.253316 0.389201
O O15 0.055084 0.500000 0.723389
O O16 0.246743 0.211207 0.222077
O O17 0.161857 0.237208 0.207044
O O18 0.196210 0.000000 0.302602
O O19 0.305079 0.000000 0.266760
O O20 0.121048 0.000000 0.126058
#
# Coordination Sequence:
#
# PCOD8079413 Si02
#       8
#     8   8   8   8   8   8   8   8
#     4  10  19  33  57  84 108 135 172 212 258 316
#     4  10  17  30  56  85 110 135 168 210 259 315
#     4  10  20  37  59  78 100 134 180 224 263 307
#     4   9  15  27  52  85 112 131 160 208 262 310
#     4   9  17  31  55  86 110 131 165 217 269 311
#     4  10  21  36  53  76 109 145 175 208 259 315
#     4   9  18  34  57  82 107 136 170 215 266 312
#     4  11  24  39  52  71 106 145 181 220 261 303
#
# _framework density 19.243949000000001
#
# number of rings (size 3 to 8) (size 9 to 14) (size 15 to 20)
#    0.000    2.250    2.500    1.125    0.000    3.000 
#    0.000    4.375    0.000    3.000    0.000    0.000 
#    0.000    0.000    0.000    0.000    0.000    0.000 
#
# Total GULP energy -396739.448723 kJ/mol
# GULP energy per Si atom -12398.107773 kJ/mol
# Density = 1.920015 g / cm^3
# Si number density = 19.243949 Si / 1000 Ang^3
#
#
#
# Elastic Constant Matrix: (Units=GPa)
#
#
# Indices 1 2 3 4 5 6 
#
# 1 139.0894 26.3471 68.6209 0.0000 -15.5240 0.0000
# 2 26.3471 27.8151 30.7275 0.0000 -5.3537 0.0000
# 3 68.6209 30.7275 148.8125 0.0000 -16.5803 0.0000
# 4 0.0000 0.0000 0.0000 17.2315 0.0000 -1.2331
# 5 -15.5240 -5.3537 -16.5803 0.0000 19.8052 0.0000
# 6 0.0000 0.0000 0.0000 -1.2331 0.0000 17.3615
#
#
#
# Elastic Compliance Matrix: (Units=1/GPa)
#
#
# Indices 1 2 3 4 5 6 
#
# 1 0.010209 -0.005441 -0.003150 0.000000 0.003894 0.000000
# 2 -0.005441 0.049930 -0.007469 0.000000 0.002980 0.000000
# 3 -0.003150 -0.007469 0.010163 0.000000 0.004020 0.000000
# 4 0.000000 0.000000 0.000000 0.058330 0.000000 0.004143
# 5 0.003894 0.002980 0.004020 0.000000 0.057715 0.000000
# 6 0.000000 0.000000 0.000000 0.004143 0.000000 0.057893
#
#
# Mechanical properties :
#
#
# Convention : Reuss Voigt Hill
#
# Bulk Modulus (GPa) = 26.19063 63.01199 44.60131
# Shear Modulus (GPa) = 17.29591 23.54774 20.42183
#
# Velocity S-wave (km/s) = 3.00120 3.50186 3.26115
# Velocity P-wave (km/s) = 5.06448 7.01182 6.11615
#
# Compressibility (1/GPa) = 0.03818160
#
# Stress axis : x y z
#
# Youngs Moduli (GPa) = 97.95191 20.02820 98.39958
#
# Poissons Ratio (x) = 0.10896 0.31000
# Poissons Ratio (y) = 0.53291 0.73494
# Poissons Ratio (z) = 0.30859 0.14959
#
# Static dielectric constant tensor:
#      x y z
#    x 3.796330 0.000000 0.033540 
#    y 0.000000 3.017950 0.000000 
#    z 0.033540 0.000000 3.572630 
# 
# 
# High freq. dielectric constant tensor:
#      x y z
#    x 1.767350 0.000000 -0.001660 
#    y 0.000000 1.695880 0.000000 
#    z -0.001660 0.000000 1.750560 
# 
# From -- ./inp_files/187437.got.cif
#   From: 2010.06.25/outbox.cif.g09.slc.cpg/sg12_94_cif.got.tgz:187437.got - 2010.06.28 00:19:55.
