data_PCOD8079964
_publ_section_title
;
Structure prediction by ZEFSAII (Michael W. Deem and Ramdas Pophale) SiO2 
 PCOD8079964
Probable space group: C 2/M
;
_chemical_formula_sum "Si O2"
_cell_formula_units_Z 56
_cell_length_a 26.689064
_cell_length_b 14.760899
_cell_length_c 24.362232
_cell_angle_alpha 90.000000
_cell_angle_beta 18.963443
_cell_angle_gamma 90.000000
_cell_volume 3118.886425
_symmetry_space_group_name_H-M "C 2/M"
_symmetry_group_IT_number 12
_symmetry_cell_setting 'monoclinic'
loop_
_space_group_symop_operation_xyz
x,y,z
-x,y,-z
-x,-y,-z
x,-y,z
1/2+x,1/2+y,z
1/2-x,1/2+y,-z
1/2-x,1/2-y,-z
1/2+x,1/2-y,z
loop_
_atom_site_type_symbol
_atom_site_label
_atom_site_fract_x
_atom_site_fract_y
_atom_site_fract_z
Si Si1 0.470475 0.726726 0.587603
Si Si2 0.130611 0.840041 0.735698
Si Si3 0.814962 0.600363 0.644715
Si Si4 0.079021 0.764300 0.587827
Si Si5 0.022320 0.101161 0.214325
Si Si6 0.812050 0.169407 0.114654
Si Si7 0.838364 0.601851 0.834815
O O1 0.500000 0.671078 0.500000
O O2 0.546553 0.827470 0.501768
O O3 0.538430 0.682615 0.572620
O O4 0.287041 0.737717 0.783426
O O5 0.223785 0.902045 0.681650
O O6 0.239851 0.758850 0.600953
O O7 0.073104 0.896929 0.743369
O O8 0.984315 0.800357 0.920483
O O9 0.885289 0.500000 0.580026
O O10 0.695871 0.623255 0.817292
O O11 0.050262 0.829371 0.668015
O O12 0.976814 0.672970 0.698823
O O13 0.008037 0.000000 0.253056
O O14 0.201973 0.126032 0.019116
O O15 0.737477 0.102545 0.146891
O O16 0.901817 0.500000 0.779645
#
# Coordination Sequence:
#
# PCOD8079964 Si02
#       7
#     8   8   8   8   8   8   8
#     4   8  17  30  45  64  87 115 149 186 222 263
#     4  10  20  30  42  64  92 121 153 185 220 263
#     4  10  18  27  41  63  93 126 154 178 210 260
#     4  10  19  32  50  68  91 121 153 187 229 273
#     4  10  20  34  49  66  89 119 157 196 230 265
#     4   9  17  28  42  64  94 124 151 177 213 264
#     4   9  18  31  48  69  93 121 152 186 223 267
#
# _framework density 17.955127000000001
#
# number of rings (size 3 to 8) (size 9 to 14) (size 15 to 20)
#    0.000    2.571    0.000    2.143    0.000   10.571 
#    0.000    0.000    0.000    0.429    0.000    0.000 
#    0.000   14.857    0.000    0.000    0.000    0.000 
#
# Total GULP energy -346928.560634 kJ/mol
# GULP energy per Si atom -12390.305737 kJ/mol
# Density = 1.791426 g / cm^3
# Si number density = 17.955127 Si / 1000 Ang^3
#
#
#
# Elastic Constant Matrix: (Units=GPa)
#
#
# Indices 1 2 3 4 5 6 
#
# 1 78.0945 27.3097 29.8199 -0.0092 10.6067 -0.0013
# 2 27.3097 41.8262 32.7267 -0.0089 9.4190 0.0040
# 3 29.8199 32.7267 117.6234 -0.0220 7.7380 0.0026
# 4 -0.0092 -0.0089 -0.0220 13.0976 0.0084 1.5278
# 5 10.6067 9.4190 7.7380 0.0084 30.6095 -0.0014
# 6 -0.0013 0.0040 0.0026 1.5278 -0.0014 9.5780
#
#
#
# Elastic Compliance Matrix: (Units=1/GPa)
#
#
# Indices 1 2 3 4 5 6 
#
# 1 0.017007 -0.009296 -0.001551 0.000004 -0.002640 0.000006
# 2 -0.009296 0.037374 -0.007624 0.000012 -0.006352 -0.000017
# 3 -0.001551 -0.007624 0.011010 0.000012 0.000100 -0.000002
# 4 0.000004 0.000012 0.000012 0.077797 -0.000030 -0.012410
# 5 -0.002640 -0.006352 0.000100 -0.000030 0.035514 0.000012
# 6 0.000006 -0.000017 -0.000002 -0.012410 0.000012 0.106386
#
#
# Mechanical properties :
#
#
# Convention : Reuss Voigt Hill
#
# Bulk Modulus (GPa) = 35.15219 46.36185 40.75702
# Shear Modulus (GPa) = 15.08238 20.50286 17.79262
#
# Velocity S-wave (km/s) = 2.90143 3.38286 3.15135
# Velocity P-wave (km/s) = 5.55380 6.41368 5.99917
#
# Compressibility (1/GPa) = 0.02844773
#
# Stress axis : x y z
#
# Youngs Moduli (GPa) = 58.80014 26.75664 90.82883
#
# Poissons Ratio (x) = 0.24872 0.14092
# Poissons Ratio (y) = 0.54659 0.69249
# Poissons Ratio (z) = 0.09123 0.20400
#
# Static dielectric constant tensor:
#      x y z
#    x 3.612740 0.000000 0.135620 
#    y 0.000000 2.692400 0.000020 
#    z 0.135620 0.000020 3.590580 
# 
# 
# High freq. dielectric constant tensor:
#      x y z
#    x 1.703810 0.000000 0.008330 
#    y 0.000000 1.623180 0.000000 
#    z 0.008330 0.000000 1.712200 
# 
# From -- ./inp_files/352043.got.cif
#   From: 2010.06.25/outbox.cif.g09.slc.cpg/sg12_177_cif.got.tgz:352043.got - 2010.06.28 00:19:55.
