data_PCOD8079519
_publ_section_title
;
Structure prediction by ZEFSAII (Michael W. Deem and Ramdas Pophale) SiO2 
 PCOD8079519
Probable space group: C 2/M
;
_chemical_formula_sum "Si O2"
_cell_formula_units_Z 56
_cell_length_a 18.349308
_cell_length_b 20.290763
_cell_length_c 12.549948
_cell_angle_alpha 90.000000
_cell_angle_beta 45.287991
_cell_angle_gamma 90.000000
_cell_volume 3320.603303
_symmetry_space_group_name_H-M "C 2/M"
_symmetry_group_IT_number 12
_symmetry_cell_setting 'monoclinic'
loop_
_space_group_symop_operation_xyz
x,y,z
-x,y,-z
-x,-y,-z
x,-y,z
1/2+x,1/2+y,z
1/2-x,1/2+y,-z
1/2-x,1/2-y,-z
1/2+x,1/2-y,z
loop_
_atom_site_type_symbol
_atom_site_label
_atom_site_fract_x
_atom_site_fract_y
_atom_site_fract_z
Si Si1 0.462866 0.422321 0.844614
Si Si2 0.764402 0.820558 0.535964
Si Si3 0.099555 0.722951 0.171801
Si Si4 0.474794 0.663753 0.408854
Si Si5 0.208122 0.830027 0.924180
Si Si6 0.127678 0.842513 0.774965
Si Si7 0.946592 0.305326 0.164928
O O1 0.458751 0.500000 0.854288
O O2 0.508472 0.398012 0.685947
O O3 0.533342 0.394806 0.870209
O O4 0.347150 0.394077 0.970115
O O5 0.750000 0.750000 0.500000
O O6 0.855080 0.816905 0.529180
O O7 0.797096 0.864587 0.399868
O O8 0.661227 0.843650 0.703937
O O9 0.172613 0.673790 0.164279
O O10 0.044830 0.773417 0.308332
O O11 0.018802 0.677279 0.191441
O O12 0.158744 0.762255 0.017265
O O13 0.500000 0.638756 0.500000
O O14 0.196014 0.837200 0.809785
O O15 0.070863 0.773218 0.813131
O O16 0.000000 0.328314 0.000000
#
# Coordination Sequence:
#
# PCOD8079519 Si02
#       7
#     8   8   8   8   8   8   8
#     4  10  20  35  51  71 101 136 178 215 247 298
#     4   9  18  29  44  68 100 133 165 201 235 305
#     4  10  19  28  43  70 104 132 161 202 253 309
#     4  10  20  32  47  73 104 137 170 206 260 304
#     4  10  19  29  45  71 101 132 161 204 256 303
#     4  10  17  32  46  69  98 130 164 207 249 294
#     4  11  17  29  47  68 101 139 159 196 253 302
#
# _framework density 16.864405000000001
#
# number of rings (size 3 to 8) (size 9 to 14) (size 15 to 20)
#    0.000    2.000    7.143    0.429    4.000    2.571 
#    0.000    0.000    0.000    0.000    0.000    4.000 
#    0.000   17.143    0.000    0.000    0.000    0.000 
#
# Total GULP energy -346953.481930 kJ/mol
# GULP energy per Si atom -12391.195783 kJ/mol
# Density = 1.682602 g / cm^3
# Si number density = 16.864405 Si / 1000 Ang^3
#
#
#
# Elastic Constant Matrix: (Units=GPa)
#
#
# Indices 1 2 3 4 5 6 
#
# 1 161.7693 43.1262 55.9783 0.0000 0.3290 0.0000
# 2 43.1262 56.4878 13.4997 0.0000 -5.5568 0.0000
# 3 55.9783 13.4997 99.4875 0.0000 -4.8855 0.0000
# 4 0.0000 0.0000 0.0000 8.1676 0.0000 -1.0892
# 5 0.3290 -5.5568 -4.8855 0.0000 34.0386 0.0000
# 6 0.0000 0.0000 0.0000 -1.0892 0.0000 13.3368
#
#
#
# Elastic Compliance Matrix: (Units=1/GPa)
#
#
# Indices 1 2 3 4 5 6 
#
# 1 0.009434 -0.006291 -0.004541 0.000000 -0.001770 0.000000
# 2 -0.006291 0.022732 0.000645 0.000000 0.003864 0.000000
# 3 -0.004541 0.000645 0.012616 0.000000 0.001960 0.000000
# 4 0.000000 0.000000 0.000000 0.123784 0.000000 0.010109
# 5 -0.001770 0.003864 0.001960 0.000000 0.030308 0.000000
# 6 0.000000 0.000000 0.000000 0.010109 0.000000 0.075806
#
#
# Mechanical properties :
#
#
# Convention : Reuss Voigt Hill
#
# Bulk Modulus (GPa) = 40.97297 60.32811 50.65054
# Shear Modulus (GPa) = 16.49132 24.78461 20.63796
#
# Velocity S-wave (km/s) = 3.13050 3.83775 3.50202
# Velocity P-wave (km/s) = 6.11678 7.44902 6.81553
#
# Compressibility (1/GPa) = 0.02440634
#
# Stress axis : x y z
#
# Youngs Moduli (GPa) = 106.00045 43.99086 79.26743
#
# Poissons Ratio (x) = 0.27676 0.35999
# Poissons Ratio (y) = 0.66687 -0.05113
# Poissons Ratio (z) = 0.48139 -0.02838
#
# Static dielectric constant tensor:
#      x y z
#    x 3.403010 0.000000 -0.244140 
#    y 0.000000 2.581480 0.000000 
#    z -0.244140 0.000000 3.837380 
# 
# 
# High freq. dielectric constant tensor:
#      x y z
#    x 1.663820 0.000000 0.001450 
#    y 0.000000 1.572630 0.000000 
#    z 0.001450 0.000000 1.659240 
# 
# From -- ./inp_files/159193.got.cif
#   From: 2010.06.25/outbox.cif.g09.slc.cpg/sg12_80_cif.got.tgz:159193.got - 2010.06.28 00:19:55.
