data_PCOD8079335
_publ_section_title
;
Structure prediction by ZEFSAII (Michael W. Deem and Ramdas Pophale) SiO2 
 PCOD8079335
Probable space group: C 2/M
;
_chemical_formula_sum "Si O2"
_cell_formula_units_Z 48
_cell_length_a 18.185382
_cell_length_b 11.433323
_cell_length_c 19.665896
_cell_angle_alpha 90.000000
_cell_angle_beta 152.866383
_cell_angle_gamma 90.000000
_cell_volume 1864.822164
_symmetry_space_group_name_H-M "C 2/M"
_symmetry_group_IT_number 12
_symmetry_cell_setting 'monoclinic'
loop_
_space_group_symop_operation_xyz
x,y,z
-x,y,-z
-x,-y,-z
x,-y,z
1/2+x,1/2+y,z
1/2-x,1/2+y,-z
1/2-x,1/2-y,-z
1/2+x,1/2-y,z
loop_
_atom_site_type_symbol
_atom_site_label
_atom_site_fract_x
_atom_site_fract_y
_atom_site_fract_z
Si Si1 0.222613 0.867135 0.060358
Si Si2 0.067520 0.741327 0.129769
Si Si3 0.723330 0.000000 0.260020
Si Si4 0.359292 0.131914 0.324046
Si Si5 0.866752 0.243624 0.511813
Si Si6 0.988727 0.000000 0.594785
Si Si7 0.058903 0.637338 0.290502
O O1 0.297416 0.858647 0.196616
O O2 0.368824 0.829411 0.129580
O O3 0.168146 0.000000 0.000188
O O4 0.066868 0.783606 0.925641
O O5 0.097751 0.604861 0.163724
O O6 0.235248 0.810978 0.275175
O O7 0.000000 0.771283 0.000000
O O8 0.866832 0.000000 0.431451
O O9 0.820898 0.000000 0.268615
O O10 0.533667 0.199600 0.469508
O O11 0.387209 0.000000 0.370068
O O12 0.952843 0.120676 0.605910
O O13 0.868387 0.334470 0.575304
O O14 0.677168 0.211510 0.335999
O O15 0.084274 0.500000 0.296701
#
# Coordination Sequence:
#
# PCOD8079335 Si02
#       7
#     8   8   4   8   8   4   8
#     4   8  15  27  45  73 101 126 157 203 261 314
#     4  10  18  31  51  74 102 130 168 219 263 295
#     4  11  23  36  50  72 103 143 182 203 251 316
#     4   9  16  27  47  74 104 133 159 203 262 306
#     4  10  17  30  50  74 103 136 166 207 253 302
#     4  11  22  36  52  70 104 148 173 204 249 319
#     4   9  17  29  50  80 106 129 166 209 263 306
#
# _framework density 25.739722
#
# number of rings (size 3 to 8) (size 9 to 14) (size 15 to 20)
#    0.000    2.500    2.500    2.250    0.000    2.000 
#    0.000    0.000    0.000    6.000    0.000    0.000 
#    0.000    0.000    0.000    0.000    0.000    0.000 
#
# Total GULP energy -297477.455952 kJ/mol
# GULP energy per Si atom -12394.893998 kJ/mol
# Density = 2.568114 g / cm^3
# Si number density = 25.739722 Si / 1000 Ang^3
#
#
#
# Elastic Constant Matrix: (Units=GPa)
#
#
# Indices 1 2 3 4 5 6 
#
# 1 88.6598 48.2267 56.9823 0.0000 54.2382 -0.0020
# 2 48.2267 173.0839 91.8733 0.0117 65.4195 -0.0049
# 3 56.9823 91.8733 182.4585 0.0251 67.5292 0.0081
# 4 0.0000 0.0117 0.0251 32.8286 0.0040 17.3945
# 5 54.2382 65.4195 67.5292 0.0040 56.0512 0.0006
# 6 -0.0020 -0.0049 0.0081 17.3945 0.0006 4.6800
#
#
#
# Elastic Compliance Matrix: (Units=1/GPa)
#
#
# Indices 1 2 3 4 5 6 
#
# 1 0.029920 0.004406 0.001906 0.000009 -0.036390 -0.000014
# 2 0.004406 0.011170 -0.001078 0.000011 -0.016002 -0.000023
# 3 0.001906 -0.001078 0.010188 -0.000003 -0.012860 -0.000005
# 4 0.000009 0.000011 -0.000003 -0.031425 -0.000016 0.116797
# 5 -0.036390 -0.016002 -0.012860 -0.000016 0.087224 0.000040
# 6 -0.000014 -0.000023 -0.000005 0.116797 0.000040 -0.220430
#
#
# Mechanical properties :
#
#
# Convention : Reuss Voigt Hill
#
# Bulk Modulus (GPa) = 16.19553 93.15185 54.67369
# Shear Modulus (GPa) = -48.43168 35.18664 -6.62252
#
# Velocity S-wave (km/s) = -4.34244 3.70133 -1.60576
# Velocity P-wave (km/s) = 4.34012 7.38478 4.22482
#
# Compressibility (1/GPa) = 0.06174542
#
# Stress axis : x y z
#
# Youngs Moduli (GPa) = 33.42293 89.52281 98.15455
#
# Poissons Ratio (x) = -0.39445 -0.18706
# Poissons Ratio (y) = -0.14727 0.10583
# Poissons Ratio (z) = -0.06370 0.09652
#
# Static dielectric constant tensor:
#      x y z
#    x 4.790510 0.000000 0.683910 
#    y 0.000000 4.686710 -0.000020 
#    z 0.683910 -0.000020 5.106610 
# 
# 
# High freq. dielectric constant tensor:
#      x y z
#    x 2.033830 0.000000 0.028230 
#    y 0.000000 2.025690 0.000000 
#    z 0.028230 0.000000 2.042830 
# 
# From -- ./inp_files/382821.got.cif
#   From: 2010.06.25/outbox.cif.g09.slc.cpg/sg12_192_cif.got.tgz:382821.got - 2010.06.28 00:19:55.
