data_PCOD8079329
_publ_section_title
;
Structure prediction by ZEFSAII (Michael W. Deem and Ramdas Pophale) SiO2 
 PCOD8079329
Probable space group: C 2/M
;
_chemical_formula_sum "Si O2"
_cell_formula_units_Z 48
_cell_length_a 24.427809
_cell_length_b 8.556850
_cell_length_c 23.683019
_cell_angle_alpha 90.000000
_cell_angle_beta 34.890822
_cell_angle_gamma 90.000000
_cell_volume 2831.669268
_symmetry_space_group_name_H-M "C 2/M"
_symmetry_group_IT_number 12
_symmetry_cell_setting 'monoclinic'
loop_
_space_group_symop_operation_xyz
x,y,z
-x,y,-z
-x,-y,-z
x,-y,z
1/2+x,1/2+y,z
1/2-x,1/2+y,-z
1/2-x,1/2-y,-z
1/2+x,1/2-y,z
loop_
_atom_site_type_symbol
_atom_site_label
_atom_site_fract_x
_atom_site_fract_y
_atom_site_fract_z
Si Si1 0.961949 0.684071 0.272285
Si Si2 0.164773 0.816720 0.535154
Si Si3 0.702399 0.184242 0.670407
Si Si4 0.583773 0.317014 0.998571
Si Si5 0.119728 0.683524 0.853634
Si Si6 0.844268 0.685605 0.948743
O O1 0.957299 0.500000 0.277612
O O2 0.935486 0.744400 0.358136
O O3 0.884990 0.755029 0.292945
O O4 0.067040 0.740726 0.165301
O O5 0.250000 0.750000 0.500000
O O6 0.194021 0.773235 0.445272
O O7 0.158923 0.000000 0.547837
O O8 0.694721 0.241351 0.741827
O O9 0.686560 0.000000 0.683531
O O10 0.560571 0.500000 0.021350
O O11 0.641884 0.279824 0.891730
O O12 0.486340 0.217872 0.080166
O O13 0.648037 0.263432 0.996405
O O14 0.128894 0.500000 0.858579
O O15 0.840452 0.500000 0.958475
O O16 0.750000 0.750000 0.000000
#
# Coordination Sequence:
#
# PCOD8079329 Si02
#       6
#     8   8   8   8   8   8
#     4   9  17  31  46  64  93 126 158 195 237 284
#     4   9  16  26  41  65  94 124 157 192 232 282
#     4   8  14  26  44  67  94 125 157 188 231 285
#     4  11  21  32  45  70  99 125 162 203 241 286
#     4  10  17  30  50  69  95 133 163 193 242 289
#     4  11  22  37  53  70  94 128 167 204 243 288
#
# _framework density 16.951132000000001
#
# number of rings (size 3 to 8) (size 9 to 14) (size 15 to 20)
#    0.000    2.333    1.667    5.000    0.000    1.333 
#    0.000    2.500    0.000    0.000    0.000    1.167 
#    0.000    9.333    0.000    0.000    0.000    0.000 
#
# Total GULP energy -297386.396225 kJ/mol
# GULP energy per Si atom -12391.099843 kJ/mol
# Density = 1.691255 g / cm^3
# Si number density = 16.951132 Si / 1000 Ang^3
#
#
#
# Elastic Constant Matrix: (Units=GPa)
#
#
# Indices 1 2 3 4 5 6 
#
# 1 78.8600 18.4273 56.8711 0.0002 12.9261 0.0004
# 2 18.4273 47.7897 28.2766 0.0060 4.2853 -0.0049
# 3 56.8711 28.2766 154.7327 0.0009 29.4172 -0.0012
# 4 0.0002 0.0060 0.0009 25.7646 0.0005 2.8800
# 5 12.9261 4.2853 29.4172 0.0005 25.9026 -0.0008
# 6 0.0004 -0.0049 -0.0012 2.8800 -0.0008 21.1352
#
#
#
# Elastic Compliance Matrix: (Units=1/GPa)
#
#
# Indices 1 2 3 4 5 6 
#
# 1 0.017801 -0.003408 -0.005533 0.000001 -0.002036 -0.000002
# 2 -0.003408 0.024146 -0.003474 -0.000006 0.001651 0.000006
# 3 -0.005533 -0.003474 0.010837 0.000001 -0.008971 -0.000001
# 4 0.000001 -0.000006 0.000001 0.039413 -0.000001 -0.005371
# 5 -0.002036 0.001651 -0.008971 -0.000001 0.049537 0.000002
# 6 -0.000002 0.000006 -0.000001 -0.005371 0.000002 0.048046
#
#
# Mechanical properties :
#
#
# Convention : Reuss Voigt Hill
#
# Bulk Modulus (GPa) = 35.77179 54.28139 45.02659
# Shear Modulus (GPa) = 22.32858 26.41432 24.37145
#
# Velocity S-wave (km/s) = 3.63331 3.95177 3.79588
# Velocity P-wave (km/s) = 6.22494 7.27418 6.76992
#
# Compressibility (1/GPa) = 0.02795499
#
# Stress axis : x y z
#
# Youngs Moduli (GPa) = 56.17757 41.41396 92.27837
#
# Poissons Ratio (x) = 0.14112 0.51056
# Poissons Ratio (y) = 0.19143 0.32059
# Poissons Ratio (z) = 0.31082 0.14388
#
# Static dielectric constant tensor:
#      x y z
#    x 2.775900 -0.000030 0.533710 
#    y -0.000030 3.160800 0.000010 
#    z 0.533710 0.000010 3.749440 
# 
# 
# High freq. dielectric constant tensor:
#      x y z
#    x 1.597020 0.000000 0.035790 
#    y 0.000000 1.652070 0.000000 
#    z 0.035790 0.000000 1.665490 
# 
# From -- ./inp_files/348289.got.cif
#   From: 2010.06.25/outbox.cif.g09.slc.cpg/sg12_175_cif.got.tgz:348289.got - 2010.06.28 00:19:55.
