data_PCOD8079531
_publ_section_title
;
Structure prediction by ZEFSAII (Michael W. Deem and Ramdas Pophale) SiO2 
 PCOD8079531
Probable space group: C 2/M
;
_chemical_formula_sum "Si O2"
_cell_formula_units_Z 52
_cell_length_a 28.610476
_cell_length_b 15.493263
_cell_length_c 20.553765
_cell_angle_alpha 90.000000
_cell_angle_beta 19.138642
_cell_angle_gamma 90.000000
_cell_volume 2987.042089
_symmetry_space_group_name_H-M "C 2/M"
_symmetry_group_IT_number 12
_symmetry_cell_setting 'monoclinic'
loop_
_space_group_symop_operation_xyz
x,y,z
-x,y,-z
-x,-y,-z
x,-y,z
1/2+x,1/2+y,z
1/2-x,1/2+y,-z
1/2-x,1/2-y,-z
1/2+x,1/2-y,z
loop_
_atom_site_type_symbol
_atom_site_label
_atom_site_fract_x
_atom_site_fract_y
_atom_site_fract_z
Si Si1 0.406194 0.756450 0.321721
Si Si2 0.441991 0.596494 0.936391
Si Si3 0.731175 0.905671 0.705175
Si Si4 0.000000 0.837500 0.000000
Si Si5 0.471518 0.094630 0.144342
Si Si6 0.624194 0.901180 0.385291
Si Si7 0.315188 0.771577 0.583239
O O1 0.250000 0.750000 0.500000
O O2 0.483963 0.665091 0.208333
O O3 0.489676 0.832124 0.174653
O O4 0.399852 0.783859 0.404989
O O5 0.484949 0.500000 0.857104
O O6 0.487616 0.604517 0.951938
O O7 0.272953 0.610576 0.152231
O O8 0.670335 0.891974 0.712201
O O9 0.841404 0.827220 0.573198
O O10 0.806560 0.000000 0.610775
O O11 0.607203 0.900711 0.920321
O O12 0.142368 0.779954 0.804270
O O13 0.463821 0.000000 0.188032
O O14 0.500000 0.872679 0.500000
O O15 0.616555 0.840319 0.458119
O O16 0.604655 0.000000 0.434476
#
# Coordination Sequence:
#
# PCOD8079531 Si02
#       7
#     8   8   8   4   8   8   8
#     4  12  21  30  43  77 117 142 160 197 262 327
#     4  10  20  33  52  76 107 141 173 216 264 311
#     4   9  16  28  46  65  91 135 178 202 228 282
#     4  10  17  32  49  72 106 138 181 216 251 310
#     4   9  17  29  43  62  96 139 173 199 231 288
#     4   9  20  40  62  78  93 128 184 233 268 303
#     4  11  20  31  51  75 106 137 169 210 261 310
#
# _framework density 17.408525999999998
#
# number of rings (size 3 to 8) (size 9 to 14) (size 15 to 20)
#    0.000    2.000    3.077    3.923    0.000    2.462 
#    0.000    0.769    0.000    0.462    0.000    0.000 
#    0.000    0.000    0.000    0.000    0.000    0.000 
#
# Total GULP energy -322290.321150 kJ/mol
# GULP energy per Si atom -12395.781583 kJ/mol
# Density = 1.736890 g / cm^3
# Si number density = 17.408526 Si / 1000 Ang^3
#
#
#
# Elastic Constant Matrix: (Units=GPa)
#
#
# Indices 1 2 3 4 5 6 
#
# 1 84.2652 60.6003 47.9215 -0.0006 5.0526 0.0002
# 2 60.6003 159.8325 47.1018 -0.0006 13.4165 0.0003
# 3 47.9215 47.1018 57.1535 -0.0019 8.1369 0.0007
# 4 -0.0006 -0.0006 -0.0019 13.6752 0.0008 -0.1579
# 5 5.0526 13.4165 8.1369 0.0008 26.9431 -0.0003
# 6 0.0002 0.0003 0.0007 -0.1579 -0.0003 18.8194
#
#
#
# Elastic Compliance Matrix: (Units=1/GPa)
#
#
# Indices 1 2 3 4 5 6 
#
# 1 0.024961 -0.004514 -0.017620 -0.000002 0.002888 0.000000
# 2 -0.004514 0.009201 -0.003413 0.000000 -0.002704 0.000000
# 3 -0.017620 -0.003413 0.035915 0.000004 -0.005843 -0.000001
# 4 -0.000002 0.000000 0.000004 0.073132 -0.000003 0.000614
# 5 0.002888 -0.002704 -0.005843 -0.000003 0.039685 0.000001
# 6 0.000000 0.000000 -0.000001 0.000614 0.000001 0.053142
#
#
# Mechanical properties :
#
#
# Convention : Reuss Voigt Hill
#
# Bulk Modulus (GPa) = 52.67846 68.05539 60.36692
# Shear Modulus (GPa) = 17.03829 21.59604 19.31716
#
# Velocity S-wave (km/s) = 3.13186 3.52596 3.33474
# Velocity P-wave (km/s) = 6.58817 7.46689 7.04125
#
# Compressibility (1/GPa) = 0.01898309
#
# Stress axis : x y z
#
# Youngs Moduli (GPa) = 40.06291 108.68740 27.84340
#
# Poissons Ratio (x) = 0.49058 0.49060
# Poissons Ratio (y) = 0.18083 0.09503
# Poissons Ratio (z) = 0.70591 0.37094
#
# Static dielectric constant tensor:
#      x y z
#    x 3.020520 0.000000 0.201040 
#    y 0.000000 3.756090 0.000000 
#    z 0.201040 0.000000 2.998240 
# 
# 
# High freq. dielectric constant tensor:
#      x y z
#    x 1.627560 0.000000 0.028260 
#    y 0.000000 1.698550 0.000000 
#    z 0.028260 0.000000 1.650100 
# 
# From -- ./inp_files/155331.got.cif
#   From: 2010.06.25/outbox.cif.g09.slc.cpg/sg12_78_cif.got.tgz:155331.got - 2010.06.28 00:19:55.
