data_PCOD8079803
_publ_section_title
;
Structure prediction by ZEFSAII (Michael W. Deem and Ramdas Pophale) SiO2 
 PCOD8079803
Probable space group: C 2/M
;
_chemical_formula_sum "Si O2"
_cell_formula_units_Z 64
_cell_length_a 16.936848
_cell_length_b 19.536922
_cell_length_c 23.898531
_cell_angle_alpha 90.000000
_cell_angle_beta 148.991067
_cell_angle_gamma 90.000000
_cell_volume 4073.914829
_symmetry_space_group_name_H-M "C 2/M"
_symmetry_group_IT_number 12
_symmetry_cell_setting 'monoclinic'
loop_
_space_group_symop_operation_xyz
x,y,z
-x,y,-z
-x,-y,-z
x,-y,z
1/2+x,1/2+y,z
1/2-x,1/2+y,-z
1/2-x,1/2-y,-z
1/2+x,1/2-y,z
loop_
_atom_site_type_symbol
_atom_site_label
_atom_site_fract_x
_atom_site_fract_y
_atom_site_fract_z
Si Si1 0.757693 0.823707 0.825224
Si Si2 0.556264 0.323056 0.947017
Si Si3 0.725164 0.419407 0.603751
Si Si4 0.903021 0.919402 0.357726
Si Si5 0.583511 0.170253 0.967152
Si Si6 0.775866 0.423907 0.033831
Si Si7 0.463880 0.923693 0.259531
Si Si8 0.758148 0.670931 0.825575
O O1 0.613609 0.875867 0.739834
O O2 0.694953 0.747363 0.775919
O O3 0.877571 0.842305 0.848471
O O4 0.852219 0.825061 0.939662
O O5 0.580854 0.246238 0.938017
O O6 0.621716 0.378074 0.942699
O O7 0.746653 0.500000 0.621871
O O8 0.579486 0.401069 0.477298
O O9 0.699784 0.392524 0.652068
O O10 0.877624 0.389451 0.666599
O O11 0.859385 0.882154 0.273555
O O12 0.881290 0.000000 0.335924
O O13 0.600839 0.112693 0.930707
O O14 0.422997 0.158417 0.899084
O O15 0.722966 0.160132 0.096255
O O16 0.736790 0.500000 0.987439
O O17 0.846167 0.429793 0.137560
O O18 0.491911 0.000000 0.301718
#
# Coordination Sequence:
#
# PCOD8079803 Si02
#       8
#     8   8   8   8   8   8   8   8
#     4   8  15  27  41  58  78 102 134 165 194 235
#     4   8  15  28  41  53  77 111 136 156 193 239
#     4   8  15  27  42  61  82 104 130 158 195 242
#     4   9  16  27  43  60  81 108 133 159 193 233
#     4   9  17  28  40  55  80 111 135 157 190 235
#     4  10  18  25  38  61  83 103 133 169 195 223
#     4   9  16  26  41  60  81 103 129 165 204 236
#     4   9  17  28  41  57  79 108 137 160 188 230
#
# _framework density 15.709705
#
# number of rings (size 3 to 8) (size 9 to 14) (size 15 to 20)
#    0.000    3.250    0.000    3.375    0.000    2.500 
#    0.000    4.375    0.000    0.000    0.000    0.000 
#    0.000    0.000    0.000    7.875    0.000    1.250 
#
# Total GULP energy -396524.912441 kJ/mol
# GULP energy per Si atom -12391.403514 kJ/mol
# Density = 1.567395 g / cm^3
# Si number density = 15.709705 Si / 1000 Ang^3
#
#
#
# Elastic Constant Matrix: (Units=GPa)
#
#
# Indices 1 2 3 4 5 6 
#
# 1 61.1109 43.3758 14.5032 -0.0004 14.5300 -0.0005
# 2 43.3758 90.2783 20.6677 0.0028 6.9119 0.0007
# 3 14.5032 20.6677 40.0537 0.0031 8.2969 0.0005
# 4 -0.0004 0.0028 0.0031 16.1568 0.0021 2.6099
# 5 14.5300 6.9119 8.2969 0.0021 18.2842 -0.0002
# 6 -0.0005 0.0007 0.0005 2.6099 -0.0002 26.8164
#
#
#
# Elastic Compliance Matrix: (Units=1/GPa)
#
#
# Indices 1 2 3 4 5 6 
#
# 1 0.030129 -0.012958 -0.000307 0.000005 -0.018905 0.000000
# 2 -0.012958 0.018200 -0.005968 -0.000003 0.006126 0.000000
# 3 -0.000307 -0.005968 0.030507 -0.000003 -0.011343 0.000000
# 4 0.000005 -0.000003 -0.000003 0.062882 -0.000009 -0.006120
# 5 -0.018905 0.006126 -0.011343 -0.000009 0.072547 0.000001
# 6 0.000000 0.000000 0.000000 -0.006120 0.000001 0.037886
#
#
# Mechanical properties :
#
#
# Convention : Reuss Voigt Hill
#
# Bulk Modulus (GPa) = 24.77128 38.72627 31.74878
# Shear Modulus (GPa) = 16.44332 19.77789 18.11060
#
# Velocity S-wave (km/s) = 3.23878 3.55203 3.39902
# Velocity P-wave (km/s) = 5.45790 6.44417 5.97143
#
# Compressibility (1/GPa) = 0.04036933
#
# Stress axis : x y z
#
# Youngs Moduli (GPa) = 33.19035 54.94431 32.77956
#
# Poissons Ratio (x) = 0.71199 0.01006
# Poissons Ratio (y) = 0.43009 0.19563
# Poissons Ratio (z) = 0.01019 0.32791
#
# Static dielectric constant tensor:
#      x y z
#    x 3.141820 0.000000 0.226290 
#    y 0.000000 3.125330 0.000000 
#    z 0.226290 0.000000 2.813360 
# 
# 
# High freq. dielectric constant tensor:
#      x y z
#    x 1.593760 0.000000 0.018940 
#    y 0.000000 1.594560 0.000000 
#    z 0.018940 0.000000 1.561290 
# 
# From -- ./inp_files/293710.got.cif
#   From: 2010.06.25/outbox.cif.g09.slc.cpg/sg12_147_cif.got.tgz:293710.got - 2010.06.28 00:19:55.
