data_PCOD8079134
_publ_section_title
;
Structure prediction by ZEFSAII (Michael W. Deem and Ramdas Pophale) SiO2 
 PCOD8079134
Probable space group: C 2/M
;
_chemical_formula_sum "Si O2"
_cell_formula_units_Z 64
_cell_length_a 30.290444
_cell_length_b 8.851680
_cell_length_c 30.836133
_cell_angle_alpha 90.000000
_cell_angle_beta 151.215779
_cell_angle_gamma 90.000000
_cell_volume 3981.059446
_symmetry_space_group_name_H-M "C 2/M"
_symmetry_group_IT_number 12
_symmetry_cell_setting 'monoclinic'
loop_
_space_group_symop_operation_xyz
x,y,z
-x,y,-z
-x,-y,-z
x,-y,z
1/2+x,1/2+y,z
1/2-x,1/2+y,-z
1/2-x,1/2-y,-z
1/2+x,1/2-y,z
loop_
_atom_site_type_symbol
_atom_site_label
_atom_site_fract_x
_atom_site_fract_y
_atom_site_fract_z
Si Si1 0.662437 0.679469 0.703013
Si Si2 0.365281 0.321860 0.743547
Si Si3 0.819221 0.820763 0.379811
Si Si4 0.870373 0.175463 0.572053
Si Si5 0.976923 0.678886 0.910674
Si Si6 0.836585 0.324966 0.630027
Si Si7 0.360198 0.178872 0.891887
Si Si8 0.474496 0.679268 0.578092
O O1 0.660989 0.500000 0.704676
O O2 0.656987 0.729863 0.648376
O O3 0.756369 0.742932 0.805580
O O4 0.574838 0.746651 0.653302
O O5 0.358174 0.500000 0.738861
O O6 0.275552 0.250680 0.687317
O O7 0.454000 0.266115 0.846738
O O8 0.378460 0.268833 0.705581
O O9 0.900539 0.757939 0.480137
O O10 0.807840 0.000000 0.374084
O O11 0.886492 0.273115 0.628923
O O12 0.771540 0.208816 0.465965
O O13 0.946531 0.226880 0.602690
O O14 0.878976 0.000000 0.591728
O O15 0.969996 0.500000 0.896865
O O16 0.906161 0.734528 0.886768
O O17 0.079396 0.727391 0.014434
O O18 0.856518 0.500000 0.655073
O O19 0.358663 0.000000 0.888085
O O20 0.475207 0.500000 0.574532
#
# Coordination Sequence:
#
# PCOD8079134 Si02
#       8
#     8   8   8   8   8   8   8   8
#     4   9  15  24  45  72  94 120 159 196 219 255
#     4  12  22  30  44  68  94 123 155 190 234 276
#     4  10  17  29  45  65  94 128 162 190 216 258
#     4   9  17  30  46  68  94 118 148 188 230 270
#     4   9  16  29  47  66  90 120 153 191 231 271
#     4  10  19  32  49  66  88 119 154 188 229 277
#     4   8  14  25  45  70  91 116 154 194 227 262
#     4   9  16  26  43  70  97 122 154 191 226 259
#
# _framework density 16.076122000000002
#
# number of rings (size 3 to 8) (size 9 to 14) (size 15 to 20)
#    0.000    2.500    2.500    2.625    0.000    2.000 
#    0.000    1.250    0.000    2.250    0.000    0.875 
#    0.000    0.000    0.000    0.000    0.000    0.000 
#
# Total GULP energy -396696.676579 kJ/mol
# GULP energy per Si atom -12396.771143 kJ/mol
# Density = 1.603953 g / cm^3
# Si number density = 16.076122 Si / 1000 Ang^3
#
#
#
# Elastic Constant Matrix: (Units=GPa)
#
#
# Indices 1 2 3 4 5 6 
#
# 1 105.4153 24.2546 59.8415 0.0000 -3.7989 0.0000
# 2 24.2546 31.9843 25.1621 0.0005 -4.9497 -0.0007
# 3 59.8415 25.1621 110.1722 0.0000 -3.8233 0.0000
# 4 0.0000 0.0005 0.0000 11.4275 0.0000 -5.2180
# 5 -3.7989 -4.9497 -3.8233 0.0000 21.8506 0.0000
# 6 0.0000 -0.0007 0.0000 -5.2180 0.0000 17.0055
#
#
#
# Elastic Compliance Matrix: (Units=1/GPa)
#
#
# Indices 1 2 3 4 5 6 
#
# 1 0.014569 -0.005871 -0.006571 0.000000 0.000053 0.000000
# 2 -0.005871 0.041624 -0.006063 -0.000001 0.007347 0.000001
# 3 -0.006571 -0.006063 0.014028 0.000000 -0.000061 0.000000
# 4 0.000000 -0.000001 0.000000 0.101766 0.000000 0.031226
# 5 0.000053 0.007347 -0.000061 0.000000 0.047428 0.000000
# 6 0.000000 0.000001 0.000000 0.031226 0.000000 0.068386
#
#
# Mechanical properties :
#
#
# Convention : Reuss Voigt Hill
#
# Bulk Modulus (GPa) = 30.10885 51.78759 40.94822
# Shear Modulus (GPa) = 14.88627 19.27763 17.08195
#
# Velocity S-wave (km/s) = 3.04630 3.46663 3.26324
# Velocity P-wave (km/s) = 5.58058 6.95034 6.30278
#
# Compressibility (1/GPa) = 0.03321283
#
# Stress axis : x y z
#
# Youngs Moduli (GPa) = 68.63900 24.02474 71.28499
#
# Poissons Ratio (x) = 0.14104 0.46839
# Poissons Ratio (y) = 0.40295 0.43218
# Poissons Ratio (z) = 0.45101 0.14566
#
# Static dielectric constant tensor:
#      x y z
#    x 3.110400 0.000000 0.033290 
#    y 0.000000 2.704350 0.000000 
#    z 0.033290 0.000000 3.319710 
# 
# 
# High freq. dielectric constant tensor:
#      x y z
#    x 1.602700 0.000000 -0.010310 
#    y 0.000000 1.583030 0.000000 
#    z -0.010310 0.000000 1.611330 
# 
# From -- ./inp_files/384556.got.cif
#   From: 2010.06.25/outbox.cif.g09.slc.cpg/sg12_193_cif.got.tgz:384556.got - 2010.06.28 00:19:55.
