data_PCOD8079425
_publ_section_title
;
Structure prediction by ZEFSAII (Michael W. Deem and Ramdas Pophale) SiO2 
 PCOD8079425
Probable space group: C 2/M
;
_chemical_formula_sum "Si O2"
_cell_formula_units_Z 36
_cell_length_a 9.245802
_cell_length_b 20.555137
_cell_length_c 15.933023
_cell_angle_alpha 90.000000
_cell_angle_beta 38.546247
_cell_angle_gamma 90.000000
_cell_volume 1886.918084
_symmetry_space_group_name_H-M "C 2/M"
_symmetry_group_IT_number 12
_symmetry_cell_setting 'monoclinic'
loop_
_space_group_symop_operation_xyz
x,y,z
-x,y,-z
-x,-y,-z
x,-y,z
1/2+x,1/2+y,z
1/2-x,1/2+y,-z
1/2-x,1/2-y,-z
1/2+x,1/2-y,z
loop_
_atom_site_type_symbol
_atom_site_label
_atom_site_fract_x
_atom_site_fract_y
_atom_site_fract_z
Si Si1 0.265078 0.425518 0.365649
Si Si2 0.000000 0.255192 0.000000
Si Si3 0.419015 0.574621 0.623019
Si Si4 0.413237 0.333882 0.887542
Si Si5 0.534906 0.073489 0.083916
O O1 0.297190 0.500000 0.316919
O O2 0.370947 0.419111 0.409070
O O3 0.383721 0.373096 0.251200
O O4 0.000000 0.406888 0.500000
O O5 0.033908 0.213590 0.899719
O O6 0.236375 0.297385 0.903363
O O7 0.500000 0.609747 0.500000
O O8 0.357940 0.500000 0.631421
O O9 0.186955 0.605593 0.768747
O O10 0.257921 0.385313 0.010132
O O11 0.576633 0.000000 0.093974
O O12 0.500000 0.076566 0.000000
#
# Coordination Sequence:
#
# PCOD8079425 Si02
#       5
#     8   4   8   8   8
#     4  10  20  35  58  85 116 146 177 231 300 350
#     4  10  24  36  60  78 110 148 202 240 280 314
#     4   9  17  29  48  79 114 145 177 215 270 343
#     4  11  20  40  56  83 109 149 192 245 274 340
#     4  10  17  30  59  86 108 144 187 233 289 347
#
# _framework density 19.078731000000001
#
# number of rings (size 3 to 8) (size 9 to 14) (size 15 to 20)
#    0.000    2.000    3.333    0.667    0.000    1.778 
#    0.000    5.556    0.000    5.333    0.000    0.000 
#    0.000    0.000    0.000    0.000    0.000    0.000 
#
# Total GULP energy -223065.416938 kJ/mol
# GULP energy per Si atom -12392.523163 kJ/mol
# Density = 1.903531 g / cm^3
# Si number density = 19.078731 Si / 1000 Ang^3
#
#
#
# Elastic Constant Matrix: (Units=GPa)
#
#
# Indices 1 2 3 4 5 6 
#
# 1 80.0856 48.1899 62.1389 0.0004 -9.4947 -0.0003
# 2 48.1899 98.2174 61.0715 -0.0001 -6.3453 0.0003
# 3 62.1389 61.0715 178.3232 -0.0077 -10.1137 0.0048
# 4 0.0004 -0.0001 -0.0077 25.9704 0.0019 -5.0771
# 5 -9.4947 -6.3453 -10.1137 0.0019 30.8097 -0.0016
# 6 -0.0003 0.0003 0.0048 -5.0771 -0.0016 12.3853
#
#
#
# Elastic Compliance Matrix: (Units=1/GPa)
#
#
# Indices 1 2 3 4 5 6 
#
# 1 0.020727 -0.007088 -0.004601 -0.000001 0.003417 0.000002
# 2 -0.007088 0.015406 -0.002803 -0.000001 0.000069 0.000000
# 3 -0.004601 -0.002803 0.008211 0.000002 0.000700 -0.000002
# 4 -0.000001 -0.000001 0.000002 0.041860 -0.000002 0.017160
# 5 0.003417 0.000069 0.000700 -0.000002 0.033754 0.000004
# 6 0.000002 0.000000 -0.000002 0.017160 0.000004 0.087776
#
#
# Mechanical properties :
#
#
# Convention : Reuss Voigt Hill
#
# Bulk Modulus (GPa) = 65.10189 77.71408 71.40799
# Shear Modulus (GPa) = 20.67509 26.18146 23.42827
#
# Velocity S-wave (km/s) = 3.29549 3.70846 3.50805
# Velocity P-wave (km/s) = 6.97690 7.69147 7.34288
#
# Compressibility (1/GPa) = 0.01536054
#
# Stress axis : x y z
#
# Youngs Moduli (GPa) = 48.24655 64.90948 121.79214
#
# Poissons Ratio (x) = 0.46006 0.56041
# Poissons Ratio (y) = 0.34195 0.34133
# Poissons Ratio (z) = 0.22200 0.18191
#
# Static dielectric constant tensor:
#      x y z
#    x 3.378450 0.000000 -0.041540 
#    y 0.000000 3.621780 0.000000 
#    z -0.041540 0.000000 3.732490 
# 
# 
# High freq. dielectric constant tensor:
#      x y z
#    x 1.729510 0.000000 -0.007850 
#    y 0.000000 1.726390 0.000000 
#    z -0.007850 0.000000 1.742680 
# 
# From -- ./inp_files/38815.got.cif
#   From: 2010.06.25/outbox.cif.g09.slc.cpg/sg12_20_cif.got.tgz:38815.got - 2010.06.28 00:19:55.
