data_PCOD8079553
_publ_section_title
;
Structure prediction by ZEFSAII (Michael W. Deem and Ramdas Pophale) SiO2 
 PCOD8079553
Probable space group: C 2/M
;
_chemical_formula_sum "Si O2"
_cell_formula_units_Z 44
_cell_length_a 12.526985
_cell_length_b 18.213361
_cell_length_c 12.946534
_cell_angle_alpha 90.000000
_cell_angle_beta 126.141262
_cell_angle_gamma 90.000000
_cell_volume 2385.436451
_symmetry_space_group_name_H-M "C 2/M"
_symmetry_group_IT_number 12
_symmetry_cell_setting 'monoclinic'
loop_
_space_group_symop_operation_xyz
x,y,z
-x,y,-z
-x,-y,-z
x,-y,z
1/2+x,1/2+y,z
1/2-x,1/2+y,-z
1/2-x,1/2-y,-z
1/2+x,1/2-y,z
loop_
_atom_site_type_symbol
_atom_site_label
_atom_site_fract_x
_atom_site_fract_y
_atom_site_fract_z
Si Si1 0.974179 0.685972 0.761596
Si Si2 0.931914 0.918041 0.072838
Si Si3 0.500000 0.198676 0.000000
Si Si4 0.398404 0.086753 0.533952
Si Si5 0.838115 0.164220 0.699877
Si Si6 0.762683 0.808818 0.880574
O O1 0.951795 0.618059 0.672608
O O2 0.869280 0.751830 0.684328
O O3 0.118280 0.721604 0.824370
O O4 0.965024 0.654454 0.875005
O O5 0.025611 0.880903 0.212018
O O6 0.899776 0.000000 0.091624
O O7 0.794752 0.874160 0.980785
O O8 0.000000 0.916216 0.000000
O O9 0.624886 0.248284 0.040888
O O10 0.500000 0.105824 0.500000
O O11 0.256430 0.124872 0.436268
O O12 0.378805 0.000000 0.533404
O O13 0.759631 0.161460 0.762459
#
# Coordination Sequence:
#
# PCOD8079553 Si02
#       6
#     8   8   4   8   8   8
#     4  11  21  35  59  82 114 148 188 228 281 329
#     4   9  16  27  48  78 113 147 176 219 279 332
#     4  10  20  34  54  84 110 148 182 236 270 322
#     4  11  23  38  57  83 115 148 184 233 289 336
#     4  10  19  35  54  82 113 146 186 229 274 334
#     4  10  17  32  52  83 114 140 184 229 276 322
#
# _framework density 18.445262
#
# number of rings (size 3 to 8) (size 9 to 14) (size 15 to 20)
#    0.000    1.818    6.364    1.636    0.000    1.455 
#    0.000    0.455    0.000    0.000    0.000    5.091 
#    0.000    0.000    0.000    0.000    0.000    0.000 
#
# Total GULP energy -272653.717600 kJ/mol
# GULP energy per Si atom -12393.350800 kJ/mol
# Density = 1.840328 g / cm^3
# Si number density = 18.445262 Si / 1000 Ang^3
#
#
#
# Elastic Constant Matrix: (Units=GPa)
#
#
# Indices 1 2 3 4 5 6 
#
# 1 60.7265 33.4443 46.6622 0.0000 0.5500 0.0000
# 2 33.4443 75.4913 46.3155 0.0000 -9.0530 0.0000
# 3 46.6622 46.3155 109.8403 0.0000 -6.6694 0.0000
# 4 0.0000 0.0000 0.0000 -35.2539 0.0000 -60.3754
# 5 0.5500 -9.0530 -6.6694 0.0000 32.5208 0.0000
# 6 0.0000 0.0000 0.0000 -60.3754 0.0000 -29.7201
#
#
#
# Elastic Compliance Matrix: (Units=1/GPa)
#
#
# Indices 1 2 3 4 5 6 
#
# 1 0.027214 -0.007171 -0.008796 0.000000 -0.004260 0.000000
# 2 -0.007171 0.020155 -0.005169 0.000000 0.004672 0.000000
# 3 -0.008796 -0.005169 0.015130 0.000000 0.001813 0.000000
# 4 0.000000 0.000000 0.000000 0.011442 0.000000 -0.023244
# 5 -0.004260 0.004672 0.001813 0.000000 0.032494 0.000000
# 6 0.000000 0.000000 0.000000 -0.023244 0.000000 0.013573
#
#
# Mechanical properties :
#
#
# Convention : Reuss Voigt Hill
#
# Bulk Modulus (GPa) = 49.43577 55.43357 52.43467
# Shear Modulus (GPa) = 29.58222 1.48509 15.53365
#
# Velocity S-wave (km/s) = 4.00907 0.89827 2.90513
# Velocity P-wave (km/s) = 6.94908 5.58517 6.30412
#
# Compressibility (1/GPa) = 0.02022827
#
# Stress axis : x y z
#
# Youngs Moduli (GPa) = 36.74600 49.61652 66.09264
#
# Poissons Ratio (x) = 0.35578 0.58135
# Poissons Ratio (y) = 0.26349 0.34160
# Poissons Ratio (z) = 0.32322 0.25644
#
# Static dielectric constant tensor:
#      x y z
#    x 3.207470 0.000000 0.011010 
#    y 0.000000 3.280090 0.000000 
#    z 0.011010 0.000000 3.502720 
# 
# 
# High freq. dielectric constant tensor:
#      x y z
#    x 1.687850 0.000000 0.009110 
#    y 0.000000 1.692790 0.000000 
#    z 0.009110 0.000000 1.727200 
# 
# From -- ./inp_files/206356.got.cif
#   From: 2010.06.25/outbox.cif.g09.slc.cpg/sg12_104_cif.got.tgz:206356.got - 2010.06.28 00:19:55.
