data_PCOD8079511
_publ_section_title
;
Structure prediction by ZEFSAII (Michael W. Deem and Ramdas Pophale) SiO2 
 PCOD8079511
Probable space group: C 2/M
;
_chemical_formula_sum "Si O2"
_cell_formula_units_Z 64
_cell_length_a 27.021652
_cell_length_b 14.180188
_cell_length_c 15.707944
_cell_angle_alpha 90.000000
_cell_angle_beta 146.961568
_cell_angle_gamma 90.000000
_cell_volume 3281.483632
_symmetry_space_group_name_H-M "C 2/M"
_symmetry_group_IT_number 12
_symmetry_cell_setting 'monoclinic'
loop_
_space_group_symop_operation_xyz
x,y,z
-x,y,-z
-x,-y,-z
x,-y,z
1/2+x,1/2+y,z
1/2-x,1/2+y,-z
1/2-x,1/2-y,-z
1/2+x,1/2-y,z
loop_
_atom_site_type_symbol
_atom_site_label
_atom_site_fract_x
_atom_site_fract_y
_atom_site_fract_z
Si Si1 0.028095 0.260156 0.133159
Si Si2 0.875972 0.216102 0.248063
Si Si3 0.705235 0.149951 0.429012
Si Si4 0.613544 0.396459 0.379687
Si Si5 0.291317 0.890799 0.049618
Si Si6 0.385444 0.101758 0.532590
Si Si7 0.571513 0.894905 0.898884
Si Si8 0.919638 0.212506 0.500053
O O1 0.109128 0.337741 0.241183
O O2 0.059907 0.173867 0.239069
O O3 0.940851 0.314361 0.047050
O O4 0.000000 0.221003 0.000000
O O5 0.813381 0.139624 0.110388
O O6 0.884999 0.180975 0.358029
O O7 0.971988 0.217063 0.339527
O O8 0.836395 0.322686 0.185351
O O9 0.750000 0.250000 0.500000
O O10 0.779906 0.087339 0.488916
O O11 0.687569 0.108356 0.496955
O O12 0.567502 0.500000 0.308265
O O13 0.612086 0.359966 0.474008
O O14 0.299172 0.000000 0.090100
O O15 0.338701 0.873716 0.026436
O O16 0.486339 0.111053 0.713681
O O17 0.372989 0.185547 0.447852
O O18 0.372383 0.000000 0.468502
O O19 0.577726 0.000000 0.948635
#
# Coordination Sequence:
#
# PCOD8079511 Si02
#       8
#     8   8   8   8   8   8   8   8
#     4  10  20  35  56  85 117 147 183 234 284 334
#     4  10  23  37  59  85 114 148 186 240 281 330
#     4   9  17  35  56  80 110 146 185 228 275 332
#     4  11  22  38  59  80 112 156 194 230 275 333
#     4  10  20  39  60  82 112 148 186 230 285 337
#     4  10  17  31  58  84 110 139 177 233 285 328
#     4   9  17  33  57  82 109 144 183 226 283 338
#     4  11  21  39  57  84 114 147 194 232 282 333
#
# _framework density 19.503371999999999
#
# number of rings (size 3 to 8) (size 9 to 14) (size 15 to 20)
#    0.000    2.000    5.000    0.375    0.000    3.500 
#    0.000    3.750    0.000    0.000    0.000    0.000 
#    0.000    0.000    0.000    0.000    0.000    0.000 
#
# Total GULP energy -396588.566757 kJ/mol
# GULP energy per Si atom -12393.392711 kJ/mol
# Density = 1.945898 g / cm^3
# Si number density = 19.503372 Si / 1000 Ang^3
#
#
#
# Elastic Constant Matrix: (Units=GPa)
#
#
# Indices 1 2 3 4 5 6 
#
# 1 97.0814 31.3716 28.0518 0.0000 3.4835 0.0000
# 2 31.3716 110.0315 13.4060 0.0000 -0.7340 0.0000
# 3 28.0518 13.4060 52.5521 0.0000 3.4709 0.0000
# 4 0.0000 0.0000 0.0000 10.7677 0.0000 5.2670
# 5 3.4835 -0.7340 3.4709 0.0000 24.9670 0.0000
# 6 0.0000 0.0000 0.0000 5.2670 0.0000 9.4739
#
#
#
# Elastic Compliance Matrix: (Units=1/GPa)
#
#
# Indices 1 2 3 4 5 6 
#
# 1 0.013081 -0.002987 -0.006151 0.000000 -0.001058 0.000000
# 2 -0.002987 0.010071 -0.001031 0.000000 0.000856 0.000000
# 3 -0.006151 -0.001031 0.022729 0.000000 -0.002332 0.000000
# 4 0.000000 0.000000 0.000000 0.127558 0.000000 -0.070916
# 5 -0.001058 0.000856 -0.002332 0.000000 0.040550 0.000000
# 6 0.000000 0.000000 0.000000 -0.070916 0.000000 0.144979
#
#
# Mechanical properties :
#
#
# Convention : Reuss Voigt Hill
#
# Bulk Modulus (GPa) = 39.14928 45.03598 42.09263
# Shear Modulus (GPa) = 12.89253 21.49742 17.19498
#
# Velocity S-wave (km/s) = 2.57386 3.32360 2.97247
# Velocity P-wave (km/s) = 5.38049 6.15386 5.78012
#
# Compressibility (1/GPa) = 0.02554325
#
# Stress axis : x y z
#
# Youngs Moduli (GPa) = 76.44562 99.29127 43.99667
#
# Poissons Ratio (x) = 0.29661 0.27061
# Poissons Ratio (y) = 0.22837 0.04537
# Poissons Ratio (z) = 0.47019 0.10238
#
# Static dielectric constant tensor:
#      x y z
#    x 3.460560 0.000000 0.172630 
#    y 0.000000 3.721790 0.000000 
#    z 0.172630 0.000000 3.217700 
# 
# 
# High freq. dielectric constant tensor:
#      x y z
#    x 1.761600 0.000000 0.017930 
#    y 0.000000 1.761910 0.000000 
#    z 0.017930 0.000000 1.727150 
# 
# From -- ./inp_files/240737.got.cif
#   From: 2010.06.25/outbox.cif.g09.slc.cpg/sg12_121_cif.got.tgz:240737.got - 2010.06.28 00:19:55.
