data_PCOD8079005
_publ_section_title
;
Structure prediction by ZEFSAII (Michael W. Deem and Ramdas Pophale) SiO2 
 PCOD8079005
Probable space group: C 2/M
;
_chemical_formula_sum "Si O2"
_cell_formula_units_Z 64
_cell_length_a 24.257320
_cell_length_b 17.946316
_cell_length_c 17.667647
_cell_angle_alpha 90.000000
_cell_angle_beta 149.588808
_cell_angle_gamma 90.000000
_cell_volume 3893.327167
_symmetry_space_group_name_H-M "C 2/M"
_symmetry_group_IT_number 12
_symmetry_cell_setting 'monoclinic'
loop_
_space_group_symop_operation_xyz
x,y,z
-x,y,-z
-x,-y,-z
x,-y,z
1/2+x,1/2+y,z
1/2-x,1/2+y,-z
1/2-x,1/2-y,-z
1/2+x,1/2-y,z
loop_
_atom_site_type_symbol
_atom_site_label
_atom_site_fract_x
_atom_site_fract_y
_atom_site_fract_z
Si Si1 0.909355 0.912405 0.228682
Si Si2 0.147665 0.086711 0.551167
Si Si3 0.476714 0.088140 0.056391
Si Si4 0.837059 0.168765 0.676814
Si Si5 0.744273 0.413423 0.826052
Si Si6 0.871485 0.082684 0.860930
Si Si7 0.442800 0.412546 0.101589
Si Si8 0.817485 0.659110 0.641630
O O1 0.816215 0.876872 0.172530
O O2 0.883200 0.893633 0.110150
O O3 0.028492 0.881189 0.391021
O O4 0.912722 0.000000 0.248086
O O5 0.167112 0.099174 0.662762
O O6 0.234919 0.133668 0.608322
O O7 0.160817 0.000000 0.544094
O O8 0.573383 0.110039 0.227458
O O9 0.466749 0.000000 0.039181
O O10 0.500000 0.120729 0.000000
O O11 0.363302 0.122941 0.953280
O O12 0.812768 0.138134 0.732791
O O13 0.852816 0.256667 0.699817
O O14 0.734587 0.148542 0.502764
O O15 0.944848 0.132364 0.769450
O O16 0.762753 0.500000 0.863583
O O17 0.822598 0.000000 0.790776
O O18 0.858953 0.108452 0.934119
O O19 0.000000 0.082078 0.000000
O O20 0.473658 0.500000 0.133159
#
# Coordination Sequence:
#
# PCOD8079005 Si02
#       8
#     8   8   8   8   8   8   8   8
#     4   9  16  26  47  73  94 120 154 197 239 275
#     4  10  17  28  46  68  97 128 160 193 230 273
#     4  10  19  31  46  66  97 131 159 187 220 276
#     4  10  20  31  43  68  94 122 157 201 231 277
#     4   9  17  29  44  69  98 123 159 194 224 273
#     4   8  15  28  46  67  91 116 145 190 244 287
#     4   9  16  29  49  72  95 118 146 193 251 287
#     4  11  21  30  44  67  94 132 160 186 232 275
#
# _framework density 16.438382000000001
#
# number of rings (size 3 to 8) (size 9 to 14) (size 15 to 20)
#    0.000    2.500    2.500    1.875    0.000    4.500 
#    0.000    0.000    0.000    0.750    0.000    0.875 
#    0.000    5.000    0.000    0.000    0.000    0.500 
#
# Total GULP energy -396642.820627 kJ/mol
# GULP energy per Si atom -12395.088145 kJ/mol
# Density = 1.640097 g / cm^3
# Si number density = 16.438382 Si / 1000 Ang^3
#
#
#
# Elastic Constant Matrix: (Units=GPa)
#
#
# Indices 1 2 3 4 5 6 
#
# 1 132.1573 30.2548 60.7217 0.0000 -5.6639 0.0000
# 2 30.2548 36.4617 22.9843 0.0000 -3.4402 0.0000
# 3 60.7217 22.9843 86.2446 0.0000 -9.0447 0.0000
# 4 0.0000 0.0000 0.0000 19.1901 0.0000 -5.3889
# 5 -5.6639 -3.4402 -9.0447 0.0000 27.6935 0.0000
# 6 0.0000 0.0000 0.0000 -5.3889 0.0000 8.0299
#
#
#
# Elastic Compliance Matrix: (Units=1/GPa)
#
#
# Indices 1 2 3 4 5 6 
#
# 1 0.012074 -0.005619 -0.007059 0.000000 -0.000534 0.000000
# 2 -0.005619 0.035622 -0.005378 0.000000 0.001520 0.000000
# 3 -0.007059 -0.005378 0.018407 0.000000 0.003900 0.000000
# 4 0.000000 0.000000 0.000000 0.064211 0.000000 0.043093
# 5 -0.000534 0.001520 0.003900 0.000000 0.037463 0.000000
# 6 0.000000 0.000000 0.000000 0.043093 0.000000 0.153456
#
#
# Mechanical properties :
#
#
# Convention : Reuss Voigt Hill
#
# Bulk Modulus (GPa) = 33.34350 53.64279 43.49315
# Shear Modulus (GPa) = 13.61132 20.37623 16.99377
#
# Velocity S-wave (km/s) = 2.88066 3.52455 3.21874
# Velocity P-wave (km/s) = 5.60288 7.01903 6.35055
#
# Compressibility (1/GPa) = 0.02999085
#
# Stress axis : x y z
#
# Youngs Moduli (GPa) = 82.82527 28.07276 54.32642
#
# Poissons Ratio (x) = 0.15774 0.38350
# Poissons Ratio (y) = 0.46538 0.29216
# Poissons Ratio (z) = 0.58468 0.15097
#
# Static dielectric constant tensor:
#      x y z
#    x 3.407110 0.000000 -0.193190 
#    y 0.000000 2.825500 0.000000 
#    z -0.193190 0.000000 3.183400 
# 
# 
# High freq. dielectric constant tensor:
#      x y z
#    x 1.628150 0.000000 -0.020230 
#    y 0.000000 1.595900 0.000000 
#    z -0.020230 0.000000 1.624600 
# 
# From -- ./inp_files/290472.got.cif
#   From: 2010.06.25/outbox.cif.g09.slc.cpg/sg12_146_cif.got.tgz:290472.got - 2010.06.28 00:19:55.
