data_PCOD8079678
_publ_section_title
;
Structure prediction by ZEFSAII (Michael W. Deem and Ramdas Pophale) SiO2 
 PCOD8079678
Probable space group: C 2/M
;
_chemical_formula_sum "Si O2"
_cell_formula_units_Z 40
_cell_length_a 15.886828
_cell_length_b 10.399847
_cell_length_c 11.175712
_cell_angle_alpha 90.000000
_cell_angle_beta 102.436442
_cell_angle_gamma 90.000000
_cell_volume 1803.131423
_symmetry_space_group_name_H-M "C 2/M"
_symmetry_group_IT_number 12
_symmetry_cell_setting 'monoclinic'
loop_
_space_group_symop_operation_xyz
x,y,z
-x,y,-z
-x,-y,-z
x,-y,z
1/2+x,1/2+y,z
1/2-x,1/2+y,-z
1/2-x,1/2-y,-z
1/2+x,1/2-y,z
loop_
_atom_site_type_symbol
_atom_site_label
_atom_site_fract_x
_atom_site_fract_y
_atom_site_fract_z
Si Si1 0.536142 0.500000 0.328000
Si Si2 0.350343 0.234172 0.041270
Si Si3 0.679250 0.000000 0.111010
Si Si4 0.654054 0.777090 0.686296
Si Si5 0.273168 0.500000 0.638993
Si Si6 0.500000 0.283092 0.500000
Si Si7 0.117899 0.000000 0.905941
Si Si8 0.726526 0.500000 0.644019
O O1 0.627731 0.500000 0.287332
O O2 0.538721 0.372219 0.408218
O O3 0.452364 0.500000 0.220180
O O4 0.374038 0.200166 0.185194
O O5 0.395812 0.370170 0.019932
O O6 0.250000 0.250000 0.000000
O O7 0.374849 0.121454 0.956398
O O8 0.782178 0.000000 0.110000
O O9 0.680799 0.000000 0.256757
O O10 0.573381 0.810362 0.576336
O O11 0.675217 0.627279 0.669684
O O12 0.732419 0.870902 0.680316
O O13 0.259534 0.500000 0.492436
#
# Coordination Sequence:
#
# PCOD8079678 Si02
#       8
#     4   8   4   8   4   4   4   4
#     4  11  20  37  60  94 121 170 202 252 308 380
#     4  10  18  33  60  92 121 153 210 266 299 348
#     4  10  19  34  59  93 119 157 207 268 304 352
#     4  12  22  41  62  99 124 164 208 260 312 373
#     4  12  28  37  62  96 138 159 202 253 327 377
#     4  11  20  35  68  88 122 166 216 250 306 368
#     4  10  17  33  59  92 114 150 207 260 295 352
#     4  12  20  39  59  86 127 169 205 236 313 391
#
# _framework density 22.183630000000001
#
# number of rings (size 3 to 8) (size 9 to 14) (size 15 to 20)
#    0.000    1.000    8.000    1.800    0.000    0.400 
#    0.000    0.000    0.000   10.800    5.200    2.800 
#    0.000    0.000    0.000    0.000    0.000    0.000 
#
# Total GULP energy -247802.097531 kJ/mol
# GULP energy per Si atom -12390.104877 kJ/mol
# Density = 2.213314 g / cm^3
# Si number density = 22.183630 Si / 1000 Ang^3
#
#
#
# Elastic Constant Matrix: (Units=GPa)
#
#
# Indices 1 2 3 4 5 6 
#
# 1 65.0591 32.8436 9.8002 0.0000 18.5577 0.0000
# 2 32.8436 132.6193 48.8794 0.0000 12.3603 0.0000
# 3 9.8002 48.8794 119.5091 0.0000 26.8635 0.0000
# 4 0.0000 0.0000 0.0000 27.0031 0.0000 14.5039
# 5 18.5577 12.3603 26.8635 0.0000 30.1547 0.0000
# 6 0.0000 0.0000 0.0000 14.5039 0.0000 3.3066
#
#
#
# Elastic Compliance Matrix: (Units=1/GPa)
#
#
# Indices 1 2 3 4 5 6 
#
# 1 0.021623 -0.005361 0.003647 0.000000 -0.014359 0.000000
# 2 -0.005361 0.010214 -0.004424 0.000000 0.003054 0.000000
# 3 0.003647 -0.004424 0.012473 0.000000 -0.011542 0.000000
# 4 0.000000 0.000000 0.000000 -0.027310 0.000000 0.119792
# 5 -0.014359 0.003054 -0.011542 0.000000 0.051030 0.000000
# 6 0.000000 0.000000 0.000000 0.119792 0.000000 -0.223025
#
#
# Mechanical properties :
#
#
# Convention : Reuss Voigt Hill
#
# Bulk Modulus (GPa) = 31.21746 55.58153 43.39950
# Shear Modulus (GPa) = -37.86714 27.13716 -5.36499
#
# Velocity S-wave (km/s) = -4.13605 3.50136 -1.55682
# Velocity P-wave (km/s) = 2.95066 6.43860 4.04656
#
# Compressibility (1/GPa) = 0.03203335
#
# Stress axis : x y z
#
# Youngs Moduli (GPa) = 46.24605 97.90344 80.17583
#
# Poissons Ratio (x) = 0.52487 -0.29241
# Poissons Ratio (y) = 0.24793 0.35474
# Poissons Ratio (z) = -0.16866 0.43317
#
# Static dielectric constant tensor:
#      x y z
#    x 3.394950 0.000000 0.674650 
#    y 0.000000 3.400140 0.000000 
#    z 0.674650 0.000000 3.742890 
# 
# 
# High freq. dielectric constant tensor:
#      x y z
#    x 1.816970 0.000000 0.029290 
#    y 0.000000 1.878770 0.000000 
#    z 0.029290 0.000000 1.891050 
# 
# From -- ./inp_files/141193.got.cif
#   From: 2010.06.25/outbox.cif.g09.slc.cpg/sg12_71_cif.got.tgz:141193.got - 2010.06.28 00:19:55.
