data_PCOD8079108
_publ_section_title
;
Structure prediction by ZEFSAII (Michael W. Deem and Ramdas Pophale) SiO2 
 PCOD8079108
Probable space group: C 2/M
;
_chemical_formula_sum "Si O2"
_cell_formula_units_Z 48
_cell_length_a 17.872568
_cell_length_b 16.977686
_cell_length_c 10.554638
_cell_angle_alpha 90.000000
_cell_angle_beta 57.763784
_cell_angle_gamma 90.000000
_cell_volume 2708.977017
_symmetry_space_group_name_H-M "C 2/M"
_symmetry_group_IT_number 12
_symmetry_cell_setting 'monoclinic'
loop_
_space_group_symop_operation_xyz
x,y,z
-x,y,-z
-x,-y,-z
x,-y,z
1/2+x,1/2+y,z
1/2-x,1/2+y,-z
1/2-x,1/2-y,-z
1/2+x,1/2-y,z
loop_
_atom_site_type_symbol
_atom_site_label
_atom_site_fract_x
_atom_site_fract_y
_atom_site_fract_z
Si Si1 0.084194 0.087718 0.338135
Si Si2 0.231743 0.216021 0.814763
Si Si3 0.201958 0.837811 0.423650
Si Si4 0.609594 0.731781 0.149472
Si Si5 0.798760 0.407018 0.573256
Si Si6 0.052148 0.713348 0.582534
O O1 0.170466 0.100187 0.346845
O O2 0.083748 0.144645 0.218367
O O3 0.000000 0.104745 0.500000
O O4 0.084432 0.000000 0.282476
O O5 0.226226 0.279490 0.705854
O O6 0.315609 0.231513 0.828625
O O7 0.246202 0.129551 0.741017
O O8 0.141546 0.223527 0.975851
O O9 0.244120 0.888113 0.496717
O O10 0.122168 0.782868 0.545095
O O11 0.521409 0.786338 0.238585
O O12 0.807793 0.500000 0.585198
O O13 0.897233 0.370033 0.471595
O O14 0.000000 0.731672 0.500000
#
# Coordination Sequence:
#
# PCOD8079108 Si02
#       6
#     8   8   8   8   8   8
#     4  10  17  28  52  79 102 133 173 222 268 307
#     4   9  19  33  56  78 105 140 179 222 270 314
#     4  10  18  36  53  76 103 145 184 216 255 323
#     4  10  17  33  54  81 107 133 180 231 264 315
#     4  11  23  36  54  81 115 146 176 219 272 328
#     4  11  17  35  59  81 103 138 192 226 257 310
#
# _framework density 17.718865000000001
#
# number of rings (size 3 to 8) (size 9 to 14) (size 15 to 20)
#    0.000    1.833    6.667    2.500    0.000    1.000 
#    0.000    3.333    0.000    4.000    0.000    0.000 
#    0.000    0.000    0.000    0.000    0.000    0.000 
#
# Total GULP energy -297498.948741 kJ/mol
# GULP energy per Si atom -12395.789531 kJ/mol
# Density = 1.767854 g / cm^3
# Si number density = 17.718865 Si / 1000 Ang^3
#
#
#
# Elastic Constant Matrix: (Units=GPa)
#
#
# Indices 1 2 3 4 5 6 
#
# 1 38.8214 22.6276 21.0553 0.0000 -3.5804 0.0000
# 2 22.6276 111.0246 49.4370 0.0000 -1.8576 0.0000
# 3 21.0553 49.4370 143.8862 0.0000 -16.4229 0.0000
# 4 0.0000 0.0000 0.0000 19.3468 0.0000 -0.2715
# 5 -3.5804 -1.8576 -16.4229 0.0000 18.0273 0.0000
# 6 0.0000 0.0000 0.0000 -0.2715 0.0000 23.1323
#
#
#
# Elastic Compliance Matrix: (Units=1/GPa)
#
#
# Indices 1 2 3 4 5 6 
#
# 1 0.030286 -0.005094 -0.002293 0.000000 0.003401 0.000000
# 2 -0.005094 0.011592 -0.003590 0.000000 -0.003088 0.000000
# 3 -0.002293 -0.003590 0.009402 0.000000 0.007740 0.000000
# 4 0.000000 0.000000 0.000000 0.051697 0.000000 0.000607
# 5 0.003401 -0.003088 0.007740 0.000000 0.062880 0.000000
# 6 0.000000 0.000000 0.000000 0.000607 0.000000 0.043237
#
#
# Mechanical properties :
#
#
# Convention : Reuss Voigt Hill
#
# Bulk Modulus (GPa) = 34.10030 53.33023 43.71526
# Shear Modulus (GPa) = 20.76207 25.47543 23.11875
#
# Velocity S-wave (km/s) = 3.42680 3.79589 3.61606
# Velocity P-wave (km/s) = 5.91136 7.02674 6.49304
#
# Compressibility (1/GPa) = 0.02932526
#
# Stress axis : x y z
#
# Youngs Moduli (GPa) = 33.01885 86.26574 106.35626
#
# Poissons Ratio (x) = 0.43947 0.24391
# Poissons Ratio (y) = 0.16821 0.38180
# Poissons Ratio (z) = 0.07572 0.30968
#
# Static dielectric constant tensor:
#      x y z
#    x 3.209690 0.000000 -0.171430 
#    y 0.000000 3.215790 0.000000 
#    z -0.171430 0.000000 3.648280 
# 
# 
# High freq. dielectric constant tensor:
#      x y z
#    x 1.673540 0.000000 -0.006620 
#    y 0.000000 1.674290 0.000000 
#    z -0.006620 0.000000 1.677240 
# 
# From -- ./inp_files/157648.got.cif
#   From: 2010.06.25/outbox.cif.g09.slc.cpg/sg12_79_cif.got.tgz:157648.got - 2010.06.28 00:19:55.
