data_PCOD8079676
_publ_section_title
;
Structure prediction by ZEFSAII (Michael W. Deem and Ramdas Pophale) SiO2 
 PCOD8079676
Probable space group: C 2/M
;
_chemical_formula_sum "Si O2"
_cell_formula_units_Z 64
_cell_length_a 31.095103
_cell_length_b 8.539183
_cell_length_c 19.558990
_cell_angle_alpha 90.000000
_cell_angle_beta 37.439093
_cell_angle_gamma 90.000000
_cell_volume 3157.181535
_symmetry_space_group_name_H-M "C 2/M"
_symmetry_group_IT_number 12
_symmetry_cell_setting 'monoclinic'
loop_
_space_group_symop_operation_xyz
x,y,z
-x,y,-z
-x,-y,-z
x,-y,z
1/2+x,1/2+y,z
1/2-x,1/2+y,-z
1/2-x,1/2-y,-z
1/2+x,1/2-y,z
loop_
_atom_site_type_symbol
_atom_site_label
_atom_site_fract_x
_atom_site_fract_y
_atom_site_fract_z
Si Si1 0.915605 0.682031 0.496976
Si Si2 0.339431 0.181809 0.730333
Si Si3 0.413373 0.817760 0.271462
Si Si4 0.824596 0.816454 0.271599
Si Si5 0.569847 0.813855 0.262451
Si Si6 0.193594 0.815739 0.858674
Si Si7 0.073231 0.316335 0.103327
Si Si8 0.681744 0.681111 0.491719
O O1 0.908402 0.500000 0.484722
O O2 0.899163 0.706757 0.597404
O O3 0.859030 0.780228 0.526248
O O4 0.993275 0.748718 0.382709
O O5 0.370016 0.255276 0.762396
O O6 0.264560 0.259628 0.802919
O O7 0.325416 0.000000 0.760494
O O8 0.390516 0.772495 0.223547
O O9 0.494725 0.771155 0.179060
O O10 0.366258 0.719564 0.382982
O O11 0.402157 0.000000 0.300651
O O12 0.817339 0.748419 0.203864
O O13 0.753589 0.781334 0.403958
O O14 0.840455 0.000000 0.252042
O O15 0.585857 0.759738 0.165226
O O16 0.567904 0.000000 0.270281
O O17 0.204418 0.000000 0.838228
O O18 0.126419 0.778343 0.989178
O O19 0.087642 0.500000 0.077215
O O20 0.702569 0.500000 0.466931
#
# Coordination Sequence:
#
# PCOD8079676 Si02
#       8
#     8   8   8   8   8   8   8   8
#     4  10  17  33  59  87 118 151 191 237 286 345
#     4   9  17  32  58  89 116 149 192 236 286 344
#     4  11  23  41  62  87 117 152 192 237 288 344
#     4  11  23  41  62  87 117 152 192 237 288 344
#     4   9  17  32  58  89 116 149 192 236 286 344
#     4  10  22  39  59  83 115 153 196 244 286 336
#     4  10  22  39  59  83 115 153 196 244 286 336
#     4  12  23  36  59  90 121 155 188 231 289 348
#
# _framework density 20.271245
#
# number of rings (size 3 to 8) (size 9 to 14) (size 15 to 20)
#    0.000    1.750    2.500    2.625    0.000    4.500 
#    0.000    2.500    0.000    3.000    0.000    0.000 
#    0.000    0.000    0.000    0.000    0.000    0.000 
#
# Total GULP energy -396856.765625 kJ/mol
# GULP energy per Si atom -12401.773926 kJ/mol
# Density = 2.022511 g / cm^3
# Si number density = 20.271245 Si / 1000 Ang^3
#
#
#
# Elastic Constant Matrix: (Units=GPa)
#
#
# Indices 1 2 3 4 5 6 
#
# 1 151.5604 18.8736 38.7982 0.0036 2.0349 -0.0039
# 2 18.8736 27.1995 9.5820 -0.0742 2.9589 0.0269
# 3 38.7982 9.5820 95.8279 -0.0212 0.9205 0.0080
# 4 0.0036 -0.0742 -0.0212 27.7275 0.0190 -0.1371
# 5 2.0349 2.9589 0.9205 0.0190 18.4408 0.0012
# 6 -0.0039 0.0269 0.0080 -0.1371 0.0012 22.2252
#
#
#
# Elastic Compliance Matrix: (Units=1/GPa)
#
#
# Indices 1 2 3 4 5 6 
#
# 1 0.007856 -0.004488 -0.002732 -0.000015 -0.000010 0.000008
# 2 -0.004488 0.041331 -0.002258 0.000113 -0.006024 -0.000049
# 3 -0.002732 -0.002258 0.011767 0.000003 0.000076 -0.000002
# 4 -0.000015 0.000113 0.000003 0.036067 -0.000054 0.000222
# 5 -0.000010 -0.006024 0.000076 -0.000054 0.055192 0.000004
# 6 0.000008 -0.000049 -0.000002 0.000222 0.000004 0.044995
#
#
# Mechanical properties :
#
#
# Convention : Reuss Voigt Hill
#
# Bulk Modulus (GPa) = 23.81063 45.45505 34.63284
# Shear Modulus (GPa) = 21.72382 27.50096 24.61239
#
# Velocity S-wave (km/s) = 3.27717 3.68727 3.48825
# Velocity P-wave (km/s) = 5.10796 6.37181 5.77457
#
# Compressibility (1/GPa) = 0.04199804
#
# Stress axis : x y z
#
# Youngs Moduli (GPa) = 127.28434 24.19516 84.98693
#
# Poissons Ratio (x) = 0.10859 0.23218
# Poissons Ratio (y) = 0.57125 0.19188
# Poissons Ratio (z) = 0.34774 0.05463
#
# Static dielectric constant tensor:
#      x y z
#    x 4.180800 -0.000060 0.006730 
#    y -0.000060 3.297480 0.000060 
#    z 0.006730 0.000060 3.542120 
# 
# 
# High freq. dielectric constant tensor:
#      x y z
#    x 1.813270 0.000000 0.001170 
#    y 0.000000 1.754160 0.000010 
#    z 0.001170 0.000010 1.786330 
# 
# From -- ./inp_files/295642.got.cif
#   From: 2010.06.25/outbox.cif.g09.slc.cpg/sg12_148_cif.got.tgz:295642.got - 2010.06.28 00:19:55.
