data_PCOD8079999
_publ_section_title
;
Structure prediction by ZEFSAII (Michael W. Deem and Ramdas Pophale) SiO2 
 PCOD8079999
Probable space group: C 2/M
;
_chemical_formula_sum "Si O2"
_cell_formula_units_Z 56
_cell_length_a 27.812037
_cell_length_b 8.764294
_cell_length_c 17.178450
_cell_angle_alpha 90.000000
_cell_angle_beta 126.269271
_cell_angle_gamma 90.000000
_cell_volume 3375.989676
_symmetry_space_group_name_H-M "C 2/M"
_symmetry_group_IT_number 12
_symmetry_cell_setting 'monoclinic'
loop_
_space_group_symop_operation_xyz
x,y,z
-x,y,-z
-x,-y,-z
x,-y,z
1/2+x,1/2+y,z
1/2-x,1/2+y,-z
1/2-x,1/2-y,-z
1/2+x,1/2-y,z
loop_
_atom_site_type_symbol
_atom_site_label
_atom_site_fract_x
_atom_site_fract_y
_atom_site_fract_z
Si Si1 0.205246 0.323002 0.298072
Si Si2 0.518692 0.319902 0.902871
Si Si3 0.646495 0.673771 0.380570
Si Si4 0.974751 0.678515 0.715291
Si Si5 0.914017 0.321407 0.900134
Si Si6 0.664668 0.672304 0.575648
Si Si7 0.956884 0.319957 0.524912
O O1 0.203890 0.500000 0.322031
O O2 0.195983 0.220083 0.365399
O O3 0.155068 0.287727 0.185312
O O4 0.270900 0.283165 0.325769
O O5 0.525444 0.500000 0.915588
O O6 0.521669 0.266885 0.815440
O O7 0.455933 0.267943 0.879824
O O8 0.573278 0.240299 0.000906
O O9 0.625142 0.500000 0.346005
O O10 0.591131 0.787547 0.315605
O O11 0.673601 0.693485 0.491971
O O12 0.988022 0.500000 0.732887
O O13 0.978770 0.741204 0.630316
O O14 0.929211 0.500000 0.909283
O O15 0.646892 0.500000 0.579627
O O16 0.611528 0.775680 0.558255
O O17 0.960748 0.500000 0.528536
O O18 0.000000 0.250100 0.500000
#
# Coordination Sequence:
#
# PCOD8079999 Si02
#       7
#     8   8   8   8   8   8   8
#     4  10  19  30  44  63  93 128 160 189 222 271
#     4  11  20  30  44  65  93 122 159 201 233 268
#     4  10  18  27  42  64  93 124 158 192 222 264
#     4  10  18  30  48  67  92 124 156 190 233 282
#     4  10  19  30  45  63  90 129 165 193 228 270
#     4   9  19  32  45  67  94 123 155 188 229 277
#     4   9  19  35  53  73  94 118 152 194 237 282
#
# _framework density 16.587729
#
# number of rings (size 3 to 8) (size 9 to 14) (size 15 to 20)
#    0.000    2.143    1.429    3.857    0.000    2.571 
#    0.000    0.000    0.000    0.000    0.000    1.000 
#    0.000    0.000    0.000    0.000    0.000    0.000 
#
# Total GULP energy -347127.587208 kJ/mol
# GULP energy per Si atom -12397.413829 kJ/mol
# Density = 1.654997 g / cm^3
# Si number density = 16.587729 Si / 1000 Ang^3
#
#
#
# Elastic Constant Matrix: (Units=GPa)
#
#
# Indices 1 2 3 4 5 6 
#
# 1 84.6943 20.2567 49.6359 0.0000 3.7915 0.0000
# 2 20.2567 51.5118 24.8145 0.0000 1.1023 0.0000
# 3 49.6359 24.8145 103.2218 0.0000 10.9960 0.0000
# 4 0.0000 0.0000 0.0000 22.0345 0.0000 1.2140
# 5 3.7915 1.1023 10.9960 0.0000 17.6068 0.0000
# 6 0.0000 0.0000 0.0000 1.2140 0.0000 16.0927
#
#
#
# Elastic Compliance Matrix: (Units=1/GPa)
#
#
# Indices 1 2 3 4 5 6 
#
# 1 0.016888 -0.003044 -0.007522 0.000000 0.001252 0.000000
# 2 -0.003044 0.022574 -0.004159 0.000000 0.001840 0.000000
# 3 -0.007522 -0.004159 0.015110 0.000000 -0.007556 0.000000
# 4 0.000000 0.000000 0.000000 0.045573 0.000000 -0.003438
# 5 0.001252 0.001840 -0.007556 0.000000 0.061131 0.000000
# 6 0.000000 0.000000 0.000000 -0.003438 0.000000 0.062399
#
#
# Mechanical properties :
#
#
# Convention : Reuss Voigt Hill
#
# Bulk Modulus (GPa) = 39.80731 47.64912 43.72821
# Shear Modulus (GPa) = 19.12055 20.79488 19.95772
#
# Velocity S-wave (km/s) = 3.39882 3.54451 3.47242
# Velocity P-wave (km/s) = 6.28114 6.74828 6.51890
#
# Compressibility (1/GPa) = 0.02512101
#
# Stress axis : x y z
#
# Youngs Moduli (GPa) = 59.21470 44.29833 66.18184
#
# Poissons Ratio (x) = 0.13485 0.49784
# Poissons Ratio (y) = 0.18026 0.27525
# Poissons Ratio (z) = 0.44543 0.18424
#
# Static dielectric constant tensor:
#      x y z
#    x 2.885210 0.000000 -0.018340 
#    y 0.000000 3.115270 0.000000 
#    z -0.018340 0.000000 3.411140 
# 
# 
# High freq. dielectric constant tensor:
#      x y z
#    x 1.587310 0.000000 0.006710 
#    y 0.000000 1.645070 0.000000 
#    z 0.006710 0.000000 1.642390 
# 
# From -- ./inp_files/291941.got.cif
#   From: 2010.06.25/outbox.cif.g09.slc.cpg/sg12_146_cif.got.tgz:291941.got - 2010.06.28 00:19:55.
