data_PCOD8079381
_publ_section_title
;
Structure prediction by ZEFSAII (Michael W. Deem and Ramdas Pophale) SiO2 
 PCOD8079381
Probable space group: C 2/M
;
_chemical_formula_sum "Si O2"
_cell_formula_units_Z 52
_cell_length_a 9.002165
_cell_length_b 20.165802
_cell_length_c 18.259200
_cell_angle_alpha 90.000000
_cell_angle_beta 53.721642
_cell_angle_gamma 90.000000
_cell_volume 2672.151419
_symmetry_space_group_name_H-M "C 2/M"
_symmetry_group_IT_number 12
_symmetry_cell_setting 'monoclinic'
loop_
_space_group_symop_operation_xyz
x,y,z
-x,y,-z
-x,-y,-z
x,-y,z
1/2+x,1/2+y,z
1/2-x,1/2+y,-z
1/2-x,1/2-y,-z
1/2+x,1/2-y,z
loop_
_atom_site_type_symbol
_atom_site_label
_atom_site_fract_x
_atom_site_fract_y
_atom_site_fract_z
Si Si1 0.049592 0.184303 0.103871
Si Si2 0.458162 0.925162 0.752720
Si Si3 0.500000 0.756188 0.500000
Si Si4 0.800341 0.320484 0.895837
Si Si5 0.399292 0.573167 0.236800
Si Si6 0.824781 0.663205 0.426259
Si Si7 0.720824 0.926044 0.438024
O O1 0.081101 0.253427 0.136083
O O2 0.856765 0.190259 0.118574
O O3 0.048710 0.125869 0.164617
O O4 0.214572 0.165763 0.000537
O O5 0.431801 0.882440 0.835146
O O6 0.259239 0.934446 0.776408
O O7 0.587321 0.883440 0.660784
O O8 0.538218 0.000000 0.744781
O O9 0.683881 0.714117 0.430293
O O10 0.523070 0.799515 0.567409
O O11 0.490049 0.500000 0.221156
O O12 0.309983 0.600839 0.337455
O O13 0.704934 0.617921 0.516782
O O14 0.500000 0.922798 0.500000
O O15 0.788748 0.000000 0.432426
#
# Coordination Sequence:
#
# PCOD8079381 Si02
#       7
#     8   8   4   8   8   8   8
#     4   9  18  34  52  76 104 134 166 215 256 309
#     4  10  19  32  53  77 103 135 172 213 261 308
#     4  10  24  34  52  74 106 136 174 214 268 304
#     4   9  19  33  53  76 102 133 173 206 261 310
#     4   9  17  29  51  81 103 132 174 214 254 299
#     4  11  20  37  51  76 104 137 170 217 257 315
#     4  10  17  30  53  74  98 136 175 207 246 308
#
# _framework density 19.459973999999999
#
# number of rings (size 3 to 8) (size 9 to 14) (size 15 to 20)
#    0.000    2.308    2.308    0.462    0.000    5.538 
#    0.000    4.615    0.000    2.769    0.000    4.308 
#    0.000    0.000    0.000    0.000    0.000    0.000 
#
# Total GULP energy -322226.789006 kJ/mol
# GULP energy per Si atom -12393.338039 kJ/mol
# Density = 1.941568 g / cm^3
# Si number density = 19.459974 Si / 1000 Ang^3
#
#
#
# Elastic Constant Matrix: (Units=GPa)
#
#
# Indices 1 2 3 4 5 6 
#
# 1 36.4681 34.0696 22.0677 0.0000 1.2394 0.0000
# 2 34.0696 171.5787 100.3113 0.0000 2.8271 0.0000
# 3 22.0677 100.3113 134.5940 0.0000 12.3132 0.0000
# 4 0.0000 0.0000 0.0000 30.9629 0.0000 -3.9033
# 5 1.2394 2.8271 12.3132 0.0000 15.9346 0.0000
# 6 0.0000 0.0000 0.0000 -3.9033 0.0000 19.9261
#
#
#
# Elastic Compliance Matrix: (Units=1/GPa)
#
#
# Indices 1 2 3 4 5 6 
#
# 1 0.033747 -0.006200 -0.000831 0.000000 -0.000882 0.000000
# 2 -0.006200 0.011767 -0.008185 0.000000 0.004719 0.000000
# 3 -0.000831 -0.008185 0.014556 0.000000 -0.009731 0.000000
# 4 0.000000 0.000000 0.000000 0.033115 0.000000 0.006487
# 5 -0.000882 0.004719 -0.009731 0.000000 0.069508 0.000000
# 6 0.000000 0.000000 0.000000 0.006487 0.000000 0.051456
#
#
# Mechanical properties :
#
#
# Convention : Reuss Voigt Hill
#
# Bulk Modulus (GPa) = 33.74153 72.83754 53.28954
# Shear Modulus (GPa) = 19.64946 25.77754 22.71350
#
# Velocity S-wave (km/s) = 3.18108 3.64351 3.42012
# Velocity P-wave (km/s) = 5.55598 7.43041 6.56048
#
# Compressibility (1/GPa) = 0.02963707
#
# Stress axis : x y z
#
# Youngs Moduli (GPa) = 29.63245 84.98494 68.69878
#
# Poissons Ratio (x) = 0.52695 0.05710
# Poissons Ratio (y) = 0.18374 0.56228
# Poissons Ratio (z) = 0.02463 0.69558
#
# Static dielectric constant tensor:
#      x y z
#    x 3.151180 0.000000 0.150310 
#    y 0.000000 4.166070 0.000000 
#    z 0.150310 0.000000 3.577860 
# 
# 
# High freq. dielectric constant tensor:
#      x y z
#    x 1.708830 0.000000 0.011130 
#    y 0.000000 1.778390 0.000000 
#    z 0.011130 0.000000 1.755570 
# 
# From -- ./inp_files/258414.got.cif
#   From: 2010.06.25/outbox.cif.g09.slc.cpg/sg12_130_cif.got.tgz:258414.got - 2010.06.28 00:19:55.
