data_PCOD8079527
_publ_section_title
;
Structure prediction by ZEFSAII (Michael W. Deem and Ramdas Pophale) SiO2 
 PCOD8079527
Probable space group: C 2/M
;
_chemical_formula_sum "Si O2"
_cell_formula_units_Z 56
_cell_length_a 24.556982
_cell_length_b 17.889901
_cell_length_c 9.847857
_cell_angle_alpha 90.000000
_cell_angle_beta 43.199965
_cell_angle_gamma 90.000000
_cell_volume 2961.608985
_symmetry_space_group_name_H-M "C 2/M"
_symmetry_group_IT_number 12
_symmetry_cell_setting 'monoclinic'
loop_
_space_group_symop_operation_xyz
x,y,z
-x,y,-z
-x,-y,-z
x,-y,z
1/2+x,1/2+y,z
1/2-x,1/2+y,-z
1/2-x,1/2-y,-z
1/2+x,1/2-y,z
loop_
_atom_site_type_symbol
_atom_site_label
_atom_site_fract_x
_atom_site_fract_y
_atom_site_fract_z
Si Si1 0.551205 0.411889 0.536604
Si Si2 0.501485 0.083309 0.835941
Si Si3 0.192451 0.831475 0.379117
Si Si4 0.652468 0.823839 0.568526
Si Si5 0.198605 0.913667 0.649670
Si Si6 0.049377 0.842776 0.041579
Si Si7 0.867428 0.693695 0.076161
O O1 0.500000 0.388431 0.500000
O O2 0.564039 0.500000 0.521030
O O3 0.637471 0.371859 0.366443
O O4 0.509125 0.383920 0.749518
O O5 0.579593 0.127092 0.645311
O O6 0.501844 0.000000 0.773025
O O7 0.500000 0.079588 0.000000
O O8 0.422913 0.125644 0.926471
O O9 0.151363 0.753240 0.489952
O O10 0.194589 0.886547 0.503051
O O11 0.281670 0.816983 0.159991
O O12 0.733920 0.868004 0.391944
O O13 0.646072 0.804666 0.738298
O O14 0.222595 0.000000 0.606547
O O15 0.115284 0.902689 0.876988
O O16 0.090423 0.771575 0.039466
O O17 0.000000 0.814466 0.000000
#
# Coordination Sequence:
#
# PCOD8079527 Si02
#       7
#     8   8   8   8   8   8   8
#     4  11  25  41  56  79 114 149 181 226 280 324
#     4   9  17  26  41  67 103 145 177 209 264 325
#     4  11  19  34  54  77 108 146 181 220 269 328
#     4  10  17  32  48  75 115 142 173 220 278 318
#     4  11  20  29  51  85 115 143 180 227 274 326
#     4  12  20  35  58  85 113 142 184 227 272 328
#     4  10  18  30  51  79 109 142 175 225 271 318
#
# _framework density 18.908639000000001
#
# number of rings (size 3 to 8) (size 9 to 14) (size 15 to 20)
#    0.000    1.429    4.286    4.286    0.000    4.571 
#    0.000    0.714    0.000    0.000    0.000    0.000 
#    0.000    3.429    0.000    0.000    0.000    0.000 
#
# Total GULP energy -347247.022876 kJ/mol
# GULP energy per Si atom -12401.679388 kJ/mol
# Density = 1.886560 g / cm^3
# Si number density = 18.908639 Si / 1000 Ang^3
#
#
#
# Elastic Constant Matrix: (Units=GPa)
#
#
# Indices 1 2 3 4 5 6 
#
# 1 118.9591 51.8891 34.1558 0.0000 -29.5109 0.0000
# 2 51.8891 115.3652 7.7109 0.0000 -11.0513 0.0000
# 3 34.1558 7.7109 33.4347 0.0000 -20.8576 0.0000
# 4 0.0000 0.0000 0.0000 15.7802 0.0000 -11.6924
# 5 -29.5109 -11.0513 -20.8576 0.0000 29.9627 0.0000
# 6 0.0000 0.0000 0.0000 -11.6924 0.0000 30.6711
#
#
#
# Elastic Compliance Matrix: (Units=1/GPa)
#
#
# Indices 1 2 3 4 5 6 
#
# 1 0.015385 -0.005667 -0.011067 0.000000 0.005359 0.000000
# 2 -0.005667 0.011073 0.004068 0.000000 0.001334 0.000000
# 3 -0.011067 0.004068 0.060828 0.000000 0.032944 0.000000
# 4 0.000000 0.000000 0.000000 0.088317 0.000000 0.033668
# 5 0.005359 0.001334 0.032944 0.000000 0.062078 0.000000
# 6 0.000000 0.000000 0.000000 0.033668 0.000000 0.045439
#
#
# Mechanical properties :
#
#
# Convention : Reuss Voigt Hill
#
# Bulk Modulus (GPa) = 16.14104 50.58564 33.36334
# Shear Modulus (GPa) = 15.19281 26.88301 21.03791
#
# Velocity S-wave (km/s) = 2.83766 3.77468 3.33920
# Velocity P-wave (km/s) = 4.39218 6.76818 5.70524
#
# Compressibility (1/GPa) = 0.06195389
#
# Stress axis : x y z
#
# Youngs Moduli (GPa) = 64.99796 90.31061 16.43989
#
# Poissons Ratio (x) = 0.51178 0.18194
# Poissons Ratio (y) = 0.36833 -0.06687
# Poissons Ratio (z) = 0.71932 -0.36736
#
# Static dielectric constant tensor:
#      x y z
#    x 3.493620 0.000000 -0.562550 
#    y 0.000000 3.630420 0.000000 
#    z -0.562550 0.000000 3.260430 
# 
# 
# High freq. dielectric constant tensor:
#      x y z
#    x 1.710790 0.000000 -0.056000 
#    y 0.000000 1.752940 0.000000 
#    z -0.056000 0.000000 1.698910 
# 
# From -- ./inp_files/105945.got.cif
#   From: 2010.06.25/outbox.cif.g09.slc.cpg/sg12_53_cif.got.tgz:105945.got - 2010.06.28 00:19:55.
