data_PCOD8079433
_publ_section_title
;
Structure prediction by ZEFSAII (Michael W. Deem and Ramdas Pophale) SiO2 
 PCOD8079433
Probable space group: C 2/M
;
_chemical_formula_sum "Si O2"
_cell_formula_units_Z 56
_cell_length_a 10.028332
_cell_length_b 26.176415
_cell_length_c 15.192184
_cell_angle_alpha 90.000000
_cell_angle_beta 50.801603
_cell_angle_gamma 90.000000
_cell_volume 3090.577125
_symmetry_space_group_name_H-M "C 2/M"
_symmetry_group_IT_number 12
_symmetry_cell_setting 'monoclinic'
loop_
_space_group_symop_operation_xyz
x,y,z
-x,y,-z
-x,-y,-z
x,-y,z
1/2+x,1/2+y,z
1/2-x,1/2+y,-z
1/2-x,1/2-y,-z
1/2+x,1/2-y,z
loop_
_atom_site_type_symbol
_atom_site_label
_atom_site_fract_x
_atom_site_fract_y
_atom_site_fract_z
Si Si1 0.441618 0.245846 0.776123
Si Si2 0.640169 0.325293 0.593057
Si Si3 0.595437 0.302102 0.870060
Si Si4 0.301941 0.000000 0.611625
Si Si5 0.117176 0.898851 0.365439
Si Si6 0.101665 0.351642 0.656941
Si Si7 0.495201 0.500000 0.396394
Si Si8 0.284456 0.112690 0.688398
O O1 0.579769 0.269608 0.649567
O O2 0.456102 0.277397 0.860798
O O3 0.246807 0.240479 0.820211
O O4 0.501200 0.187482 0.761347
O O5 0.455701 0.353393 0.663588
O O6 0.742789 0.322406 0.458772
O O7 0.765914 0.355922 0.605983
O O8 0.658048 0.357998 0.809864
O O9 0.500000 0.313303 0.000000
O O10 0.500000 0.000000 0.500000
O O11 0.252861 0.948408 0.687900
O O12 0.196590 0.000000 0.564019
O O13 0.315018 0.891755 0.310053
O O14 0.000000 0.904336 0.500000
O O15 0.098730 0.950882 0.317377
O O16 0.979727 0.381543 0.640345
O O17 0.500000 0.500000 0.500000
#
# Coordination Sequence:
#
# PCOD8079433 Si02
#       8
#     8   8   8   4   8   8   4   8
#     4  10  20  32  54  79 101 133 179 209 262 320
#     4  10  17  31  47  73 108 144 165 207 249 310
#     4  10  21  39  56  75 102 133 178 233 270 303
#     4  12  22  34  55  79 111 140 173 211 254 313
#     4   9  18  28  44  63 100 138 174 198 238 290
#     4  10  19  31  46  75 111 142 168 205 251 311
#     4  10  20  32  46  73  99 142 179 196 238 294
#     4  10  22  33  51  77 104 139 183 212 260 315
#
# _framework density 18.119592999999998
#
# number of rings (size 3 to 8) (size 9 to 14) (size 15 to 20)
#    0.000    2.000    1.429    3.000    4.000    0.000 
#    0.000    4.643    0.000    0.000    0.000    0.000 
#    0.000    2.571    0.000    0.000    0.000    0.000 
#
# Total GULP energy -346870.904845 kJ/mol
# GULP energy per Si atom -12388.246602 kJ/mol
# Density = 1.807835 g / cm^3
# Si number density = 18.119593 Si / 1000 Ang^3
#
#
#
# Elastic Constant Matrix: (Units=GPa)
#
#
# Indices 1 2 3 4 5 6 
#
# 1 130.1965 38.7990 5.4652 0.0000 0.5398 0.0000
# 2 38.7990 103.8146 16.1871 0.0000 -0.0784 0.0000
# 3 5.4652 16.1871 49.7676 0.0000 6.0249 0.0000
# 4 0.0000 0.0000 0.0000 9.2640 0.0000 -0.3323
# 5 0.5398 -0.0784 6.0249 0.0000 15.5618 0.0000
# 6 0.0000 0.0000 0.0000 -0.3323 0.0000 29.7230
#
#
#
# Elastic Compliance Matrix: (Units=1/GPa)
#
#
# Indices 1 2 3 4 5 6 
#
# 1 0.008646 -0.003256 0.000155 0.000000 -0.000376 0.000000
# 2 -0.003256 0.011402 -0.003537 0.000000 0.001540 0.000000
# 3 0.000155 -0.003537 0.022274 0.000000 -0.008647 0.000000
# 4 0.000000 0.000000 0.000000 0.107989 0.000000 0.001207
# 5 -0.000376 0.001540 -0.008647 0.000000 0.067629 0.000000
# 6 0.000000 0.000000 0.000000 0.001207 0.000000 0.033658
#
#
# Mechanical properties :
#
#
# Convention : Reuss Voigt Hill
#
# Bulk Modulus (GPa) = 34.42884 44.96460 39.69672
# Shear Modulus (GPa) = 18.21132 25.79823 22.00477
#
# Velocity S-wave (km/s) = 3.17371 3.77739 3.48863
# Velocity P-wave (km/s) = 5.69843 6.62527 6.17925
#
# Compressibility (1/GPa) = 0.02904542
#
# Stress axis : x y z
#
# Youngs Moduli (GPa) = 115.66074 87.70334 44.89599
#
# Poissons Ratio (x) = 0.28554 -0.00696
# Poissons Ratio (y) = 0.37656 0.15882
# Poissons Ratio (z) = -0.01793 0.31025
#
# Static dielectric constant tensor:
#      x y z
#    x 3.676630 0.000000 0.031310 
#    y 0.000000 3.844930 0.000000 
#    z 0.031310 0.000000 2.848630 
# 
# 
# High freq. dielectric constant tensor:
#      x y z
#    x 1.724760 0.000000 0.004100 
#    y 0.000000 1.706290 0.000000 
#    z 0.004100 0.000000 1.639210 
# 
# From -- ./inp_files/200551.got.cif
#   From: 2010.06.25/outbox.cif.g09.slc.cpg/sg12_101_cif.got.tgz:200551.got - 2010.06.28 00:19:55.
