data_PCOD8079064
_publ_section_title
;
Structure prediction by ZEFSAII (Michael W. Deem and Ramdas Pophale) SiO2 
 PCOD8079064
Probable space group: C 2/M
;
_chemical_formula_sum "Si O2"
_cell_formula_units_Z 64
_cell_length_a 20.266199
_cell_length_b 8.975088
_cell_length_c 25.679876
_cell_angle_alpha 90.000000
_cell_angle_beta 128.854148
_cell_angle_gamma 90.000000
_cell_volume 3637.470302
_symmetry_space_group_name_H-M "C 2/M"
_symmetry_group_IT_number 12
_symmetry_cell_setting 'monoclinic'
loop_
_space_group_symop_operation_xyz
x,y,z
-x,y,-z
-x,-y,-z
x,-y,z
1/2+x,1/2+y,z
1/2-x,1/2+y,-z
1/2-x,1/2-y,-z
1/2+x,1/2-y,z
loop_
_atom_site_type_symbol
_atom_site_label
_atom_site_fract_x
_atom_site_fract_y
_atom_site_fract_z
Si Si1 0.990875 0.673181 0.154083
Si Si2 0.706595 0.677033 0.823613
Si Si3 0.162797 0.323264 0.193276
Si Si4 0.423592 0.172734 0.693176
Si Si5 0.256586 0.822984 0.662206
Si Si6 0.430696 0.677587 0.425944
Si Si7 0.816390 0.176698 0.071071
Si Si8 0.546155 0.676659 0.679651
O O1 0.967366 0.500000 0.135127
O O2 0.910233 0.773652 0.101212
O O3 0.064256 0.723619 0.149502
O O4 0.022946 0.704594 0.228235
O O5 0.702143 0.500000 0.822020
O O6 0.793711 0.732411 0.838891
O O7 0.704097 0.737773 0.881112
O O8 0.626509 0.739547 0.751616
O O9 0.167533 0.500000 0.199121
O O10 0.216611 0.257432 0.268252
O O11 0.326093 0.225770 0.653577
O O12 0.460071 0.266053 0.663318
O O13 0.427736 0.000000 0.680528
O O14 0.162322 0.765838 0.601590
O O15 0.257460 0.000000 0.666736
O O16 0.500000 0.744349 0.500000
O O17 0.433834 0.500000 0.427954
O O18 0.449765 0.736837 0.377339
O O19 0.809310 0.000000 0.064053
O O20 0.750000 0.250000 0.000000
O O21 0.545930 0.500000 0.680170
#
# Coordination Sequence:
#
# PCOD8079064 Si02
#       8
#     8   8   8   8   8   8   8   8
#     4   9  17  30  50  74  96 120 155 198 242 285
#     4   9  16  28  48  73  94 119 158 202 239 271
#     4   8  13  25  47  72  93 116 155 204 241 274
#     4   9  17  28  46  71  97 125 157 195 239 289
#     4   8  13  24  42  66  95 125 157 195 239 284
#     4   9  16  26  44  71 100 128 161 204 247 281
#     4  11  22  35  51  71  99 131 159 191 238 290
#     4  10  17  28  48  73  98 122 159 207 243 275
#
# _framework density 17.594645
#
# number of rings (size 3 to 8) (size 9 to 14) (size 15 to 20)
#    0.000    2.875    2.500    1.875    0.000    0.000 
#    0.000    1.250    0.000    7.125    0.000    0.000 
#    0.000    0.000    0.000    0.000    0.000    0.000 
#
# Total GULP energy -396596.251298 kJ/mol
# GULP energy per Si atom -12393.632853 kJ/mol
# Density = 1.755460 g / cm^3
# Si number density = 17.594645 Si / 1000 Ang^3
#
#
#
# Elastic Constant Matrix: (Units=GPa)
#
#
# Indices 1 2 3 4 5 6 
#
# 1 175.2739 24.0336 81.0149 0.0000 8.9495 0.0000
# 2 24.0336 22.3906 24.3762 0.0000 2.7618 0.0000
# 3 81.0149 24.3762 123.1022 0.0000 5.3330 0.0000
# 4 0.0000 0.0000 0.0000 13.3102 0.0000 -0.1600
# 5 8.9495 2.7618 5.3330 0.0000 26.8490 0.0000
# 6 0.0000 0.0000 0.0000 -0.1600 0.0000 24.3735
#
#
#
# Elastic Compliance Matrix: (Units=1/GPa)
#
#
# Indices 1 2 3 4 5 6 
#
# 1 0.008511 -0.003727 -0.004798 0.000000 -0.001500 0.000000
# 2 -0.003727 0.058924 -0.009085 0.000000 -0.003014 0.000000
# 3 -0.004798 -0.009085 0.013083 0.000000 -0.000065 0.000000
# 4 0.000000 0.000000 0.000000 0.075136 0.000000 0.000493
# 5 -0.001500 -0.003014 -0.000065 0.000000 0.038068 0.000000
# 6 0.000000 0.000000 0.000000 0.000493 0.000000 0.041031
#
#
# Mechanical properties :
#
#
# Convention : Reuss Voigt Hill
#
# Bulk Modulus (GPa) = 22.07577 64.40178 43.23878
# Shear Modulus (GPa) = 17.53945 25.66268 21.60106
#
# Velocity S-wave (km/s) = 3.16074 3.82324 3.50767
# Velocity P-wave (km/s) = 5.08866 7.49480 6.40572
#
# Compressibility (1/GPa) = 0.04529853
#
# Stress axis : x y z
#
# Youngs Moduli (GPa) = 117.49888 16.97103 76.43678
#
# Poissons Ratio (x) = 0.06324 0.36675
# Poissons Ratio (y) = 0.43787 0.69441
# Poissons Ratio (z) = 0.56377 0.15418
#
# Static dielectric constant tensor:
#      x y z
#    x 3.691550 0.000000 0.046900 
#    y 0.000000 2.737040 0.000000 
#    z 0.046900 0.000000 3.217750 
# 
# 
# High freq. dielectric constant tensor:
#      x y z
#    x 1.700920 0.000000 0.005830 
#    y 0.000000 1.625340 0.000000 
#    z 0.005830 0.000000 1.655880 
# 
# From -- ./inp_files/319125.got.cif
#   From: 2010.06.25/outbox.cif.g09.slc.cpg/sg12_160_cif.got.tgz:319125.got - 2010.06.28 00:19:55.
