data_PCOD8079416
_publ_section_title
;
Structure prediction by ZEFSAII (Michael W. Deem and Ramdas Pophale) SiO2 
 PCOD8079416
Probable space group: C 2/M
;
_chemical_formula_sum "Si O2"
_cell_formula_units_Z 56
_cell_length_a 19.282654
_cell_length_b 17.527107
_cell_length_c 9.495944
_cell_angle_alpha 90.000000
_cell_angle_beta 64.643169
_cell_angle_gamma 90.000000
_cell_volume 2900.142861
_symmetry_space_group_name_H-M "C 2/M"
_symmetry_group_IT_number 12
_symmetry_cell_setting 'monoclinic'
loop_
_space_group_symop_operation_xyz
x,y,z
-x,y,-z
-x,-y,-z
x,-y,z
1/2+x,1/2+y,z
1/2-x,1/2+y,-z
1/2-x,1/2-y,-z
1/2+x,1/2-y,z
loop_
_atom_site_type_symbol
_atom_site_label
_atom_site_fract_x
_atom_site_fract_y
_atom_site_fract_z
Si Si1 0.670936 0.294457 0.762543
Si Si2 0.057905 0.726441 0.650687
Si Si3 0.169854 0.783915 0.340899
Si Si4 0.876433 0.583023 0.335679
Si Si5 0.082659 0.586277 0.998707
Si Si6 0.893913 0.745977 0.891529
Si Si7 0.295709 0.586939 0.480626
O O1 0.625588 0.235440 0.705692
O O2 0.759491 0.270195 0.680664
O O3 0.662196 0.376608 0.693003
O O4 0.631465 0.293810 0.949817
O O5 0.087735 0.754496 0.473133
O O6 0.055423 0.634273 0.654372
O O7 0.980440 0.767407 0.768778
O O8 0.163160 0.777951 0.178270
O O9 0.183201 0.868273 0.392893
O O10 0.911292 0.500000 0.333212
O O11 0.793921 0.592722 0.479257
O O12 0.859506 0.592697 0.182843
O O13 0.085899 0.500000 0.062863
O O14 0.108580 0.653577 0.084359
O O15 0.000000 0.603817 0.000000
O O16 0.323479 0.500000 0.475730
#
# Coordination Sequence:
#
# PCOD8079416 Si02
#       7
#     8   8   8   8   8   8   8
#     4  11  20  37  59  83 111 150 203 245 274 337
#     4  11  19  36  56  83 112 152 198 237 273 347
#     4  11  22  37  56  85 121 150 191 240 295 351
#     4  10  17  30  57  85 109 147 195 233 269 332
#     4  10  18  30  50  79 116 156 193 224 267 338
#     4  12  22  33  55  88 122 154 187 240 303 339
#     4  10  20  38  63  83 107 151 203 245 284 339
#
# _framework density 19.309393
#
# number of rings (size 3 to 8) (size 9 to 14) (size 15 to 20)
#    0.000    1.286    5.714    2.143    0.000    0.000 
#    0.000    2.143    0.000   15.429    0.000    0.000 
#    0.000    0.000    0.000    0.000    0.000    0.000 
#
# Total GULP energy -346889.023621 kJ/mol
# GULP energy per Si atom -12388.893701 kJ/mol
# Density = 1.926544 g / cm^3
# Si number density = 19.309393 Si / 1000 Ang^3
#
#
#
# Elastic Constant Matrix: (Units=GPa)
#
#
# Indices 1 2 3 4 5 6 
#
# 1 44.5585 27.2456 22.7623 0.0000 1.3234 0.0000
# 2 27.2456 119.9441 45.2569 0.0000 7.8593 0.0000
# 3 22.7623 45.2569 111.8589 0.0000 2.1319 0.0000
# 4 0.0000 0.0000 0.0000 24.2370 0.0000 -0.9948
# 5 1.3234 7.8593 2.1319 0.0000 35.6663 0.0000
# 6 0.0000 0.0000 0.0000 -0.9948 0.0000 21.0807
#
#
#
# Elastic Compliance Matrix: (Units=1/GPa)
#
#
# Indices 1 2 3 4 5 6 
#
# 1 0.027231 -0.004851 -0.003584 0.000000 0.000273 0.000000
# 2 -0.004851 0.010838 -0.003360 0.000000 -0.002007 0.000000
# 3 -0.003584 -0.003360 0.011024 0.000000 0.000214 0.000000
# 4 0.000000 0.000000 0.000000 0.041339 0.000000 0.001951
# 5 0.000273 -0.002007 0.000214 0.000000 0.028457 0.000000
# 6 0.000000 0.000000 0.000000 0.001951 0.000000 0.047529
#
#
# Mechanical properties :
#
#
# Convention : Reuss Voigt Hill
#
# Bulk Modulus (GPa) = 39.20854 51.87679 45.54266
# Shear Modulus (GPa) = 25.18760 28.26990 26.72875
#
# Velocity S-wave (km/s) = 3.61560 3.83044 3.72457
# Velocity P-wave (km/s) = 6.14651 6.81817 6.49103
#
# Compressibility (1/GPa) = 0.02550465
#
# Stress axis : x y z
#
# Youngs Moduli (GPa) = 36.72225 92.26452 90.70886
#
# Poissons Ratio (x) = 0.44761 0.32508
# Poissons Ratio (y) = 0.17815 0.30475
# Poissons Ratio (z) = 0.13160 0.30998
#
# Static dielectric constant tensor:
#      x y z
#    x 3.254540 0.000000 -0.201960 
#    y 0.000000 3.527230 0.000000 
#    z -0.201960 0.000000 3.716660 
# 
# 
# High freq. dielectric constant tensor:
#      x y z
#    x 1.723750 0.000000 -0.021150 
#    y 0.000000 1.737120 0.000000 
#    z -0.021150 0.000000 1.757480 
# 
# From -- ./inp_files/97643.got.cif
#   From: 2010.06.25/outbox.cif.g09.slc.cpg/sg12_49_cif.got.tgz:97643.got - 2010.06.28 00:19:55.
