data_PCOD8079479
_publ_section_title
;
Structure prediction by ZEFSAII (Michael W. Deem and Ramdas Pophale) SiO2 
 PCOD8079479
Probable space group: C 2/M
;
_chemical_formula_sum "Si O2"
_cell_formula_units_Z 44
_cell_length_a 16.611953
_cell_length_b 14.767933
_cell_length_c 16.610469
_cell_angle_alpha 90.000000
_cell_angle_beta 36.518852
_cell_angle_gamma 90.000000
_cell_volume 2424.950877
_symmetry_space_group_name_H-M "C 2/M"
_symmetry_group_IT_number 12
_symmetry_cell_setting 'monoclinic'
loop_
_space_group_symop_operation_xyz
x,y,z
-x,y,-z
-x,-y,-z
x,-y,z
1/2+x,1/2+y,z
1/2-x,1/2+y,-z
1/2-x,1/2-y,-z
1/2+x,1/2-y,z
loop_
_atom_site_type_symbol
_atom_site_label
_atom_site_fract_x
_atom_site_fract_y
_atom_site_fract_z
Si Si1 0.500000 0.815255 0.000000
Si Si2 0.580765 0.000000 0.545013
Si Si3 0.629503 0.304400 0.442722
Si Si4 0.750924 0.309497 0.792624
Si Si5 0.277895 0.000000 0.723249
Si Si6 0.401114 0.896226 0.240060
Si Si7 0.979314 0.684550 0.333733
O O1 0.627679 0.752592 0.918767
O O2 0.528479 0.879769 0.902031
O O3 0.434588 0.000000 0.621739
O O4 0.711649 0.000000 0.381566
O O5 0.593369 0.090468 0.586413
O O6 0.500000 0.346056 0.500000
O O7 0.682799 0.221654 0.344935
O O8 0.739473 0.383336 0.362445
O O9 0.594869 0.266642 0.559885
O O10 0.699907 0.412174 0.819696
O O11 0.861811 0.309617 0.774388
O O12 0.459970 0.817785 0.252585
O O13 0.431580 0.000000 0.241857
#
# Coordination Sequence:
#
# PCOD8079479 Si02
#       7
#     4   4   8   8   4   8   8
#     4  10  23  39  46  68 100 142 184 205 231 282
#     4   9  14  24  48  83 107 116 152 195 255 316
#     4   9  18  33  53  80 106 126 153 202 263 309
#     4   9  18  31  53  76 104 133 161 199 253 300
#     4   9  14  25  50  78 104 129 147 194 254 316
#     4  11  22  35  53  72  97 136 177 210 239 285
#     4  10  17  31  54  82 101 124 160 208 256 301
#
# _framework density 18.144697000000001
#
# number of rings (size 3 to 8) (size 9 to 14) (size 15 to 20)
#    0.000    2.364    2.727    0.818    0.000    1.455 
#    0.000    0.000    0.000    0.000    2.364    0.000 
#    0.000    0.000    0.000    0.000    0.000    0.000 
#
# Total GULP energy -272671.424262 kJ/mol
# GULP energy per Si atom -12394.155648 kJ/mol
# Density = 1.810340 g / cm^3
# Si number density = 18.144697 Si / 1000 Ang^3
#
#
#
# Elastic Constant Matrix: (Units=GPa)
#
#
# Indices 1 2 3 4 5 6 
#
# 1 92.7034 17.8064 40.6908 0.0000 6.9995 0.0000
# 2 17.8064 59.5663 26.8389 0.0000 -2.7294 0.0000
# 3 40.6908 26.8389 81.0064 0.0001 1.5214 -0.0001
# 4 0.0000 0.0000 0.0001 10.5549 0.0000 -2.2702
# 5 6.9995 -2.7294 1.5214 0.0000 25.2977 0.0000
# 6 0.0000 0.0000 -0.0001 -2.2702 0.0000 23.4449
#
#
#
# Elastic Compliance Matrix: (Units=1/GPa)
#
#
# Indices 1 2 3 4 5 6 
#
# 1 0.014244 -0.001452 -0.006605 0.000000 -0.003701 0.000000
# 2 -0.001452 0.020044 -0.005967 0.000000 0.002923 0.000000
# 3 -0.006605 -0.005967 0.017637 0.000000 0.000123 0.000000
# 4 0.000000 0.000000 0.000000 0.096757 0.000000 0.009369
# 5 -0.003701 0.002923 0.000123 0.000000 0.040861 0.000000
# 6 0.000000 0.000000 0.000000 0.009369 0.000000 0.043560
#
#
# Mechanical properties :
#
#
# Convention : Reuss Voigt Hill
#
# Bulk Modulus (GPa) = 41.87727 44.88314 43.38020
# Shear Modulus (GPa) = 18.57970 21.72218 20.15094
#
# Velocity S-wave (km/s) = 3.20343 3.46376 3.33614
# Velocity P-wave (km/s) = 6.06732 6.38645 6.22893
#
# Compressibility (1/GPa) = 0.02387930
#
# Stress axis : x y z
#
# Youngs Moduli (GPa) = 70.20302 49.88934 56.69933
#
# Poissons Ratio (x) = 0.07243 0.37448
# Poissons Ratio (y) = 0.10192 0.33831
# Poissons Ratio (z) = 0.46367 0.29767
#
# Static dielectric constant tensor:
#      x y z
#    x 3.334840 0.000000 0.047680 
#    y 0.000000 3.179220 0.000000 
#    z 0.047680 0.000000 3.173560 
# 
# 
# High freq. dielectric constant tensor:
#      x y z
#    x 1.697420 0.000000 0.007110 
#    y 0.000000 1.691380 0.000000 
#    z 0.007110 0.000000 1.683430 
# 
# From -- ./inp_files/176270.got.cif
#   From: 2010.06.25/outbox.cif.g09.slc.cpg/sg12_89_cif.got.tgz:176270.got - 2010.06.28 00:19:55.
