data_PCOD8080026
_publ_section_title
;
Structure prediction by ZEFSAII (Michael W. Deem and Ramdas Pophale) SiO2 
 PCOD8080026
Probable space group: C 2/M
;
_chemical_formula_sum "Si O2"
_cell_formula_units_Z 56
_cell_length_a 27.942384
_cell_length_b 9.170080
_cell_length_c 13.975698
_cell_angle_alpha 90.000000
_cell_angle_beta 98.535674
_cell_angle_gamma 90.000000
_cell_volume 3541.382590
_symmetry_space_group_name_H-M "C 2/M"
_symmetry_group_IT_number 12
_symmetry_cell_setting 'monoclinic'
loop_
_space_group_symop_operation_xyz
x,y,z
-x,y,-z
-x,-y,-z
x,-y,z
1/2+x,1/2+y,z
1/2-x,1/2+y,-z
1/2-x,1/2-y,-z
1/2+x,1/2-y,z
loop_
_atom_site_type_symbol
_atom_site_label
_atom_site_fract_x
_atom_site_fract_y
_atom_site_fract_z
Si Si1 0.798836 0.170449 0.986076
Si Si2 0.262564 0.330685 0.778514
Si Si3 0.491110 0.660700 0.609721
Si Si4 0.389809 0.328377 0.521756
Si Si5 0.083125 0.669980 0.661370
Si Si6 0.788162 0.173143 0.578765
Si Si7 0.336931 0.829628 0.161942
O O1 0.803699 0.195431 0.872656
O O2 0.795844 0.000000 0.009477
O O3 0.750000 0.250000 0.000000
O O4 0.841552 0.244477 0.061407
O O5 0.254719 0.500000 0.758140
O O6 0.280303 0.263059 0.683538
O O7 0.210101 0.267973 0.794814
O O8 0.500000 0.653415 0.500000
O O9 0.498551 0.500000 0.657522
O O10 0.435327 0.713460 0.604345
O O11 0.529208 0.771170 0.668715
O O12 0.391239 0.500000 0.499352
O O13 0.392062 0.246122 0.421630
O O14 0.341732 0.280536 0.562561
O O15 0.079895 0.500000 0.637769
O O16 0.115170 0.703217 0.763803
O O17 0.750000 0.250000 0.500000
O O18 0.781233 0.000000 0.570374
O O19 0.330675 0.000000 0.137721
#
# Coordination Sequence:
#
# PCOD8080026 Si02
#       7
#     8   8   8   8   8   8   8
#     4   9  16  27  43  61  81 108 139 170 208 249
#     4   8  15  28  43  58  81 111 138 167 202 240
#     4   8  15  28  42  58  83 111 140 174 211 252
#     4   9  18  30  43  60  85 117 146 172 206 249
#     4  10  18  27  43  65  87 111 139 175 216 252
#     4  10  19  31  45  62  86 115 145 173 203 241
#     4   9  17  28  41  61  87 110 134 169 213 252
#
# _framework density 15.813033000000001
#
# number of rings (size 3 to 8) (size 9 to 14) (size 15 to 20)
#    0.000    3.000    0.000    3.429    0.000    5.429 
#    0.000    5.000    0.000    0.000    0.000    1.000 
#    0.000    8.000    0.000    0.000    0.000    0.000 
#
# Total GULP energy -346963.810938 kJ/mol
# GULP energy per Si atom -12391.564676 kJ/mol
# Density = 1.577704 g / cm^3
# Si number density = 15.813033 Si / 1000 Ang^3
#
#
#
# Elastic Constant Matrix: (Units=GPa)
#
#
# Indices 1 2 3 4 5 6 
#
# 1 108.3086 36.1082 56.0979 0.0000 15.6763 0.0000
# 2 36.1082 58.9132 47.5675 0.0000 13.0978 0.0000
# 3 56.0979 47.5675 114.8945 0.0000 14.6079 0.0000
# 4 0.0000 0.0000 0.0000 24.4243 0.0000 7.9480
# 5 15.6763 13.0978 14.6079 0.0000 21.1856 0.0000
# 6 0.0000 0.0000 0.0000 7.9480 0.0000 20.7911
#
#
#
# Elastic Compliance Matrix: (Units=1/GPa)
#
#
# Indices 1 2 3 4 5 6 
#
# 1 0.013416 -0.003575 -0.004482 0.000000 -0.004626 0.000000
# 2 -0.003575 0.028239 -0.008837 0.000000 -0.008720 0.000000
# 3 -0.004482 -0.008837 0.014725 0.000000 -0.001374 0.000000
# 4 0.000000 0.000000 0.000000 0.046760 0.000000 -0.017875
# 5 -0.004626 -0.008720 -0.001374 0.000000 0.056963 0.000000
# 6 0.000000 0.000000 0.000000 -0.017875 0.000000 0.054931
#
#
# Mechanical properties :
#
#
# Convention : Reuss Voigt Hill
#
# Bulk Modulus (GPa) = 44.26399 62.40706 53.33552
# Shear Modulus (GPa) = 19.50433 22.76970 21.13701
#
# Velocity S-wave (km/s) = 3.51584 3.79876 3.66003
# Velocity P-wave (km/s) = 6.67341 7.66760 7.18771
#
# Compressibility (1/GPa) = 0.02259173
#
# Stress axis : x y z
#
# Youngs Moduli (GPa) = 74.53887 35.41174 67.91069
#
# Poissons Ratio (x) = 0.12661 0.30437
# Poissons Ratio (y) = 0.26650 0.60013
# Poissons Ratio (z) = 0.33408 0.31293
#
# Static dielectric constant tensor:
#      x y z
#    x 3.234410 0.000000 0.181600 
#    y 0.000000 3.001460 0.000000 
#    z 0.181600 0.000000 3.235560 
# 
# 
# High freq. dielectric constant tensor:
#      x y z
#    x 1.586680 0.000000 0.021830 
#    y 0.000000 1.600460 0.000000 
#    z 0.021830 0.000000 1.593550 
# 
# From -- ./inp_files/247898.got.cif
#   From: 2010.06.25/outbox.cif.g09.slc.cpg/sg12_124_cif.got.tgz:247898.got - 2010.06.28 00:19:55.
