data_PCOD8080131
_publ_section_title
;
Structure prediction by ZEFSAII (Michael W. Deem and Ramdas Pophale) SiO2 
 PCOD8080131
Probable space group: C 2/M
;
_chemical_formula_sum "Si O2"
_cell_formula_units_Z 48
_cell_length_a 20.986928
_cell_length_b 10.898040
_cell_length_c 12.822305
_cell_angle_alpha 90.000000
_cell_angle_beta 72.774039
_cell_angle_gamma 90.000000
_cell_volume 2801.124108
_symmetry_space_group_name_H-M "C 2/M"
_symmetry_group_IT_number 12
_symmetry_cell_setting 'monoclinic'
loop_
_space_group_symop_operation_xyz
x,y,z
-x,y,-z
-x,-y,-z
x,-y,z
1/2+x,1/2+y,z
1/2-x,1/2+y,-z
1/2-x,1/2-y,-z
1/2+x,1/2-y,z
loop_
_atom_site_type_symbol
_atom_site_label
_atom_site_fract_x
_atom_site_fract_y
_atom_site_fract_z
Si Si1 0.832911 0.780530 0.250203
Si Si2 0.076301 0.000000 0.087569
Si Si3 0.809273 0.364868 0.063254
Si Si4 0.696093 0.857518 0.539763
Si Si5 0.338443 0.705371 0.856842
Si Si6 0.680897 0.863303 0.321838
Si Si7 0.581252 0.500000 0.844329
O O1 0.844045 0.715666 0.134444
O O2 0.844830 0.681056 0.337122
O O3 0.760466 0.842778 0.288313
O O4 0.889841 0.882753 0.230092
O O5 0.101258 0.119778 0.136714
O O6 0.997408 0.000000 0.128647
O O7 0.103372 0.000000 0.955579
O O8 0.838844 0.500000 0.058627
O O9 0.729522 0.371729 0.116660
O O10 0.828447 0.316669 0.940777
O O11 0.750000 0.750000 0.500000
O O12 0.652419 0.852018 0.454221
O O13 0.723111 0.000000 0.540014
O O14 0.354685 0.764358 0.735718
O O15 0.667742 0.000000 0.284690
#
# Coordination Sequence:
#
# PCOD8080131 Si02
#       7
#     8   4   8   8   8   8   4
#     4  10  18  31  51  77 106 140 181 212 267 318
#     4  11  22  38  51  75 107 143 190 219 263 316
#     4  10  18  27  48  76 103 131 163 220 279 324
#     4   9  18  31  50  80 116 145 173 217 274 332
#     4  10  19  30  48  74 105 133 169 216 267 328
#     4   9  17  30  51  78 109 136 164 212 276 326
#     4  11  22  36  57  71 105 153 183 223 257 326
#
# _framework density 17.135977
#
# number of rings (size 3 to 8) (size 9 to 14) (size 15 to 20)
#    0.000    2.167    3.333    1.000    1.167    0.000 
#    1.500    0.000    0.000    7.000    0.000    2.333 
#    0.000    0.000    0.000    0.000    0.000    0.000 
#
# Total GULP energy -297420.394803 kJ/mol
# GULP energy per Si atom -12392.516450 kJ/mol
# Density = 1.709698 g / cm^3
# Si number density = 17.135977 Si / 1000 Ang^3
#
#
#
# Elastic Constant Matrix: (Units=GPa)
#
#
# Indices 1 2 3 4 5 6 
#
# 1 47.1559 30.9127 22.3775 0.0000 8.3059 0.0000
# 2 30.9127 129.9455 42.9261 0.0000 10.6714 0.0000
# 3 22.3775 42.9261 94.4920 0.0000 19.7943 0.0000
# 4 0.0000 0.0000 0.0000 -21.9270 0.0000 20.7366
# 5 8.3059 10.6714 19.7943 0.0000 16.8528 0.0000
# 6 0.0000 0.0000 0.0000 20.7366 0.0000 15.0383
#
#
#
# Elastic Compliance Matrix: (Units=1/GPa)
#
#
# Indices 1 2 3 4 5 6 
#
# 1 0.026955 -0.004957 -0.002661 0.000000 -0.007021 0.000000
# 2 -0.004957 0.009984 -0.003381 0.000000 0.000092 0.000000
# 3 -0.002661 -0.003381 0.015950 0.000000 -0.015282 0.000000
# 4 0.000000 0.000000 0.000000 -0.019794 0.000000 0.027294
# 5 -0.007021 0.000092 -0.015282 0.000000 0.080688 0.000000
# 6 0.000000 0.000000 0.000000 0.027294 0.000000 0.028861
#
#
# Mechanical properties :
#
#
# Convention : Reuss Voigt Hill
#
# Bulk Modulus (GPa) = 32.37106 51.55844 41.96475
# Shear Modulus (GPa) = 28.58134 13.68463 21.13298
#
# Velocity S-wave (km/s) = 4.08844 2.82900 3.51558
# Velocity P-wave (km/s) = 6.42019 6.38938 6.40480
#
# Compressibility (1/GPa) = 0.03089179
#
# Stress axis : x y z
#
# Youngs Moduli (GPa) = 37.09895 100.16022 62.69485
#
# Poissons Ratio (x) = 0.49647 0.16683
# Poissons Ratio (y) = 0.18389 0.21197
# Poissons Ratio (z) = 0.09872 0.33864
#
# Static dielectric constant tensor:
#      x y z
#    x 2.648680 0.000000 0.235190 
#    y 0.000000 3.332150 0.000000 
#    z 0.235190 0.000000 3.587860 
# 
# 
# High freq. dielectric constant tensor:
#      x y z
#    x 1.591920 0.000000 0.023710 
#    y 0.000000 1.679170 0.000000 
#    z 0.023710 0.000000 1.672360 
# 
# From -- ./inp_files/164133.got.cif
#   From: 2010.06.25/outbox.cif.g09.slc.cpg/sg12_83_cif.got.tgz:164133.got - 2010.06.28 00:19:55.
