data_PCOD8080024
_publ_section_title
;
Structure prediction by ZEFSAII (Michael W. Deem and Ramdas Pophale) SiO2 
 PCOD8080024
Probable space group: C 2/M
;
_chemical_formula_sum "Si O2"
_cell_formula_units_Z 56
_cell_length_a 16.795192
_cell_length_b 13.779028
_cell_length_c 29.224347
_cell_angle_alpha 90.000000
_cell_angle_beta 149.547418
_cell_angle_gamma 90.000000
_cell_volume 3427.729091
_symmetry_space_group_name_H-M "C 2/M"
_symmetry_group_IT_number 12
_symmetry_cell_setting 'monoclinic'
loop_
_space_group_symop_operation_xyz
x,y,z
-x,y,-z
-x,-y,-z
x,-y,z
1/2+x,1/2+y,z
1/2-x,1/2+y,-z
1/2-x,1/2-y,-z
1/2+x,1/2-y,z
loop_
_atom_site_type_symbol
_atom_site_label
_atom_site_fract_x
_atom_site_fract_y
_atom_site_fract_z
Si Si1 0.614053 0.891002 0.306331
Si Si2 0.360384 0.224948 0.135324
Si Si3 0.695058 0.608998 0.693668
Si Si4 0.369933 0.110668 0.974073
Si Si5 0.454411 0.775052 0.864675
Si Si6 0.587182 0.615180 0.500000
Si Si7 0.052286 0.110668 0.974073
O O1 0.466906 0.818506 0.228986
O O2 0.714345 0.891677 0.309563
O O3 0.727635 0.855481 0.404876
O O4 0.550517 0.000000 0.284281
O O5 0.280113 0.323711 0.113624
O O6 0.465201 0.249892 0.143467
O O7 0.231080 0.145471 0.056758
O O8 0.697672 0.500000 0.715718
O O9 0.779945 0.681494 0.771012
O O10 0.513004 0.644519 0.595123
O O11 0.314091 0.000000 0.950496
O O12 0.500000 0.125162 0.000000
O O13 0.439195 0.145470 0.056759
O O14 0.439238 0.676289 0.886375
O O15 0.500000 0.663905 0.500000
O O16 0.577864 0.500000 0.500000
O O17 0.037394 0.000000 0.950495
O O18 0.000000 0.125163 0.000000
#
# Coordination Sequence:
#
# PCOD8080024 Si02
#       7
#     8   8   8   8   8   8   8
#     4   8  13  21  35  58  86 111 133 161 202 247
#     4  10  18  27  43  65  85 105 132 170 211 245
#     4   8  13  21  35  58  86 111 133 161 202 247
#     4  10  20  32  43  56  79 112 144 170 199 241
#     4  10  18  27  43  65  85 105 132 170 211 245
#     4   7  10  18  32  52  82 113 133 155 195 246
#     4  10  20  32  43  56  79 112 144 170 199 241
#
# _framework density 16.337347999999999
#
# number of rings (size 3 to 8) (size 9 to 14) (size 15 to 20)
#    0.000    3.000    0.000    6.000    0.000    3.429 
#    0.000    0.000    0.000    0.000    0.000    5.000 
#    0.000   10.286    0.000    0.000    0.000    0.000 
#
# Total GULP energy -346902.751315 kJ/mol
# GULP energy per Si atom -12389.383976 kJ/mol
# Density = 1.630016 g / cm^3
# Si number density = 16.337348 Si / 1000 Ang^3
#
#
#
# Elastic Constant Matrix: (Units=GPa)
#
#
# Indices 1 2 3 4 5 6 
#
# 1 30.5020 26.2368 14.4421 0.0000 0.7179 -0.0004
# 2 26.2368 126.2003 74.9977 0.0001 -6.1057 0.0004
# 3 14.4421 74.9977 148.7979 0.0001 -15.5307 0.0017
# 4 0.0000 0.0001 0.0001 29.2242 0.0000 5.7560
# 5 0.7179 -6.1057 -15.5307 0.0000 7.1968 0.0004
# 6 -0.0004 0.0004 0.0017 5.7560 0.0004 75.2025
#
#
#
# Elastic Compliance Matrix: (Units=1/GPa)
#
#
# Indices 1 2 3 4 5 6 
#
# 1 0.040961 -0.008517 -0.001114 0.000000 -0.013717 0.000000
# 2 -0.008517 0.013152 -0.005871 0.000000 -0.000663 0.000000
# 3 -0.001114 -0.005871 0.011977 0.000000 0.020977 0.000000
# 4 0.000000 0.000000 0.000000 0.034742 0.000000 -0.002659
# 5 -0.013717 -0.000663 0.020977 0.000000 0.185026 -0.000002
# 6 0.000000 0.000000 0.000000 -0.002659 -0.000002 0.013501
#
#
# Mechanical properties :
#
#
# Convention : Reuss Voigt Hill
#
# Bulk Modulus (GPa) = 28.50240 59.65037 44.07639
# Shear Modulus (GPa) = 14.61732 34.97959 24.79845
#
# Velocity S-wave (km/s) = 2.99443 4.63220 3.90025
# Velocity P-wave (km/s) = 5.42582 8.07469 6.87896
#
# Compressibility (1/GPa) = 0.03508476
#
# Stress axis : x y z
#
# Youngs Moduli (GPa) = 24.41319 76.03568 83.48996
#
# Poissons Ratio (x) = 0.64761 0.09305
# Poissons Ratio (y) = 0.20793 0.49020
# Poissons Ratio (z) = 0.02721 0.44643
#
# Static dielectric constant tensor:
#      x y z
#    x 2.717650 0.000000 -0.103890 
#    y 0.000000 3.023720 0.000000 
#    z -0.103890 0.000000 3.547370 
# 
# 
# High freq. dielectric constant tensor:
#      x y z
#    x 1.586650 0.000000 -0.005740 
#    y 0.000000 1.607740 0.000000 
#    z -0.005740 0.000000 1.632460 
# 
# From -- ./inp_files/251151.got.cif
#   From: 2010.06.25/outbox.cif.g09.slc.cpg/sg12_126_cif.got.tgz:251151.got - 2010.06.28 00:19:55.
