data_PCOD8080153
_publ_section_title
;
Structure prediction by ZEFSAII (Michael W. Deem and Ramdas Pophale) SiO2 
 PCOD8080153
Probable space group: C 2/M
;
_chemical_formula_sum "Si O2"
_cell_formula_units_Z 48
_cell_length_a 27.936871
_cell_length_b 9.402919
_cell_length_c 12.317192
_cell_angle_alpha 90.000000
_cell_angle_beta 109.301900
_cell_angle_gamma 90.000000
_cell_volume 3053.708204
_symmetry_space_group_name_H-M "C 2/M"
_symmetry_group_IT_number 12
_symmetry_cell_setting 'monoclinic'
loop_
_space_group_symop_operation_xyz
x,y,z
-x,y,-z
-x,-y,-z
x,-y,z
1/2+x,1/2+y,z
1/2-x,1/2+y,-z
1/2-x,1/2-y,-z
1/2+x,1/2-y,z
loop_
_atom_site_type_symbol
_atom_site_label
_atom_site_fract_x
_atom_site_fract_y
_atom_site_fract_z
Si Si1 0.177519 0.837609 0.928392
Si Si2 0.751321 0.834535 0.834125
Si Si3 0.889627 0.334414 0.458173
Si Si4 0.523593 0.657966 0.398158
Si Si5 0.082863 0.164720 0.732785
Si Si6 0.773833 0.664274 0.420573
O O1 0.206827 0.741368 0.865334
O O2 0.117190 0.811483 0.866561
O O3 0.191798 0.000000 0.911775
O O4 0.194741 0.803535 0.065315
O O5 0.752447 0.780916 0.710920
O O6 0.736961 0.000000 0.823204
O O7 0.902000 0.500000 0.453243
O O8 0.929688 0.267385 0.574335
O O9 0.894011 0.259759 0.345374
O O10 0.833855 0.308564 0.462919
O O11 0.500000 0.660105 0.500000
O O12 0.543295 0.500000 0.382558
O O13 0.476062 0.704020 0.284951
O O14 0.085019 0.000000 0.695860
O O15 0.761425 0.500000 0.430538
O O16 0.750000 0.750000 0.500000
#
# Coordination Sequence:
#
# PCOD8080153 Si02
#       6
#     8   8   8   8   8   8
#     4   9  16  26  45  66  87 116 142 169 213 264
#     4   9  17  30  43  62  89 113 142 180 217 253
#     4  10  18  28  41  60  86 113 143 180 216 249
#     4   8  15  26  39  58  86 114 141 171 206 255
#     4   9  16  26  41  64  89 115 142 167 206 261
#     4  10  21  33  45  62  86 116 149 185 217 251
#
# _framework density 15.718593
#
# number of rings (size 3 to 8) (size 9 to 14) (size 15 to 20)
#    0.000    2.833    1.667    1.500    0.000    5.000 
#    0.000    0.000    0.000    0.000    0.000    1.167 
#    0.000    9.333    0.000    0.000    0.000    0.000 
#
# Total GULP energy -297381.418862 kJ/mol
# GULP energy per Si atom -12390.892453 kJ/mol
# Density = 1.568282 g / cm^3
# Si number density = 15.718593 Si / 1000 Ang^3
#
#
#
# Elastic Constant Matrix: (Units=GPa)
#
#
# Indices 1 2 3 4 5 6 
#
# 1 80.3982 43.1045 64.2300 0.0000 26.8316 0.0000
# 2 43.1045 64.1518 41.4124 0.0000 6.8017 0.0000
# 3 64.2300 41.4124 115.3777 0.0000 25.0029 0.0000
# 4 0.0000 0.0000 0.0000 18.5863 0.0000 1.5008
# 5 26.8316 6.8017 25.0029 0.0000 33.3418 0.0000
# 6 0.0000 0.0000 0.0000 1.5008 0.0000 25.5164
#
#
#
# Elastic Compliance Matrix: (Units=1/GPa)
#
#
# Indices 1 2 3 4 5 6 
#
# 1 0.033732 -0.014460 -0.009964 0.000000 -0.016724 0.000000
# 2 -0.014460 0.026557 -0.003379 0.000000 0.008753 0.000000
# 3 -0.009964 -0.003379 0.016167 0.000000 -0.003416 0.000000
# 4 0.000000 0.000000 0.000000 0.054060 0.000000 -0.003180
# 5 -0.016724 0.008753 -0.003416 0.000000 0.044227 0.000000
# 6 0.000000 0.000000 0.000000 -0.003180 0.000000 0.039377
#
#
# Mechanical properties :
#
#
# Convention : Reuss Voigt Hill
#
# Bulk Modulus (GPa) = 47.96140 61.93576 54.94858
# Shear Modulus (GPa) = 18.07157 22.90096 20.48626
#
# Velocity S-wave (km/s) = 3.39439 3.82112 3.61406
# Velocity P-wave (km/s) = 6.77800 7.67830 7.24216
#
# Compressibility (1/GPa) = 0.02085010
#
# Stress axis : x y z
#
# Youngs Moduli (GPa) = 29.64512 37.65470 61.85267
#
# Poissons Ratio (x) = 0.54447 0.61633
# Poissons Ratio (y) = 0.42866 0.20902
# Poissons Ratio (z) = 0.29540 0.12725
#
# Static dielectric constant tensor:
#      x y z
#    x 3.062650 0.000000 0.636850 
#    y 0.000000 3.175810 0.000000 
#    z 0.636850 0.000000 3.143600 
# 
# 
# High freq. dielectric constant tensor:
#      x y z
#    x 1.581040 0.000000 0.049480 
#    y 0.000000 1.607780 0.000000 
#    z 0.049480 0.000000 1.581580 
# 
# From -- ./inp_files/179200.got.cif
#   From: 2010.06.25/outbox.cif.g09.slc.cpg/sg12_90_cif.got.tgz:179200.got - 2010.06.28 00:19:55.
