data_PCOD8080817
_publ_section_title
;
Structure prediction by ZEFSAII (Michael W. Deem and Ramdas Pophale) SiO2 
 PCOD8080817
Probable space group: C 2/M
;
_chemical_formula_sum "Si O2"
_cell_formula_units_Z 64
_cell_length_a 20.510285
_cell_length_b 9.097471
_cell_length_c 19.245018
_cell_angle_alpha 90.000000
_cell_angle_beta 90.291968
_cell_angle_gamma 90.000000
_cell_volume 3590.914444
_symmetry_space_group_name_H-M "C 2/M"
_symmetry_group_IT_number 12
_symmetry_cell_setting 'monoclinic'
loop_
_space_group_symop_operation_xyz
x,y,z
-x,y,-z
-x,-y,-z
x,-y,z
1/2+x,1/2+y,z
1/2-x,1/2+y,-z
1/2-x,1/2-y,-z
1/2+x,1/2-y,z
loop_
_atom_site_type_symbol
_atom_site_label
_atom_site_fract_x
_atom_site_fract_y
_atom_site_fract_z
Si Si1 0.327600 0.327022 0.794417
Si Si2 0.757653 0.827617 0.427303
Si Si3 0.369226 0.173198 0.660495
Si Si4 0.172320 0.333840 0.067053
Si Si5 0.127638 0.329902 0.648507
Si Si6 0.677492 0.831532 0.798085
Si Si7 0.172382 0.834710 0.932952
Si Si8 0.993806 0.326650 0.577526
O O1 0.339612 0.500000 0.797157
O O2 0.370393 0.256976 0.733579
O O3 0.352302 0.257045 0.866621
O O4 0.251827 0.287374 0.780743
O O5 0.750000 0.750000 0.500000
O O6 0.696444 0.785279 0.379799
O O7 0.822685 0.772920 0.391217
O O8 0.762250 0.000000 0.439893
O O9 0.429330 0.234052 0.615019
O O10 0.374881 0.000000 0.674888
O O11 0.145692 0.500000 0.071139
O O12 0.249963 0.332200 0.064782
O O13 0.144044 0.257540 0.997518
O O14 0.142776 0.500000 0.630399
O O15 0.132841 0.302569 0.730841
O O16 0.055826 0.283091 0.624179
O O17 0.648193 0.735474 0.860521
O O18 0.675374 0.000000 0.822380
O O19 0.145401 0.000000 0.937752
O O20 0.986870 0.500000 0.570444
O O21 0.000000 0.258143 0.500000
#
# Coordination Sequence:
#
# PCOD8080817 Si02
#       8
#     8   8   8   8   8   8   8   8
#     4  10  18  29  46  70 101 133 165 207 253 299
#     4  11  22  34  52  75 101 129 164 207 255 309
#     4  10  20  34  52  75  99 131 170 209 253 304
#     4   9  16  26  41  64  97 134 169 204 243 294
#     4  10  19  34  54  75 100 131 169 211 256 302
#     4   9  17  28  44  68  98 131 164 203 250 298
#     4   9  16  25  40  64  96 133 168 203 244 292
#     4   9  18  34  55  75  98 130 170 213 255 303
#
# _framework density 17.822758
#
# number of rings (size 3 to 8) (size 9 to 14) (size 15 to 20)
#    0.000    2.375    1.250    2.250    0.000    6.500 
#    0.000    0.625    0.000    1.500    0.000    0.875 
#    0.000    7.000    0.000    0.000    0.000    0.000 
#
# Total GULP energy -396839.799891 kJ/mol
# GULP energy per Si atom -12401.243747 kJ/mol
# Density = 1.778219 g / cm^3
# Si number density = 17.822758 Si / 1000 Ang^3
#
#
#
# Elastic Constant Matrix: (Units=GPa)
#
#
# Indices 1 2 3 4 5 6 
#
# 1 44.9964 21.0885 35.7238 0.0000 -5.8790 0.0000
# 2 21.0885 78.6368 61.1509 0.0000 -5.4993 0.0000
# 3 35.7238 61.1509 155.9157 0.0000 -8.0818 0.0000
# 4 0.0000 0.0000 0.0000 36.4556 0.0000 -3.9376
# 5 -5.8790 -5.4993 -8.0818 0.0000 21.0654 0.0000
# 6 0.0000 0.0000 0.0000 -3.9376 0.0000 15.1231
#
#
#
# Elastic Compliance Matrix: (Units=1/GPa)
#
#
# Indices 1 2 3 4 5 6 
#
# 1 0.028394 -0.003457 -0.004883 0.000000 0.005148 0.000000
# 2 -0.003457 0.018807 -0.006509 0.000000 0.001448 0.000000
# 3 -0.004883 -0.006509 0.010128 0.000000 0.000824 0.000000
# 4 0.000000 0.000000 0.000000 0.028224 0.000000 0.007349
# 5 0.005148 0.001448 0.000824 0.000000 0.049602 0.000000
# 6 0.000000 0.000000 0.000000 0.007349 0.000000 0.068037
#
#
# Mechanical properties :
#
#
# Convention : Reuss Voigt Hill
#
# Bulk Modulus (GPa) = 36.19237 57.27507 46.73372
# Shear Modulus (GPa) = 20.65262 25.30119 22.97691
#
# Velocity S-wave (km/s) = 3.40778 3.77185 3.59442
# Velocity P-wave (km/s) = 5.98622 7.15365 6.59582
#
# Compressibility (1/GPa) = 0.02763013
#
# Stress axis : x y z
#
# Youngs Moduli (GPa) = 35.21923 53.17266 98.73648
#
# Poissons Ratio (x) = 0.18384 0.48210
# Poissons Ratio (y) = 0.12177 0.64266
# Poissons Ratio (z) = 0.17197 0.34609
#
# Static dielectric constant tensor:
#      x y z
#    x 2.927820 0.000000 0.045080 
#    y 0.000000 3.251470 0.000000 
#    z 0.045080 0.000000 3.468200 
# 
# 
# High freq. dielectric constant tensor:
#      x y z
#    x 1.640280 0.000000 -0.000310 
#    y 0.000000 1.684140 0.000000 
#    z -0.000310 0.000000 1.708210 
# 
# From -- ./inp_files/281355.got.cif
#   From: 2010.06.25/outbox.cif.g09.slc.cpg/sg12_141_cif.got.tgz:281355.got - 2010.06.28 00:19:55.
