data_PCOD8080934
_publ_section_title
;
Structure prediction by ZEFSAII (Michael W. Deem and Ramdas Pophale) SiO2 
 PCOD8080934
Probable space group: C 2/M
;
_chemical_formula_sum "Si O2"
_cell_formula_units_Z 40
_cell_length_a 20.437941
_cell_length_b 8.616715
_cell_length_c 12.654880
_cell_angle_alpha 90.000000
_cell_angle_beta 103.783540
_cell_angle_gamma 90.000000
_cell_volume 2164.446282
_symmetry_space_group_name_H-M "C 2/M"
_symmetry_group_IT_number 12
_symmetry_cell_setting 'monoclinic'
loop_
_space_group_symop_operation_xyz
x,y,z
-x,y,-z
-x,-y,-z
x,-y,z
1/2+x,1/2+y,z
1/2-x,1/2+y,-z
1/2-x,1/2-y,-z
1/2+x,1/2-y,z
loop_
_atom_site_type_symbol
_atom_site_label
_atom_site_fract_x
_atom_site_fract_y
_atom_site_fract_z
Si Si1 0.676112 0.183664 0.491572
Si Si2 0.657966 0.679412 0.275858
Si Si3 0.576974 0.321253 0.039493
Si Si4 0.817922 0.681406 0.073501
Si Si5 0.302218 0.682951 0.287838
O O1 0.750000 0.250000 0.500000
O O2 0.631285 0.251583 0.377799
O O3 0.654081 0.243597 0.598805
O O4 0.674651 0.000000 0.487380
O O5 0.677387 0.500000 0.297380
O O6 0.598718 0.703980 0.169042
O O7 0.724208 0.767699 0.260818
O O8 0.587326 0.500000 0.009424
O O9 0.500000 0.269245 0.000000
O O10 0.620241 0.212543 0.980302
O O11 0.807227 0.500000 0.085634
O O12 0.835174 0.758930 0.192187
O O13 0.750000 0.750000 0.000000
O O14 0.307253 0.500000 0.297562
#
# Coordination Sequence:
#
# PCOD8080934 Si02
#       5
#     8   8   8   8   8
#     4  10  18  29  47  74 108 141 178 222 273 325
#     4  10  18  31  52  77 109 144 182 224 270 325
#     4  10  22  39  58  81 112 150 188 226 272 329
#     4  12  23  36  56  82 112 146 184 229 279 327
#     4  11  20  32  52  79 110 141 179 226 277 327
#
# _framework density 18.480477
#
# number of rings (size 3 to 8) (size 9 to 14) (size 15 to 20)
#    0.000    1.400    2.000    8.400    0.000    1.200 
#    0.000    0.000    0.000    1.200    0.000    8.400 
#    0.000    0.000    0.000    0.000    0.000    0.000 
#
# Total GULP energy -248013.477315 kJ/mol
# GULP energy per Si atom -12400.673866 kJ/mol
# Density = 1.843841 g / cm^3
# Si number density = 18.480477 Si / 1000 Ang^3
#
#
#
# Elastic Constant Matrix: (Units=GPa)
#
#
# Indices 1 2 3 4 5 6 
#
# 1 64.8251 25.4625 41.2135 0.0000 4.1894 0.0000
# 2 25.4625 146.6468 62.3363 0.0000 -3.3812 0.0000
# 3 41.2135 62.3363 166.3274 0.0000 -5.7997 0.0000
# 4 0.0000 0.0000 0.0000 36.3483 0.0000 -5.2212
# 5 4.1894 -3.3812 -5.7997 0.0000 19.0205 0.0000
# 6 0.0000 0.0000 0.0000 -5.2212 0.0000 19.6211
#
#
#
# Elastic Compliance Matrix: (Units=1/GPa)
#
#
# Indices 1 2 3 4 5 6 
#
# 1 0.019210 -0.001618 -0.004357 0.000000 -0.005847 0.000000
# 2 -0.001618 0.008253 -0.002657 0.000000 0.001013 0.000000
# 3 -0.004357 -0.002657 0.008192 0.000000 0.002985 0.000000
# 4 0.000000 0.000000 0.000000 0.028605 0.000000 0.007612
# 5 -0.005847 0.001013 0.002985 0.000000 0.054953 0.000000
# 6 0.000000 0.000000 0.000000 0.007612 0.000000 0.052991
#
#
# Mechanical properties :
#
#
# Convention : Reuss Voigt Hill
#
# Bulk Modulus (GPa) = 54.37732 70.64709 62.51221
# Shear Modulus (GPa) = 25.56266 31.58378 28.57322
#
# Velocity S-wave (km/s) = 3.72321 4.13853 3.93635
# Velocity P-wave (km/s) = 6.92612 7.81969 7.38643
#
# Compressibility (1/GPa) = 0.01839002
#
# Stress axis : x y z
#
# Youngs Moduli (GPa) = 52.05665 121.17233 122.07460
#
# Poissons Ratio (x) = 0.19606 0.53193
# Poissons Ratio (y) = 0.08423 0.32432
# Poissons Ratio (z) = 0.22683 0.32192
#
# Static dielectric constant tensor:
#      x y z
#    x 2.935480 0.000000 -0.059220 
#    y 0.000000 3.523740 0.000000 
#    z -0.059220 0.000000 4.238800 
# 
# 
# High freq. dielectric constant tensor:
#      x y z
#    x 1.651210 0.000000 -0.004800 
#    y 0.000000 1.734710 0.000000 
#    z -0.004800 0.000000 1.746920 
# 
# From -- ./inp_files/162645.got.cif
#   From: 2010.06.25/outbox.cif.g09.slc.cpg/sg12_82_cif.got.tgz:162645.got - 2010.06.28 00:19:55.
