data_PCOD8080723
_publ_section_title
;
Structure prediction by ZEFSAII (Michael W. Deem and Ramdas Pophale) SiO2 
 PCOD8080723
Probable space group: C 2/M
;
_chemical_formula_sum "Si O2"
_cell_formula_units_Z 64
_cell_length_a 30.552208
_cell_length_b 9.260081
_cell_length_c 34.184065
_cell_angle_alpha 90.000000
_cell_angle_beta 155.343727
_cell_angle_gamma 90.000000
_cell_volume 4034.576059
_symmetry_space_group_name_H-M "C 2/M"
_symmetry_group_IT_number 12
_symmetry_cell_setting 'monoclinic'
loop_
_space_group_symop_operation_xyz
x,y,z
-x,y,-z
-x,-y,-z
x,-y,z
1/2+x,1/2+y,z
1/2-x,1/2+y,-z
1/2-x,1/2-y,-z
1/2+x,1/2-y,z
loop_
_atom_site_type_symbol
_atom_site_label
_atom_site_fract_x
_atom_site_fract_y
_atom_site_fract_z
Si Si1 0.687599 0.668482 0.279762
Si Si2 0.548495 0.670389 0.097439
Si Si3 0.435709 0.331611 0.594177
Si Si4 0.612344 0.167710 0.608273
Si Si5 0.160611 0.829383 0.110081
Si Si6 0.360230 0.670087 0.289116
Si Si7 0.785915 0.664399 0.621537
Si Si8 0.855098 0.666816 0.595219
O O1 0.671169 0.500000 0.272916
O O2 0.598347 0.731873 0.177927
O O3 0.802396 0.701955 0.355734
O O4 0.672099 0.741986 0.308761
O O5 0.560725 0.500000 0.106832
O O6 0.615735 0.725769 0.115196
O O7 0.425715 0.711712 0.993235
O O8 0.432342 0.500000 0.602128
O O9 0.532436 0.290795 0.645415
O O10 0.329850 0.283672 0.485777
O O11 0.446621 0.242468 0.643915
O O12 0.500000 0.211945 0.500000
O O13 0.637598 0.263426 0.666145
O O14 0.616311 0.000000 0.623978
O O15 0.266574 0.741173 0.187776
O O16 0.184233 0.000000 0.129183
O O17 0.342646 0.500000 0.277983
O O18 0.778706 0.500000 0.629909
O O19 0.870009 0.680535 0.654265
O O20 0.845206 0.500000 0.574910
O O21 0.750000 0.750000 0.500000
#
# Coordination Sequence:
#
# PCOD8080723 Si02
#       8
#     8   8   8   8   8   8   8   8
#     4  10  18  29  45  67  91 118 156 191 222 268
#     4   8  15  29  49  67  85 116 155 196 236 267
#     4   9  19  33  46  64  94 126 156 188 225 274
#     4  10  20  32  45  63  90 125 164 195 216 257
#     4   9  16  31  51  65  85 118 155 196 235 272
#     4  11  21  31  45  68  96 124 152 189 236 279
#     4   9  18  31  45  65  93 122 150 183 226 272
#     4   9  17  30  48  68  91 119 154 192 229 270
#
# _framework density 15.862882000000001
#
# number of rings (size 3 to 8) (size 9 to 14) (size 15 to 20)
#    0.000    2.625    1.250    3.000    0.000    4.250 
#    0.000    1.875    0.000    0.000    0.000    0.875 
#    0.000    0.000    0.000    0.000    0.000    0.000 
#
# Total GULP energy -396661.012461 kJ/mol
# GULP energy per Si atom -12395.656639 kJ/mol
# Density = 1.582678 g / cm^3
# Si number density = 15.862882 Si / 1000 Ang^3
#
#
#
# Elastic Constant Matrix: (Units=GPa)
#
#
# Indices 1 2 3 4 5 6 
#
# 1 59.8559 33.1247 29.2253 0.0005 -18.7748 -0.0005
# 2 33.1247 54.3898 29.6952 -0.0022 -8.5584 0.0000
# 3 29.2253 29.6952 97.1008 0.0005 -11.7441 0.0000
# 4 0.0005 -0.0022 0.0005 19.9498 0.0001 -3.2383
# 5 -18.7748 -8.5584 -11.7441 0.0001 17.0221 0.0002
# 6 -0.0005 0.0000 0.0000 -3.2383 0.0002 28.2794
#
#
#
# Elastic Compliance Matrix: (Units=1/GPa)
#
#
# Indices 1 2 3 4 5 6 
#
# 1 0.036202 -0.016008 -0.002340 -0.000003 0.030266 0.000000
# 2 -0.016008 0.029947 -0.005079 0.000004 -0.006103 0.000000
# 3 -0.002340 -0.005079 0.013022 -0.000001 0.003850 0.000000
# 4 -0.000003 0.000004 -0.000001 0.051075 -0.000002 0.005849
# 5 0.030266 -0.006103 0.003850 -0.000002 0.091718 0.000000
# 6 0.000000 0.000000 0.000000 0.005849 0.000000 0.036031
#
#
# Mechanical properties :
#
#
# Convention : Reuss Voigt Hill
#
# Bulk Modulus (GPa) = 30.94223 43.93742 37.43983
# Shear Modulus (GPa) = 15.84188 21.00369 18.42278
#
# Velocity S-wave (km/s) = 3.16361 3.64274 3.41160
# Velocity P-wave (km/s) = 5.73524 6.74174 6.25876
#
# Compressibility (1/GPa) = 0.03231829
#
# Stress axis : x y z
#
# Youngs Moduli (GPa) = 27.62316 33.39204 76.79566
#
# Poissons Ratio (x) = 0.53453 0.17969
# Poissons Ratio (y) = 0.44218 0.39001
# Poissons Ratio (z) = 0.06463 0.16958
#
# Static dielectric constant tensor:
#      x y z
#    x 3.166420 0.000000 -0.044700 
#    y 0.000000 2.951640 0.000000 
#    z -0.044700 0.000000 3.158630 
# 
# 
# High freq. dielectric constant tensor:
#      x y z
#    x 1.595910 0.000000 -0.003910 
#    y 0.000000 1.602060 0.000000 
#    z -0.003910 0.000000 1.593180 
# 
# From -- ./inp_files/384595.got.cif
#   From: 2010.06.25/outbox.cif.g09.slc.cpg/sg12_193_cif.got.tgz:384595.got - 2010.06.28 00:19:55.
