data_PCOD8080919
_publ_section_title
;
Structure prediction by ZEFSAII (Michael W. Deem and Ramdas Pophale) SiO2 
 PCOD8080919
Probable space group: C 2/M
;
_chemical_formula_sum "Si O2"
_cell_formula_units_Z 48
_cell_length_a 22.944306
_cell_length_b 7.688573
_cell_length_c 21.072391
_cell_angle_alpha 90.000000
_cell_angle_beta 133.305621
_cell_angle_gamma 90.000000
_cell_volume 2705.142359
_symmetry_space_group_name_H-M "C 2/M"
_symmetry_group_IT_number 12
_symmetry_cell_setting 'monoclinic'
loop_
_space_group_symop_operation_xyz
x,y,z
-x,y,-z
-x,-y,-z
x,-y,z
1/2+x,1/2+y,z
1/2-x,1/2+y,-z
1/2-x,1/2-y,-z
1/2+x,1/2-y,z
loop_
_atom_site_type_symbol
_atom_site_label
_atom_site_fract_x
_atom_site_fract_y
_atom_site_fract_z
Si Si1 0.942646 0.793732 0.545398
Si Si2 0.989063 0.500000 0.889085
Si Si3 0.839983 0.203617 0.583331
Si Si4 0.285222 0.693132 0.797277
Si Si5 0.104357 0.797456 0.238193
Si Si6 0.385855 0.294316 0.367568
Si Si7 0.128617 0.500000 0.080867
O O1 0.898807 0.712575 0.574245
O O2 0.897983 0.726924 0.448667
O O3 0.035940 0.738821 0.614643
O O4 0.937394 0.000000 0.541283
O O5 0.971227 0.676229 0.836255
O O6 0.935524 0.500000 0.911458
O O7 0.082551 0.500000 0.978998
O O8 0.750000 0.250000 0.500000
O O9 0.863339 0.272017 0.670247
O O10 0.851539 0.000000 0.591012
O O11 0.309820 0.500000 0.838356
O O12 0.323911 0.734513 0.757760
O O13 0.189843 0.700947 0.719813
O O14 0.316261 0.828350 0.873163
O O15 0.077313 0.000000 0.219250
O O16 0.371930 0.500000 0.355594
#
# Coordination Sequence:
#
# PCOD8080919 Si02
#       7
#     8   4   8   8   8   8   4
#     4   8  16  28  45  66  93 131 167 197 234 274
#     4   9  18  32  52  68  98 125 158 190 241 291
#     4  10  19  30  44  67  98 130 166 196 231 275
#     4  10  18  29  47  72  99 124 155 194 244 285
#     4   9  19  31  46  70  99 128 158 193 236 284
#     4   9  15  28  47  67  94 128 165 199 237 278
#     4   9  18  32  48  75  94 124 154 195 239 299
#
# _framework density 17.743983
#
# number of rings (size 3 to 8) (size 9 to 14) (size 15 to 20)
#    0.000    2.833    0.833    2.000    1.167    0.667 
#    0.000    5.833    0.000    0.000    0.000    1.167 
#    0.000    0.000    0.000    0.000    0.000    0.000 
#
# Total GULP energy -297505.349270 kJ/mol
# GULP energy per Si atom -12396.056220 kJ/mol
# Density = 1.770360 g / cm^3
# Si number density = 17.743983 Si / 1000 Ang^3
#
#
#
# Elastic Constant Matrix: (Units=GPa)
#
#
# Indices 1 2 3 4 5 6 
#
# 1 91.6092 24.4440 53.7180 0.0000 7.1267 0.0000
# 2 24.4440 76.2774 50.6568 0.0001 7.6727 0.0000
# 3 53.7180 50.6568 142.3687 0.0000 19.5851 0.0000
# 4 0.0000 0.0001 0.0000 18.6350 0.0000 3.4801
# 5 7.1267 7.6727 19.5851 0.0000 23.2391 0.0000
# 6 0.0000 0.0000 0.0000 3.4801 0.0000 11.6191
#
#
#
# Elastic Compliance Matrix: (Units=1/GPa)
#
#
# Indices 1 2 3 4 5 6 
#
# 1 0.014115 -0.001294 -0.004896 0.000000 0.000225 0.000000
# 2 -0.001294 0.017292 -0.005581 0.000000 -0.000609 0.000000
# 3 -0.004896 -0.005581 0.011761 0.000000 -0.006567 0.000000
# 4 0.000000 0.000000 0.000000 0.056842 0.000000 -0.017025
# 5 0.000225 -0.000609 -0.006567 0.000000 0.048698 0.000000
# 6 0.000000 0.000000 0.000000 -0.017025 0.000000 0.091164
#
#
# Mechanical properties :
#
#
# Convention : Reuss Voigt Hill
#
# Bulk Modulus (GPa) = 50.95453 63.09919 57.02686
# Shear Modulus (GPa) = 18.52157 22.79443 20.65800
#
# Velocity S-wave (km/s) = 3.23433 3.58806 3.41578
# Velocity P-wave (km/s) = 6.53657 7.26661 6.91124
#
# Compressibility (1/GPa) = 0.01962534
#
# Stress axis : x y z
#
# Youngs Moduli (GPa) = 70.84755 57.82925 85.03007
#
# Poissons Ratio (x) = 0.07485 0.41632
# Poissons Ratio (y) = 0.09170 0.47453
# Poissons Ratio (z) = 0.34688 0.32273
#
# Static dielectric constant tensor:
#      x y z
#    x 3.341240 0.000000 -0.061070 
#    y 0.000000 3.253700 0.000000 
#    z -0.061070 0.000000 3.342990 
# 
# 
# High freq. dielectric constant tensor:
#      x y z
#    x 1.659960 0.000000 0.011020 
#    y 0.000000 1.685660 0.000000 
#    z 0.011020 0.000000 1.668350 
# 
# From -- ./inp_files/287977.got.cif
#   From: 2010.06.25/outbox.cif.g09.slc.cpg/sg12_144_cif.got.tgz:287977.got - 2010.06.28 00:19:55.
