data_PCOD8080820
_publ_section_title
;
Structure prediction by ZEFSAII (Michael W. Deem and Ramdas Pophale) SiO2 
 PCOD8080820
Probable space group: C 2/M
;
_chemical_formula_sum "Si O2"
_cell_formula_units_Z 52
_cell_length_a 19.164504
_cell_length_b 17.267499
_cell_length_c 12.588000
_cell_angle_alpha 90.000000
_cell_angle_beta 44.945848
_cell_angle_gamma 90.000000
_cell_volume 2942.780749
_symmetry_space_group_name_H-M "C 2/M"
_symmetry_group_IT_number 12
_symmetry_cell_setting 'monoclinic'
loop_
_space_group_symop_operation_xyz
x,y,z
-x,y,-z
-x,-y,-z
x,-y,z
1/2+x,1/2+y,z
1/2-x,1/2+y,-z
1/2-x,1/2-y,-z
1/2+x,1/2-y,z
loop_
_atom_site_type_symbol
_atom_site_label
_atom_site_fract_x
_atom_site_fract_y
_atom_site_fract_z
Si Si1 0.714373 0.911010 0.910939
Si Si2 0.190278 0.170056 0.393344
Si Si3 0.926796 0.274357 0.923867
Si Si4 0.900854 0.086126 0.310106
Si Si5 0.369187 0.731009 0.215385
Si Si6 0.000000 0.173960 0.500000
Si Si7 0.405486 0.631685 0.808873
O O1 0.756928 0.881541 0.753206
O O2 0.795215 0.902948 0.918947
O O3 0.680811 0.000000 0.937262
O O4 0.617972 0.860002 0.045098
O O5 0.152285 0.113100 0.525211
O O6 0.265491 0.231599 0.361864
O O7 0.095112 0.218647 0.448059
O O8 0.900559 0.222159 0.849409
O O9 0.044798 0.278669 0.815468
O O10 0.878897 0.233561 0.078272
O O11 0.869581 0.141322 0.247263
O O12 0.020998 0.087043 0.190338
O O13 0.865756 0.000000 0.319608
O O14 0.953822 0.120411 0.641032
#
# Coordination Sequence:
#
# PCOD8080820 Si02
#       7
#     8   8   8   8   8   4   8
#     4  10  18  29  46  70  93 117 149 189 227 263
#     4   9  17  30  47  68  93 118 145 183 229 272
#     4   9  18  32  47  64  90 124 156 182 215 268
#     4  10  18  29  46  70  93 117 149 189 227 263
#     4   9  18  32  47  64  90 124 156 182 215 268
#     4   8  16  28  49  72  85 108 148 182 220 268
#     4   9  17  30  47  68  93 118 145 183 229 272
#
# _framework density 17.670361
#
# number of rings (size 3 to 8) (size 9 to 14) (size 15 to 20)
#    0.000    2.769    0.000    1.846    0.000    0.000 
#    0.000   18.462    0.000    0.000    0.000    1.077 
#    0.000    0.000    0.000    0.000    0.000    0.000 
#
# Total GULP energy -322110.288726 kJ/mol
# GULP energy per Si atom -12388.857259 kJ/mol
# Density = 1.763014 g / cm^3
# Si number density = 17.670361 Si / 1000 Ang^3
#
#
#
# Elastic Constant Matrix: (Units=GPa)
#
#
# Indices 1 2 3 4 5 6 
#
# 1 69.4041 56.0579 27.6318 0.0000 -19.4024 0.0000
# 2 56.0579 133.0027 46.1870 0.0000 -15.2268 0.0000
# 3 27.6318 46.1870 55.1300 0.0000 -22.1739 0.0000
# 4 0.0000 0.0000 0.0000 17.1441 0.0000 -1.2222
# 5 -19.4024 -15.2268 -22.1739 0.0000 29.9612 0.0000
# 6 0.0000 0.0000 0.0000 -1.2222 0.0000 17.8399
#
#
#
# Elastic Compliance Matrix: (Units=1/GPa)
#
#
# Indices 1 2 3 4 5 6 
#
# 1 0.025128 -0.009172 -0.000342 0.000000 0.011358 0.000000
# 2 -0.009172 0.014012 -0.009492 0.000000 -0.005843 0.000000
# 3 -0.000342 -0.009492 0.034504 0.000000 0.020491 0.000000
# 4 0.000000 0.000000 0.000000 0.058615 0.000000 0.004016
# 5 0.011358 -0.005843 0.020491 0.000000 0.052927 0.000000
# 6 0.000000 0.000000 0.000000 0.004016 0.000000 0.056329
#
#
# Mechanical properties :
#
#
# Convention : Reuss Voigt Hill
#
# Bulk Modulus (GPa) = 28.06477 57.47668 42.77072
# Shear Modulus (GPa) = 17.15831 21.49971 19.32901
#
# Velocity S-wave (km/s) = 3.11950 3.49192 3.31095
# Velocity P-wave (km/s) = 5.37512 6.98969 6.23489
#
# Compressibility (1/GPa) = 0.03563186
#
# Stress axis : x y z
#
# Youngs Moduli (GPa) = 39.79660 71.36956 28.98200
#
# Poissons Ratio (x) = 0.65458 0.00992
# Poissons Ratio (y) = 0.36500 0.27510
# Poissons Ratio (z) = 0.01362 0.67744
#
# Static dielectric constant tensor:
#      x y z
#    x 3.516400 0.000000 -0.203530 
#    y 0.000000 2.998980 0.000000 
#    z -0.203530 0.000000 3.387080 
# 
# 
# High freq. dielectric constant tensor:
#      x y z
#    x 1.689530 0.000000 -0.008870 
#    y 0.000000 1.644570 0.000000 
#    z -0.008870 0.000000 1.677140 
# 
# From -- ./inp_files/225615.got.cif
#   From: 2010.06.25/outbox.cif.g09.slc.cpg/sg12_113_cif.got.tgz:225615.got - 2010.06.28 00:19:55.
