data_PCOD8080398
_publ_section_title
;
Structure prediction by ZEFSAII (Michael W. Deem and Ramdas Pophale) SiO2 
 PCOD8080398
Probable space group: C 2/M
;
_chemical_formula_sum "Si O2"
_cell_formula_units_Z 48
_cell_length_a 24.124376
_cell_length_b 8.907645
_cell_length_c 14.063642
_cell_angle_alpha 90.000000
_cell_angle_beta 110.507138
_cell_angle_gamma 90.000000
_cell_volume 2830.637037
_symmetry_space_group_name_H-M "C 2/M"
_symmetry_group_IT_number 12
_symmetry_cell_setting 'monoclinic'
loop_
_space_group_symop_operation_xyz
x,y,z
-x,y,-z
-x,-y,-z
x,-y,z
1/2+x,1/2+y,z
1/2-x,1/2+y,-z
1/2-x,1/2-y,-z
1/2+x,1/2-y,z
loop_
_atom_site_type_symbol
_atom_site_label
_atom_site_fract_x
_atom_site_fract_y
_atom_site_fract_z
Si Si1 0.663907 0.173374 0.005334
Si Si2 0.455295 0.674431 0.057972
Si Si3 0.789797 0.173787 0.154234
Si Si4 0.872857 0.674589 0.338269
Si Si5 0.015734 0.325307 0.728140
Si Si6 0.943571 0.169447 0.533661
O O1 0.608656 0.264957 0.013536
O O2 0.680214 0.232220 0.911262
O O3 0.646002 0.000000 0.983513
O O4 0.718924 0.194869 0.110041
O O5 0.450491 0.500000 0.080222
O O6 0.478485 0.761701 0.163364
O O7 0.500000 0.706370 0.000000
O O8 0.814103 0.238414 0.268201
O O9 0.807276 0.000000 0.152596
O O10 0.858776 0.500000 0.340529
O O11 0.924141 0.706804 0.292694
O O12 0.890729 0.738679 0.452031
O O13 0.001396 0.500000 0.723977
O O14 0.960251 0.245626 0.643634
O O15 0.000000 0.173857 0.500000
O O16 0.922302 0.000000 0.539623
#
# Coordination Sequence:
#
# PCOD8080398 Si02
#       6
#     8   8   8   8   8   8
#     4  10  20  33  48  70  96 128 165 202 245 290
#     4  11  23  36  51  71  96 130 170 208 245 287
#     4  10  19  30  48  71  99 130 161 198 243 294
#     4  10  18  28  45  71 100 129 162 196 239 292
#     4  10  19  31  47  68  96 128 163 203 243 287
#     4   9  17  28  44  66  95 129 161 195 240 290
#
# _framework density 16.957312999999999
#
# number of rings (size 3 to 8) (size 9 to 14) (size 15 to 20)
#    0.000    2.000    1.667    3.000    0.000    6.667 
#    0.000    0.000    0.000    0.000    0.000    1.167 
#    0.000    0.000    0.000    0.000    0.000    0.000 
#
# Total GULP energy -297654.638797 kJ/mol
# GULP energy per Si atom -12402.276617 kJ/mol
# Density = 1.691872 g / cm^3
# Si number density = 16.957313 Si / 1000 Ang^3
#
#
#
# Elastic Constant Matrix: (Units=GPa)
#
#
# Indices 1 2 3 4 5 6 
#
# 1 53.5810 22.2948 28.1204 0.0000 8.0683 0.0000
# 2 22.2948 77.7043 45.1845 0.0000 4.3726 0.0000
# 3 28.1204 45.1845 110.3408 0.0000 24.2464 0.0000
# 4 0.0000 0.0000 0.0000 34.9159 0.0000 6.3663
# 5 8.0683 4.3726 24.2464 0.0000 21.5271 0.0000
# 6 0.0000 0.0000 0.0000 6.3663 0.0000 21.6721
#
#
#
# Elastic Compliance Matrix: (Units=1/GPa)
#
#
# Indices 1 2 3 4 5 6 
#
# 1 0.022771 -0.004542 -0.003018 0.000000 -0.004213 0.000000
# 2 -0.004542 0.018359 -0.007861 0.000000 0.006827 0.000000
# 3 -0.003018 -0.007861 0.016547 0.000000 -0.015909 0.000000
# 4 0.000000 0.000000 0.000000 0.030261 0.000000 -0.008889
# 5 -0.004213 0.006827 -0.015909 0.000000 0.064565 0.000000
# 6 0.000000 0.000000 0.000000 -0.008889 0.000000 0.048754
#
#
# Mechanical properties :
#
#
# Convention : Reuss Voigt Hill
#
# Bulk Modulus (GPa) = 37.26180 48.09172 42.67676
# Shear Modulus (GPa) = 20.74323 25.35811 23.05067
#
# Velocity S-wave (km/s) = 3.50131 3.87125 3.69092
# Velocity P-wave (km/s) = 6.19412 6.95731 6.58678
#
# Compressibility (1/GPa) = 0.02683714
#
# Stress axis : x y z
#
# Youngs Moduli (GPa) = 43.91505 54.46852 60.43463
#
# Poissons Ratio (x) = 0.24738 0.18237
# Poissons Ratio (y) = 0.19945 0.47506
# Poissons Ratio (z) = 0.13252 0.42817
#
# Static dielectric constant tensor:
#      x y z
#    x 2.861140 0.000000 0.349540 
#    y 0.000000 3.361560 0.000000 
#    z 0.349540 0.000000 3.270320 
# 
# 
# High freq. dielectric constant tensor:
#      x y z
#    x 1.599080 0.000000 0.032900 
#    y 0.000000 1.677370 0.000000 
#    z 0.032900 0.000000 1.656810 
# 
# From -- ./inp_files/172158.got.cif
#   From: 2010.06.25/outbox.cif.g09.slc.cpg/sg12_87_cif.got.tgz:172158.got - 2010.06.28 00:19:55.
