data_PCOD8080040
_publ_section_title
;
Structure prediction by ZEFSAII (Michael W. Deem and Ramdas Pophale) SiO2 
 PCOD8080040
Probable space group: C 2/M
;
_chemical_formula_sum "Si O2"
_cell_formula_units_Z 60
_cell_length_a 22.872210
_cell_length_b 15.005361
_cell_length_c 12.463480
_cell_angle_alpha 90.000000
_cell_angle_beta 122.647497
_cell_angle_gamma 90.000000
_cell_volume 3601.710617
_symmetry_space_group_name_H-M "C 2/M"
_symmetry_group_IT_number 12
_symmetry_cell_setting 'monoclinic'
loop_
_space_group_symop_operation_xyz
x,y,z
-x,y,-z
-x,-y,-z
x,-y,z
1/2+x,1/2+y,z
1/2-x,1/2+y,-z
1/2-x,1/2-y,-z
1/2+x,1/2-y,z
loop_
_atom_site_type_symbol
_atom_site_label
_atom_site_fract_x
_atom_site_fract_y
_atom_site_fract_z
Si Si1 0.327924 0.101254 0.961439
Si Si2 0.116014 0.601271 0.202698
Si Si3 0.410195 0.728438 0.097907
Si Si4 0.720476 0.397069 0.027640
Si Si5 0.523907 0.788526 0.636766
Si Si6 0.108495 0.602329 0.430646
Si Si7 0.343014 0.103650 0.298260
Si Si8 0.000000 0.273446 0.000000
O O1 0.323958 0.116039 0.828202
O O2 0.383919 0.169024 0.066692
O O3 0.352387 0.000000 0.012683
O O4 0.252715 0.117645 0.940493
O O5 0.088675 0.500000 0.169835
O O6 0.144928 0.621536 0.351289
O O7 0.051616 0.664853 0.117902
O O8 0.348697 0.658646 0.029571
O O9 0.450538 0.715190 0.251035
O O10 0.460439 0.710484 0.046254
O O11 0.702057 0.500000 0.030295
O O12 0.775304 0.358996 0.169693
O O13 0.500000 0.743289 0.500000
O O14 0.460830 0.840634 0.628107
O O15 0.586521 0.855303 0.675902
O O16 0.085461 0.500000 0.418221
O O17 0.163234 0.624355 0.580236
O O18 0.347204 0.000000 0.276273
#
# Coordination Sequence:
#
# PCOD8080040 Si02
#       8
#     8   8   8   8   8   8   8   4
#     4   9  18  29  46  72 100 124 153 189 232 288
#     4   9  16  26  42  67  99 132 153 177 228 291
#     4  11  20  32  51  70  96 129 158 198 243 279
#     4  10  20  34  51  71  93 123 166 207 237 270
#     4  10  18  27  43  68  98 127 157 188 232 287
#     4   9  16  26  42  66 101 135 155 178 227 292
#     4   9  17  28  43  67  97 128 160 193 228 279
#     4  10  19  30  43  68  96 126 160 202 228 280
#
# _framework density 16.658750999999999
#
# number of rings (size 3 to 8) (size 9 to 14) (size 15 to 20)
#    0.000    2.400    2.667    1.000    0.000    2.667 
#    0.000    0.333    0.000    5.200    0.000    0.000 
#    0.000    0.000    0.000    0.000    0.000    0.000 
#
# Total GULP energy -371739.933180 kJ/mol
# GULP energy per Si atom -12391.331106 kJ/mol
# Density = 1.662084 g / cm^3
# Si number density = 16.658751 Si / 1000 Ang^3
#
#
#
# Elastic Constant Matrix: (Units=GPa)
#
#
# Indices 1 2 3 4 5 6 
#
# 1 112.7891 35.7239 71.7756 0.0000 -17.6742 0.0000
# 2 35.7239 35.6886 32.3492 0.0000 0.1358 0.0000
# 3 71.7756 32.3492 134.4990 0.0000 -21.3335 0.0000
# 4 0.0000 0.0000 0.0000 14.8788 0.0000 5.5859
# 5 -17.6742 0.1358 -21.3335 0.0000 28.9503 0.0000
# 6 0.0000 0.0000 0.0000 5.5859 0.0000 19.0625
#
#
#
# Elastic Compliance Matrix: (Units=1/GPa)
#
#
# Indices 1 2 3 4 5 6 
#
# 1 0.017127 -0.012615 -0.005025 0.000000 0.006812 0.000000
# 2 -0.012615 0.046573 -0.006484 0.000000 -0.012698 0.000000
# 3 -0.005025 -0.006484 0.012676 0.000000 0.006303 0.000000
# 4 0.000000 0.000000 0.000000 0.075517 0.000000 -0.022129
# 5 0.006812 -0.012698 0.006303 0.000000 0.043405 0.000000
# 6 0.000000 0.000000 0.000000 -0.022129 0.000000 0.058944
#
#
# Mechanical properties :
#
#
# Convention : Reuss Voigt Hill
#
# Bulk Modulus (GPa) = 35.55138 62.51933 49.03535
# Shear Modulus (GPa) = 16.03254 22.12018 19.07636
#
# Velocity S-wave (km/s) = 3.10564 3.64791 3.38764
# Velocity P-wave (km/s) = 5.85212 7.44002 6.69332
#
# Compressibility (1/GPa) = 0.02812831
#
# Stress axis : x y z
#
# Youngs Moduli (GPa) = 58.38717 21.47177 78.88938
#
# Poissons Ratio (x) = 0.27086 0.39644
# Poissons Ratio (y) = 0.73655 0.51149
# Poissons Ratio (z) = 0.29341 0.13921
#
# Static dielectric constant tensor:
#      x y z
#    x 3.131020 0.000000 -0.410360 
#    y 0.000000 2.725330 0.000000 
#    z -0.410360 0.000000 3.483850 
# 
# 
# High freq. dielectric constant tensor:
#      x y z
#    x 1.630760 0.000000 -0.029820 
#    y 0.000000 1.596930 0.000000 
#    z -0.029820 0.000000 1.645160 
# 
# From -- ./inp_files/168502.got.cif
#   From: 2010.06.25/outbox.cif.g09.slc.cpg/sg12_85_cif.got.tgz:168502.got - 2010.06.28 00:19:55.
