data_PCOD8080115
_publ_section_title
;
Structure prediction by ZEFSAII (Michael W. Deem and Ramdas Pophale) SiO2 
 PCOD8080115
Probable space group: C 2/M
;
_chemical_formula_sum "Si O2"
_cell_formula_units_Z 64
_cell_length_a 24.506173
_cell_length_b 9.175906
_cell_length_c 16.697613
_cell_angle_alpha 90.000000
_cell_angle_beta 93.632604
_cell_angle_gamma 90.000000
_cell_volume 3747.187250
_symmetry_space_group_name_H-M "C 2/M"
_symmetry_group_IT_number 12
_symmetry_cell_setting 'monoclinic'
loop_
_space_group_symop_operation_xyz
x,y,z
-x,y,-z
-x,-y,-z
x,-y,z
1/2+x,1/2+y,z
1/2-x,1/2+y,-z
1/2-x,1/2-y,-z
1/2+x,1/2-y,z
loop_
_atom_site_type_symbol
_atom_site_label
_atom_site_fract_x
_atom_site_fract_y
_atom_site_fract_z
Si Si1 0.588997 0.826305 0.871885
Si Si2 0.313524 0.828291 0.226602
Si Si3 0.031130 0.329315 0.181618
Si Si4 0.695799 0.669294 0.164549
Si Si5 0.676912 0.831836 0.426669
Si Si6 0.111369 0.169279 0.297236
Si Si7 0.713873 0.167575 0.601740
Si Si8 0.115052 0.670122 0.051066
O O1 0.635176 0.761495 0.816669
O O2 0.530203 0.770629 0.836492
O O3 0.588601 0.000000 0.872763
O O4 0.600619 0.767815 0.962219
O O5 0.256531 0.767987 0.185390
O O6 0.318959 0.788573 0.321081
O O7 0.313693 0.000000 0.214870
O O8 0.033078 0.500000 0.202014
O O9 0.056384 0.242309 0.258502
O O10 0.064098 0.294366 0.103649
O O11 0.696434 0.500000 0.142888
O O12 0.661226 0.698336 0.241422
O O13 0.669940 0.752848 0.087113
O O14 0.626802 0.743828 0.382999
O O15 0.673417 0.812558 0.522534
O O16 0.734344 0.771420 0.400786
O O17 0.672630 0.000000 0.400973
O O18 0.100151 0.000000 0.310476
O O19 0.735023 0.000000 0.609238
O O20 0.127700 0.500000 0.049212
#
# Coordination Sequence:
#
# PCOD8080115 Si02
#       8
#     8   8   8   8   8   8   8   8
#     4   9  17  29  48  69  89 122 160 192 230 272
#     4   9  16  29  47  66  93 126 157 185 221 276
#     4   9  17  30  48  70  93 117 154 200 235 265
#     4   9  17  29  45  65  91 123 153 184 228 277
#     4  10  18  27  46  73  97 119 150 188 229 273
#     4  10  18  30  48  69  95 124 152 187 234 277
#     4   9  17  30  46  68  97 126 151 184 226 272
#     4   9  17  29  46  69  94 117 150 196 237 269
#
# _framework density 17.079478000000002
#
# number of rings (size 3 to 8) (size 9 to 14) (size 15 to 20)
#    0.000    2.750    1.250    1.125    0.000    3.000 
#    0.000    0.625    0.000    6.000    0.000    5.250 
#    0.000    0.000    0.000    0.000    0.000    0.000 
#
# Total GULP energy -396769.696014 kJ/mol
# GULP energy per Si atom -12399.053000 kJ/mol
# Density = 1.704060 g / cm^3
# Si number density = 17.079478 Si / 1000 Ang^3
#
#
#
# Elastic Constant Matrix: (Units=GPa)
#
#
# Indices 1 2 3 4 5 6 
#
# 1 116.7112 33.6995 76.6433 0.0000 14.7678 0.0000
# 2 33.6995 53.8334 47.2461 0.0000 12.5640 0.0000
# 3 76.6433 47.2461 131.8356 0.0000 25.9811 0.0000
# 4 0.0000 0.0000 0.0000 21.9437 0.0000 8.1106
# 5 14.7678 12.5640 25.9811 0.0000 24.0685 0.0000
# 6 0.0000 0.0000 0.0000 8.1106 0.0000 18.5923
#
#
#
# Elastic Compliance Matrix: (Units=1/GPa)
#
#
# Indices 1 2 3 4 5 6 
#
# 1 0.014073 -0.002436 -0.007440 0.000000 0.000668 0.000000
# 2 -0.002436 0.027937 -0.007642 0.000000 -0.004840 0.000000
# 3 -0.007440 -0.007642 0.016466 0.000000 -0.009221 0.000000
# 4 0.000000 0.000000 0.000000 0.054331 0.000000 -0.023701
# 5 0.000668 -0.004840 -0.009221 0.000000 0.053618 0.000000
# 6 0.000000 0.000000 0.000000 -0.023701 0.000000 0.064125
#
#
# Mechanical properties :
#
#
# Convention : Reuss Voigt Hill
#
# Bulk Modulus (GPa) = 42.66134 68.61756 55.63945
# Shear Modulus (GPa) = 18.28827 22.57364 20.43096
#
# Velocity S-wave (km/s) = 3.27582 3.63944 3.46241
# Velocity P-wave (km/s) = 6.27219 7.61074 6.97365
#
# Compressibility (1/GPa) = 0.02344043
#
# Stress axis : x y z
#
# Youngs Moduli (GPa) = 71.05943 35.79475 60.73018
#
# Poissons Ratio (x) = 0.08719 0.45183
# Poissons Ratio (y) = 0.17309 0.46410
# Poissons Ratio (z) = 0.52868 0.27354
#
# Static dielectric constant tensor:
#      x y z
#    x 3.167130 0.000000 0.112330 
#    y 0.000000 2.988420 0.000000 
#    z 0.112330 0.000000 3.376480 
# 
# 
# High freq. dielectric constant tensor:
#      x y z
#    x 1.636580 0.000000 0.017830 
#    y 0.000000 1.635320 0.000000 
#    z 0.017830 0.000000 1.664070 
# 
# From -- ./inp_files/287785.got.cif
#   From: 2010.06.25/outbox.cif.g09.slc.cpg/sg12_144_cif.got.tgz:287785.got - 2010.06.28 00:19:55.
