data_PCOD8080842
_publ_section_title
;
Structure prediction by ZEFSAII (Michael W. Deem and Ramdas Pophale) SiO2 
 PCOD8080842
Probable space group: C 2/M
;
_chemical_formula_sum "Si O2"
_cell_formula_units_Z 56
_cell_length_a 20.663385
_cell_length_b 8.672332
_cell_length_c 19.881571
_cell_angle_alpha 90.000000
_cell_angle_beta 121.110444
_cell_angle_gamma 90.000000
_cell_volume 3050.349108
_symmetry_space_group_name_H-M "C 2/M"
_symmetry_group_IT_number 12
_symmetry_cell_setting 'monoclinic'
loop_
_space_group_symop_operation_xyz
x,y,z
-x,y,-z
-x,-y,-z
x,-y,z
1/2+x,1/2+y,z
1/2-x,1/2+y,-z
1/2-x,1/2-y,-z
1/2+x,1/2-y,z
loop_
_atom_site_type_symbol
_atom_site_label
_atom_site_fract_x
_atom_site_fract_y
_atom_site_fract_z
Si Si1 0.262148 0.681888 0.172446
Si Si2 0.958024 0.682681 0.675947
Si Si3 0.902071 0.681767 0.166762
Si Si4 0.961239 0.316649 0.412707
Si Si5 0.789228 0.318456 0.324947
Si Si6 0.681951 0.179277 0.002841
Si Si7 0.211726 0.682706 0.413155
O O1 0.264793 0.500000 0.187648
O O2 0.340691 0.731990 0.179874
O O3 0.246523 0.769254 0.233874
O O4 0.189938 0.729637 0.085473
O O5 0.953726 0.500000 0.669122
O O6 0.873769 0.748708 0.639982
O O7 0.013283 0.733164 0.766929
O O8 0.993470 0.750572 0.626486
O O9 0.890469 0.500000 0.174208
O O10 0.892966 0.721788 0.081407
O O11 0.964841 0.500000 0.414834
O O12 0.875121 0.261699 0.363272
O O13 0.000000 0.247889 0.500000
O O14 0.782183 0.500000 0.332733
O O15 0.755893 0.232565 0.370933
O O16 0.695285 0.000000 0.008280
O O17 0.750000 0.250000 0.000000
O O18 0.211912 0.500000 0.419675
O O19 0.250000 0.750000 0.500000
#
# Coordination Sequence:
#
# PCOD8080842 Si02
#       7
#     8   8   8   8   8   8   8
#     4  10  18  29  46  76 112 138 164 207 264 309
#     4   9  17  31  53  77 100 133 175 217 255 301
#     4   9  15  29  51  75 101 135 179 213 249 303
#     4   9  16  28  50  76  96 121 164 213 256 298
#     4  11  21  35  56  77 102 137 176 215 256 307
#     4   8  15  25  43  71 104 136 166 207 252 302
#     4  11  23  39  57  77 104 137 174 215 261 312
#
# _framework density 18.358554999999999
#
# number of rings (size 3 to 8) (size 9 to 14) (size 15 to 20)
#    0.000    2.429    1.429    2.143    0.000    2.857 
#    0.000    1.429    0.000    2.571    0.000    6.000 
#    0.000    0.000    0.000    0.000    0.000    0.000 
#
# Total GULP energy -346908.806756 kJ/mol
# GULP energy per Si atom -12389.600241 kJ/mol
# Density = 1.831677 g / cm^3
# Si number density = 18.358555 Si / 1000 Ang^3
#
#
#
# Elastic Constant Matrix: (Units=GPa)
#
#
# Indices 1 2 3 4 5 6 
#
# 1 79.7611 21.6060 48.3726 0.0000 -0.6423 0.0000
# 2 21.6060 30.6957 29.6142 0.0000 0.7338 0.0000
# 3 48.3726 29.6142 182.2584 0.0000 -0.3214 0.0000
# 4 0.0000 0.0000 0.0000 24.6006 0.0000 -2.9593
# 5 -0.6423 0.7338 -0.3214 0.0000 27.1163 0.0000
# 6 0.0000 0.0000 0.0000 -2.9593 0.0000 19.4099
#
#
#
# Elastic Compliance Matrix: (Units=1/GPa)
#
#
# Indices 1 2 3 4 5 6 
#
# 1 0.016782 -0.008931 -0.003002 0.000000 0.000604 0.000000
# 2 -0.008931 0.043421 -0.004687 0.000000 -0.001442 0.000000
# 3 -0.003002 -0.004687 0.007045 0.000000 0.000139 0.000000
# 4 0.000000 0.000000 0.000000 0.041409 0.000000 0.006313
# 5 0.000604 -0.001442 0.000139 0.000000 0.036933 0.000000
# 6 0.000000 0.000000 0.000000 0.006313 0.000000 0.052483
#
#
# Mechanical properties :
#
#
# Convention : Reuss Voigt Hill
#
# Bulk Modulus (GPa) = 29.40491 54.65563 42.03027
# Shear Modulus (GPa) = 20.60587 27.10019 23.85303
#
# Velocity S-wave (km/s) = 3.35388 3.84625 3.60847
# Velocity P-wave (km/s) = 5.57223 7.03994 6.34864
#
# Compressibility (1/GPa) = 0.03400793
#
# Stress axis : x y z
#
# Youngs Moduli (GPa) = 59.58741 23.03039 141.93809
#
# Poissons Ratio (x) = 0.20568 0.42608
# Poissons Ratio (y) = 0.53216 0.66533
# Poissons Ratio (z) = 0.17887 0.10795
#
# Static dielectric constant tensor:
#      x y z
#    x 3.212890 0.000000 0.063500 
#    y 0.000000 3.135420 0.000000 
#    z 0.063500 0.000000 4.287380 
# 
# 
# High freq. dielectric constant tensor:
#      x y z
#    x 1.671430 0.000000 0.000050 
#    y 0.000000 1.688840 0.000000 
#    z 0.000050 0.000000 1.743800 
# 
# From -- ./inp_files/319319.got.cif
#   From: 2010.06.25/outbox.cif.g09.slc.cpg/sg12_160_cif.got.tgz:319319.got - 2010.06.28 00:19:55.
