data_PCOD8080682
_publ_section_title
;
Structure prediction by ZEFSAII (Michael W. Deem and Ramdas Pophale) SiO2 
 PCOD8080682
Probable space group: C 2/M
;
_chemical_formula_sum "Si O2"
_cell_formula_units_Z 64
_cell_length_a 16.777256
_cell_length_b 20.976660
_cell_length_c 11.934644
_cell_angle_alpha 90.000000
_cell_angle_beta 59.376110
_cell_angle_gamma 90.000000
_cell_volume 3614.369965
_symmetry_space_group_name_H-M "C 2/M"
_symmetry_group_IT_number 12
_symmetry_cell_setting 'monoclinic'
loop_
_space_group_symop_operation_xyz
x,y,z
-x,y,-z
-x,-y,-z
x,-y,z
1/2+x,1/2+y,z
1/2-x,1/2+y,-z
1/2-x,1/2-y,-z
1/2+x,1/2-y,z
loop_
_atom_site_type_symbol
_atom_site_label
_atom_site_fract_x
_atom_site_fract_y
_atom_site_fract_z
Si Si1 0.678711 0.692325 0.564803
Si Si2 0.552858 0.868034 0.349725
Si Si3 0.179634 0.180365 0.317791
Si Si4 0.511785 0.073660 0.152818
Si Si5 0.592336 0.281509 0.984715
Si Si6 0.469983 0.727875 0.723641
Si Si7 0.367656 0.860048 0.106388
Si Si8 0.245022 0.325909 0.263851
O O1 0.750000 0.750000 0.500000
O O2 0.671843 0.654771 0.451500
O O3 0.575525 0.711963 0.673986
O O4 0.715168 0.650738 0.643860
O O5 0.500000 0.887087 0.500000
O O6 0.521355 0.917986 0.278420
O O7 0.526247 0.797287 0.332501
O O8 0.663227 0.873873 0.288859
O O9 0.080637 0.177582 0.324416
O O10 0.256502 0.136696 0.200950
O O11 0.207040 0.254314 0.300882
O O12 0.419497 0.109131 0.175787
O O13 0.503884 0.000000 0.127299
O O14 0.602559 0.103252 0.027563
O O15 0.602326 0.213252 0.918155
O O16 0.677504 0.327294 0.889222
O O17 0.500000 0.313484 0.000000
O O18 0.590108 0.273207 0.119813
#
# Coordination Sequence:
#
# PCOD8080682 Si02
#       8
#     8   8   8   8   8   8   8   8
#     4  10  18  29  44  68 109 141 175 195 236 298
#     4  11  22  34  52  71 103 142 174 205 266 310
#     4   9  20  28  48  71  99 135 173 206 243 308
#     4  11  23  37  54  73  99 131 181 232 265 308
#     4  11  17  29  49  74 102 140 172 201 247 302
#     4  11  19  31  47  75 111 144 172 200 243 310
#     4  10  19  34  53  71  95 134 173 214 267 302
#     4   9  20  29  45  73 100 136 173 203 236 316
#
# _framework density 17.707097000000001
#
# number of rings (size 3 to 8) (size 9 to 14) (size 15 to 20)
#    0.000    1.750    3.750    3.375    7.000    1.750 
#    0.000    0.000    0.000    0.000    0.000    0.000 
#    0.000   13.500    0.000    0.000    0.000    0.000 
#
# Total GULP energy -396645.105324 kJ/mol
# GULP energy per Si atom -12395.159541 kJ/mol
# Density = 1.766679 g / cm^3
# Si number density = 17.707097 Si / 1000 Ang^3
#
#
#
# Elastic Constant Matrix: (Units=GPa)
#
#
# Indices 1 2 3 4 5 6 
#
# 1 108.9707 20.9221 38.0630 0.0000 -2.3649 0.0000
# 2 20.9221 29.5075 13.6357 0.0000 -2.9354 0.0000
# 3 38.0630 13.6357 109.0510 0.0000 4.0963 0.0000
# 4 0.0000 0.0000 0.0000 3.9667 0.0000 0.6571
# 5 -2.3649 -2.9354 4.0963 0.0000 37.6140 0.0000
# 6 0.0000 0.0000 0.0000 0.6571 0.0000 8.9522
#
#
#
# Elastic Compliance Matrix: (Units=1/GPa)
#
#
# Indices 1 2 3 4 5 6 
#
# 1 0.011601 -0.006674 -0.003236 0.000000 0.000561 0.000000
# 2 -0.006674 0.040223 -0.002814 0.000000 0.003026 0.000000
# 3 -0.003236 -0.002814 0.010711 0.000000 -0.001589 0.000000
# 4 0.000000 0.000000 0.000000 0.255203 0.000000 -0.018731
# 5 0.000561 0.003026 -0.001589 0.000000 0.027030 0.000000
# 6 0.000000 0.000000 0.000000 -0.018731 0.000000 0.113079
#
#
# Mechanical properties :
#
#
# Convention : Reuss Voigt Hill
#
# Bulk Modulus (GPa) = 26.96305 43.64119 35.30212
# Shear Modulus (GPa) = 10.08763 21.76715 15.92739
#
# Velocity S-wave (km/s) = 2.38942 3.50993 3.00241
# Velocity P-wave (km/s) = 4.78254 6.41294 5.65679
#
# Compressibility (1/GPa) = 0.03708779
#
# Stress axis : x y z
#
# Youngs Moduli (GPa) = 86.20266 24.86123 93.36311
#
# Poissons Ratio (x) = 0.16593 0.30208
# Poissons Ratio (y) = 0.57535 0.26268
# Poissons Ratio (z) = 0.27891 0.06995
#
# Static dielectric constant tensor:
#      x y z
#    x 3.684930 0.000000 0.071000 
#    y 0.000000 2.617110 0.000000 
#    z 0.071000 0.000000 3.606810 
# 
# 
# High freq. dielectric constant tensor:
#      x y z
#    x 1.701400 0.000000 0.005950 
#    y 0.000000 1.591530 0.000000 
#    z 0.005950 0.000000 1.706020 
# 
# From -- ./inp_files/147642.got.cif
#   From: 2010.06.25/outbox.cif.g09.slc.cpg/sg12_74_cif.got.tgz:147642.got - 2010.06.28 00:19:55.
