data_PCOD8080204
_publ_section_title
;
Structure prediction by ZEFSAII (Michael W. Deem and Ramdas Pophale) SiO2 
 PCOD8080204
Probable space group: C 2/M
;
_chemical_formula_sum "Si O2"
_cell_formula_units_Z 64
_cell_length_a 27.023218
_cell_length_b 9.091118
_cell_length_c 16.933504
_cell_angle_alpha 90.000000
_cell_angle_beta 78.413440
_cell_angle_gamma 90.000000
_cell_volume 4075.302932
_symmetry_space_group_name_H-M "C 2/M"
_symmetry_group_IT_number 12
_symmetry_cell_setting 'monoclinic'
loop_
_space_group_symop_operation_xyz
x,y,z
-x,y,-z
-x,-y,-z
x,-y,z
1/2+x,1/2+y,z
1/2-x,1/2+y,-z
1/2-x,1/2-y,-z
1/2+x,1/2-y,z
loop_
_atom_site_type_symbol
_atom_site_label
_atom_site_fract_x
_atom_site_fract_y
_atom_site_fract_z
Si Si1 0.962255 0.327499 0.337425
Si Si2 0.117668 0.668830 0.173529
Si Si3 0.546700 0.331520 0.085041
Si Si4 0.075459 0.667358 0.348508
Si Si5 0.063397 0.169256 0.814511
Si Si6 0.892093 0.326224 0.061775
Si Si7 0.558418 0.665874 0.503272
Si Si8 0.197652 0.330732 0.023439
O O1 0.951798 0.500000 0.334957
O O2 0.940378 0.249982 0.267469
O O3 0.931831 0.262727 0.422127
O O4 0.021597 0.291598 0.326783
O O5 0.102489 0.500000 0.157290
O O6 0.075442 0.777435 0.153771
O O7 0.118713 0.690570 0.267980
O O8 0.171772 0.705022 0.116678
O O9 0.561469 0.500000 0.062140
O O10 0.487670 0.316051 0.119326
O O11 0.561501 0.231488 0.006069
O O12 0.073728 0.500000 0.379343
O O13 0.089172 0.768190 0.419033
O O14 0.106714 0.247791 0.853165
O O15 0.077836 0.000000 0.794813
O O16 0.897582 0.500000 0.070706
O O17 0.839970 0.282495 0.034856
O O18 0.500000 0.671926 0.500000
O O19 0.576889 0.500000 0.512738
O O20 0.210529 0.500000 0.011689
O O21 0.250000 0.250000 0.000000
#
# Coordination Sequence:
#
# PCOD8080204 Si02
#       8
#     8   8   8   8   8   8   8   8
#     4  10  18  28  43  60  83 121 159 185 218 259
#     4   9  17  30  46  66  89 117 152 186 221 265
#     4  10  19  29  42  62  89 117 147 184 223 259
#     4   9  16  27  43  61  84 115 154 189 217 258
#     4  11  21  30  42  63  91 118 149 187 223 259
#     4  10  21  34  47  63  84 114 151 184 219 266
#     4   9  17  27  39  57  85 117 150 189 226 256
#     4   9  19  34  51  68  88 113 144 184 229 272
#
# _framework density 15.704352999999999
#
# number of rings (size 3 to 8) (size 9 to 14) (size 15 to 20)
#    0.000    2.375    1.250    3.000    0.000    8.000 
#    0.000    0.000    0.000    0.000    0.000    0.000 
#    0.000    1.000    0.000    3.000    0.000    4.625 
#
# Total GULP energy -396736.314940 kJ/mol
# GULP energy per Si atom -12398.009842 kJ/mol
# Density = 1.566861 g / cm^3
# Si number density = 15.704353 Si / 1000 Ang^3
#
#
#
# Elastic Constant Matrix: (Units=GPa)
#
#
# Indices 1 2 3 4 5 6 
#
# 1 54.9118 36.1539 42.8877 0.0000 -2.1778 0.0000
# 2 36.1539 98.4457 66.7077 0.0000 4.8260 0.0000
# 3 42.8877 66.7077 127.3118 0.0000 4.3505 0.0000
# 4 0.0000 0.0000 0.0000 29.6471 0.0000 0.1947
# 5 -2.1778 4.8260 4.3505 0.0000 13.1948 0.0000
# 6 0.0000 0.0000 0.0000 0.1947 0.0000 19.2843
#
#
#
# Elastic Compliance Matrix: (Units=1/GPa)
#
#
# Indices 1 2 3 4 5 6 
#
# 1 0.027656 -0.006319 -0.006312 0.000000 0.008957 0.000000
# 2 -0.006319 0.017318 -0.006770 0.000000 -0.005145 0.000000
# 3 -0.006312 -0.006770 0.013633 0.000000 -0.003061 0.000000
# 4 0.000000 0.000000 0.000000 0.033732 0.000000 -0.000341
# 5 0.008957 -0.005145 -0.003061 0.000000 0.080157 0.000000
# 6 0.000000 0.000000 0.000000 -0.000341 0.000000 0.051859
#
#
# Mechanical properties :
#
#
# Convention : Reuss Voigt Hill
#
# Bulk Modulus (GPa) = 50.48901 63.57423 57.03162
# Shear Modulus (GPa) = 18.53518 21.41991 19.97754
#
# Velocity S-wave (km/s) = 3.43921 3.69717 3.57052
# Velocity P-wave (km/s) = 6.92751 7.66781 7.30704
#
# Compressibility (1/GPa) = 0.01980629
#
# Stress axis : x y z
#
# Youngs Moduli (GPa) = 36.15817 57.74400 73.35337
#
# Poissons Ratio (x) = 0.36488 0.46299
# Poissons Ratio (y) = 0.22848 0.49657
# Poissons Ratio (z) = 0.22822 0.39090
#
# Static dielectric constant tensor:
#      x y z
#    x 2.543920 0.000000 -0.000270 
#    y 0.000000 3.138560 0.000000 
#    z -0.000270 0.000000 3.137600 
# 
# 
# High freq. dielectric constant tensor:
#      x y z
#    x 1.537020 0.000000 0.001510 
#    y 0.000000 1.617530 0.000000 
#    z 0.001510 0.000000 1.610050 
# 
# From -- ./inp_files/291619.got.cif
#   From: 2010.06.25/outbox.cif.g09.slc.cpg/sg12_146_cif.got.tgz:291619.got - 2010.06.28 00:19:55.
