data_PCOD8080737
_publ_section_title
;
Structure prediction by ZEFSAII (Michael W. Deem and Ramdas Pophale) SiO2 
 PCOD8080737
Probable space group: C 2/M
;
_chemical_formula_sum "Si O2"
_cell_formula_units_Z 56
_cell_length_a 19.489571
_cell_length_b 9.546916
_cell_length_c 31.639099
_cell_angle_alpha 90.000000
_cell_angle_beta 34.365736
_cell_angle_gamma 90.000000
_cell_volume 3323.020514
_symmetry_space_group_name_H-M "C 2/M"
_symmetry_group_IT_number 12
_symmetry_cell_setting 'monoclinic'
loop_
_space_group_symop_operation_xyz
x,y,z
-x,y,-z
-x,-y,-z
x,-y,z
1/2+x,1/2+y,z
1/2-x,1/2+y,-z
1/2-x,1/2-y,-z
1/2+x,1/2-y,z
loop_
_atom_site_type_symbol
_atom_site_label
_atom_site_fract_x
_atom_site_fract_y
_atom_site_fract_z
Si Si1 0.650046 0.838355 0.074560
Si Si2 0.877113 0.333794 0.199495
Si Si3 0.841595 0.664534 0.308523
Si Si4 0.236687 0.161769 0.445318
Si Si5 0.070750 0.161075 0.602356
Si Si6 0.314354 0.664803 0.769549
Si Si7 0.391557 0.837926 0.807815
O O1 0.517600 0.787593 0.125628
O O2 0.664684 0.815027 0.117198
O O3 0.669005 0.000000 0.053316
O O4 0.750000 0.750000 0.000000
O O5 0.866103 0.500000 0.205347
O O6 0.819191 0.272698 0.273011
O O7 0.801455 0.277407 0.197922
O O8 0.856957 0.500000 0.294215
O O9 0.733522 0.702334 0.396771
O O10 0.969654 0.717765 0.262734
O O11 0.107722 0.189946 0.534163
O O12 0.344276 0.247476 0.411558
O O13 0.274230 0.000000 0.430416
O O14 0.931166 0.200261 0.680999
O O15 0.095357 0.000000 0.601449
O O16 0.305569 0.500000 0.783711
O O17 0.316073 0.745929 0.812902
O O18 0.383092 0.000000 0.798578
#
# Coordination Sequence:
#
# PCOD8080737 Si02
#       7
#     8   8   8   8   8   8   8
#     4   9  18  34  55  74  92 117 150 186 222 266
#     4   8  16  30  47  67  93 123 150 181 227 276
#     4   8  13  25  45  64  83 117 161 191 214 261
#     4   9  15  25  42  62  85 119 159 191 225 267
#     4   9  17  25  37  64  95 117 146 193 235 262
#     4  10  18  29  45  68  97 123 149 187 231 270
#     4   9  17  30  49  70  90 119 156 186 217 266
#
# _framework density 16.852138
#
# number of rings (size 3 to 8) (size 9 to 14) (size 15 to 20)
#    0.000    3.143    1.429    1.714    0.000    0.571 
#    0.000    2.143    0.000   10.286    0.000    0.000 
#    0.000    5.714    0.000    0.000    0.000    0.000 
#
# Total GULP energy -346906.951871 kJ/mol
# GULP energy per Si atom -12389.533995 kJ/mol
# Density = 1.681378 g / cm^3
# Si number density = 16.852138 Si / 1000 Ang^3
#
#
#
# Elastic Constant Matrix: (Units=GPa)
#
#
# Indices 1 2 3 4 5 6 
#
# 1 117.1319 33.0428 46.5633 -0.0001 3.9724 0.0188
# 2 33.0428 37.5787 36.2259 -0.0008 3.1794 0.0026
# 3 46.5633 36.2259 100.2487 0.0005 8.5489 0.0011
# 4 -0.0001 -0.0008 0.0005 23.1649 -0.0014 3.1054
# 5 3.9724 3.1794 8.5489 -0.0014 18.8583 -0.0002
# 6 0.0188 0.0026 0.0011 3.1054 -0.0002 20.4299
#
#
#
# Elastic Compliance Matrix: (Units=1/GPa)
#
#
# Indices 1 2 3 4 5 6 
#
# 1 0.011797 -0.007813 -0.002660 0.000001 0.000038 -0.000010
# 2 -0.007813 0.046011 -0.012978 0.000002 -0.000228 0.000002
# 3 -0.002660 -0.012978 0.016296 -0.000002 -0.004639 0.000003
# 4 0.000001 0.000002 -0.000002 0.044067 0.000003 -0.006698
# 5 0.000038 -0.000228 -0.004639 0.000003 0.055161 0.000000
# 6 -0.000010 0.000002 0.000003 -0.006698 0.000000 0.049966
#
#
# Mechanical properties :
#
#
# Convention : Reuss Voigt Hill
#
# Bulk Modulus (GPa) = 36.76059 54.06925 45.41492
# Shear Modulus (GPa) = 17.90409 21.76578 19.83494
#
# Velocity S-wave (km/s) = 3.26302 3.59775 3.43446
# Velocity P-wave (km/s) = 6.00478 7.02940 6.53720
#
# Compressibility (1/GPa) = 0.02720305
#
# Stress axis : x y z
#
# Youngs Moduli (GPa) = 84.76493 21.73406 61.36506
#
# Poissons Ratio (x) = 0.16980 0.16321
# Poissons Ratio (y) = 0.66224 0.79641
# Poissons Ratio (z) = 0.22544 0.28207
#
# Static dielectric constant tensor:
#      x y z
#    x 3.272510 0.000020 0.153230 
#    y 0.000020 2.875560 0.000000 
#    z 0.153230 0.000000 3.255580 
# 
# 
# High freq. dielectric constant tensor:
#      x y z
#    x 1.633150 0.000000 0.018560 
#    y 0.000000 1.618010 0.000000 
#    z 0.018560 0.000000 1.650650 
# 
# From -- ./inp_files/342026.got.cif
#   From: 2010.06.25/outbox.cif.g09.slc.cpg/sg12_172_cif.got.tgz:342026.got - 2010.06.28 00:19:55.
