data_PCOD8080951
_publ_section_title
;
Structure prediction by ZEFSAII (Michael W. Deem and Ramdas Pophale) SiO2 
 PCOD8080951
Probable space group: C 2/M
;
_chemical_formula_sum "Si O2"
_cell_formula_units_Z 48
_cell_length_a 9.677518
_cell_length_b 29.743295
_cell_length_c 16.244456
_cell_angle_alpha 90.000000
_cell_angle_beta 143.073035
_cell_angle_gamma 90.000000
_cell_volume 2809.219289
_symmetry_space_group_name_H-M "C 2/M"
_symmetry_group_IT_number 12
_symmetry_cell_setting 'monoclinic'
loop_
_space_group_symop_operation_xyz
x,y,z
-x,y,-z
-x,-y,-z
x,-y,z
1/2+x,1/2+y,z
1/2-x,1/2+y,-z
1/2-x,1/2-y,-z
1/2+x,1/2-y,z
loop_
_atom_site_type_symbol
_atom_site_label
_atom_site_fract_x
_atom_site_fract_y
_atom_site_fract_z
Si Si1 0.767875 0.693231 0.928010
Si Si2 0.539183 0.610015 0.880535
Si Si3 0.255083 0.947322 0.854326
Si Si4 0.732906 0.789297 0.888472
Si Si5 0.260398 0.551784 0.340421
Si Si6 0.861358 0.383241 0.191517
O O1 0.567688 0.656185 0.840973
O O2 0.687516 0.737738 0.836403
O O3 0.839075 0.710768 0.051147
O O4 0.000000 0.671922 0.000000
O O5 0.563057 0.570498 0.825652
O O6 0.289585 0.603892 0.801027
O O7 0.731569 0.607801 0.043484
O O8 0.205320 0.932445 0.737262
O O9 0.249780 0.000000 0.860253
O O10 0.500000 0.927599 0.000000
O O11 0.584233 0.829292 0.774639
O O12 0.000000 0.803148 0.000000
O O13 0.500000 0.556583 0.500000
O O14 0.169977 0.500000 0.301556
O O15 0.084685 0.585469 0.301676
#
# Coordination Sequence:
#
# PCOD8080951 Si02
#       6
#     8   8   8   8   8   8
#     4   9  16  23  41  68 108 139 160 197 254 302
#     4  10  18  29  47  79 109 128 165 213 261 300
#     4  10  19  32  51  77 103 126 164 214 256 300
#     4   9  15  27  40  68 108 135 162 202 254 298
#     4  10  22  39  55  72  99 137 175 207 251 313
#     4  10  18  31  49  72 105 135 164 211 256 304
#
# _framework density 17.086597000000001
#
# number of rings (size 3 to 8) (size 9 to 14) (size 15 to 20)
#    0.000    2.333    5.000    0.500    2.333    0.667 
#    0.000    2.500    0.000    3.000    0.000    4.667 
#    0.000    0.000    0.000    0.000    0.000    0.000 
#
# Total GULP energy -297331.864114 kJ/mol
# GULP energy per Si atom -12388.827671 kJ/mol
# Density = 1.704771 g / cm^3
# Si number density = 17.086597 Si / 1000 Ang^3
#
#
#
# Elastic Constant Matrix: (Units=GPa)
#
#
# Indices 1 2 3 4 5 6 
#
# 1 134.5080 56.7246 31.3434 0.0000 2.8054 0.0000
# 2 56.7246 80.7292 30.8634 0.0000 12.0539 0.0000
# 3 31.3434 30.8634 52.4639 0.0000 -2.3093 0.0000
# 4 0.0000 0.0000 0.0000 13.2471 0.0000 1.9734
# 5 2.8054 12.0539 -2.3093 0.0000 16.8381 0.0000
# 6 0.0000 0.0000 0.0000 1.9734 0.0000 31.4743
#
#
#
# Elastic Compliance Matrix: (Units=1/GPa)
#
#
# Indices 1 2 3 4 5 6 
#
# 1 0.010966 -0.007392 -0.002063 0.000000 0.003181 0.000000
# 2 -0.007392 0.024278 -0.010641 0.000000 -0.017608 0.000000
# 3 -0.002063 -0.010641 0.027067 0.000000 0.011674 0.000000
# 4 0.000000 0.000000 0.000000 0.076200 0.000000 -0.004778
# 5 0.003181 -0.017608 0.011674 0.000000 0.073065 0.000000
# 6 0.000000 0.000000 0.000000 -0.004778 0.000000 0.032072
#
#
# Mechanical properties :
#
#
# Convention : Reuss Voigt Hill
#
# Bulk Modulus (GPa) = 45.20949 56.17379 50.69164
# Shear Modulus (GPa) = 17.16954 22.22987 19.69971
#
# Velocity S-wave (km/s) = 3.17338 3.61087 3.39917
# Velocity P-wave (km/s) = 6.32010 7.09449 6.71846
#
# Compressibility (1/GPa) = 0.02211925
#
# Stress axis : x y z
#
# Youngs Moduli (GPa) = 91.19012 41.18915 36.94504
#
# Poissons Ratio (x) = 0.30446 0.07622
# Poissons Ratio (y) = 0.67405 0.39315
# Poissons Ratio (z) = 0.18813 0.43831
#
# Static dielectric constant tensor:
#      x y z
#    x 3.365430 0.000000 -0.075120 
#    y 0.000000 3.502290 0.000000 
#    z -0.075120 0.000000 2.591860 
# 
# 
# High freq. dielectric constant tensor:
#      x y z
#    x 1.680670 0.000000 -0.005920 
#    y 0.000000 1.679830 0.000000 
#    z -0.005920 0.000000 1.571160 
# 
# From -- ./inp_files/201054.got.cif
#   From: 2010.06.25/outbox.cif.g09.slc.cpg/sg12_101_cif.got.tgz:201054.got - 2010.06.28 00:19:55.
