data_PCOD8080758
_publ_section_title
;
Structure prediction by ZEFSAII (Michael W. Deem and Ramdas Pophale) SiO2 
 PCOD8080758
Probable space group: C 2/M
;
_chemical_formula_sum "Si O2"
_cell_formula_units_Z 64
_cell_length_a 27.817454
_cell_length_b 8.899919
_cell_length_c 20.630486
_cell_angle_alpha 90.000000
_cell_angle_beta 127.888831
_cell_angle_gamma 90.000000
_cell_volume 4030.900408
_symmetry_space_group_name_H-M "C 2/M"
_symmetry_group_IT_number 12
_symmetry_cell_setting 'monoclinic'
loop_
_space_group_symop_operation_xyz
x,y,z
-x,y,-z
-x,-y,-z
x,-y,z
1/2+x,1/2+y,z
1/2-x,1/2+y,-z
1/2-x,1/2-y,-z
1/2+x,1/2-y,z
loop_
_atom_site_type_symbol
_atom_site_label
_atom_site_fract_x
_atom_site_fract_y
_atom_site_fract_z
Si Si1 0.247255 0.677421 0.067664
Si Si2 0.139878 0.676318 0.771200
Si Si3 0.620611 0.825001 0.027320
Si Si4 0.031846 0.827400 0.442932
Si Si5 0.978861 0.826028 0.267452
Si Si6 0.998605 0.676287 0.150442
Si Si7 0.084350 0.673618 0.593688
Si Si8 0.561716 0.669101 0.091350
O O1 0.254258 0.500000 0.066682
O O2 0.299657 0.741475 0.156360
O O3 0.183414 0.723230 0.046665
O O4 0.250000 0.750000 0.000000
O O5 0.143011 0.500000 0.790020
O O6 0.082404 0.741882 0.762097
O O7 0.136414 0.705028 0.690529
O O8 0.614817 0.738806 0.090858
O O9 0.617430 0.000000 0.040783
O O10 0.566919 0.779864 0.933431
O O11 0.092038 0.767334 0.532006
O O12 0.032810 0.807796 0.365967
O O13 0.977723 0.723854 0.423720
O O14 0.020071 0.000000 0.451535
O O15 0.006036 0.756730 0.225124
O O16 0.962267 0.000000 0.243257
O O17 0.005777 0.500000 0.165995
O O18 0.052939 0.734381 0.149276
O O19 0.081909 0.500000 0.573283
O O20 0.579769 0.500000 0.125416
O O21 0.500000 0.674550 0.000000
#
# Coordination Sequence:
#
# PCOD8080758 Si02
#       8
#     8   8   8   8   8   8   8   8
#     4  11  22  34  48  65  88 118 152 189 223 256
#     4  10  20  32  44  61  86 117 153 187 220 259
#     4   9  19  33  46  62  84 112 147 183 219 256
#     4   9  16  25  39  59  83 110 140 176 216 258
#     4  10  19  29  42  63  90 118 148 181 218 261
#     4  10  18  29  46  65  88 116 143 177 219 262
#     4   9  16  26  41  58  79 109 144 180 214 255
#     4   9  17  29  46  66  85 108 140 177 217 261
#
# _framework density 15.877345999999999
#
# number of rings (size 3 to 8) (size 9 to 14) (size 15 to 20)
#    0.000    2.375    0.000    4.125    0.000    7.000 
#    0.000    0.000    0.000    0.000    0.000    0.000 
#    0.000    1.000    0.000    3.250    0.000    5.250 
#
# Total GULP energy -396625.850868 kJ/mol
# GULP energy per Si atom -12394.557840 kJ/mol
# Density = 1.584121 g / cm^3
# Si number density = 15.877346 Si / 1000 Ang^3
#
#
#
# Elastic Constant Matrix: (Units=GPa)
#
#
# Indices 1 2 3 4 5 6 
#
# 1 93.2254 51.7402 51.2976 0.0000 -18.0074 0.0000
# 2 51.7402 84.4148 51.3561 0.0000 -12.8796 0.0000
# 3 51.2976 51.3561 102.0898 0.0000 -19.2581 0.0000
# 4 0.0000 0.0000 0.0000 27.4630 0.0000 -5.9867
# 5 -18.0074 -12.8796 -19.2581 0.0000 18.8064 0.0000
# 6 0.0000 0.0000 0.0000 -5.9867 0.0000 25.3852
#
#
#
# Elastic Compliance Matrix: (Units=1/GPa)
#
#
# Indices 1 2 3 4 5 6 
#
# 1 0.018948 -0.007912 -0.003892 0.000000 0.008738 0.000000
# 2 -0.007912 0.020573 -0.006376 0.000000 -0.000017 0.000000
# 3 -0.003892 -0.006376 0.016648 0.000000 0.008954 0.000000
# 4 0.000000 0.000000 0.000000 0.038386 0.000000 0.009053
# 5 0.008738 -0.000017 0.008954 0.000000 0.070698 0.000000
# 6 0.000000 0.000000 0.000000 0.009053 0.000000 0.041528
#
#
# Mechanical properties :
#
#
# Convention : Reuss Voigt Hill
#
# Bulk Modulus (GPa) = 50.48904 65.39084 57.93994
# Shear Modulus (GPa) = 20.02053 22.68666 21.35360
#
# Velocity S-wave (km/s) = 3.55484 3.78414 3.67128
# Velocity P-wave (km/s) = 6.97980 7.76964 7.38529
#
# Compressibility (1/GPa) = 0.01980628
#
# Stress axis : x y z
#
# Youngs Moduli (GPa) = 52.77727 48.60795 60.06875
#
# Poissons Ratio (x) = 0.38461 0.23378
# Poissons Ratio (y) = 0.41760 0.38302
# Poissons Ratio (z) = 0.20541 0.30994
#
# Static dielectric constant tensor:
#      x y z
#    x 2.798540 0.000000 -0.274130 
#    y 0.000000 3.177950 0.000000 
#    z -0.274130 0.000000 3.454480 
# 
# 
# High freq. dielectric constant tensor:
#      x y z
#    x 1.568970 0.000000 -0.029600 
#    y 0.000000 1.630580 0.000000 
#    z -0.029600 0.000000 1.601970 
# 
# From -- ./inp_files/326987.got.cif
#   From: 2010.06.25/outbox.cif.g09.slc.cpg/sg12_164_cif.got.tgz:326987.got - 2010.06.28 00:19:55.
