data_PCOD8080662
_publ_section_title
;
Structure prediction by ZEFSAII (Michael W. Deem and Ramdas Pophale) SiO2 
 PCOD8080662
Probable space group: C 2/M
;
_chemical_formula_sum "Si O2"
_cell_formula_units_Z 64
_cell_length_a 25.161566
_cell_length_b 8.908086
_cell_length_c 24.150346
_cell_angle_alpha 90.000000
_cell_angle_beta 45.890447
_cell_angle_gamma 90.000000
_cell_volume 3886.655733
_symmetry_space_group_name_H-M "C 2/M"
_symmetry_group_IT_number 12
_symmetry_cell_setting 'monoclinic'
loop_
_space_group_symop_operation_xyz
x,y,z
-x,y,-z
-x,-y,-z
x,-y,z
1/2+x,1/2+y,z
1/2-x,1/2+y,-z
1/2-x,1/2-y,-z
1/2+x,1/2-y,z
loop_
_atom_site_type_symbol
_atom_site_label
_atom_site_fract_x
_atom_site_fract_y
_atom_site_fract_z
Si Si1 0.413673 0.676036 0.338895
Si Si2 0.696751 0.677276 0.493907
Si Si3 0.141745 0.678646 0.810100
Si Si4 0.562046 0.676265 0.180962
Si Si5 0.976019 0.322855 0.905568
Si Si6 0.790786 0.178197 0.342016
Si Si7 0.226730 0.176480 0.074040
Si Si8 0.843957 0.322253 0.076672
O O1 0.413430 0.500000 0.330263
O O2 0.385819 0.712777 0.421843
O O3 0.496602 0.738911 0.268646
O O4 0.357746 0.739362 0.332371
O O5 0.710706 0.500000 0.479249
O O6 0.750000 0.750000 0.500000
O O7 0.713302 0.755754 0.422903
O O8 0.148265 0.500000 0.800247
O O9 0.198473 0.756671 0.726961
O O10 0.163286 0.738060 0.855544
O O11 0.058622 0.734500 0.857533
O O12 0.553367 0.500000 0.177934
O O13 0.556788 0.752475 0.125655
O O14 0.641366 0.715173 0.150340
O O15 0.974738 0.500000 0.899274
O O16 0.923052 0.271999 0.994377
O O17 0.785320 0.000000 0.343885
O O18 0.276907 0.241277 0.087610
O O19 0.239280 0.000000 0.058193
O O20 0.250000 0.250000 0.000000
O O21 0.839847 0.500000 0.081275
#
# Coordination Sequence:
#
# PCOD8080662 Si02
#       8
#     8   8   8   8   8   8   8   8
#     4   8  15  27  42  62  91 119 143 178 222 267
#     4   9  16  27  43  64  91 123 152 182 222 273
#     4  10  19  30  46  66  89 123 159 189 225 273
#     4  10  18  29  46  68  92 121 150 182 229 274
#     4  10  18  29  46  66  89 120 155 190 226 269
#     4  10  18  29  44  64  93 123 148 185 230 273
#     4  10  19  31  49  67  88 119 154 192 231 268
#     4   9  18  32  46  64  91 120 156 196 229 264
#
# _framework density 16.466598999999999
#
# number of rings (size 3 to 8) (size 9 to 14) (size 15 to 20)
#    0.000    2.500    2.500    1.875    0.000    1.500 
#    0.000    1.875    0.000    1.500    0.000    0.875 
#    0.000    7.000    0.000    0.000    0.000    0.000 
#
# Total GULP energy -396576.882963 kJ/mol
# GULP energy per Si atom -12393.027593 kJ/mol
# Density = 1.642912 g / cm^3
# Si number density = 16.466599 Si / 1000 Ang^3
#
#
#
# Elastic Constant Matrix: (Units=GPa)
#
#
# Indices 1 2 3 4 5 6 
#
# 1 72.6000 17.5079 45.6916 -0.0050 10.4843 0.0058
# 2 17.5079 34.2741 32.4476 0.0145 3.3858 -0.0168
# 3 45.6916 32.4476 156.0103 -0.0098 12.1994 0.0095
# 4 -0.0050 0.0145 -0.0098 23.0865 0.0004 3.5265
# 5 10.4843 3.3858 12.1994 0.0004 19.8413 0.0011
# 6 0.0058 -0.0168 0.0095 3.5265 0.0011 14.5398
#
#
#
# Elastic Compliance Matrix: (Units=1/GPa)
#
#
# Indices 1 2 3 4 5 6 
#
# 1 0.018337 -0.005133 -0.003796 0.000007 -0.006479 -0.000012
# 2 -0.005133 0.037817 -0.006376 -0.000036 0.000179 0.000059
# 3 -0.003796 -0.006376 0.009040 0.000009 -0.002465 -0.000014
# 4 0.000007 -0.000036 0.000009 0.044982 -0.000004 -0.010910
# 5 -0.006479 0.000179 -0.002465 -0.000004 0.055308 0.000001
# 6 -0.000012 0.000059 -0.000014 -0.010910 0.000001 0.071423
#
#
# Mechanical properties :
#
#
# Convention : Reuss Voigt Hill
#
# Bulk Modulus (GPa) = 28.91499 50.46432 39.68966
# Shear Modulus (GPa) = 17.91818 22.64265 20.28042
#
# Velocity S-wave (km/s) = 3.30229 3.71221 3.51324
# Velocity P-wave (km/s) = 5.66905 7.00621 6.37280
#
# Compressibility (1/GPa) = 0.03458413
#
# Stress axis : x y z
#
# Youngs Moduli (GPa) = 54.53518 26.44301 110.61346
#
# Poissons Ratio (x) = 0.13573 0.41991
# Poissons Ratio (y) = 0.27992 0.70528
# Poissons Ratio (z) = 0.20703 0.16860
#
# Static dielectric constant tensor:
#      x y z
#    x 3.078440 -0.000010 -0.154310 
#    y -0.000010 2.922980 0.000020 
#    z -0.154310 0.000020 3.875460 
# 
# 
# High freq. dielectric constant tensor:
#      x y z
#    x 1.594160 0.000000 -0.003220 
#    y 0.000000 1.614930 0.000000 
#    z -0.003220 0.000000 1.648890 
# 
# From -- ./inp_files/348541.got.cif
#   From: 2010.06.25/outbox.cif.g09.slc.cpg/sg12_175_cif.got.tgz:348541.got - 2010.06.28 00:19:55.
