data_PCOD8080649
_publ_section_title
;
Structure prediction by ZEFSAII (Michael W. Deem and Ramdas Pophale) SiO2 
 PCOD8080649
Probable space group: C 2/M
;
_chemical_formula_sum "Si O2"
_cell_formula_units_Z 48
_cell_length_a 21.347235
_cell_length_b 20.528452
_cell_length_c 7.574262
_cell_angle_alpha 90.000000
_cell_angle_beta 69.217680
_cell_angle_gamma 90.000000
_cell_volume 3103.270774
_symmetry_space_group_name_H-M "C 2/M"
_symmetry_group_IT_number 12
_symmetry_cell_setting 'monoclinic'
loop_
_space_group_symop_operation_xyz
x,y,z
-x,y,-z
-x,-y,-z
x,-y,z
1/2+x,1/2+y,z
1/2-x,1/2+y,-z
1/2-x,1/2-y,-z
1/2+x,1/2-y,z
loop_
_atom_site_type_symbol
_atom_site_label
_atom_site_fract_x
_atom_site_fract_y
_atom_site_fract_z
Si Si1 0.689229 0.425021 0.359940
Si Si2 0.641333 0.251019 0.108668
Si Si3 0.074763 0.176173 0.473227
Si Si4 0.074765 0.823831 0.877240
Si Si5 0.810766 0.925019 0.238429
Si Si6 0.258058 0.144614 0.991937
O O1 0.674168 0.500000 0.333254
O O2 0.620646 0.386619 0.389224
O O3 0.713166 0.414513 0.536818
O O4 0.748938 0.399350 0.175660
O O5 0.597124 0.263399 0.328074
O O6 0.667775 0.176483 0.082218
O O7 0.597132 0.263406 0.977663
O O8 0.704128 0.298498 0.045899
O O9 0.080690 0.199428 0.669310
O O10 0.000000 0.154438 0.500000
O O11 0.120644 0.886627 0.869460
O O12 0.000000 0.845562 0.000000
O O13 0.751060 0.899331 0.173581
O O14 0.825811 0.000000 0.181610
#
# Coordination Sequence:
#
# PCOD8080649 Si02
#       6
#     8   8   8   8   8   8
#     4   9  18  30  44  65  92 120 152 188 222 263
#     4   9  18  30  44  64  86 119 156 190 227 264
#     4  10  18  29  44  63  92 125 153 184 221 263
#     4  10  18  29  44  63  92 125 153 184 221 263
#     4   9  18  30  44  65  92 120 152 188 222 263
#     4   9  17  30  46  62  87 119 156 190 225 264
#
# _framework density 15.467551
#
# number of rings (size 3 to 8) (size 9 to 14) (size 15 to 20)
#    0.000    2.667    1.667    0.500    0.000    2.000 
#    0.000    6.667    0.000    0.000    0.000    0.000 
#    0.000    5.333    0.000    0.000    0.000    0.000 
#
# Total GULP energy -297557.712178 kJ/mol
# GULP energy per Si atom -12398.238007 kJ/mol
# Density = 1.543235 g / cm^3
# Si number density = 15.467551 Si / 1000 Ang^3
#
#
#
# Elastic Constant Matrix: (Units=GPa)
#
#
# Indices 1 2 3 4 5 6 
#
# 1 73.2588 59.5592 48.2391 0.0000 16.4742 0.0000
# 2 59.5592 79.0115 61.0068 0.0000 1.2622 0.0000
# 3 48.2391 61.0068 111.7581 0.0000 16.8726 0.0000
# 4 0.0000 0.0000 0.0000 19.7186 0.0000 0.6072
# 5 16.4742 1.2622 16.8726 0.0000 22.3619 0.0000
# 6 0.0000 0.0000 0.0000 0.6072 0.0000 19.0194
#
#
#
# Elastic Compliance Matrix: (Units=1/GPa)
#
#
# Indices 1 2 3 4 5 6 
#
# 1 0.062004 -0.053827 0.010222 0.000000 -0.050354 0.000000
# 2 -0.053827 0.070247 -0.023137 0.000000 0.053147 0.000000
# 3 0.010222 -0.023137 0.020433 0.000000 -0.021642 0.000000
# 4 0.000000 0.000000 0.000000 0.050763 0.000000 -0.001621
# 5 -0.050354 0.053147 -0.021642 0.000000 0.095144 0.000000
# 6 0.000000 0.000000 0.000000 -0.001621 0.000000 0.052630
#
#
# Mechanical properties :
#
#
# Convention : Reuss Voigt Hill
#
# Bulk Modulus (GPa) = 52.08204 66.84874 59.46539
# Shear Modulus (GPa) = 10.18113 18.56821 14.37467
#
# Velocity S-wave (km/s) = 2.56837 3.46853 3.05182
# Velocity P-wave (km/s) = 6.52229 7.70412 7.13771
#
# Compressibility (1/GPa) = 0.01920048
#
# Stress axis : x y z
#
# Youngs Moduli (GPa) = 16.12796 14.23548 48.94092
#
# Poissons Ratio (x) = 0.76626 -0.50029
# Poissons Ratio (y) = 0.86813 1.13232
# Poissons Ratio (z) = -0.16486 0.32936
#
# Static dielectric constant tensor:
#      x y z
#    x 2.952990 0.000000 0.169270 
#    y 0.000000 2.890840 0.000000 
#    z 0.169270 0.000000 3.148610 
# 
# 
# High freq. dielectric constant tensor:
#      x y z
#    x 1.575240 0.000000 0.023540 
#    y 0.000000 1.565270 0.000000 
#    z 0.023540 0.000000 1.602420 
# 
# From -- ./inp_files/76730.got.cif
#   From: 2010.06.25/outbox.cif.g09.slc.cpg/sg12_39_cif.got.tgz:76730.got - 2010.06.28 00:19:55.
