data_PCOD8080720
_publ_section_title
;
Structure prediction by ZEFSAII (Michael W. Deem and Ramdas Pophale) SiO2 
 PCOD8080720
Probable space group: C 2/M
;
_chemical_formula_sum "Si O2"
_cell_formula_units_Z 64
_cell_length_a 24.974457
_cell_length_b 8.890832
_cell_length_c 19.022913
_cell_angle_alpha 90.000000
_cell_angle_beta 77.844423
_cell_angle_gamma 90.000000
_cell_volume 4129.215435
_symmetry_space_group_name_H-M "C 2/M"
_symmetry_group_IT_number 12
_symmetry_cell_setting 'monoclinic'
loop_
_space_group_symop_operation_xyz
x,y,z
-x,y,-z
-x,-y,-z
x,-y,z
1/2+x,1/2+y,z
1/2-x,1/2+y,-z
1/2-x,1/2-y,-z
1/2+x,1/2-y,z
loop_
_atom_site_type_symbol
_atom_site_label
_atom_site_fract_x
_atom_site_fract_y
_atom_site_fract_z
Si Si1 0.084258 0.327439 0.786633
Si Si2 0.545065 0.176043 0.334104
Si Si3 0.023133 0.822792 0.204976
Si Si4 0.066861 0.827032 0.595107
Si Si5 0.239408 0.823428 0.428236
Si Si6 0.502952 0.828419 0.921541
Si Si7 0.115197 0.171928 0.429403
Si Si8 0.836601 0.176668 0.325442
O O1 0.085273 0.500000 0.760492
O O2 0.038154 0.233318 0.755757
O O3 0.065822 0.319507 0.874250
O O4 0.142117 0.247043 0.754778
O O5 0.561669 0.255698 0.255284
O O6 0.485555 0.224957 0.377307
O O7 0.590968 0.219004 0.377491
O O8 0.545560 0.000000 0.321137
O O9 0.036770 0.758728 0.122752
O O10 0.027274 0.000000 0.201972
O O11 0.083476 0.801383 0.510323
O O12 0.119175 0.780158 0.627333
O O13 0.050770 0.000000 0.614448
O O14 0.250000 0.750000 0.500000
O O15 0.178458 0.786136 0.420607
O O16 0.279332 0.753610 0.359014
O O17 0.249548 0.000000 0.432593
O O18 0.482294 0.000000 0.931104
O O19 0.500000 0.754618 0.000000
O O20 0.108059 0.000000 0.406690
O O21 0.827656 0.000000 0.320087
#
# Coordination Sequence:
#
# PCOD8080720 Si02
#       8
#     8   8   8   8   8   8   8   8
#     4   9  17  29  45  69  96 128 161 192 233 279
#     4  12  23  33  47  69  94 123 160 202 242 289
#     4  10  18  29  45  66  94 129 159 188 228 278
#     4  10  19  33  50  67  90 121 153 194 247 298
#     4  11  22  37  54  70  91 121 161 209 257 300
#     4   8  15  28  46  70 102 133 159 191 230 278
#     4  10  22  38  50  64  88 122 159 200 251 297
#     4  11  20  32  51  72  95 126 162 203 250 293
#
# _framework density 15.499312
#
# number of rings (size 3 to 8) (size 9 to 14) (size 15 to 20)
#    0.750    1.125    2.500    3.375    0.000    3.750 
#    0.000    0.000    0.000    0.000    0.000    0.000 
#    0.000    1.000    0.000    3.000    0.000    4.000 
#
# Total GULP energy -396605.018809 kJ/mol
# GULP energy per Si atom -12393.906838 kJ/mol
# Density = 1.546403 g / cm^3
# Si number density = 15.499312 Si / 1000 Ang^3
#
#
#
# Elastic Constant Matrix: (Units=GPa)
#
#
# Indices 1 2 3 4 5 6 
#
# 1 58.9147 41.0489 37.5897 0.0000 0.9882 0.0000
# 2 41.0489 110.3470 47.5636 0.0000 4.4797 0.0000
# 3 37.5897 47.5636 99.5341 0.0000 1.2806 0.0000
# 4 0.0000 0.0000 0.0000 22.8132 0.0000 -0.1396
# 5 0.9882 4.4797 1.2806 0.0000 14.4978 0.0000
# 6 0.0000 0.0000 0.0000 -0.1396 0.0000 23.6962
#
#
#
# Elastic Compliance Matrix: (Units=1/GPa)
#
#
# Indices 1 2 3 4 5 6 
#
# 1 0.025895 -0.006864 -0.006511 0.000000 0.000931 0.000000
# 2 -0.006864 0.013369 -0.003753 0.000000 -0.003331 0.000000
# 3 -0.006511 -0.003753 0.014295 0.000000 0.000341 0.000000
# 4 0.000000 0.000000 0.000000 0.043836 0.000000 0.000258
# 5 0.000931 -0.003331 0.000341 0.000000 0.069912 0.000000
# 6 0.000000 0.000000 0.000000 0.000258 0.000000 0.042202
#
#
# Mechanical properties :
#
#
# Convention : Reuss Voigt Hill
#
# Bulk Modulus (GPa) = 51.80961 57.91115 54.86038
# Shear Modulus (GPa) = 19.98397 21.70768 20.84583
#
# Velocity S-wave (km/s) = 3.59464 3.74646 3.67134
# Velocity P-wave (km/s) = 7.12237 7.49396 7.31053
#
# Compressibility (1/GPa) = 0.01930144
#
# Stress axis : x y z
#
# Youngs Moduli (GPa) = 38.61726 74.80092 69.95432
#
# Poissons Ratio (x) = 0.51344 0.45550
# Poissons Ratio (y) = 0.26507 0.26256
# Poissons Ratio (z) = 0.25145 0.28075
#
# Static dielectric constant tensor:
#      x y z
#    x 2.741770 0.000000 -0.057260 
#    y 0.000000 2.992470 0.000000 
#    z -0.057260 0.000000 3.006740 
# 
# 
# High freq. dielectric constant tensor:
#      x y z
#    x 1.557770 0.000000 -0.005990 
#    y 0.000000 1.606910 0.000000 
#    z -0.005990 0.000000 1.584260 
# 
# From -- ./inp_files/323384.got.cif
#   From: 2010.06.25/outbox.cif.g09.slc.cpg/sg12_162_cif.got.tgz:323384.got - 2010.06.28 00:19:55.
