data_PCOD8080084
_publ_section_title
;
Structure prediction by ZEFSAII (Michael W. Deem and Ramdas Pophale) SiO2 
 PCOD8080084
Probable space group: C 2/M
;
_chemical_formula_sum "Si O2"
_cell_formula_units_Z 48
_cell_length_a 24.284849
_cell_length_b 9.184110
_cell_length_c 14.919971
_cell_angle_alpha 90.000000
_cell_angle_beta 62.047745
_cell_angle_gamma 90.000000
_cell_volume 2939.460461
_symmetry_space_group_name_H-M "C 2/M"
_symmetry_group_IT_number 12
_symmetry_cell_setting 'monoclinic'
loop_
_space_group_symop_operation_xyz
x,y,z
-x,y,-z
-x,-y,-z
x,-y,z
1/2+x,1/2+y,z
1/2-x,1/2+y,-z
1/2-x,1/2-y,-z
1/2+x,1/2-y,z
loop_
_atom_site_type_symbol
_atom_site_label
_atom_site_fract_x
_atom_site_fract_y
_atom_site_fract_z
Si Si1 0.146907 0.171330 0.726958
Si Si2 0.927647 0.331923 0.068562
Si Si3 0.663421 0.831725 0.018524
Si Si4 0.298936 0.330524 0.843617
Si Si5 0.286436 0.165536 0.679039
Si Si6 0.314312 0.831210 0.463857
O O1 0.095166 0.229740 0.834142
O O2 0.215376 0.211913 0.711563
O O3 0.135965 0.251891 0.639239
O O4 0.138657 0.000000 0.719185
O O5 0.913342 0.500000 0.103557
O O6 0.893268 0.288457 0.002809
O O7 0.000000 0.302584 0.000000
O O8 0.727258 0.792152 0.919023
O O9 0.661916 0.000000 0.046771
O O10 0.656864 0.739723 0.114542
O O11 0.312705 0.500000 0.831292
O O12 0.315339 0.266162 0.733970
O O13 0.330491 0.182501 0.557337
O O14 0.286841 0.000000 0.713223
O O15 0.250000 0.750000 0.500000
O O16 0.307689 0.000000 0.441455
#
# Coordination Sequence:
#
# PCOD8080084 Si02
#       6
#     8   8   8   8   8   8
#     4  10  19  30  45  66  94 126 157 193 235 276
#     4  10  20  34  51  69  91 124 163 198 233 274
#     4   9  18  31  44  64  92 122 154 191 232 274
#     4  10  18  27  45  68  91 123 154 187 231 277
#     4   9  17  28  43  66  94 124 152 185 229 278
#     4   9  17  28  43  65  93 124 156 189 231 280
#
# _framework density 16.329528
#
# number of rings (size 3 to 8) (size 9 to 14) (size 15 to 20)
#    0.000    2.500    1.667    2.500    0.000    5.000 
#    0.000    0.000    0.000    0.000    0.000    1.167 
#    0.000    9.333    0.000    0.000    0.000    0.000 
#
# Total GULP energy -297557.774817 kJ/mol
# GULP energy per Si atom -12398.240617 kJ/mol
# Density = 1.629236 g / cm^3
# Si number density = 16.329528 Si / 1000 Ang^3
#
#
#
# Elastic Constant Matrix: (Units=GPa)
#
#
# Indices 1 2 3 4 5 6 
#
# 1 64.6709 32.4713 43.2166 0.0000 9.4727 0.0000
# 2 32.4713 100.2951 73.8554 0.0000 13.1067 0.0000
# 3 43.2166 73.8554 123.0167 0.0000 20.8605 0.0000
# 4 0.0000 0.0000 0.0000 34.2055 0.0000 4.7393
# 5 9.4727 13.1067 20.8605 0.0000 18.8054 0.0000
# 6 0.0000 0.0000 0.0000 4.7393 0.0000 16.7523
#
#
#
# Elastic Compliance Matrix: (Units=1/GPa)
#
#
# Indices 1 2 3 4 5 6 
#
# 1 0.020642 -0.002378 -0.005348 0.000000 -0.002808 0.000000
# 2 -0.002378 0.018153 -0.010002 0.000000 -0.000359 0.000000
# 3 -0.005348 -0.010002 0.017704 0.000000 -0.009974 0.000000
# 4 0.000000 0.000000 0.000000 0.030428 0.000000 -0.008608
# 5 -0.002808 -0.000359 -0.009974 0.000000 0.065905 0.000000
# 6 0.000000 0.000000 0.000000 -0.008608 0.000000 0.062129
#
#
# Mechanical properties :
#
#
# Convention : Reuss Voigt Hill
#
# Bulk Modulus (GPa) = 47.52206 65.22994 56.37600
# Shear Modulus (GPa) = 19.42280 23.18192 21.30236
#
# Velocity S-wave (km/s) = 3.45255 3.77189 3.61575
# Velocity P-wave (km/s) = 6.71257 7.68129 7.21321
#
# Compressibility (1/GPa) = 0.02104286
#
# Stress axis : x y z
#
# Youngs Moduli (GPa) = 48.44518 55.08819 56.48469
#
# Poissons Ratio (x) = 0.13100 0.30207
# Poissons Ratio (y) = 0.11520 0.56496
# Poissons Ratio (z) = 0.25907 0.55100
#
# Static dielectric constant tensor:
#      x y z
#    x 2.704800 0.000000 0.239480 
#    y 0.000000 3.162720 0.000000 
#    z 0.239480 0.000000 3.477070 
# 
# 
# High freq. dielectric constant tensor:
#      x y z
#    x 1.572240 0.000000 0.024880 
#    y 0.000000 1.640210 0.000000 
#    z 0.024880 0.000000 1.632570 
# 
# From -- ./inp_files/236587.got.cif
#   From: 2010.06.25/outbox.cif.g09.slc.cpg/sg12_119_cif.got.tgz:236587.got - 2010.06.28 00:19:55.
