data_PCOD8080345
_publ_section_title
;
Structure prediction by ZEFSAII (Michael W. Deem and Ramdas Pophale) SiO2 
 PCOD8080345
Probable space group: C 2/M
;
_chemical_formula_sum "Si O2"
_cell_formula_units_Z 64
_cell_length_a 28.067872
_cell_length_b 9.226709
_cell_length_c 14.820534
_cell_angle_alpha 90.000000
_cell_angle_beta 91.910177
_cell_angle_gamma 90.000000
_cell_volume 3836.001456
_symmetry_space_group_name_H-M "C 2/M"
_symmetry_group_IT_number 12
_symmetry_cell_setting 'monoclinic'
loop_
_space_group_symop_operation_xyz
x,y,z
-x,y,-z
-x,-y,-z
x,-y,z
1/2+x,1/2+y,z
1/2-x,1/2+y,-z
1/2-x,1/2-y,-z
1/2+x,1/2-y,z
loop_
_atom_site_type_symbol
_atom_site_label
_atom_site_fract_x
_atom_site_fract_y
_atom_site_fract_z
Si Si1 0.890569 0.335586 0.368930
Si Si2 0.257533 0.665091 0.909613
Si Si3 0.921780 0.840048 0.686135
Si Si4 0.503193 0.168069 0.602340
Si Si5 0.844706 0.163542 0.524233
Si Si6 0.200985 0.666780 0.732349
Si Si7 0.335271 0.333276 0.780715
Si Si8 0.724922 0.172234 0.367701
O O1 0.887598 0.500000 0.406320
O O2 0.945437 0.298851 0.349696
O O3 0.873495 0.227191 0.443446
O O4 0.856632 0.318241 0.278497
O O5 0.246136 0.500000 0.931579
O O6 0.220197 0.720998 0.830571
O O7 0.312498 0.684835 0.879079
O O8 0.250000 0.750000 0.000000
O O9 0.880481 0.831076 0.609845
O O10 0.892737 0.803769 0.778068
O O11 0.964497 0.732236 0.668211
O O12 0.944496 0.000000 0.691572
O O13 0.500000 0.233662 0.500000
O O14 0.491417 0.000000 0.595732
O O15 0.797091 0.256601 0.542764
O O16 0.828608 0.000000 0.500740
O O17 0.217245 0.500000 0.719626
O O18 0.222740 0.762905 0.651545
O O19 0.325532 0.500000 0.746832
O O20 0.308288 0.217283 0.717630
O O21 0.727245 0.000000 0.378668
#
# Coordination Sequence:
#
# PCOD8080345 Si02
#       8
#     8   8   8   8   8   8   8   8
#     4  10  20  33  47  63  87 123 161 195 234 276
#     4   9  17  31  52  75  98 120 145 181 226 280
#     4   9  17  29  46  65  89 124 161 193 229 273
#     4  10  19  30  45  67  93 118 155 207 247 266
#     4  10  19  30  44  63  89 123 161 197 233 272
#     4   9  19  35  49  63  91 126 154 183 226 281
#     4   8  16  31  47  68  97 126 153 185 229 279
#     4  10  18  28  45  66  89 119 157 196 231 268
#
# _framework density 16.684038999999999
#
# number of rings (size 3 to 8) (size 9 to 14) (size 15 to 20)
#    0.000    2.625    1.250    3.000    0.000    5.750 
#    0.000    0.000    0.000    0.000    0.000    0.875 
#    0.000    7.000    0.000    0.000    0.000    0.000 
#
# Total GULP energy -396490.026791 kJ/mol
# GULP energy per Si atom -12390.313337 kJ/mol
# Density = 1.664607 g / cm^3
# Si number density = 16.684039 Si / 1000 Ang^3
#
#
#
# Elastic Constant Matrix: (Units=GPa)
#
#
# Indices 1 2 3 4 5 6 
#
# 1 133.6171 46.0211 45.2659 0.0000 -10.8085 0.0000
# 2 46.0211 75.1860 24.6525 0.0000 -6.9777 0.0000
# 3 45.2659 24.6525 55.8180 0.0000 -15.0665 0.0000
# 4 0.0000 0.0000 0.0000 20.6045 0.0000 -8.2563
# 5 -10.8085 -6.9777 -15.0665 0.0000 19.2333 0.0000
# 6 0.0000 0.0000 0.0000 -8.2563 0.0000 25.7867
#
#
#
# Elastic Compliance Matrix: (Units=1/GPa)
#
#
# Indices 1 2 3 4 5 6 
#
# 1 0.011599 -0.004701 -0.007648 0.000000 -0.001178 0.000000
# 2 -0.004701 0.017460 -0.003680 0.000000 0.000809 0.000000
# 3 -0.007648 -0.003680 0.030717 0.000000 0.018430 0.000000
# 4 0.000000 0.000000 0.000000 0.055676 0.000000 0.017826
# 5 -0.001178 0.000809 0.018430 0.000000 0.066062 0.000000
# 6 0.000000 0.000000 0.000000 0.017826 0.000000 0.044487
#
#
# Mechanical properties :
#
#
# Convention : Reuss Voigt Hill
#
# Bulk Modulus (GPa) = 36.07860 55.16668 45.62264
# Shear Modulus (GPa) = 18.70562 23.03699 20.87131
#
# Velocity S-wave (km/s) = 3.35202 3.71992 3.54075
# Velocity P-wave (km/s) = 6.05417 7.18246 6.64231
#
# Compressibility (1/GPa) = 0.02771726
#
# Stress axis : x y z
#
# Youngs Moduli (GPa) = 86.21491 57.27420 32.55478
#
# Poissons Ratio (x) = 0.26927 0.24897
# Poissons Ratio (y) = 0.40533 0.11981
# Poissons Ratio (z) = 0.65936 0.21078
#
# Static dielectric constant tensor:
#      x y z
#    x 3.367450 0.000000 -0.128210 
#    y 0.000000 3.120040 0.000000 
#    z -0.128210 0.000000 2.859430 
# 
# 
# High freq. dielectric constant tensor:
#      x y z
#    x 1.645230 0.000000 -0.010740 
#    y 0.000000 1.643160 0.000000 
#    z -0.010740 0.000000 1.592380 
# 
# From -- ./inp_files/244059.got.cif
#   From: 2010.06.25/outbox.cif.g09.slc.cpg/sg12_123_cif.got.tgz:244059.got - 2010.06.28 00:19:55.
