data_PCOD8080907
_publ_section_title
;
Structure prediction by ZEFSAII (Michael W. Deem and Ramdas Pophale) SiO2 
 PCOD8080907
Probable space group: C 2/M
;
_chemical_formula_sum "Si O2"
_cell_formula_units_Z 64
_cell_length_a 25.013610
_cell_length_b 9.053445
_cell_length_c 23.713889
_cell_angle_alpha 90.000000
_cell_angle_beta 133.607143
_cell_angle_gamma 90.000000
_cell_volume 3888.508962
_symmetry_space_group_name_H-M "C 2/M"
_symmetry_group_IT_number 12
_symmetry_cell_setting 'monoclinic'
loop_
_space_group_symop_operation_xyz
x,y,z
-x,y,-z
-x,-y,-z
x,-y,z
1/2+x,1/2+y,z
1/2-x,1/2+y,-z
1/2-x,1/2-y,-z
1/2+x,1/2-y,z
loop_
_atom_site_type_symbol
_atom_site_label
_atom_site_fract_x
_atom_site_fract_y
_atom_site_fract_z
Si Si1 0.418073 0.826762 0.666115
Si Si2 0.056431 0.828412 0.806465
Si Si3 0.978525 0.172651 0.090080
Si Si4 0.778084 0.828109 0.075907
Si Si5 0.367705 0.828808 0.818305
Si Si6 0.849801 0.330369 0.933813
Si Si7 0.306183 0.325960 0.670986
Si Si8 0.696770 0.831074 0.502564
O O1 0.501033 0.766431 0.727772
O O2 0.369725 0.741352 0.677413
O O3 0.386936 0.796738 0.579213
O O4 0.416864 0.000000 0.679803
O O5 0.045143 0.790471 0.863722
O O6 0.138674 0.778630 0.848739
O O7 0.042083 0.000000 0.783813
O O8 0.051881 0.259588 0.128349
O O9 0.992389 0.000000 0.090955
O O10 0.914683 0.224801 0.001759
O O11 0.726392 0.787255 0.090963
O O12 0.777456 0.000000 0.061341
O O13 0.750000 0.750000 0.000000
O O14 0.336513 0.805095 0.858143
O O15 0.310069 0.748831 0.734817
O O16 0.373001 0.000000 0.806042
O O17 0.871984 0.500000 0.962735
O O18 0.321712 0.500000 0.688025
O O19 0.223122 0.292039 0.585637
O O20 0.750000 0.750000 0.500000
O O21 0.714480 0.000000 0.505091
#
# Coordination Sequence:
#
# PCOD8080907 Si02
#       8
#     8   8   8   8   8   8   8   8
#     4  10  18  29  47  71  98 128 158 192 233 284
#     4  10  20  32  48  72  99 126 157 196 240 283
#     4  11  21  33  50  72  98 128 160 196 238 285
#     4  10  20  36  54  70  91 121 159 202 245 282
#     4  11  22  34  48  70  98 129 164 198 233 283
#     4  10  22  37  52  69  93 126 164 204 242 278
#     4  10  18  30  47  68  97 130 159 193 234 280
#     4   8  16  28  43  66  95 125 157 189 229 279
#
# _framework density 16.458750999999999
#
# number of rings (size 3 to 8) (size 9 to 14) (size 15 to 20)
#    0.000    2.000    2.500    1.875    0.000    4.500 
#    0.000    0.000    0.000    0.000    0.000    0.875 
#    0.000    7.000    0.000    0.000    0.000    0.000 
#
# Total GULP energy -396643.427795 kJ/mol
# GULP energy per Si atom -12395.107119 kJ/mol
# Density = 1.642129 g / cm^3
# Si number density = 16.458751 Si / 1000 Ang^3
#
#
#
# Elastic Constant Matrix: (Units=GPa)
#
#
# Indices 1 2 3 4 5 6 
#
# 1 74.7564 39.4430 56.2561 0.0000 -10.3571 0.0000
# 2 39.4430 77.5100 63.8558 0.0000 0.4941 0.0000
# 3 56.2561 63.8558 156.9995 0.0000 4.1918 0.0000
# 4 0.0000 0.0000 0.0000 28.7650 0.0000 2.2501
# 5 -10.3571 0.4941 4.1918 0.0000 6.3409 0.0000
# 6 0.0000 0.0000 0.0000 2.2501 0.0000 15.9555
#
#
#
# Elastic Compliance Matrix: (Units=1/GPa)
#
#
# Indices 1 2 3 4 5 6 
#
# 1 0.035640 -0.009904 -0.010502 0.000000 0.065928 0.000000
# 2 -0.009904 0.022244 -0.005111 0.000000 -0.014532 0.000000
# 3 -0.010502 -0.005111 0.012886 0.000000 -0.025275 0.000000
# 4 0.000000 0.000000 0.000000 0.035152 0.000000 -0.004957
# 5 0.065928 -0.014532 -0.025275 0.000000 0.283232 0.000000
# 6 0.000000 0.000000 0.000000 -0.004957 0.000000 0.063373
#
#
# Mechanical properties :
#
#
# Convention : Reuss Voigt Hill
#
# Bulk Modulus (GPa) = 50.66866 69.81952 60.24409
# Shear Modulus (GPa) = 9.80122 20.19303 14.99713
#
# Velocity S-wave (km/s) = 2.44294 3.50649 3.02187
# Velocity P-wave (km/s) = 6.22971 7.67509 6.98986
#
# Compressibility (1/GPa) = 0.01973607
#
# Stress axis : x y z
#
# Youngs Moduli (GPa) = 28.05860 44.95503 77.60309
#
# Poissons Ratio (x) = 0.44524 0.81502
# Poissons Ratio (y) = 0.27790 0.39659
# Poissons Ratio (z) = 0.29468 0.22974
#
# Static dielectric constant tensor:
#      x y z
#    x 2.976220 0.000000 0.025400 
#    y 0.000000 3.193050 0.000000 
#    z 0.025400 0.000000 3.707970 
# 
# 
# High freq. dielectric constant tensor:
#      x y z
#    x 1.591680 0.000000 0.004120 
#    y 0.000000 1.645920 0.000000 
#    z 0.004120 0.000000 1.646200 
# 
# From -- ./inp_files/348571.got.cif
#   From: 2010.06.25/outbox.cif.g09.slc.cpg/sg12_175_cif.got.tgz:348571.got - 2010.06.28 00:19:55.
