data_PCOD8080978
_publ_section_title
;
Structure prediction by ZEFSAII (Michael W. Deem and Ramdas Pophale) SiO2 
 PCOD8080978
Probable space group: C 2/M
;
_chemical_formula_sum "Si O2"
_cell_formula_units_Z 64
_cell_length_a 25.082971
_cell_length_b 8.829769
_cell_length_c 23.482520
_cell_angle_alpha 90.000000
_cell_angle_beta 133.629667
_cell_angle_gamma 90.000000
_cell_volume 3764.440273
_symmetry_space_group_name_H-M "C 2/M"
_symmetry_group_IT_number 12
_symmetry_cell_setting 'monoclinic'
loop_
_space_group_symop_operation_xyz
x,y,z
-x,y,-z
-x,-y,-z
x,-y,z
1/2+x,1/2+y,z
1/2-x,1/2+y,-z
1/2-x,1/2-y,-z
1/2+x,1/2-y,z
loop_
_atom_site_type_symbol
_atom_site_label
_atom_site_fract_x
_atom_site_fract_y
_atom_site_fract_z
Si Si1 0.082768 0.321886 0.417523
Si Si2 0.312218 0.179734 0.310956
Si Si3 0.532462 0.679025 0.584246
Si Si4 0.115648 0.175272 0.326706
Si Si5 0.775023 0.321419 0.408827
Si Si6 0.943653 0.667154 0.010282
Si Si7 0.171443 0.678950 0.162400
Si Si8 0.058212 0.826842 0.162031
O O1 0.069300 0.500000 0.414883
O O2 0.079469 0.275152 0.349364
O O3 0.162027 0.272236 0.500689
O O4 0.020215 0.231715 0.404282
O O5 0.389078 0.245876 0.346590
O O6 0.294328 0.244425 0.360813
O O7 0.249295 0.236349 0.221549
O O8 0.316436 0.000000 0.313079
O O9 0.500000 0.735528 0.500000
O O10 0.541067 0.500000 0.591808
O O11 0.196967 0.241841 0.373155
O O12 0.063702 0.195074 0.233633
O O13 0.120052 0.000000 0.348971
O O14 0.768335 0.500000 0.397821
O O15 0.934473 0.500000 0.030523
O O16 0.975627 0.778603 0.082140
O O17 0.866431 0.723788 0.926125
O O18 0.000000 0.659231 0.000000
O O19 0.182931 0.500000 0.174974
O O20 0.120718 0.727863 0.177962
O O21 0.072309 0.000000 0.154943
#
# Coordination Sequence:
#
# PCOD8080978 Si02
#       8
#     8   8   8   8   8   8   8   8
#     4  11  22  36  54  75  98 135 178 217 257 301
#     4  11  20  34  55  77 102 134 172 216 258 302
#     4  11  23  38  55  76 100 132 172 215 262 308
#     4  10  20  35  50  72 106 139 171 213 257 302
#     4   9  18  33  51  72 102 134 168 209 257 299
#     4   8  16  29  44  66 101 137 166 205 252 300
#     4  10  19  31  47  72 105 136 169 209 255 307
#     4  10  18  29  48  72 101 138 174 208 252 304
#
# _framework density 17.001200000000001
#
# number of rings (size 3 to 8) (size 9 to 14) (size 15 to 20)
#    0.000    2.000    2.500    3.000    0.000    4.250 
#    0.000    0.625    0.000    0.000    0.000    0.875 
#    0.000    0.000    0.000    0.000    0.000    0.000 
#
# Total GULP energy -396820.001679 kJ/mol
# GULP energy per Si atom -12400.625052 kJ/mol
# Density = 1.696250 g / cm^3
# Si number density = 17.001200 Si / 1000 Ang^3
#
#
#
# Elastic Constant Matrix: (Units=GPa)
#
#
# Indices 1 2 3 4 5 6 
#
# 1 80.2146 26.7220 45.4734 0.0000 2.8464 0.0000
# 2 26.7220 62.8030 41.6644 0.0000 4.5285 0.0000
# 3 45.4734 41.6644 120.5677 0.0000 12.6106 0.0000
# 4 0.0000 0.0000 0.0000 29.3697 0.0000 1.5504
# 5 2.8464 4.5285 12.6106 0.0000 18.7822 0.0000
# 6 0.0000 0.0000 0.0000 1.5504 0.0000 22.0807
#
#
#
# Elastic Compliance Matrix: (Units=1/GPa)
#
#
# Indices 1 2 3 4 5 6 
#
# 1 0.016572 -0.003775 -0.005139 0.000000 0.001849 0.000000
# 2 -0.003775 0.021520 -0.005947 0.000000 -0.000623 0.000000
# 3 -0.005139 -0.005947 0.012967 0.000000 -0.006493 0.000000
# 4 0.000000 0.000000 0.000000 0.034175 0.000000 -0.002400
# 5 0.001849 -0.000623 -0.006493 0.000000 0.057472 0.000000
# 6 0.000000 0.000000 0.000000 -0.002400 0.000000 0.045457
#
#
# Mechanical properties :
#
#
# Convention : Reuss Voigt Hill
#
# Bulk Modulus (GPa) = 46.87170 54.58944 50.73057
# Shear Modulus (GPa) = 22.22248 24.02822 23.12535
#
# Velocity S-wave (km/s) = 3.61932 3.76350 3.69212
# Velocity P-wave (km/s) = 6.71532 7.14592 6.93396
#
# Compressibility (1/GPa) = 0.02133484
#
# Stress axis : x y z
#
# Youngs Moduli (GPa) = 60.34309 46.46912 77.12008
#
# Poissons Ratio (x) = 0.17543 0.39633
# Poissons Ratio (y) = 0.22780 0.45867
# Poissons Ratio (z) = 0.31011 0.27637
#
# Static dielectric constant tensor:
#      x y z
#    x 2.910420 0.000000 0.149700 
#    y 0.000000 3.143740 0.000000 
#    z 0.149700 0.000000 3.475650 
# 
# 
# High freq. dielectric constant tensor:
#      x y z
#    x 1.618130 0.000000 0.010460 
#    y 0.000000 1.656510 0.000000 
#    z 0.010460 0.000000 1.662300 
# 
# From -- ./inp_files/324324.got.cif
#   From: 2010.06.25/outbox.cif.g09.slc.cpg/sg12_163_cif.got.tgz:324324.got - 2010.06.28 00:19:55.
