data_PCOD8080442
_publ_section_title
;
Structure prediction by ZEFSAII (Michael W. Deem and Ramdas Pophale) SiO2 
 PCOD8080442
Probable space group: C 2/M
;
_chemical_formula_sum "Si O2"
_cell_formula_units_Z 48
_cell_length_a 18.624868
_cell_length_b 9.144266
_cell_length_c 18.413910
_cell_angle_alpha 90.000000
_cell_angle_beta 57.451742
_cell_angle_gamma 90.000000
_cell_volume 2643.528593
_symmetry_space_group_name_H-M "C 2/M"
_symmetry_group_IT_number 12
_symmetry_cell_setting 'monoclinic'
loop_
_space_group_symop_operation_xyz
x,y,z
-x,y,-z
-x,-y,-z
x,-y,z
1/2+x,1/2+y,z
1/2-x,1/2+y,-z
1/2-x,1/2-y,-z
1/2+x,1/2-y,z
loop_
_atom_site_type_symbol
_atom_site_label
_atom_site_fract_x
_atom_site_fract_y
_atom_site_fract_z
Si Si1 0.588909 0.664068 0.993791
Si Si2 0.665428 0.838454 0.832038
Si Si3 0.757019 0.673332 0.356105
Si Si4 0.575522 0.328544 0.507215
Si Si5 0.989727 0.335716 0.841489
Si Si6 0.919667 0.172169 0.328909
O O1 0.614881 0.500000 0.000609
O O2 0.583151 0.758185 0.070664
O O3 0.500000 0.667247 0.000000
O O4 0.662864 0.728735 0.901525
O O5 0.735721 0.791031 0.734142
O O6 0.575793 0.840044 0.840084
O O7 0.685470 0.000000 0.851699
O O8 0.769966 0.500000 0.362533
O O9 0.666627 0.734913 0.432537
O O10 0.828104 0.758725 0.362583
O O11 0.500000 0.257944 0.500000
O O12 0.579242 0.500000 0.490507
O O13 0.557115 0.293137 0.600791
O O14 0.959956 0.500000 0.838164
O O15 0.005431 0.243866 0.759714
O O16 0.915787 0.000000 0.314651
#
# Coordination Sequence:
#
# PCOD8080442 Si02
#       6
#     8   8   8   8   8   8
#     4   9  15  22  35  58  88 118 147 181 222 266
#     4   8  14  23  36  57  85 117 149 179 218 267
#     4   9  17  30  48  68  92 123 156 189 226 272
#     4   9  18  32  49  69  92 120 155 192 230 274
#     4   9  16  26  40  59  88 122 152 183 222 271
#     4  10  18  28  46  70  94 120 153 193 231 268
#
# _framework density 18.157548999999999
#
# number of rings (size 3 to 8) (size 9 to 14) (size 15 to 20)
#    0.000    3.000    0.000    3.000    0.000    6.000 
#    0.000    0.833    0.000    4.500    0.000    1.167 
#    0.000    0.000    0.000    0.000    0.000    0.000 
#
# Total GULP energy -297504.443219 kJ/mol
# GULP energy per Si atom -12396.018467 kJ/mol
# Density = 1.811622 g / cm^3
# Si number density = 18.157549 Si / 1000 Ang^3
#
#
#
# Elastic Constant Matrix: (Units=GPa)
#
#
# Indices 1 2 3 4 5 6 
#
# 1 45.8442 28.4676 34.9922 0.0000 11.5666 -0.0001
# 2 28.4676 107.7804 67.5328 0.0000 7.5816 -0.0006
# 3 34.9922 67.5328 136.8528 0.0000 14.9467 0.0000
# 4 0.0000 0.0000 0.0000 30.7564 0.0000 1.7543
# 5 11.5666 7.5816 14.9467 0.0000 6.1308 0.0000
# 6 -0.0001 -0.0006 0.0000 1.7543 0.0000 8.4650
#
#
#
# Elastic Compliance Matrix: (Units=1/GPa)
#
#
# Indices 1 2 3 4 5 6 
#
# 1 0.045491 -0.006627 0.000160 0.000000 -0.078019 0.000000
# 2 -0.006627 0.014398 -0.006585 0.000000 0.010752 0.000001
# 3 0.000160 -0.006585 0.013165 0.000000 -0.024253 0.000000
# 4 0.000000 0.000000 0.000000 0.032902 0.000000 -0.006819
# 5 -0.078019 0.010752 -0.024253 0.000000 0.356139 0.000000
# 6 0.000000 0.000001 0.000000 -0.006819 0.000000 0.119546
#
#
# Mechanical properties :
#
#
# Convention : Reuss Voigt Hill
#
# Bulk Modulus (GPa) = 21.29979 61.38473 41.34226
# Shear Modulus (GPa) = 8.02060 19.70278 13.86169
#
# Velocity S-wave (km/s) = 2.10400 3.29766 2.76599
# Velocity P-wave (km/s) = 4.20219 6.95554 5.74621
#
# Compressibility (1/GPa) = 0.04694882
#
# Stress axis : x y z
#
# Youngs Moduli (GPa) = 21.98246 69.45342 75.96181
#
# Poissons Ratio (x) = 0.46029 -0.01214
# Poissons Ratio (y) = 0.14569 0.50019
# Poissons Ratio (z) = -0.00351 0.45733
#
# Static dielectric constant tensor:
#      x y z
#    x 2.827670 0.000000 -0.083260 
#    y 0.000000 3.368220 0.000000 
#    z -0.083260 0.000000 3.698940 
# 
# 
# High freq. dielectric constant tensor:
#      x y z
#    x 1.632470 0.000000 -0.001300 
#    y 0.000000 1.695330 0.000000 
#    z -0.001300 0.000000 1.725900 
# 
# From -- ./inp_files/274622.got.cif
#   From: 2010.06.25/outbox.cif.g09.slc.cpg/sg12_138_cif.got.tgz:274622.got - 2010.06.28 00:19:55.
