data_PCOD8080477
_publ_section_title
;
Structure prediction by ZEFSAII (Michael W. Deem and Ramdas Pophale) SiO2 
 PCOD8080477
Probable space group: C 2/M
;
_chemical_formula_sum "Si O2"
_cell_formula_units_Z 64
_cell_length_a 17.986788
_cell_length_b 18.238421
_cell_length_c 22.636335
_cell_angle_alpha 90.000000
_cell_angle_beta 30.985531
_cell_angle_gamma 90.000000
_cell_volume 3822.994929
_symmetry_space_group_name_H-M "C 2/M"
_symmetry_group_IT_number 12
_symmetry_cell_setting 'monoclinic'
loop_
_space_group_symop_operation_xyz
x,y,z
-x,y,-z
-x,-y,-z
x,-y,z
1/2+x,1/2+y,z
1/2-x,1/2+y,-z
1/2-x,1/2-y,-z
1/2+x,1/2-y,z
loop_
_atom_site_type_symbol
_atom_site_label
_atom_site_fract_x
_atom_site_fract_y
_atom_site_fract_z
Si Si1 0.526961 0.079620 0.085468
Si Si2 0.847484 0.081321 0.875872
Si Si3 0.893010 0.418372 0.297975
Si Si4 0.913251 0.722709 0.111555
Si Si5 0.379622 0.674590 0.741521
Si Si6 0.439646 0.586199 0.475617
Si Si7 0.382798 0.798000 0.831686
Si Si8 0.079396 0.197220 0.085966
O O1 0.408007 0.082993 0.217330
O O2 0.501525 0.146539 0.059219
O O3 0.515615 0.000000 0.060360
O O4 0.683275 0.084903 0.011000
O O5 0.838547 0.110591 0.815089
O O6 0.945233 0.126644 0.855507
O O7 0.912559 0.000000 0.830515
O O8 0.919068 0.500000 0.305673
O O9 0.728129 0.394027 0.418855
O O10 0.010627 0.366787 0.249929
O O11 0.748584 0.705109 0.211609
O O12 0.931544 0.780849 0.152731
O O13 0.000000 0.761770 0.000000
O O14 0.491821 0.640377 0.619373
O O15 0.432854 0.742552 0.745609
O O16 0.500000 0.605022 0.500000
O O17 0.469996 0.500000 0.441487
O O18 0.397974 0.766949 0.887349
O O19 0.209703 0.814710 0.949032
#
# Coordination Sequence:
#
# PCOD8080477 Si02
#       8
#     8   8   8   8   8   8   8   8
#     4  10  18  28  46  74 101 128 166 206 251 311
#     4  10  19  32  52  77 103 135 175 219 260 307
#     4  10  19  33  54  72  96 138 176 207 252 309
#     4  12  19  30  46  74 106 141 168 201 259 317
#     4  11  22  33  52  77 106 137 173 220 262 305
#     4  10  22  38  52  72 107 143 168 202 259 318
#     4  10  18  32  51  75 103 132 173 220 253 307
#     4  10  18  31  49  74 108 140 169 207 267 315
#
# _framework density 16.740801000000001
#
# number of rings (size 3 to 8) (size 9 to 14) (size 15 to 20)
#    0.000    1.625    5.000    1.875    0.000    2.750 
#    0.000    0.000    0.000    1.125    0.000    0.000 
#    0.000    0.500    0.000    0.250    0.000    0.125 
#
# Total GULP energy -396432.301681 kJ/mol
# GULP energy per Si atom -12388.509428 kJ/mol
# Density = 1.670270 g / cm^3
# Si number density = 16.740801 Si / 1000 Ang^3
#
#
#
# Elastic Constant Matrix: (Units=GPa)
#
#
# Indices 1 2 3 4 5 6 
#
# 1 86.9499 53.5123 40.4631 -0.0035 -2.7414 0.0012
# 2 53.5123 89.6462 47.5427 -0.0046 -11.3797 0.0009
# 3 40.4631 47.5427 85.8817 0.0130 1.6568 0.0031
# 4 -0.0035 -0.0046 0.0130 22.6276 -0.0017 -0.7248
# 5 -2.7414 -11.3797 1.6568 -0.0017 21.3842 -0.0029
# 6 0.0012 0.0009 0.0031 -0.7248 -0.0029 16.6576
#
#
#
# Elastic Compliance Matrix: (Units=1/GPa)
#
#
# Indices 1 2 3 4 5 6 
#
# 1 0.019133 -0.009894 -0.003489 0.000003 -0.002542 0.000000
# 2 -0.009894 0.022895 -0.008236 0.000009 0.011554 0.000003
# 3 -0.003489 -0.008236 0.017967 -0.000013 -0.006222 -0.000004
# 4 0.000003 0.000009 -0.000013 0.044256 0.000010 0.001926
# 5 -0.002542 0.011554 -0.006222 0.000010 0.053068 0.000010
# 6 0.000000 0.000003 -0.000004 0.001926 0.000010 0.060117
#
#
# Mechanical properties :
#
#
# Convention : Reuss Voigt Hill
#
# Bulk Modulus (GPa) = 59.66966 60.61266 60.14116
# Shear Modulus (GPa) = 18.77880 20.19785 19.48832
#
# Velocity S-wave (km/s) = 3.35287 3.47725 3.41562
# Velocity P-wave (km/s) = 7.12107 7.23925 7.18040
#
# Compressibility (1/GPa) = 0.01675894
#
# Stress axis : x y z
#
# Youngs Moduli (GPa) = 52.26545 43.67730 55.65797
#
# Poissons Ratio (x) = 0.43213 0.19417
# Poissons Ratio (y) = 0.51709 0.45839
# Poissons Ratio (z) = 0.18233 0.35972
#
# Static dielectric constant tensor:
#      x y z
#    x 3.013050 0.000000 0.012860 
#    y 0.000000 3.197790 0.000010 
#    z 0.012860 0.000010 2.970340 
# 
# 
# High freq. dielectric constant tensor:
#      x y z
#    x 1.629170 0.000000 0.004530 
#    y 0.000000 1.637620 0.000000 
#    z 0.004530 0.000000 1.625430 
# 
# From -- ./inp_files/344362.got.cif
#   From: 2010.06.25/outbox.cif.g09.slc.cpg/sg12_173_cif.got.tgz:344362.got - 2010.06.28 00:19:55.
