data_PCOD8080422
_publ_section_title
;
Structure prediction by ZEFSAII (Michael W. Deem and Ramdas Pophale) SiO2 
 PCOD8080422
Probable space group: C 2/M
;
_chemical_formula_sum "Si O2"
_cell_formula_units_Z 48
_cell_length_a 15.122946
_cell_length_b 18.107386
_cell_length_c 10.124946
_cell_angle_alpha 90.000000
_cell_angle_beta 99.948894
_cell_angle_gamma 90.000000
_cell_volume 2730.891606
_symmetry_space_group_name_H-M "C 2/M"
_symmetry_group_IT_number 12
_symmetry_cell_setting 'monoclinic'
loop_
_space_group_symop_operation_xyz
x,y,z
-x,y,-z
-x,-y,-z
x,-y,z
1/2+x,1/2+y,z
1/2-x,1/2+y,-z
1/2-x,1/2-y,-z
1/2+x,1/2-y,z
loop_
_atom_site_type_symbol
_atom_site_label
_atom_site_fract_x
_atom_site_fract_y
_atom_site_fract_z
Si Si1 0.961091 0.085357 0.848891
Si Si2 0.266071 0.585142 0.716271
Si Si3 0.941671 0.826676 0.353849
Si Si4 0.587906 0.156470 0.672569
Si Si5 0.084680 0.414762 0.387194
Si Si6 0.781603 0.084563 0.417536
O O1 0.854222 0.099757 0.826198
O O2 0.005924 0.135744 0.751120
O O3 0.981126 0.000000 0.819656
O O4 0.000000 0.107966 0.000000
O O5 0.236761 0.500000 0.708379
O O6 0.183041 0.630629 0.759026
O O7 0.286560 0.609907 0.571370
O O8 0.923109 0.742945 0.310623
O O9 0.845659 0.865215 0.346476
O O10 0.000000 0.834924 0.500000
O O11 0.501197 0.115640 0.717972
O O12 0.590071 0.134184 0.520043
O O13 0.070345 0.500000 0.421963
O O14 0.179545 0.405284 0.335774
O O15 0.813490 0.000000 0.412298
#
# Coordination Sequence:
#
# PCOD8080422 Si02
#       6
#     8   8   8   8   8   8
#     4  10  22  39  56  73  98 137 180 215 252 305
#     4   9  17  31  52  74 100 135 174 210 247 298
#     4  12  21  31  50  80 111 133 161 212 265 309
#     4  10  18  28  45  77 106 137 166 201 257 305
#     4   9  16  29  46  70 110 141 167 204 249 301
#     4   9  18  29  46  72 100 134 167 204 253 299
#
# _framework density 17.576677
#
# number of rings (size 3 to 8) (size 9 to 14) (size 15 to 20)
#    0.000    2.167    3.333    3.500    0.000    4.667 
#    0.000    0.833    0.000    0.000    0.000    0.000 
#    0.000   11.333    0.000    0.000    0.000    0.000 
#
# Total GULP energy -297483.843707 kJ/mol
# GULP energy per Si atom -12395.160154 kJ/mol
# Density = 1.753667 g / cm^3
# Si number density = 17.576677 Si / 1000 Ang^3
#
#
#
# Elastic Constant Matrix: (Units=GPa)
#
#
# Indices 1 2 3 4 5 6 
#
# 1 144.6586 60.0465 39.5019 0.0000 13.1095 0.0000
# 2 60.0465 98.6034 33.1048 0.0000 1.9073 0.0000
# 3 39.5019 33.1048 55.4599 0.0000 10.4675 0.0000
# 4 0.0000 0.0000 0.0000 -4.0400 0.0000 -0.5697
# 5 13.1095 1.9073 10.4675 0.0000 14.1926 0.0000
# 6 0.0000 0.0000 0.0000 -0.5697 0.0000 14.5236
#
#
#
# Elastic Compliance Matrix: (Units=1/GPa)
#
#
# Indices 1 2 3 4 5 6 
#
# 1 0.010554 -0.005253 -0.003107 0.000000 -0.006751 0.000000
# 2 -0.005253 0.015551 -0.007043 0.000000 0.007957 0.000000
# 3 -0.003107 -0.007043 0.027565 0.000000 -0.016514 0.000000
# 4 0.000000 0.000000 0.000000 -0.246161 0.000000 -0.009656
# 5 -0.006751 0.007957 -0.016514 0.000000 0.087805 0.000000
# 6 0.000000 0.000000 0.000000 -0.009656 0.000000 0.068475
#
#
# Mechanical properties :
#
#
# Convention : Reuss Voigt Hill
#
# Bulk Modulus (GPa) = 43.73802 62.66981 53.20391
# Shear Modulus (GPa) = 2256.52916 16.00648 1136.26782
#
# Velocity S-wave (km/s) = 35.86931 3.02100 25.45323
# Velocity P-wave (km/s) = 41.71827 6.92106 29.90247
#
# Compressibility (1/GPa) = 0.02286341
#
# Stress axis : x y z
#
# Youngs Moduli (GPa) = 94.75491 64.30341 36.27796
#
# Poissons Ratio (x) = 0.33779 0.11272
# Poissons Ratio (y) = 0.49775 0.25551
# Poissons Ratio (z) = 0.29442 0.45289
#
# Static dielectric constant tensor:
#      x y z
#    x 3.966410 0.000000 0.195760 
#    y 0.000000 3.242360 0.000000 
#    z 0.195760 0.000000 2.731010 
# 
# 
# High freq. dielectric constant tensor:
#      x y z
#    x 1.710310 0.000000 0.007850 
#    y 0.000000 1.681730 0.000000 
#    z 0.007850 0.000000 1.602190 
# 
# From -- ./inp_files/61690.got.cif
#   From: 2010.06.25/outbox.cif.g09.slc.cpg/sg12_31_cif.got.tgz:61690.got - 2010.06.28 00:19:55.
