data_PCOD8080435
_publ_section_title
;
Structure prediction by ZEFSAII (Michael W. Deem and Ramdas Pophale) SiO2 
 PCOD8080435
Probable space group: C 2/M
;
_chemical_formula_sum "Si O2"
_cell_formula_units_Z 64
_cell_length_a 27.813216
_cell_length_b 8.915188
_cell_length_c 14.790402
_cell_angle_alpha 90.000000
_cell_angle_beta 92.244869
_cell_angle_gamma 90.000000
_cell_volume 3664.614237
_symmetry_space_group_name_H-M "C 2/M"
_symmetry_group_IT_number 12
_symmetry_cell_setting 'monoclinic'
loop_
_space_group_symop_operation_xyz
x,y,z
-x,y,-z
-x,-y,-z
x,-y,z
1/2+x,1/2+y,z
1/2-x,1/2+y,-z
1/2-x,1/2-y,-z
1/2+x,1/2-y,z
loop_
_atom_site_type_symbol
_atom_site_label
_atom_site_fract_x
_atom_site_fract_y
_atom_site_fract_z
Si Si1 0.692660 0.821884 0.734722
Si Si2 0.342863 0.668577 0.519143
Si Si3 0.334265 0.672508 0.776665
Si Si4 0.921209 0.166406 0.680538
Si Si5 0.394476 0.678107 0.344592
Si Si6 0.770364 0.675694 0.627617
Si Si7 0.507966 0.175743 0.603830
Si Si8 0.742270 0.671275 0.093388
O O1 0.638713 0.752954 0.735718
O O2 0.719060 0.751527 0.648040
O O3 0.720557 0.770502 0.827358
O O4 0.691136 0.000000 0.724765
O O5 0.326428 0.500000 0.495729
O O6 0.378768 0.674546 0.605364
O O7 0.372025 0.735727 0.437181
O O8 0.293887 0.759837 0.536600
O O9 0.321998 0.500000 0.745275
O O10 0.392457 0.698517 0.773497
O O11 0.307110 0.789135 0.710958
O O12 0.312980 0.696546 0.876112
O O13 0.961419 0.288891 0.661731
O O14 0.944832 0.000000 0.682598
O O15 0.395781 0.500000 0.333701
O O16 0.448461 0.739534 0.344488
O O17 0.762659 0.500000 0.616878
O O18 0.500000 0.233131 0.500000
O O19 0.518057 0.000000 0.605363
O O20 0.753312 0.500000 0.075329
O O21 0.750000 0.750000 0.000000
#
# Coordination Sequence:
#
# PCOD8080435 Si02
#       8
#     8   8   8   8   8   8   8   8
#     4  10  21  37  51  68 100 133 160 200 251 296
#     4   9  18  31  46  65  92 128 167 209 253 288
#     4   8  16  31  48  71 102 133 161 199 250 292
#     4   9  16  30  50  68  93 131 172 212 249 289
#     4  11  22  35  51  69  92 128 175 215 249 293
#     4  10  18  28  46  69  93 126 168 205 239 289
#     4  11  22  33  47  70 100 132 170 216 260 295
#     4   9  18  33  55  80 106 132 158 192 240 299
#
# _framework density 17.464321999999999
#
# number of rings (size 3 to 8) (size 9 to 14) (size 15 to 20)
#    0.000    2.375    1.250    3.750    0.000    6.500 
#    0.000    0.000    0.000    0.000    0.000    0.875 
#    0.000    7.000    0.000    0.000    0.000    0.000 
#
# Total GULP energy -396599.017556 kJ/mol
# GULP energy per Si atom -12393.719299 kJ/mol
# Density = 1.742457 g / cm^3
# Si number density = 17.464322 Si / 1000 Ang^3
#
#
#
# Elastic Constant Matrix: (Units=GPa)
#
#
# Indices 1 2 3 4 5 6 
#
# 1 119.4893 42.8199 38.0936 0.0000 -6.9841 0.0000
# 2 42.8199 73.6173 17.3892 0.0000 0.8877 0.0000
# 3 38.0936 17.3892 53.1168 0.0000 -12.7459 0.0000
# 4 0.0000 0.0000 0.0000 21.6690 0.0000 -3.5536
# 5 -6.9841 0.8877 -12.7459 0.0000 20.2476 0.0000
# 6 0.0000 0.0000 0.0000 -3.5536 0.0000 30.5459
#
#
#
# Elastic Compliance Matrix: (Units=1/GPa)
#
#
# Indices 1 2 3 4 5 6 
#
# 1 0.012721 -0.005690 -0.007242 0.000000 0.000079 0.000000
# 2 -0.005690 0.017597 -0.002752 0.000000 -0.004467 0.000000
# 3 -0.007242 -0.002752 0.028683 0.000000 0.015679 0.000000
# 4 0.000000 0.000000 0.000000 0.047047 0.000000 0.005473
# 5 0.000079 -0.004467 0.015679 0.000000 0.059482 0.000000
# 6 0.000000 0.000000 0.000000 0.005473 0.000000 0.033374
#
#
# Mechanical properties :
#
#
# Convention : Reuss Voigt Hill
#
# Bulk Modulus (GPa) = 36.18675 49.20321 42.69498
# Shear Modulus (GPa) = 20.87834 24.35387 22.61611
#
# Velocity S-wave (km/s) = 3.46133 3.73834 3.60250
# Velocity P-wave (km/s) = 6.06133 6.84604 6.46561
#
# Compressibility (1/GPa) = 0.02763442
#
# Stress axis : x y z
#
# Youngs Moduli (GPa) = 78.60918 56.82716 34.86365
#
# Poissons Ratio (x) = 0.32333 0.25247
# Poissons Ratio (y) = 0.44727 0.09595
# Poissons Ratio (z) = 0.56925 0.15640
#
# Static dielectric constant tensor:
#      x y z
#    x 3.433960 0.000000 -0.207370 
#    y 0.000000 3.188420 0.000000 
#    z -0.207370 0.000000 3.007640 
# 
# 
# High freq. dielectric constant tensor:
#      x y z
#    x 1.678390 0.000000 -0.011800 
#    y 0.000000 1.675710 0.000000 
#    z -0.011800 0.000000 1.626970 
# 
# From -- ./inp_files/244103.got.cif
#   From: 2010.06.25/outbox.cif.g09.slc.cpg/sg12_123_cif.got.tgz:244103.got - 2010.06.28 00:19:55.
