data_PCOD8080917
_publ_section_title
;
Structure prediction by ZEFSAII (Michael W. Deem and Ramdas Pophale) SiO2 
 PCOD8080917
Probable space group: C 2/M
;
_chemical_formula_sum "Si O2"
_cell_formula_units_Z 56
_cell_length_a 10.406906
_cell_length_b 18.007635
_cell_length_c 23.055977
_cell_angle_alpha 90.000000
_cell_angle_beta 132.614508
_cell_angle_gamma 90.000000
_cell_volume 3179.770628
_symmetry_space_group_name_H-M "C 2/M"
_symmetry_group_IT_number 12
_symmetry_cell_setting 'monoclinic'
loop_
_space_group_symop_operation_xyz
x,y,z
-x,y,-z
-x,-y,-z
x,-y,z
1/2+x,1/2+y,z
1/2-x,1/2+y,-z
1/2-x,1/2-y,-z
1/2+x,1/2-y,z
loop_
_atom_site_type_symbol
_atom_site_label
_atom_site_fract_x
_atom_site_fract_y
_atom_site_fract_z
Si Si1 0.231510 0.838166 0.319283
Si Si2 0.386926 0.338686 0.591284
Si Si3 0.621519 0.837810 0.414346
Si Si4 0.391863 0.411394 0.829902
Si Si5 0.402159 0.911394 0.170098
Si Si6 0.226340 0.661835 0.319283
Si Si7 0.651992 0.581067 1.000000
O O1 0.168755 0.867354 0.362488
O O2 0.428522 0.866734 0.370112
O O3 0.107959 0.874116 0.232945
O O4 0.215363 0.750000 0.310241
O O5 0.377261 0.250529 0.584842
O O6 0.253984 0.370967 0.502655
O O7 0.581291 0.367353 0.637513
O O8 0.681813 0.866734 0.370111
O O9 0.402156 0.500000 0.827742
O O10 0.217248 0.387941 0.811499
O O11 0.565230 0.379810 0.916889
O O12 0.590877 0.874115 0.232944
O O13 0.314564 0.879810 0.083111
O O14 0.418935 0.000000 0.172259
O O15 0.717207 0.500000 1.000000
O O16 0.500000 0.570672 0.000000
#
# Coordination Sequence:
#
# PCOD8080917 Si02
#       7
#     8   8   8   8   8   8   8
#     4  10  18  29  47  72  96 121 156 195 237 277
#     4   9  18  28  45  68  95 126 154 195 231 275
#     4   9  16  30  47  66  91 124 166 195 223 267
#     4   9  16  29  50  72  94 122 159 197 232 273
#     4   9  16  29  50  72  94 122 159 197 232 273
#     4  10  18  29  47  72  96 121 156 195 237 277
#     4   7  12  24  45  71  91 115 158 201 224 258
#
# _framework density 17.611333999999999
#
# number of rings (size 3 to 8) (size 9 to 14) (size 15 to 20)
#    0.000    3.000    1.429    2.571    0.000    3.429 
#    0.000    1.429    0.000    6.000    0.000    3.000 
#    0.000    0.000    0.000    0.000    0.000    0.000 
#
# Total GULP energy -346958.790621 kJ/mol
# GULP energy per Si atom -12391.385379 kJ/mol
# Density = 1.757125 g / cm^3
# Si number density = 17.611334 Si / 1000 Ang^3
#
#
#
# Elastic Constant Matrix: (Units=GPa)
#
#
# Indices 1 2 3 4 5 6 
#
# 1 116.3084 15.3796 77.6730 -0.0001 0.0014 0.0000
# 2 15.3796 15.5094 26.6134 0.0000 0.0013 0.0000
# 3 77.6730 26.6134 200.7343 -0.0001 0.0048 0.0000
# 4 -0.0001 0.0000 -0.0001 13.2410 -0.0001 -0.0008
# 5 0.0014 0.0013 0.0048 -0.0001 25.6035 0.0000
# 6 0.0000 0.0000 0.0000 -0.0008 0.0000 11.0466
#
#
#
# Elastic Compliance Matrix: (Units=1/GPa)
#
#
# Indices 1 2 3 4 5 6 
#
# 1 0.011891 -0.005044 -0.003932 0.000000 0.000000 0.000000
# 2 -0.005044 0.085605 -0.009398 0.000000 -0.000002 0.000000
# 3 -0.003932 -0.009398 0.007749 0.000000 -0.000001 0.000000
# 4 0.000000 0.000000 0.000000 0.075523 0.000000 0.000005
# 5 0.000000 -0.000002 -0.000001 0.000000 0.039057 0.000000
# 6 0.000000 0.000000 0.000000 0.000005 0.000000 0.090526
#
#
# Mechanical properties :
#
#
# Convention : Reuss Voigt Hill
#
# Bulk Modulus (GPa) = 14.59912 63.54268 39.07090
# Shear Modulus (GPa) = 13.51603 24.17062 18.84333
#
# Velocity S-wave (km/s) = 2.77332 3.70867 3.27456
# Velocity P-wave (km/s) = 4.30844 7.38227 6.04403
#
# Compressibility (1/GPa) = 0.06849727
#
# Stress axis : x y z
#
# Youngs Moduli (GPa) = 84.09780 11.68158 129.04327
#
# Poissons Ratio (x) = 0.05892 0.50746
# Poissons Ratio (y) = 0.42415 1.21274
# Poissons Ratio (z) = 0.33071 0.10978
#
# Static dielectric constant tensor:
#      x y z
#    x 3.150210 0.000000 0.000030 
#    y 0.000000 2.680510 0.000000 
#    z 0.000030 0.000000 3.702480 
# 
# 
# High freq. dielectric constant tensor:
#      x y z
#    x 1.658090 0.000000 0.000000 
#    y 0.000000 1.622120 0.000000 
#    z 0.000000 0.000000 1.707120 
# 
# From -- ./inp_files/301786.got.cif
#   From: 2010.06.25/outbox.cif.g09.slc.cpg/sg12_151_cif.got.tgz:301786.got - 2010.06.28 00:19:55.
