data_PCOD8080268
_publ_section_title
;
Structure prediction by ZEFSAII (Michael W. Deem and Ramdas Pophale) SiO2 
 PCOD8080268
Probable space group: C 2/M
;
_chemical_formula_sum "Si O2"
_cell_formula_units_Z 64
_cell_length_a 28.141932
_cell_length_b 9.146038
_cell_length_c 20.904162
_cell_angle_alpha 90.000000
_cell_angle_beta 134.327006
_cell_angle_gamma 90.000000
_cell_volume 3848.986843
_symmetry_space_group_name_H-M "C 2/M"
_symmetry_group_IT_number 12
_symmetry_cell_setting 'monoclinic'
loop_
_space_group_symop_operation_xyz
x,y,z
-x,y,-z
-x,-y,-z
x,-y,z
1/2+x,1/2+y,z
1/2-x,1/2+y,-z
1/2-x,1/2-y,-z
1/2+x,1/2-y,z
loop_
_atom_site_type_symbol
_atom_site_label
_atom_site_fract_x
_atom_site_fract_y
_atom_site_fract_z
Si Si1 0.183877 0.330796 0.768480
Si Si2 0.513444 0.161531 0.184404
Si Si3 0.946037 0.169941 0.898767
Si Si4 0.174668 0.833591 0.131302
Si Si5 0.025650 0.331078 0.721709
Si Si6 0.959374 0.668893 0.403857
Si Si7 0.660753 0.326732 0.869932
Si Si8 0.143738 0.335331 0.976420
O O1 0.172943 0.500000 0.777917
O O2 0.246652 0.314337 0.779131
O O3 0.116172 0.268042 0.672830
O O4 0.203262 0.239863 0.850896
O O5 0.547209 0.269003 0.166222
O O6 0.530099 0.199725 0.275333
O O7 0.434385 0.170484 0.108944
O O8 0.538923 0.000000 0.190540
O O9 0.870991 0.206034 0.850688
O O10 0.960221 0.000000 0.906113
O O11 0.000000 0.236841 0.000000
O O12 0.159413 0.000000 0.095800
O O13 0.154456 0.728390 0.055906
O O14 0.050977 0.500000 0.753537
O O15 0.999693 0.309243 0.624354
O O16 0.085050 0.217249 0.785409
O O17 0.951746 0.500000 0.414351
O O18 0.000000 0.746993 0.500000
O O19 0.669235 0.500000 0.880976
O O20 0.682762 0.256614 0.958641
O O21 0.171447 0.500000 0.999994
#
# Coordination Sequence:
#
# PCOD8080268 Si02
#       8
#     8   8   8   8   8   8   8   8
#     4   9  18  32  46  62  89 117 143 178 219 265
#     4   9  17  28  43  62  86 116 148 185 224 259
#     4  10  19  30  44  62  84 111 151 197 227 253
#     4  10  20  32  44  60  84 116 150 186 227 262
#     4   8  15  28  44  67  95 118 144 180 220 262
#     4   8  13  25  49  75  93 111 138 175 218 263
#     4  10  18  28  44  63  86 117 152 183 216 259
#     4  10  19  30  44  62  85 116 153 189 222 256
#
# _framework density 16.627752999999998
#
# number of rings (size 3 to 8) (size 9 to 14) (size 15 to 20)
#    0.000    2.750    1.250    3.000    0.000    3.750 
#    0.000    0.000    0.000    6.000    0.000    0.875 
#    0.000    0.000    0.000    0.000    0.000    0.000 
#
# Total GULP energy -396430.341031 kJ/mol
# GULP energy per Si atom -12388.448157 kJ/mol
# Density = 1.658991 g / cm^3
# Si number density = 16.627753 Si / 1000 Ang^3
#
#
#
# Elastic Constant Matrix: (Units=GPa)
#
#
# Indices 1 2 3 4 5 6 
#
# 1 131.7301 37.6601 46.1780 0.0000 -15.9777 0.0000
# 2 37.6601 62.7738 16.5334 0.0000 -5.7031 0.0000
# 3 46.1780 16.5334 63.4544 0.0000 -18.3082 0.0000
# 4 0.0000 0.0000 0.0000 8.8023 0.0000 -4.3428
# 5 -15.9777 -5.7031 -18.3082 0.0000 19.3101 0.0000
# 6 0.0000 0.0000 0.0000 -4.3428 0.0000 21.2231
#
#
#
# Elastic Compliance Matrix: (Units=1/GPa)
#
#
# Indices 1 2 3 4 5 6 
#
# 1 0.011557 -0.005036 -0.006564 0.000000 0.001852 0.000000
# 2 -0.005036 0.019317 -0.001272 0.000000 0.000332 0.000000
# 3 -0.006564 -0.001272 0.026419 0.000000 0.019242 0.000000
# 4 0.000000 0.000000 0.000000 0.126365 0.000000 0.025858
# 5 0.001852 0.000332 0.019242 0.000000 0.071660 0.000000
# 6 0.000000 0.000000 0.000000 0.025858 0.000000 0.052410
#
#
# Mechanical properties :
#
#
# Convention : Reuss Voigt Hill
#
# Bulk Modulus (GPa) = 31.69766 50.96681 41.33224
# Shear Modulus (GPa) = 14.53543 20.37288 17.45416
#
# Velocity S-wave (km/s) = 2.95984 3.50413 3.24342
# Velocity P-wave (km/s) = 5.54845 6.86222 6.24001
#
# Compressibility (1/GPa) = 0.03154807
#
# Stress axis : x y z
#
# Youngs Moduli (GPa) = 86.53098 51.76833 37.85131
#
# Poissons Ratio (x) = 0.26072 0.24844
# Poissons Ratio (y) = 0.43579 0.04816
# Poissons Ratio (z) = 0.56796 0.06587
#
# Static dielectric constant tensor:
#      x y z
#    x 3.326990 0.000000 -0.190230 
#    y 0.000000 2.998640 0.000000 
#    z -0.190230 0.000000 3.119310 
# 
# 
# High freq. dielectric constant tensor:
#      x y z
#    x 1.641130 0.000000 -0.015630 
#    y 0.000000 1.626310 0.000000 
#    z -0.015630 0.000000 1.596110 
# 
# From -- ./inp_files/326912.got.cif
#   From: 2010.06.25/outbox.cif.g09.slc.cpg/sg12_164_cif.got.tgz:326912.got - 2010.06.28 00:19:55.
