data_PCOD8080941
_publ_section_title
;
Structure prediction by ZEFSAII (Michael W. Deem and Ramdas Pophale) SiO2 
 PCOD8080941
Probable space group: C 2/M
;
_chemical_formula_sum "Si O2"
_cell_formula_units_Z 56
_cell_length_a 22.184431
_cell_length_b 21.519124
_cell_length_c 8.986938
_cell_angle_alpha 90.000000
_cell_angle_beta 48.360651
_cell_angle_gamma 90.000000
_cell_volume 3206.298771
_symmetry_space_group_name_H-M "C 2/M"
_symmetry_group_IT_number 12
_symmetry_cell_setting 'monoclinic'
loop_
_space_group_symop_operation_xyz
x,y,z
-x,y,-z
-x,-y,-z
x,-y,z
1/2+x,1/2+y,z
1/2-x,1/2+y,-z
1/2-x,1/2-y,-z
1/2+x,1/2-y,z
loop_
_atom_site_type_symbol
_atom_site_label
_atom_site_fract_x
_atom_site_fract_y
_atom_site_fract_z
Si Si1 0.844086 0.428598 0.913345
Si Si2 0.728980 0.352041 0.282611
Si Si3 0.092016 0.214705 0.352110
Si Si4 0.778490 0.185262 0.388933
Si Si5 0.365356 0.153668 0.586230
Si Si6 0.515352 0.130754 0.142186
Si Si7 0.627987 0.244822 0.975523
O O1 0.839910 0.500000 0.873775
O O2 0.849075 0.388663 0.755456
O O3 0.922461 0.416155 0.884429
O O4 0.765320 0.412549 0.141917
O O5 0.642267 0.337368 0.355762
O O6 0.714700 0.362726 0.483840
O O7 0.790669 0.295722 0.152258
O O8 0.100717 0.280474 0.418449
O O9 0.000000 0.193020 0.500000
O O10 0.124667 0.217708 0.132546
O O11 0.750000 0.250000 0.500000
O O12 0.717221 0.158059 0.368672
O O13 0.863484 0.202441 0.167994
O O14 0.432784 0.124985 0.368322
O O15 0.500000 0.108044 0.000000
O O16 0.550017 0.201316 0.080361
#
# Coordination Sequence:
#
# PCOD8080941 Si02
#       7
#     8   8   8   8   8   8   8
#     4  11  24  40  57  74 102 151 199 233 260 305
#     4  10  20  35  52  78 107 139 183 224 273 321
#     4  12  19  30  52  83 113 140 169 215 280 337
#     4  10  19  31  53  77 109 149 171 218 271 332
#     4  12  19  35  53  81 115 143 184 218 273 324
#     4  11  22  33  51  79 115 149 181 223 270 320
#     4  10  18  29  47  75 109 147 171 210 264 328
#
# _framework density 17.465622
#
# number of rings (size 3 to 8) (size 9 to 14) (size 15 to 20)
#    0.000    1.143    7.143    4.286    0.000    1.429 
#    0.000    2.143    0.000    0.429    0.000    0.000 
#    0.000    2.286    0.000    0.000    0.000    0.000 
#
# Total GULP energy -347125.128076 kJ/mol
# GULP energy per Si atom -12397.326003 kJ/mol
# Density = 1.742587 g / cm^3
# Si number density = 17.465622 Si / 1000 Ang^3
#
#
#
# Elastic Constant Matrix: (Units=GPa)
#
#
# Indices 1 2 3 4 5 6 
#
# 1 90.1013 26.5728 26.3749 0.0000 15.4309 0.0000
# 2 26.5728 41.4071 6.3591 0.0000 -4.2047 0.0000
# 3 26.3749 6.3591 76.2359 0.0000 14.9283 0.0000
# 4 0.0000 0.0000 0.0000 0.6279 0.0000 -6.3581
# 5 15.4309 -4.2047 14.9283 0.0000 31.2409 0.0000
# 6 0.0000 0.0000 0.0000 -6.3581 0.0000 6.6321
#
#
#
# Elastic Compliance Matrix: (Units=1/GPa)
#
#
# Indices 1 2 3 4 5 6 
#
# 1 0.016716 -0.011059 -0.003257 0.000000 -0.008188 0.000000
# 2 -0.011059 0.032424 -0.000886 0.000000 0.010249 0.000000
# 3 -0.003257 -0.000886 0.015474 0.000000 -0.005905 0.000000
# 4 0.000000 0.000000 0.000000 -0.182900 0.000000 -0.175344
# 5 -0.008188 0.010249 -0.005905 0.000000 0.040255 0.000000
# 6 0.000000 0.000000 0.000000 -0.175344 0.000000 -0.017317
#
#
# Mechanical properties :
#
#
# Convention : Reuss Voigt Hill
#
# Bulk Modulus (GPa) = 29.23036 36.26198 32.74617
# Shear Modulus (GPa) = -93.38629 17.59601 -37.89514
#
# Velocity S-wave (km/s) = -7.32016 3.17750 -4.66306
# Velocity P-wave (km/s) = 7.39419 5.85398 3.19413
#
# Compressibility (1/GPa) = 0.03421100
#
# Stress axis : x y z
#
# Youngs Moduli (GPa) = 59.82340 30.84135 64.62383
#
# Poissons Ratio (x) = 0.34106 0.21049
# Poissons Ratio (y) = 0.66156 0.05724
# Poissons Ratio (z) = 0.19486 0.02732
#
# Static dielectric constant tensor:
#      x y z
#    x 3.355420 0.000000 0.232900 
#    y 0.000000 2.838160 0.000000 
#    z 0.232900 0.000000 3.855240 
# 
# 
# High freq. dielectric constant tensor:
#      x y z
#    x 1.677960 0.000000 0.017500 
#    y 0.000000 1.611330 0.000000 
#    z 0.017500 0.000000 1.695640 
# 
# From -- ./inp_files/89486.got.cif
#   From: 2010.06.25/outbox.cif.g09.slc.cpg/sg12_45_cif.got.tgz:89486.got - 2010.06.28 00:19:55.
