data_PCOD8080458
_publ_section_title
;
Structure prediction by ZEFSAII (Michael W. Deem and Ramdas Pophale) SiO2 
 PCOD8080458
Probable space group: C 2/M
;
_chemical_formula_sum "Si O2"
_cell_formula_units_Z 64
_cell_length_a 25.704810
_cell_length_b 10.533240
_cell_length_c 22.806301
_cell_angle_alpha 90.000000
_cell_angle_beta 143.872988
_cell_angle_gamma 90.000000
_cell_volume 3640.591265
_symmetry_space_group_name_H-M "C 2/M"
_symmetry_group_IT_number 12
_symmetry_cell_setting 'monoclinic'
loop_
_space_group_symop_operation_xyz
x,y,z
-x,y,-z
-x,-y,-z
x,-y,z
1/2+x,1/2+y,z
1/2-x,1/2+y,-z
1/2-x,1/2-y,-z
1/2+x,1/2-y,z
loop_
_atom_site_type_symbol
_atom_site_label
_atom_site_fract_x
_atom_site_fract_y
_atom_site_fract_z
Si Si1 0.548222 0.647497 0.604726
Si Si2 0.944621 0.354594 0.786376
Si Si3 0.913725 0.651222 0.887550
Si Si4 0.993347 0.641151 0.648793
Si Si5 0.103202 0.697342 0.859178
Si Si6 0.262803 0.635140 0.077475
Si Si7 0.822708 0.642575 0.569308
Si Si8 0.247668 0.851932 0.805406
O O1 0.500000 0.677551 0.500000
O O2 0.531276 0.500000 0.608479
O O3 0.512928 0.745503 0.621396
O O4 0.652239 0.672308 0.689550
O O5 0.979819 0.500000 0.822222
O O6 0.918967 0.297788 0.825920
O O7 0.858969 0.348797 0.668097
O O8 0.023042 0.269784 0.830045
O O9 0.910543 0.500000 0.883631
O O10 0.825303 0.709861 0.836613
O O11 0.000000 0.700606 0.000000
O O12 0.993180 0.500000 0.618843
O O13 0.065878 0.631542 0.766655
O O14 0.898384 0.670736 0.590531
O O15 0.157049 0.821089 0.890041
O O16 0.174348 0.614238 0.959311
O O17 0.296420 0.500000 0.130603
O O18 0.248650 0.712167 0.125784
O O19 0.784138 0.500000 0.523825
O O20 0.750000 0.750000 0.500000
O O21 0.270513 0.000000 0.829607
#
# Coordination Sequence:
#
# PCOD8080458 Si02
#       8
#     8   8   8   8   8   8   8   8
#     4  10  21  36  53  75 103 135 171 216 268 314
#     4   9  17  30  46  68 100 130 163 204 249 301
#     4   9  16  26  45  70  97 131 164 203 259 310
#     4  10  20  35  53  74 104 137 172 214 260 315
#     4  10  18  29  48  71 100 134 166 198 253 307
#     4  10  18  28  46  72 103 130 162 207 253 301
#     4   9  19  34  52  75 103 135 172 216 260 306
#     4   9  17  30  46  70 102 129 163 209 256 310
#
# _framework density 17.579561999999999
#
# number of rings (size 3 to 8) (size 9 to 14) (size 15 to 20)
#    0.000    2.500    1.250    2.625    0.000    3.750 
#    0.000    4.375    0.000    0.000    0.000    0.875 
#    0.000    3.750    0.000    0.000    0.000    0.000 
#
# Total GULP energy -396425.051101 kJ/mol
# GULP energy per Si atom -12388.282847 kJ/mol
# Density = 1.753955 g / cm^3
# Si number density = 17.579562 Si / 1000 Ang^3
#
#
#
# Elastic Constant Matrix: (Units=GPa)
#
#
# Indices 1 2 3 4 5 6 
#
# 1 143.0358 51.7238 72.8648 0.0000 -4.5175 0.0000
# 2 51.7238 64.4780 42.9746 0.0000 4.1436 0.0000
# 3 72.8648 42.9746 111.3781 0.0000 2.6049 0.0000
# 4 0.0000 0.0000 0.0000 64.7772 0.0000 31.3676
# 5 -4.5175 4.1436 2.6049 0.0000 31.2664 0.0000
# 6 0.0000 0.0000 0.0000 31.3676 0.0000 43.0925
#
#
#
# Elastic Compliance Matrix: (Units=1/GPa)
#
#
# Indices 1 2 3 4 5 6 
#
# 1 0.012228 -0.006228 -0.005668 0.000000 0.003064 0.000000
# 2 -0.006228 0.024189 -0.005173 0.000000 -0.003675 0.000000
# 3 -0.005668 -0.005173 0.014714 0.000000 -0.001359 0.000000
# 4 0.000000 0.000000 0.000000 0.023841 0.000000 -0.017354
# 5 0.003064 -0.003675 -0.001359 0.000000 0.033026 0.000000
# 6 0.000000 0.000000 0.000000 -0.017354 0.000000 0.035838
#
#
# Mechanical properties :
#
#
# Convention : Reuss Voigt Hill
#
# Bulk Modulus (GPa) = 58.84753 72.66873 65.75813
# Shear Modulus (GPa) = 27.22740 37.91580 32.57160
#
# Velocity S-wave (km/s) = 3.93976 4.64919 4.30910
# Velocity P-wave (km/s) = 7.36500 8.38133 7.88955
#
# Compressibility (1/GPa) = 0.01699307
#
# Stress axis : x y z
#
# Youngs Moduli (GPa) = 81.78235 41.34093 67.96154
#
# Poissons Ratio (x) = 0.25747 0.38521
# Poissons Ratio (y) = 0.50935 0.35155
# Poissons Ratio (z) = 0.46354 0.21385
#
# Static dielectric constant tensor:
#      x y z
#    x 3.452550 0.000000 -0.051400 
#    y 0.000000 2.923130 0.000000 
#    z -0.051400 0.000000 3.344690 
# 
# 
# High freq. dielectric constant tensor:
#      x y z
#    x 1.685530 0.000000 -0.000310 
#    y 0.000000 1.630650 0.000000 
#    z -0.000310 0.000000 1.686730 
# 
# From -- ./inp_files/324976.got.cif
#   From: 2010.06.25/outbox.cif.g09.slc.cpg/sg12_163_cif.got.tgz:324976.got - 2010.06.28 00:19:55.
