data_PCOD8080108
_publ_section_title
;
Structure prediction by ZEFSAII (Michael W. Deem and Ramdas Pophale) SiO2 
 PCOD8080108
Probable space group: C 2/M
;
_chemical_formula_sum "Si O2"
_cell_formula_units_Z 56
_cell_length_a 19.325378
_cell_length_b 9.442640
_cell_length_c 21.683430
_cell_angle_alpha 90.000000
_cell_angle_beta 54.758460
_cell_angle_gamma 90.000000
_cell_volume 3231.663998
_symmetry_space_group_name_H-M "C 2/M"
_symmetry_group_IT_number 12
_symmetry_cell_setting 'monoclinic'
loop_
_space_group_symop_operation_xyz
x,y,z
-x,y,-z
-x,-y,-z
x,-y,z
1/2+x,1/2+y,z
1/2-x,1/2+y,-z
1/2-x,1/2-y,-z
1/2+x,1/2-y,z
loop_
_atom_site_type_symbol
_atom_site_label
_atom_site_fract_x
_atom_site_fract_y
_atom_site_fract_z
Si Si1 0.691570 0.665346 0.576064
Si Si2 0.618744 0.163725 0.064299
Si Si3 0.731287 0.338265 0.098459
Si Si4 0.506871 0.667799 0.693435
Si Si5 0.281359 0.662896 0.295888
Si Si6 0.671133 0.335115 0.262539
Si Si7 0.028129 0.165532 0.820889
O O1 0.700078 0.500000 0.556828
O O2 0.750000 0.750000 0.500000
O O3 0.594365 0.718359 0.616571
O O4 0.719529 0.698054 0.631373
O O5 0.670112 0.232693 0.094056
O O6 0.528890 0.243900 0.102071
O O7 0.602610 0.000000 0.088027
O O8 0.671990 0.181691 0.973757
O O9 0.700307 0.500000 0.102219
O O10 0.727059 0.303564 0.173053
O O11 0.508878 0.500000 0.696292
O O12 0.425062 0.721318 0.697936
O O13 0.501661 0.720490 0.766527
O O14 0.259145 0.500000 0.296037
O O15 0.209436 0.755179 0.300922
O O16 0.372913 0.698312 0.219327
O O17 0.670480 0.500000 0.278929
O O18 0.009312 0.000000 0.839880
#
# Coordination Sequence:
#
# PCOD8080108 Si02
#       7
#     8   8   8   8   8   8   8
#     4   9  18  35  57  78 100 127 161 199 240 291
#     4  10  18  27  45  74  99 123 167 220 253 282
#     4   9  18  31  46  67  99 136 167 201 253 301
#     4   8  15  30  53  74  93 128 170 199 233 289
#     4   9  20  35  52  74 102 133 162 200 250 295
#     4  10  18  32  53  73  97 132 170 205 242 291
#     4   9  16  32  52  67  93 134 171 204 245 297
#
# _framework density 17.328534999999999
#
# number of rings (size 3 to 8) (size 9 to 14) (size 15 to 20)
#    0.000    2.857    1.429    2.143    0.000    2.286 
#    0.000    4.286    0.000    8.571    0.000    0.000 
#    0.000    0.000    0.000    0.000    0.000    0.000 
#
# Total GULP energy -347092.844300 kJ/mol
# GULP energy per Si atom -12396.173011 kJ/mol
# Density = 1.728909 g / cm^3
# Si number density = 17.328535 Si / 1000 Ang^3
#
#
#
# Elastic Constant Matrix: (Units=GPa)
#
#
# Indices 1 2 3 4 5 6 
#
# 1 117.7641 48.7580 54.2682 0.0000 -10.7596 0.0000
# 2 48.7580 66.6289 48.2120 -0.0001 -6.7047 -0.0001
# 3 54.2682 48.2120 109.3024 0.0000 -21.5305 0.0000
# 4 0.0000 -0.0001 0.0000 30.6398 0.0000 -2.7346
# 5 -10.7596 -6.7047 -21.5305 0.0000 22.2257 0.0000
# 6 0.0000 -0.0001 0.0000 -2.7346 0.0000 29.9960
#
#
#
# Elastic Compliance Matrix: (Units=1/GPa)
#
#
# Indices 1 2 3 4 5 6 
#
# 1 0.012971 -0.007169 -0.003049 0.000000 0.001163 0.000000
# 2 -0.007169 0.026219 -0.008813 0.000000 -0.004098 0.000000
# 3 -0.003049 -0.008813 0.016975 0.000000 0.012309 0.000000
# 4 0.000000 0.000000 0.000000 0.032905 0.000000 0.003000
# 5 0.001163 -0.004098 0.012309 0.000000 0.056244 0.000000
# 6 0.000000 0.000000 0.000000 0.003000 0.000000 0.033611
#
#
# Mechanical properties :
#
#
# Convention : Reuss Voigt Hill
#
# Bulk Modulus (GPa) = 55.23789 66.24132 60.73961
# Shear Modulus (GPa) = 22.41947 26.06943 24.24445
#
# Velocity S-wave (km/s) = 3.60083 3.88290 3.74452
# Velocity P-wave (km/s) = 7.01670 7.64279 7.33642
#
# Compressibility (1/GPa) = 0.01810352
#
# Stress axis : x y z
#
# Youngs Moduli (GPa) = 77.09578 38.14016 58.91148
#
# Poissons Ratio (x) = 0.27342 0.17961
# Poissons Ratio (y) = 0.55268 0.51919
# Poissons Ratio (z) = 0.23505 0.33613
#
# Static dielectric constant tensor:
#      x y z
#    x 3.182070 0.000000 -0.284790 
#    y 0.000000 3.073550 0.000000 
#    z -0.284790 0.000000 3.230600 
# 
# 
# High freq. dielectric constant tensor:
#      x y z
#    x 1.655160 0.000000 -0.020650 
#    y 0.000000 1.654680 0.000000 
#    z -0.020650 0.000000 1.662560 
# 
# From -- ./inp_files/313684.got.cif
#   From: 2010.06.25/outbox.cif.g09.slc.cpg/sg12_157_cif.got.tgz:313684.got - 2010.06.28 00:19:55.
