data_PCOD8080276
_publ_section_title
;
Structure prediction by ZEFSAII (Michael W. Deem and Ramdas Pophale) SiO2 
 PCOD8080276
Probable space group: C 2/M
;
_chemical_formula_sum "Si O2"
_cell_formula_units_Z 48
_cell_length_a 28.803901
_cell_length_b 17.381979
_cell_length_c 7.438791
_cell_angle_alpha 90.000000
_cell_angle_beta 54.687470
_cell_angle_gamma 90.000000
_cell_volume 3039.128103
_symmetry_space_group_name_H-M "C 2/M"
_symmetry_group_IT_number 12
_symmetry_cell_setting 'monoclinic'
loop_
_space_group_symop_operation_xyz
x,y,z
-x,y,-z
-x,-y,-z
x,-y,z
1/2+x,1/2+y,z
1/2-x,1/2+y,-z
1/2-x,1/2-y,-z
1/2+x,1/2-y,z
loop_
_atom_site_type_symbol
_atom_site_label
_atom_site_fract_x
_atom_site_fract_y
_atom_site_fract_z
Si Si1 0.270470 0.088796 0.027028
Si Si2 0.937509 0.909662 0.697975
Si Si3 0.856800 0.911321 0.554430
Si Si4 0.310554 0.810153 0.224038
Si Si5 0.249598 0.161452 0.699122
Si Si6 0.129699 0.837267 0.849290
O O1 0.274580 0.129251 0.826100
O O2 0.285580 0.000000 0.968161
O O3 0.209367 0.100885 0.256008
O O4 0.318501 0.128087 0.046360
O O5 0.892577 0.884274 0.647091
O O6 0.000000 0.882990 0.500000
O O7 0.934977 0.000000 0.740086
O O8 0.923211 0.867324 0.916773
O O9 0.877804 0.859247 0.341959
O O10 0.870092 0.000000 0.478724
O O11 0.294249 0.857266 0.440462
O O12 0.257838 0.754491 0.279546
O O13 0.365743 0.756068 0.137085
O O14 0.188106 0.122776 0.792376
#
# Coordination Sequence:
#
# PCOD8080276 Si02
#       6
#     8   8   8   8   8   8
#     4  11  19  27  44  68  93 122 153 184 221 271
#     4  10  21  34  46  65  92 121 157 198 231 257
#     4  10  18  28  44  65  87 120 160 189 220 265
#     4   9  18  31  43  64  90 118 154 188 224 269
#     4   9  17  28  44  62  87 119 154 188 221 260
#     4  10  18  30  48  62  86 122 156 190 225 263
#
# _framework density 15.794005
#
# number of rings (size 3 to 8) (size 9 to 14) (size 15 to 20)
#    1.000    1.167    3.333    1.000    0.000    3.333 
#    0.000    2.500    0.000    0.000    0.000    0.000 
#    0.000    0.667    0.000    3.333    0.000    0.167 
#
# Total GULP energy -297470.741863 kJ/mol
# GULP energy per Si atom -12394.614244 kJ/mol
# Density = 1.575806 g / cm^3
# Si number density = 15.794005 Si / 1000 Ang^3
#
#
#
# Elastic Constant Matrix: (Units=GPa)
#
#
# Indices 1 2 3 4 5 6 
#
# 1 25.5633 18.5996 23.7528 0.0000 11.2493 0.0000
# 2 18.5996 54.6868 43.6693 0.0000 11.8413 0.0000
# 3 23.7528 43.6693 97.7325 0.0000 21.3781 0.0000
# 4 0.0000 0.0000 0.0000 20.7778 0.0000 3.8589
# 5 11.2493 11.8413 21.3781 0.0000 27.9785 0.0000
# 6 0.0000 0.0000 0.0000 3.8589 0.0000 20.0350
#
#
#
# Elastic Compliance Matrix: (Units=1/GPa)
#
#
# Indices 1 2 3 4 5 6 
#
# 1 0.060044 -0.012699 -0.005780 0.000000 -0.014351 0.000000
# 2 -0.012699 0.031299 -0.010948 0.000000 0.000224 0.000000
# 3 -0.005780 -0.010948 0.018018 0.000000 -0.006810 0.000000
# 4 0.000000 0.000000 0.000000 0.049914 0.000000 -0.009614
# 5 -0.014351 0.000224 -0.006810 0.000000 0.046620 0.000000
# 6 0.000000 0.000000 0.000000 -0.009614 0.000000 0.051764
#
#
# Mechanical properties :
#
#
# Convention : Reuss Voigt Hill
#
# Bulk Modulus (GPa) = 19.79892 38.89176 29.34534
# Shear Modulus (GPa) = 14.99936 19.88898 17.44417
#
# Velocity S-wave (km/s) = 3.08504 3.55247 3.32698
# Velocity P-wave (km/s) = 5.02523 6.44241 5.77744
#
# Compressibility (1/GPa) = 0.05050780
#
# Stress axis : x y z
#
# Youngs Moduli (GPa) = 16.65455 31.95034 55.49985
#
# Poissons Ratio (x) = 0.40574 0.32076
# Poissons Ratio (y) = 0.21150 0.60760
# Poissons Ratio (z) = 0.09626 0.34978
#
# Static dielectric constant tensor:
#      x y z
#    x 2.730320 0.000000 0.201990 
#    y 0.000000 2.831250 0.000000 
#    z 0.201990 0.000000 2.862850 
# 
# 
# High freq. dielectric constant tensor:
#      x y z
#    x 1.569650 0.000000 0.036380 
#    y 0.000000 1.585530 0.000000 
#    z 0.036380 0.000000 1.601470 
# 
# From -- ./inp_files/25514.got.cif
#   From: 2010.06.25/outbox.cif.g09.slc.cpg/sg12_13_cif.got.tgz:25514.got - 2010.06.28 00:19:55.
