data_PCOD8080166
_publ_section_title
;
Structure prediction by ZEFSAII (Michael W. Deem and Ramdas Pophale) SiO2 
 PCOD8080166
Probable space group: C 2/M
;
_chemical_formula_sum "Si O2"
_cell_formula_units_Z 64
_cell_length_a 33.699635
_cell_length_b 9.030424
_cell_length_c 13.638176
_cell_angle_alpha 90.000000
_cell_angle_beta 78.015635
_cell_angle_gamma 90.000000
_cell_volume 4059.936090
_symmetry_space_group_name_H-M "C 2/M"
_symmetry_group_IT_number 12
_symmetry_cell_setting 'monoclinic'
loop_
_space_group_symop_operation_xyz
x,y,z
-x,y,-z
-x,-y,-z
x,-y,z
1/2+x,1/2+y,z
1/2-x,1/2+y,-z
1/2-x,1/2-y,-z
1/2+x,1/2-y,z
loop_
_atom_site_type_symbol
_atom_site_label
_atom_site_fract_x
_atom_site_fract_y
_atom_site_fract_z
Si Si1 0.336113 0.672560 0.239757
Si Si2 0.758299 0.823315 0.392519
Si Si3 0.082889 0.826749 0.069564
Si Si4 0.576759 0.328639 0.844111
Si Si5 0.340748 0.172301 0.874169
Si Si6 0.997562 0.667086 0.884793
Si Si7 0.296240 0.166820 0.090806
Si Si8 0.285114 0.673076 0.761575
O O1 0.331496 0.500000 0.230337
O O2 0.303990 0.727545 0.337845
O O3 0.382970 0.713156 0.240129
O O4 0.326058 0.732838 0.138065
O O5 0.750000 0.750000 0.500000
O O6 0.726010 0.758750 0.332230
O O7 0.753797 0.000000 0.400731
O O8 0.117558 0.740924 0.109801
O O9 0.039981 0.766100 0.132380
O O10 0.086181 0.000000 0.090633
O O11 0.086325 0.792350 0.952538
O O12 0.564948 0.500000 0.838918
O O13 0.539570 0.233201 0.820914
O O14 0.326401 0.257053 0.783378
O O15 0.347550 0.000000 0.846941
O O16 0.305199 0.195749 0.972429
O O17 0.992258 0.500000 0.848851
O O18 0.000000 0.672528 0.000000
O O19 0.249554 0.200852 0.139239
O O20 0.307019 0.000000 0.115074
O O21 0.291529 0.500000 0.735093
#
# Coordination Sequence:
#
# PCOD8080166 Si02
#       8
#     8   8   8   8   8   8   8   8
#     4   9  17  29  46  67  89 117 152 188 226 269
#     4  10  20  35  53  70  91 117 147 187 234 278
#     4  10  18  28  42  59  84 121 158 189 223 262
#     4   9  16  27  42  61  85 115 153 190 223 263
#     4  11  20  29  42  63  91 121 153 189 225 264
#     4   9  17  27  39  57  83 116 152 189 226 262
#     4   9  18  29  42  61  88 119 151 187 224 262
#     4  10  20  33  47  65  87 116 153 188 225 270
#
# _framework density 15.763794000000001
#
# number of rings (size 3 to 8) (size 9 to 14) (size 15 to 20)
#    0.000    2.375    1.250    2.250    0.000    4.000 
#    0.000    0.000    0.000    0.000    0.000    0.000 
#    0.000    1.000    0.000   10.750    0.000    4.750 
#
# Total GULP energy -396691.403431 kJ/mol
# GULP energy per Si atom -12396.606357 kJ/mol
# Density = 1.572792 g / cm^3
# Si number density = 15.763794 Si / 1000 Ang^3
#
#
#
# Elastic Constant Matrix: (Units=GPa)
#
#
# Indices 1 2 3 4 5 6 
#
# 1 95.1505 50.2550 39.4927 0.0000 4.8380 0.0000
# 2 50.2550 76.4476 35.4867 0.0000 1.7460 0.0000
# 3 39.4927 35.4867 58.2752 0.0000 1.9637 0.0000
# 4 0.0000 0.0000 0.0000 20.2480 0.0000 3.4353
# 5 4.8380 1.7460 1.9637 0.0000 11.9018 0.0000
# 6 0.0000 0.0000 0.0000 3.4353 0.0000 30.3483
#
#
#
# Elastic Compliance Matrix: (Units=1/GPa)
#
#
# Indices 1 2 3 4 5 6 
#
# 1 0.018191 -0.008643 -0.006896 0.000000 -0.004989 0.000000
# 2 -0.008643 0.022351 -0.007804 0.000000 0.001522 0.000000
# 3 -0.006896 -0.007804 0.026601 0.000000 -0.000441 0.000000
# 4 0.000000 0.000000 0.000000 0.050355 0.000000 -0.005700
# 5 -0.004989 0.001522 -0.000441 0.000000 0.085898 0.000000
# 6 0.000000 0.000000 0.000000 -0.005700 0.000000 0.033596
#
#
# Mechanical properties :
#
#
# Convention : Reuss Voigt Hill
#
# Bulk Modulus (GPa) = 48.88879 53.37135 51.13007
# Shear Modulus (GPa) = 17.21191 19.47555 18.34373
#
# Velocity S-wave (km/s) = 3.30792 3.51873 3.41495
# Velocity P-wave (km/s) = 6.75799 7.10204 6.93215
#
# Compressibility (1/GPa) = 0.02045459
#
# Stress axis : x y z
#
# Youngs Moduli (GPa) = 54.97366 44.74171 37.59260
#
# Poissons Ratio (x) = 0.38669 0.25925
# Poissons Ratio (y) = 0.47513 0.29339
# Poissons Ratio (z) = 0.37912 0.34919
#
# Static dielectric constant tensor:
#      x y z
#    x 3.162400 0.000000 -0.132870 
#    y 0.000000 3.120820 0.000000 
#    z -0.132870 0.000000 2.643720 
# 
# 
# High freq. dielectric constant tensor:
#      x y z
#    x 1.609130 0.000000 -0.001780 
#    y 0.000000 1.620620 0.000000 
#    z -0.001780 0.000000 1.544140 
# 
# From -- ./inp_files/248435.got.cif
#   From: 2010.06.25/outbox.cif.g09.slc.cpg/sg12_125_cif.got.tgz:248435.got - 2010.06.28 00:19:55.
