data_PCOD8080092
_publ_section_title
;
Structure prediction by ZEFSAII (Michael W. Deem and Ramdas Pophale) SiO2 
 PCOD8080092
Probable space group: C 2/M
;
_chemical_formula_sum "Si O2"
_cell_formula_units_Z 48
_cell_length_a 23.152202
_cell_length_b 9.056718
_cell_length_c 25.208151
_cell_angle_alpha 90.000000
_cell_angle_beta 35.990741
_cell_angle_gamma 90.000000
_cell_volume 3106.177085
_symmetry_space_group_name_H-M "C 2/M"
_symmetry_group_IT_number 12
_symmetry_cell_setting 'monoclinic'
loop_
_space_group_symop_operation_xyz
x,y,z
-x,y,-z
-x,-y,-z
x,-y,z
1/2+x,1/2+y,z
1/2-x,1/2+y,-z
1/2-x,1/2-y,-z
1/2+x,1/2-y,z
loop_
_atom_site_type_symbol
_atom_site_label
_atom_site_fract_x
_atom_site_fract_y
_atom_site_fract_z
Si Si1 0.694017 0.667549 0.587762
Si Si2 0.228698 0.827223 0.071122
Si Si3 0.127642 0.829664 0.956862
Si Si4 0.134850 0.326163 0.729857
Si Si5 0.597150 0.670307 0.860219
Si Si6 0.989835 0.165962 0.773571
O O1 0.733049 0.500000 0.562352
O O2 0.750000 0.750000 0.500000
O O3 0.711644 0.749579 0.631440
O O4 0.575448 0.671753 0.664574
O O5 0.297180 0.769537 0.066730
O O6 0.115823 0.789637 0.171274
O O7 0.246590 0.000000 0.051071
O O8 0.250000 0.750000 0.000000
O O9 0.146681 0.801630 0.880420
O O10 0.145756 0.000000 0.957843
O O11 0.016934 0.783547 0.053222
O O12 0.147386 0.500000 0.717252
O O13 0.154801 0.270247 0.774646
O O14 0.023369 0.275742 0.796366
O O15 0.607433 0.500000 0.836166
O O16 0.984367 0.000000 0.801726
#
# Coordination Sequence:
#
# PCOD8080092 Si02
#       6
#     8   8   8   8   8   8
#     4   9  17  31  48  69  96 122 151 188 235 285
#     4  11  21  32  45  65  93 127 159 191 231 274
#     4   9  19  32  47  64  87 123 162 197 234 273
#     4  10  18  27  45  70  93 118 151 190 230 272
#     4   9  17  32  47  62  89 124 158 194 237 278
#     4   8  18  32  44  61  93 127 150 181 232 280
#
# _framework density 15.453079000000001
#
# number of rings (size 3 to 8) (size 9 to 14) (size 15 to 20)
#    1.000    1.667    0.000    4.000    0.000    6.667 
#    0.000    1.667    0.000    0.000    0.000    1.167 
#    0.000    9.333    0.000    0.000    0.000    0.000 
#
# Total GULP energy -297358.360342 kJ/mol
# GULP energy per Si atom -12389.931681 kJ/mol
# Density = 1.541791 g / cm^3
# Si number density = 15.453079 Si / 1000 Ang^3
#
#
#
# Elastic Constant Matrix: (Units=GPa)
#
#
# Indices 1 2 3 4 5 6 
#
# 1 73.1690 39.1459 35.0288 -0.0001 8.4168 0.0000
# 2 39.1459 108.7530 53.7576 -0.0001 13.5890 0.0005
# 3 35.0288 53.7576 96.8471 0.0001 17.0819 0.0000
# 4 -0.0001 -0.0001 0.0001 27.9444 -0.0001 4.3081
# 5 8.4168 13.5890 17.0819 -0.0001 21.8150 0.0001
# 6 0.0000 0.0005 0.0000 4.3081 0.0001 26.5107
#
#
#
# Elastic Compliance Matrix: (Units=1/GPa)
#
#
# Indices 1 2 3 4 5 6 
#
# 1 0.018018 -0.004437 -0.003846 0.000000 -0.001176 0.000000
# 2 -0.004437 0.013911 -0.005674 0.000000 -0.002510 0.000000
# 3 -0.003846 -0.005674 0.016221 0.000000 -0.007684 0.000000
# 4 0.000000 0.000000 0.000000 0.036705 0.000000 -0.005965
# 5 -0.001176 -0.002510 -0.007684 0.000000 0.053874 0.000000
# 6 0.000000 0.000000 0.000000 -0.005965 0.000000 0.038690
#
#
# Mechanical properties :
#
#
# Convention : Reuss Voigt Hill
#
# Bulk Modulus (GPa) = 49.41997 59.40375 54.41186
# Shear Modulus (GPa) = 23.57620 25.30979 24.44300
#
# Velocity S-wave (km/s) = 3.91021 4.05142 3.98144
# Velocity P-wave (km/s) = 7.24130 7.77240 7.51155
#
# Compressibility (1/GPa) = 0.02023473
#
# Stress axis : x y z
#
# Youngs Moduli (GPa) = 55.50122 71.88747 61.64705
#
# Poissons Ratio (x) = 0.31898 0.23712
# Poissons Ratio (y) = 0.24627 0.34977
# Poissons Ratio (z) = 0.21348 0.40787
#
# Static dielectric constant tensor:
#      x y z
#    x 2.807030 0.000000 0.042020 
#    y 0.000000 2.956240 0.000000 
#    z 0.042020 0.000000 2.847010 
# 
# 
# High freq. dielectric constant tensor:
#      x y z
#    x 1.561930 0.000000 0.012880 
#    y 0.000000 1.601280 0.000000 
#    z 0.012880 0.000000 1.578350 
# 
# From -- ./inp_files/318983.got.cif
#   From: 2010.06.25/outbox.cif.g09.slc.cpg/sg12_160_cif.got.tgz:318983.got - 2010.06.28 00:19:55.
