data_PCOD8080857
_publ_section_title
;
Structure prediction by ZEFSAII (Michael W. Deem and Ramdas Pophale) SiO2 
 PCOD8080857
Probable space group: C 2/M
;
_chemical_formula_sum "Si O2"
_cell_formula_units_Z 52
_cell_length_a 13.317941
_cell_length_b 19.772060
_cell_length_c 11.681562
_cell_angle_alpha 90.000000
_cell_angle_beta 95.094424
_cell_angle_gamma 90.000000
_cell_volume 3063.874265
_symmetry_space_group_name_H-M "C 2/M"
_symmetry_group_IT_number 12
_symmetry_cell_setting 'monoclinic'
loop_
_space_group_symop_operation_xyz
x,y,z
-x,y,-z
-x,-y,-z
x,-y,z
1/2+x,1/2+y,z
1/2-x,1/2+y,-z
1/2-x,1/2-y,-z
1/2+x,1/2-y,z
loop_
_atom_site_type_symbol
_atom_site_label
_atom_site_fract_x
_atom_site_fract_y
_atom_site_fract_z
Si Si1 0.934223 0.421910 0.258214
Si Si2 0.617668 0.074235 0.993072
Si Si3 0.371062 0.743773 0.631673
Si Si4 0.500000 0.350124 0.500000
Si Si5 0.687251 0.844576 0.570125
Si Si6 0.801188 0.921804 0.405234
Si Si7 0.356456 0.137033 0.777326
O O1 0.915810 0.500000 0.289712
O O2 0.869316 0.402791 0.137716
O O3 0.897339 0.371689 0.353028
O O4 0.053908 0.412848 0.253027
O O5 0.667695 0.000000 0.017672
O O6 0.500000 0.067095 0.000000
O O7 0.663286 0.128215 0.088124
O O8 0.461104 0.694418 0.603475
O O9 0.364326 0.798641 0.530330
O O10 0.269569 0.701255 0.642781
O O11 0.389724 0.785553 0.751273
O O12 0.414313 0.395492 0.433702
O O13 0.740484 0.909041 0.516486
O O14 0.747560 0.881293 0.296908
O O15 0.803725 0.000000 0.374544
#
# Coordination Sequence:
#
# PCOD8080857 Si02
#       7
#     8   8   8   4   8   8   8
#     4  10  18  29  48  71  94 117 142 180 229 272
#     4   8  15  28  44  65  92 119 145 175 219 269
#     4   9  18  31  46  64  88 122 155 181 215 262
#     4  10  19  32  46  62  89 124 154 182 218 260
#     4   9  18  31  46  66  93 120 147 181 222 268
#     4  10  19  30  46  68  91 116 150 188 222 260
#     4  10  18  29  47  68  93 118 146 182 220 267
#
# _framework density 16.971976000000002
#
# number of rings (size 3 to 8) (size 9 to 14) (size 15 to 20)
#    0.000    2.615    0.000    4.846    0.000    1.846 
#    0.000    4.615    0.000    1.846    0.000    3.231 
#    0.000   16.000    0.000    0.000    0.000    0.000 
#
# Total GULP energy -322213.480427 kJ/mol
# GULP energy per Si atom -12392.826170 kJ/mol
# Density = 1.693335 g / cm^3
# Si number density = 16.971976 Si / 1000 Ang^3
#
#
#
# Elastic Constant Matrix: (Units=GPa)
#
#
# Indices 1 2 3 4 5 6 
#
# 1 57.2405 7.2362 18.3062 0.0000 7.0574 0.0000
# 2 7.2362 54.1378 12.1694 0.0000 3.2557 0.0000
# 3 18.3062 12.1694 54.7830 0.0000 14.2678 0.0000
# 4 0.0000 0.0000 0.0000 22.3492 0.0000 3.3925
# 5 7.0574 3.2557 14.2678 0.0000 16.8980 0.0000
# 6 0.0000 0.0000 0.0000 3.3925 0.0000 19.0797
#
#
#
# Elastic Compliance Matrix: (Units=1/GPa)
#
#
# Indices 1 2 3 4 5 6 
#
# 1 0.019789 -0.001214 -0.005450 0.000000 -0.003429 0.000000
# 2 -0.001214 0.019517 -0.003951 0.000000 0.000083 0.000000
# 3 -0.005450 -0.003951 0.025845 0.000000 -0.018785 0.000000
# 4 0.000000 0.000000 0.000000 0.045985 0.000000 -0.008176
# 5 -0.003429 0.000083 -0.018785 0.000000 0.076456 0.000000
# 6 0.000000 0.000000 0.000000 -0.008176 0.000000 0.053866
#
#
# Mechanical properties :
#
#
# Convention : Reuss Voigt Hill
#
# Bulk Modulus (GPa) = 22.76823 26.84276 24.80550
# Shear Modulus (GPa) = 18.02915 20.22869 19.12892
#
# Velocity S-wave (km/s) = 3.26281 3.45612 3.36086
# Velocity P-wave (km/s) = 5.25727 5.63707 5.45048
#
# Compressibility (1/GPa) = 0.04392084
#
# Stress axis : x y z
#
# Youngs Moduli (GPa) = 50.53212 51.23776 38.69204
#
# Poissons Ratio (x) = 0.06219 0.21087
# Poissons Ratio (y) = 0.06134 0.15289
# Poissons Ratio (z) = 0.27540 0.20246
#
# Static dielectric constant tensor:
#      x y z
#    x 2.966140 0.000000 0.033690 
#    y 0.000000 3.242630 0.000000 
#    z 0.033690 0.000000 3.369710 
# 
# 
# High freq. dielectric constant tensor:
#      x y z
#    x 1.632310 0.000000 0.005470 
#    y 0.000000 1.654380 0.000000 
#    z 0.005470 0.000000 1.637150 
# 
# From -- ./inp_files/146641.got.cif
#   From: 2010.06.25/outbox.cif.g09.slc.cpg/sg12_74_cif.got.tgz:146641.got - 2010.06.28 00:19:55.
