data_PCOD8080645
_publ_section_title
;
Structure prediction by ZEFSAII (Michael W. Deem and Ramdas Pophale) SiO2 
 PCOD8080645
Probable space group: C 2/M
;
_chemical_formula_sum "Si O2"
_cell_formula_units_Z 64
_cell_length_a 25.698762
_cell_length_b 9.167225
_cell_length_c 17.154057
_cell_angle_alpha 90.000000
_cell_angle_beta 90.129082
_cell_angle_gamma 90.000000
_cell_volume 4041.251137
_symmetry_space_group_name_H-M "C 2/M"
_symmetry_group_IT_number 12
_symmetry_cell_setting 'monoclinic'
loop_
_space_group_symop_operation_xyz
x,y,z
-x,y,-z
-x,-y,-z
x,-y,z
1/2+x,1/2+y,z
1/2-x,1/2+y,-z
1/2-x,1/2-y,-z
1/2+x,1/2-y,z
loop_
_atom_site_type_symbol
_atom_site_label
_atom_site_fract_x
_atom_site_fract_y
_atom_site_fract_z
Si Si1 0.056075 0.827470 0.093698
Si Si2 0.805055 0.668918 0.664008
Si Si3 0.645467 0.828298 0.180506
Si Si4 0.687395 0.672555 0.653169
Si Si5 0.195281 0.670458 0.506041
Si Si6 0.939750 0.172992 0.081842
Si Si7 0.753965 0.671635 0.918157
Si Si8 0.344409 0.326993 0.179663
O O1 0.092678 0.749867 0.155809
O O2 0.996749 0.777977 0.111240
O O3 0.062622 0.000000 0.101901
O O4 0.070834 0.774478 0.006542
O O5 0.798753 0.500000 0.684269
O O6 0.839913 0.735462 0.733554
O O7 0.746335 0.731181 0.665012
O O8 0.832052 0.693165 0.579045
O O9 0.691554 0.787295 0.121407
O O10 0.635085 0.000000 0.181862
O O11 0.685332 0.500000 0.637871
O O12 0.663269 0.754712 0.576945
O O13 0.655058 0.719499 0.729537
O O14 0.203348 0.500000 0.523141
O O15 0.250000 0.750000 0.500000
O O16 0.895519 0.240162 0.138127
O O17 0.937426 0.000000 0.082536
O O18 0.748852 0.500000 0.931732
O O19 0.707522 0.730417 0.862950
O O20 0.750000 0.750000 0.000000
O O21 0.344975 0.500000 0.174147
#
# Coordination Sequence:
#
# PCOD8080645 Si02
#       8
#     8   8   8   8   8   8   8   8
#     4   9  17  30  46  65  85 109 146 191 223 247
#     4   8  14  26  41  58  83 114 142 165 199 256
#     4  10  18  29  44  63  87 116 144 172 209 258
#     4   9  15  26  43  62  85 112 144 176 208 255
#     4   9  16  26  42  61  84 114 144 173 209 251
#     4   8  15  28  46  64  84 111 147 185 221 256
#     4  10  19  29  43  62  87 116 146 175 209 258
#     4   9  15  26  45  64  83 116 150 174 209 265
#
# _framework density 15.836679999999999
#
# number of rings (size 3 to 8) (size 9 to 14) (size 15 to 20)
#    0.000    3.000    1.250    2.625    0.000    1.500 
#    0.000    5.000    0.000    2.250    0.000    0.875 
#    0.000    7.000    0.000    0.000    0.000    0.000 
#
# Total GULP energy -396530.856731 kJ/mol
# GULP energy per Si atom -12391.589273 kJ/mol
# Density = 1.580064 g / cm^3
# Si number density = 15.836680 Si / 1000 Ang^3
#
#
#
# Elastic Constant Matrix: (Units=GPa)
#
#
# Indices 1 2 3 4 5 6 
#
# 1 77.1145 19.2750 46.8585 0.0000 3.3679 0.0000
# 2 19.2750 33.9237 35.9247 0.0000 3.2102 0.0000
# 3 46.8585 35.9247 133.4738 0.0000 3.6100 0.0000
# 4 0.0000 0.0000 0.0000 25.4450 0.0000 2.7599
# 5 3.3679 3.2102 3.6100 0.0000 20.4956 0.0000
# 6 0.0000 0.0000 0.0000 2.7599 0.0000 16.8440
#
#
#
# Elastic Compliance Matrix: (Units=1/GPa)
#
#
# Indices 1 2 3 4 5 6 
#
# 1 0.017029 -0.004562 -0.004716 0.000000 -0.001253 0.000000
# 2 -0.004562 0.042874 -0.009823 0.000000 -0.004235 0.000000
# 3 -0.004716 -0.009823 0.011785 0.000000 0.000238 0.000000
# 4 0.000000 0.000000 0.000000 0.040012 0.000000 -0.006556
# 5 -0.001253 -0.004235 0.000238 0.000000 0.049618 0.000000
# 6 0.000000 0.000000 0.000000 -0.006556 0.000000 0.060442
#
#
# Mechanical properties :
#
#
# Convention : Reuss Voigt Hill
#
# Bulk Modulus (GPa) = 29.86518 49.84759 39.85639
# Shear Modulus (GPa) = 18.44166 22.05385 20.24776
#
# Velocity S-wave (km/s) = 3.41617 3.73578 3.57954
# Velocity P-wave (km/s) = 5.87021 7.08184 6.50430
#
# Compressibility (1/GPa) = 0.03348380
#
# Stress axis : x y z
#
# Youngs Moduli (GPa) = 58.72427 23.32435 84.85062
#
# Poissons Ratio (x) = 0.10641 0.40019
# Poissons Ratio (y) = 0.26792 0.83351
# Poissons Ratio (z) = 0.27697 0.22912
#
# Static dielectric constant tensor:
#      x y z
#    x 2.984970 0.000000 -0.103520 
#    y 0.000000 2.730010 0.000000 
#    z -0.103520 0.000000 3.503490 
# 
# 
# High freq. dielectric constant tensor:
#      x y z
#    x 1.574210 0.000000 -0.001120 
#    y 0.000000 1.575100 0.000000 
#    z -0.001120 0.000000 1.620940 
# 
# From -- ./inp_files/291586.got.cif
#   From: 2010.06.25/outbox.cif.g09.slc.cpg/sg12_146_cif.got.tgz:291586.got - 2010.06.28 00:19:55.
