data_PCOD8080478
_publ_section_title
;
Structure prediction by ZEFSAII (Michael W. Deem and Ramdas Pophale) SiO2 
 PCOD8080478
Probable space group: C 2/M
;
_chemical_formula_sum "Si O2"
_cell_formula_units_Z 64
_cell_length_a 20.536975
_cell_length_b 9.269525
_cell_length_c 24.298894
_cell_angle_alpha 90.000000
_cell_angle_beta 53.070777
_cell_angle_gamma 90.000000
_cell_volume 3697.709808
_symmetry_space_group_name_H-M "C 2/M"
_symmetry_group_IT_number 12
_symmetry_cell_setting 'monoclinic'
loop_
_space_group_symop_operation_xyz
x,y,z
-x,y,-z
-x,-y,-z
x,-y,z
1/2+x,1/2+y,z
1/2-x,1/2+y,-z
1/2-x,1/2-y,-z
1/2+x,1/2-y,z
loop_
_atom_site_type_symbol
_atom_site_label
_atom_site_fract_x
_atom_site_fract_y
_atom_site_fract_z
Si Si1 0.147154 0.669965 0.285918
Si Si2 0.687505 0.169318 0.493031
Si Si3 0.199149 0.169769 0.156139
Si Si4 0.190312 0.335952 0.992710
Si Si5 0.574744 0.166763 0.141003
Si Si6 0.906225 0.668624 0.274845
Si Si7 0.534718 0.169886 0.637323
Si Si8 0.243519 0.331787 0.345110
O O1 0.151291 0.500000 0.271976
O O2 0.202057 0.751676 0.213179
O O3 0.181203 0.708424 0.328541
O O4 0.054966 0.731722 0.329740
O O5 0.750000 0.250000 0.500000
O O6 0.595803 0.213532 0.557072
O O7 0.700879 0.217274 0.423468
O O8 0.701526 0.000000 0.494282
O O9 0.288261 0.200830 0.081925
O O10 0.126571 0.233844 0.155735
O O11 0.183814 0.000000 0.172202
O O12 0.214336 0.500000 0.990133
O O13 0.250000 0.250000 0.000000
O O14 0.099421 0.306935 0.063591
O O15 0.479541 0.202758 0.195312
O O16 0.590243 0.000000 0.150432
O O17 0.885893 0.500000 0.288216
O O18 0.930784 0.730268 0.322465
O O19 0.827430 0.749250 0.292415
O O20 0.526539 0.000000 0.646746
O O21 0.263876 0.500000 0.335624
#
# Coordination Sequence:
#
# PCOD8080478 Si02
#       8
#     8   8   8   8   8   8   8   8
#     4  10  20  36  52  70 100 135 170 202 243 299
#     4  10  19  33  52  75  99 126 161 203 249 291
#     4  10  18  28  46  74 103 130 161 205 251 288
#     4   8  15  26  42  68 100 128 160 200 243 289
#     4   9  16  29  49  72  99 133 167 200 242 293
#     4  10  18  31  53  76  98 130 168 203 242 294
#     4   9  17  31  53  75  94 126 168 202 237 289
#     4  10  22  35  51  75 101 130 164 207 251 293
#
# _framework density 17.308009999999999
#
# number of rings (size 3 to 8) (size 9 to 14) (size 15 to 20)
#    0.000    2.500    2.500    0.375    0.000    2.000 
#    0.000    3.125    0.000    0.750    0.000    7.875 
#    0.000    0.000    0.000    0.000    0.000    0.000 
#
# Total GULP energy -396548.928123 kJ/mol
# GULP energy per Si atom -12392.154004 kJ/mol
# Density = 1.726862 g / cm^3
# Si number density = 17.308010 Si / 1000 Ang^3
#
#
#
# Elastic Constant Matrix: (Units=GPa)
#
#
# Indices 1 2 3 4 5 6 
#
# 1 85.6939 28.5855 54.4469 0.0000 -2.1451 0.0001
# 2 28.5855 39.4707 41.6624 0.0001 0.8080 0.0003
# 3 54.4469 41.6624 157.5398 0.0000 -11.7053 0.0000
# 4 0.0000 0.0001 0.0000 24.2838 0.0000 -0.3364
# 5 -2.1451 0.8080 -11.7053 0.0000 24.9990 0.0000
# 6 0.0001 0.0003 0.0000 -0.3364 0.0000 22.9214
#
#
#
# Elastic Compliance Matrix: (Units=1/GPa)
#
#
# Indices 1 2 3 4 5 6 
#
# 1 0.016722 -0.008342 -0.003571 0.000000 0.000033 0.000000
# 2 -0.008342 0.040105 -0.008156 0.000000 -0.005831 -0.000001
# 3 -0.003571 -0.008156 0.010086 0.000000 0.004680 0.000000
# 4 0.000000 0.000000 0.000000 0.041188 0.000000 0.000605
# 5 0.000033 -0.005831 0.004680 0.000000 0.042384 0.000000
# 6 0.000000 -0.000001 0.000000 0.000605 0.000000 0.043636
#
#
# Mechanical properties :
#
#
# Convention : Reuss Voigt Hill
#
# Bulk Modulus (GPa) = 37.34761 59.12156 48.23459
# Shear Modulus (GPa) = 20.56055 24.97484 22.76769
#
# Velocity S-wave (km/s) = 3.45036 3.80276 3.63084
# Velocity P-wave (km/s) = 6.12359 7.31532 6.74583
#
# Compressibility (1/GPa) = 0.02677548
#
# Stress axis : x y z
#
# Youngs Moduli (GPa) = 59.80307 24.93442 99.14402
#
# Poissons Ratio (x) = 0.20800 0.35400
# Poissons Ratio (y) = 0.49887 0.80865
# Poissons Ratio (z) = 0.21353 0.20337
#
# Static dielectric constant tensor:
#      x y z
#    x 2.996190 0.000000 -0.221760 
#    y 0.000000 3.093660 0.000000 
#    z -0.221760 0.000000 3.910110 
# 
# 
# High freq. dielectric constant tensor:
#      x y z
#    x 1.630780 0.000000 -0.014960 
#    y 0.000000 1.654650 0.000000 
#    z -0.014960 0.000000 1.691420 
# 
# From -- ./inp_files/319955.got.cif
#   From: 2010.06.25/outbox.cif.g09.slc.cpg/sg12_160_cif.got.tgz:319955.got - 2010.06.28 00:19:55.
