data_PCOD8080585
_publ_section_title
;
Structure prediction by ZEFSAII (Michael W. Deem and Ramdas Pophale) SiO2 
 PCOD8080585
Probable space group: C 2/M
;
_chemical_formula_sum "Si O2"
_cell_formula_units_Z 52
_cell_length_a 22.775504
_cell_length_b 7.871486
_cell_length_c 28.116097
_cell_angle_alpha 90.000000
_cell_angle_beta 145.952331
_cell_angle_gamma 90.000000
_cell_volume 2822.127389
_symmetry_space_group_name_H-M "C 2/M"
_symmetry_group_IT_number 12
_symmetry_cell_setting 'monoclinic'
loop_
_space_group_symop_operation_xyz
x,y,z
-x,y,-z
-x,-y,-z
x,-y,z
1/2+x,1/2+y,z
1/2-x,1/2+y,-z
1/2-x,1/2-y,-z
1/2+x,1/2-y,z
loop_
_atom_site_type_symbol
_atom_site_label
_atom_site_fract_x
_atom_site_fract_y
_atom_site_fract_z
Si Si1 0.096468 0.806399 0.430184
Si Si2 0.975687 0.313699 0.779969
Si Si3 0.175370 0.303790 0.858629
Si Si4 0.305297 0.306942 0.600888
Si Si5 0.534229 0.000000 0.135434
Si Si6 0.625236 0.811136 0.716362
Si Si7 0.264799 0.000000 0.793856
Si Si8 0.678595 0.000000 0.059191
O O1 0.193981 0.789454 0.532411
O O2 0.132255 0.732856 0.402795
O O3 0.995533 0.704159 0.381269
O O4 0.060123 0.000000 0.401040
O O5 0.963451 0.500000 0.747693
O O6 0.876525 0.204609 0.695913
O O7 0.974522 0.331753 0.836679
O O8 0.087206 0.240955 0.837027
O O9 0.211835 0.500000 0.892418
O O10 0.127196 0.281915 0.774142
O O11 0.271021 0.171848 0.928919
O O12 0.275978 0.500000 0.570977
O O13 0.644780 0.000000 0.184087
O O14 0.443189 0.000000 0.035552
O O15 0.696664 0.669600 0.738991
O O16 0.666620 0.000000 0.730692
O O17 0.314396 0.000000 0.879400
#
# Coordination Sequence:
#
# PCOD8080585 Si02
#       8
#     8   8   8   8   4   8   4   4
#     4  10  18  28  48  82 119 151 183 227 284 326
#     4   9  19  34  51  72 112 150 178 218 272 348
#     4   9  18  33  54  84 114 142 178 224 294 335
#     4  10  19  28  48  80 120 152 181 224 277 341
#     4  10  23  40  57  78 107 156 190 224 291 337
#     4  10  18  31  57  83 110 143 185 240 278 324
#     4  10  21  40  59  80 109 149 196 240 276 328
#     4  10  21  36  64  84 108 141 190 247 281 338
#
# _framework density 18.425816000000001
#
# number of rings (size 3 to 8) (size 9 to 14) (size 15 to 20)
#    0.462    1.846    2.308    1.154    1.077    1.846 
#    0.000    2.308    0.000    5.538    0.000    2.154 
#    0.000    0.000    0.000    0.000    0.000    0.000 
#
# Total GULP energy -322271.620666 kJ/mol
# GULP energy per Si atom -12395.062333 kJ/mol
# Density = 1.838388 g / cm^3
# Si number density = 18.425816 Si / 1000 Ang^3
#
#
#
# Elastic Constant Matrix: (Units=GPa)
#
#
# Indices 1 2 3 4 5 6 
#
# 1 84.6366 28.7664 23.2797 -0.0001 22.9789 -0.0008
# 2 28.7664 90.1679 24.9474 0.0000 15.6458 -0.0018
# 3 23.2797 24.9474 70.1574 -0.0001 19.5134 0.0001
# 4 -0.0001 0.0000 -0.0001 24.6770 0.0000 2.0433
# 5 22.9789 15.6458 19.5134 0.0000 25.6217 -0.0001
# 6 -0.0008 -0.0018 0.0001 2.0433 -0.0001 15.0856
#
#
#
# Elastic Compliance Matrix: (Units=1/GPa)
#
#
# Indices 1 2 3 4 5 6 
#
# 1 0.016362 -0.002822 -0.001045 0.000000 -0.012155 0.000000
# 2 -0.002822 0.013383 -0.002859 0.000000 -0.003464 0.000001
# 3 -0.001045 -0.002859 0.018867 0.000000 -0.011686 -0.000001
# 4 0.000000 0.000000 0.000000 0.040983 0.000000 -0.005551
# 5 -0.012155 -0.003464 -0.011686 0.000000 0.060947 -0.000001
# 6 0.000000 0.000001 -0.000001 -0.005551 -0.000001 0.067040
#
#
# Mechanical properties :
#
#
# Convention : Reuss Voigt Hill
#
# Bulk Modulus (GPa) = 28.44085 44.32767 36.38426
# Shear Modulus (GPa) = 20.59699 24.27473 22.43586
#
# Velocity S-wave (km/s) = 3.34703 3.63358 3.49324
# Velocity P-wave (km/s) = 5.51413 6.45860 6.00496
#
# Compressibility (1/GPa) = 0.03516069
#
# Stress axis : x y z
#
# Youngs Moduli (GPa) = 61.11769 74.72322 53.00130
#
# Poissons Ratio (x) = 0.21084 0.05539
# Poissons Ratio (y) = 0.17245 0.15153
# Poissons Ratio (z) = 0.06387 0.21364
#
# Static dielectric constant tensor:
#      x y z
#    x 2.954520 0.000000 0.124850 
#    y 0.000000 3.410380 0.000000 
#    z 0.124850 0.000000 3.194590 
# 
# 
# High freq. dielectric constant tensor:
#      x y z
#    x 1.666890 0.000000 0.018410 
#    y 0.000000 1.714020 0.000000 
#    z 0.018410 0.000000 1.708040 
# 
# From -- ./inp_files/381917.got.cif
#   From: 2010.06.25/outbox.cif.g09.slc.cpg/sg12_191_cif.got.tgz:381917.got - 2010.06.28 00:19:55.
