data_PCOD8080287
_publ_section_title
;
Structure prediction by ZEFSAII (Michael W. Deem and Ramdas Pophale) SiO2 
 PCOD8080287
Probable space group: C 2/M
;
_chemical_formula_sum "Si O2"
_cell_formula_units_Z 48
_cell_length_a 25.326159
_cell_length_b 9.097271
_cell_length_c 12.711623
_cell_angle_alpha 90.000000
_cell_angle_beta 90.164028
_cell_angle_gamma 90.000000
_cell_volume 2928.732359
_symmetry_space_group_name_H-M "C 2/M"
_symmetry_group_IT_number 12
_symmetry_cell_setting 'monoclinic'
loop_
_space_group_symop_operation_xyz
x,y,z
-x,y,-z
-x,-y,-z
x,-y,z
1/2+x,1/2+y,z
1/2-x,1/2+y,-z
1/2-x,1/2-y,-z
1/2+x,1/2-y,z
loop_
_atom_site_type_symbol
_atom_site_label
_atom_site_fract_x
_atom_site_fract_y
_atom_site_fract_z
Si Si1 0.997381 0.838422 0.124720
Si Si2 0.305375 0.171682 0.513212
Si Si3 0.191898 0.173529 0.284851
Si Si4 0.612018 0.327143 0.104063
Si Si5 0.394352 0.825364 0.116455
Si Si6 0.188741 0.670740 0.717213
O O1 0.951901 0.725443 0.158711
O O2 0.056080 0.786283 0.160249
O O3 0.984258 0.000000 0.171381
O O4 0.000000 0.848066 0.000000
O O5 0.250000 0.250000 0.500000
O O6 0.334364 0.247548 0.612825
O O7 0.334643 0.196860 0.401023
O O8 0.297587 0.000000 0.535881
O O9 0.158681 0.218559 0.182588
O O10 0.251715 0.233973 0.269276
O O11 0.190431 0.000000 0.305396
O O12 0.612878 0.500000 0.076907
O O13 0.620354 0.238165 0.997101
O O14 0.351248 0.760503 0.198054
O O15 0.394561 0.000000 0.110755
O O16 0.192930 0.500000 0.741759
#
# Coordination Sequence:
#
# PCOD8080287 Si02
#       6
#     8   8   8   8   8   8
#     4   8  15  29  45  61  83 113 148 182 216 253
#     4   9  16  29  47  65  87 115 148 182 215 253
#     4   9  17  31  48  65  88 117 146 178 219 260
#     4   9  18  31  46  64  89 118 144 177 222 261
#     4  10  18  28  44  66  90 116 146 177 212 258
#     4   8  16  29  44  64  91 117 139 174 221 259
#
# _framework density 16.389343
#
# number of rings (size 3 to 8) (size 9 to 14) (size 15 to 20)
#    0.000    3.167    0.000    3.000    0.000    4.333 
#    0.000    8.333    0.000    1.000    0.000    7.000 
#    0.000    0.000    0.000    0.000    0.000    0.000 
#
# Total GULP energy -297351.661046 kJ/mol
# GULP energy per Si atom -12389.652544 kJ/mol
# Density = 1.635204 g / cm^3
# Si number density = 16.389343 Si / 1000 Ang^3
#
#
#
# Elastic Constant Matrix: (Units=GPa)
#
#
# Indices 1 2 3 4 5 6 
#
# 1 98.6350 33.8499 64.5122 0.0000 -8.0256 0.0000
# 2 33.8499 60.2649 48.2011 0.0000 -3.0842 0.0000
# 3 64.5122 48.2011 104.2966 0.0000 -10.0522 0.0000
# 4 0.0000 0.0000 0.0000 22.9731 0.0000 2.1189
# 5 -8.0256 -3.0842 -10.0522 0.0000 6.2214 0.0000
# 6 0.0000 0.0000 0.0000 2.1189 0.0000 20.5956
#
#
#
# Elastic Compliance Matrix: (Units=1/GPa)
#
#
# Indices 1 2 3 4 5 6 
#
# 1 0.017376 -0.002117 -0.009132 0.000000 0.006610 0.000000
# 2 -0.002117 0.026907 -0.011967 0.000000 -0.008727 0.000000
# 3 -0.009132 -0.011967 0.022576 0.000000 0.018763 0.000000
# 4 0.000000 0.000000 0.000000 0.043946 0.000000 -0.004521
# 5 0.006610 -0.008727 0.018763 0.000000 0.195251 0.000000
# 6 0.000000 0.000000 0.000000 -0.004521 0.000000 0.049019
#
#
# Mechanical properties :
#
#
# Convention : Reuss Voigt Hill
#
# Bulk Modulus (GPa) = 48.95688 61.81365 55.38527
# Shear Modulus (GPa) = 12.24542 17.73358 14.98950
#
# Velocity S-wave (km/s) = 2.73638 3.29297 3.02750
# Velocity P-wave (km/s) = 6.31821 7.22882 6.78880
#
# Compressibility (1/GPa) = 0.02042614
#
# Stress axis : x y z
#
# Youngs Moduli (GPa) = 57.55179 37.16466 44.29578
#
# Poissons Ratio (x) = 0.07869 0.40451
# Poissons Ratio (y) = 0.12186 0.53008
# Poissons Ratio (z) = 0.52556 0.44474
#
# Static dielectric constant tensor:
#      x y z
#    x 3.106080 0.000000 -0.357480 
#    y 0.000000 3.070910 0.000000 
#    z -0.357480 0.000000 2.901050 
# 
# 
# High freq. dielectric constant tensor:
#      x y z
#    x 1.615110 0.000000 0.001250 
#    y 0.000000 1.621430 0.000000 
#    z 0.001250 0.000000 1.617550 
# 
# From -- ./inp_files/179169.got.cif
#   From: 2010.06.25/outbox.cif.g09.slc.cpg/sg12_90_cif.got.tgz:179169.got - 2010.06.28 00:19:55.
