data_PCOD8080563
_publ_section_title
;
Structure prediction by ZEFSAII (Michael W. Deem and Ramdas Pophale) SiO2 
 PCOD8080563
Probable space group: C 2/M
;
_chemical_formula_sum "Si O2"
_cell_formula_units_Z 64
_cell_length_a 17.421731
_cell_length_b 13.403990
_cell_length_c 18.325907
_cell_angle_alpha 90.000000
_cell_angle_beta 58.427458
_cell_angle_gamma 90.000000
_cell_volume 3646.021546
_symmetry_space_group_name_H-M "C 2/M"
_symmetry_group_IT_number 12
_symmetry_cell_setting 'monoclinic'
loop_
_space_group_symop_operation_xyz
x,y,z
-x,y,-z
-x,-y,-z
x,-y,z
1/2+x,1/2+y,z
1/2-x,1/2+y,-z
1/2-x,1/2-y,-z
1/2+x,1/2-y,z
loop_
_atom_site_type_symbol
_atom_site_label
_atom_site_fract_x
_atom_site_fract_y
_atom_site_fract_z
Si Si1 0.750889 0.615411 0.462470
Si Si2 0.717532 0.721588 0.133925
Si Si3 0.814783 0.282893 0.229765
Si Si4 0.851909 0.796503 0.361231
Si Si5 0.845036 0.112719 0.627644
Si Si6 0.983282 0.387931 0.087966
Si Si7 0.680838 0.110958 0.037813
Si Si8 0.950268 0.878999 0.710227
O O1 0.777490 0.500000 0.435680
O O2 0.838025 0.684678 0.401995
O O3 0.714932 0.629020 0.562352
O O4 0.668559 0.651835 0.448811
O O5 0.769541 0.761877 0.179689
O O6 0.709517 0.819017 0.089116
O O7 0.622549 0.667721 0.197885
O O8 0.779203 0.642365 0.060453
O O9 0.822143 0.200976 0.290954
O O10 0.751922 0.375209 0.285258
O O11 0.914587 0.321015 0.166658
O O12 0.953841 0.832556 0.318464
O O13 0.922961 0.158618 0.641220
O O14 0.873044 0.000000 0.607593
O O15 0.944729 0.500000 0.097612
O O16 0.073637 0.387366 0.089219
O O17 0.000000 0.340484 0.000000
O O18 0.716130 0.000000 0.037519
O O19 0.951097 0.000000 0.716756
#
# Coordination Sequence:
#
# PCOD8080563 Si02
#       8
#     8   8   8   8   8   8   8   8
#     4   9  18  35  54  76 103 132 167 208 257 305
#     4  10  20  34  52  71 100 137 171 209 256 304
#     4  10  18  31  48  73 104 134 171 209 248 300
#     4  10  20  32  51  78 105 134 167 207 255 304
#     4   8  16  29  50  75 100 130 164 211 262 298
#     4  10  18  28  48  76 101 127 164 214 263 299
#     4  10  20  34  51  73  99 132 172 216 260 302
#     4  10  19  32  51  78 106 134 168 208 253 302
#
# _framework density 17.553380000000001
#
# number of rings (size 3 to 8) (size 9 to 14) (size 15 to 20)
#    0.000    2.375    1.250    1.875    0.000    2.000 
#    0.000    3.750    0.000    0.000    0.000   22.750 
#    0.000    0.000    0.000    0.000    0.000    0.000 
#
# Total GULP energy -396464.889361 kJ/mol
# GULP energy per Si atom -12389.527793 kJ/mol
# Density = 1.751343 g / cm^3
# Si number density = 17.553380 Si / 1000 Ang^3
#
#
#
# Elastic Constant Matrix: (Units=GPa)
#
#
# Indices 1 2 3 4 5 6 
#
# 1 95.9187 41.5959 52.7066 0.0000 3.4257 0.0000
# 2 41.5959 75.6046 32.9143 0.0000 5.4485 0.0000
# 3 52.7066 32.9143 96.0974 0.0000 12.6176 0.0000
# 4 0.0000 0.0000 0.0000 22.4863 0.0000 -1.2534
# 5 3.4257 5.4485 12.6176 0.0000 30.1039 0.0000
# 6 0.0000 0.0000 0.0000 -1.2534 0.0000 22.1550
#
#
#
# Elastic Compliance Matrix: (Units=1/GPa)
#
#
# Indices 1 2 3 4 5 6 
#
# 1 0.017284 -0.006367 -0.007611 0.000000 0.002376 0.000000
# 2 -0.006367 0.017901 -0.002443 0.000000 -0.001491 0.000000
# 3 -0.007611 -0.002443 0.016133 0.000000 -0.005454 0.000000
# 4 0.000000 0.000000 0.000000 0.044612 0.000000 0.002524
# 5 0.002376 -0.001491 -0.005454 0.000000 0.035504 0.000000
# 6 0.000000 0.000000 0.000000 0.002524 0.000000 0.045279
#
#
# Mechanical properties :
#
#
# Convention : Reuss Voigt Hill
#
# Bulk Modulus (GPa) = 54.12487 58.00603 56.06545
# Shear Modulus (GPa) = 23.17881 24.30929 23.74405
#
# Velocity S-wave (km/s) = 3.63778 3.72543 3.68187
# Velocity P-wave (km/s) = 6.96749 7.18487 7.07702
#
# Compressibility (1/GPa) = 0.01847579
#
# Stress axis : x y z
#
# Youngs Moduli (GPa) = 57.85745 55.86329 61.98341
#
# Poissons Ratio (x) = 0.35568 0.47175
# Poissons Ratio (y) = 0.36838 0.15144
# Poissons Ratio (z) = 0.44034 0.13649
#
# Static dielectric constant tensor:
#      x y z
#    x 3.343880 0.000000 0.181990 
#    y 0.000000 3.102620 0.000000 
#    z 0.181990 0.000000 3.423570 
# 
# 
# High freq. dielectric constant tensor:
#      x y z
#    x 1.676380 0.000000 0.006820 
#    y 0.000000 1.650380 0.000000 
#    z 0.006820 0.000000 1.689160 
# 
# From -- ./inp_files/270248.got.cif
#   From: 2010.06.25/outbox.cif.g09.slc.cpg/sg12_136_cif.got.tgz:270248.got - 2010.06.28 00:19:55.
