data_PCOD8080513
_publ_section_title
;
Structure prediction by ZEFSAII (Michael W. Deem and Ramdas Pophale) SiO2 
 PCOD8080513
Probable space group: C 2/M
;
_chemical_formula_sum "Si O2"
_cell_formula_units_Z 64
_cell_length_a 18.940821
_cell_length_b 8.848873
_cell_length_c 23.588756
_cell_angle_alpha 90.000000
_cell_angle_beta 59.856676
_cell_angle_gamma 90.000000
_cell_volume 3418.955106
_symmetry_space_group_name_H-M "C 2/M"
_symmetry_group_IT_number 12
_symmetry_cell_setting 'monoclinic'
loop_
_space_group_symop_operation_xyz
x,y,z
-x,y,-z
-x,-y,-z
x,-y,z
1/2+x,1/2+y,z
1/2-x,1/2+y,-z
1/2-x,1/2-y,-z
1/2+x,1/2-y,z
loop_
_atom_site_type_symbol
_atom_site_label
_atom_site_fract_x
_atom_site_fract_y
_atom_site_fract_z
Si Si1 0.568331 0.829416 0.020377
Si Si2 0.611711 0.822571 0.713787
Si Si3 0.996576 0.826232 0.673952
Si Si4 0.186770 0.174527 0.227628
Si Si5 0.773805 0.325406 0.672087
Si Si6 0.815070 0.175481 0.106826
Si Si7 0.949947 0.824236 0.147126
Si Si8 0.956176 0.674675 0.575093
O O1 0.647270 0.737948 0.966836
O O2 0.594607 0.000000 0.023795
O O3 0.500000 0.823929 0.000000
O O4 0.532932 0.752967 0.091293
O O5 0.562948 0.778223 0.677176
O O6 0.705013 0.769934 0.667344
O O7 0.571563 0.741786 0.783486
O O8 0.608488 0.000000 0.724509
O O9 0.909950 0.802742 0.740175
O O10 0.990965 0.778139 0.610875
O O11 0.024250 0.000000 0.665658
O O12 0.220734 0.273288 0.265421
O O13 0.230959 0.235356 0.153218
O O14 0.208816 0.000000 0.229711
O O15 0.747704 0.500000 0.682759
O O16 0.859507 0.298489 0.605852
O O17 0.876162 0.207979 0.134046
O O18 0.796121 0.000000 0.106727
O O19 0.967930 0.000000 0.146281
O O20 0.973926 0.500000 0.582694
O O21 0.000000 0.725518 0.500000
#
# Coordination Sequence:
#
# PCOD8080513 Si02
#       8
#     8   8   8   8   8   8   8   8
#     4   9  17  28  43  67 101 137 177 225 271 320
#     4  12  23  35  54  79 110 145 183 225 269 320
#     4  10  22  38  56  81 112 144 180 222 269 319
#     4  10  19  32  52  77 105 138 179 226 271 320
#     4  10  19  33  55  82 111 142 177 219 265 314
#     4  10  18  28  47  73 103 138 178 225 272 321
#     4  10  19  31  48  72 104 140 178 221 273 325
#     4   9  19  38  63  88 114 144 178 216 261 315
#
# _framework density 18.719169000000001
#
# number of rings (size 3 to 8) (size 9 to 14) (size 15 to 20)
#    0.000    2.000    1.250    3.375    0.000    4.750 
#    0.000    0.625    0.000    0.750    0.000    0.000 
#    0.000    0.000    0.000    0.000    0.000    0.000 
#
# Total GULP energy -396907.498797 kJ/mol
# GULP energy per Si atom -12403.359337 kJ/mol
# Density = 1.867656 g / cm^3
# Si number density = 18.719169 Si / 1000 Ang^3
#
#
#
# Elastic Constant Matrix: (Units=GPa)
#
#
# Indices 1 2 3 4 5 6 
#
# 1 62.5301 18.2300 25.4859 0.0001 -3.9928 0.0008
# 2 18.2300 69.4004 30.5888 0.0003 -2.4157 0.0015
# 3 25.4859 30.5888 109.8151 0.0001 -19.6242 0.0002
# 4 0.0001 0.0003 0.0001 28.6678 0.0000 -1.2642
# 5 -3.9928 -2.4157 -19.6242 0.0000 20.0864 0.0001
# 6 0.0008 0.0015 0.0002 -1.2642 0.0001 26.7696
#
#
#
# Elastic Compliance Matrix: (Units=1/GPa)
#
#
# Indices 1 2 3 4 5 6 
#
# 1 0.018322 -0.003350 -0.003320 0.000000 -0.000004 0.000000
# 2 -0.003350 0.017191 -0.004556 0.000000 -0.003050 -0.000001
# 3 -0.003320 -0.004556 0.013242 0.000000 0.011729 0.000000
# 4 0.000000 0.000000 0.000000 0.034955 0.000000 0.001651
# 5 -0.000004 -0.003050 0.011729 0.000000 0.060877 0.000000
# 6 0.000000 -0.000001 0.000000 0.001651 0.000000 0.037434
#
#
# Mechanical properties :
#
#
# Convention : Reuss Voigt Hill
#
# Bulk Modulus (GPa) = 38.01796 43.37277 40.69537
# Shear Modulus (GPa) = 23.44789 26.26751 24.85770
#
# Velocity S-wave (km/s) = 3.54307 3.75005 3.64803
# Velocity P-wave (km/s) = 6.09028 6.47851 6.28739
#
# Compressibility (1/GPa) = 0.02630336
#
# Stress axis : x y z
#
# Youngs Moduli (GPa) = 54.58026 58.16994 75.51825
#
# Poissons Ratio (x) = 0.19485 0.25071
# Poissons Ratio (y) = 0.18282 0.34407
# Poissons Ratio (z) = 0.18120 0.26503
#
# Static dielectric constant tensor:
#      x y z
#    x 3.230330 0.000000 -0.277980 
#    y 0.000000 3.542710 0.000000 
#    z -0.277980 0.000000 3.427930 
# 
# 
# High freq. dielectric constant tensor:
#      x y z
#    x 1.696550 0.000000 -0.020860 
#    y 0.000000 1.742480 0.000000 
#    z -0.020860 0.000000 1.720800 
# 
# From -- ./inp_files/345544.got.cif
#   From: 2010.06.25/outbox.cif.g09.slc.cpg/sg12_173_cif.got.tgz:345544.got - 2010.06.28 00:19:55.
