data_PCOD8080102
_publ_section_title
;
Structure prediction by ZEFSAII (Michael W. Deem and Ramdas Pophale) SiO2 
 PCOD8080102
Probable space group: C 2/M
;
_chemical_formula_sum "Si O2"
_cell_formula_units_Z 56
_cell_length_a 28.460360
_cell_length_b 8.962940
_cell_length_c 14.082086
_cell_angle_alpha 90.000000
_cell_angle_beta 119.124423
_cell_angle_gamma 90.000000
_cell_volume 3138.000549
_symmetry_space_group_name_H-M "C 2/M"
_symmetry_group_IT_number 12
_symmetry_cell_setting 'monoclinic'
loop_
_space_group_symop_operation_xyz
x,y,z
-x,y,-z
-x,-y,-z
x,-y,z
1/2+x,1/2+y,z
1/2-x,1/2+y,-z
1/2-x,1/2-y,-z
1/2+x,1/2-y,z
loop_
_atom_site_type_symbol
_atom_site_label
_atom_site_fract_x
_atom_site_fract_y
_atom_site_fract_z
Si Si1 0.321252 0.675691 0.142381
Si Si2 0.972672 0.662443 0.073381
Si Si3 0.430648 0.325752 0.757093
Si Si4 0.370427 0.823559 0.866320
Si Si5 0.071528 0.822783 0.654360
Si Si6 0.716538 0.324913 0.102589
Si Si7 0.453765 0.676096 0.575411
O O1 0.314861 0.500000 0.153457
O O2 0.378910 0.738856 0.234309
O O3 0.276198 0.758361 0.159987
O O4 0.314479 0.716107 0.025191
O O5 0.971838 0.500000 0.124779
O O6 0.006497 0.784673 0.164272
O O7 0.912496 0.720652 0.991531
O O8 0.000000 0.636583 0.000000
O O9 0.422924 0.500000 0.769458
O O10 0.389667 0.235690 0.782697
O O11 0.419912 0.281042 0.636410
O O12 0.314253 0.748514 0.838846
O O13 0.363844 0.000000 0.851469
O O14 0.077107 0.768508 0.549657
O O15 0.014987 0.759444 0.639291
O O16 0.072969 0.000000 0.660815
O O17 0.719884 0.500000 0.122501
O O18 0.460416 0.500000 0.576754
#
# Coordination Sequence:
#
# PCOD8080102 Si02
#       7
#     8   8   8   8   8   8   8
#     4   9  18  32  52  73  97 128 160 194 239 290
#     4   8  16  29  41  58  89 128 161 187 226 280
#     4  10  18  27  45  72  99 125 158 200 240 278
#     4  10  20  33  47  64  94 132 165 195 237 289
#     4   8  14  28  48  71  99 129 159 193 235 284
#     4  10  20  32  49  74 100 123 159 203 241 282
#     4   8  15  26  45  74 102 126 157 197 236 276
#
# _framework density 17.845759000000001
#
# number of rings (size 3 to 8) (size 9 to 14) (size 15 to 20)
#    0.000    3.000    0.000    3.000    2.000    3.714 
#    0.000    0.000    0.000    2.571    0.000    5.000 
#    0.000    0.000    0.000    0.000    0.000    0.000 
#
# Total GULP energy -346978.642538 kJ/mol
# GULP energy per Si atom -12392.094376 kJ/mol
# Density = 1.780514 g / cm^3
# Si number density = 17.845759 Si / 1000 Ang^3
#
#
#
# Elastic Constant Matrix: (Units=GPa)
#
#
# Indices 1 2 3 4 5 6 
#
# 1 94.6390 28.1881 34.1656 0.0000 -7.2969 0.0000
# 2 28.1881 47.2070 13.5490 0.0000 -5.9933 0.0000
# 3 34.1656 13.5490 72.6123 0.0000 1.1574 0.0000
# 4 0.0000 0.0000 0.0000 9.6787 0.0000 0.8402
# 5 -7.2969 -5.9933 1.1574 0.0000 26.3861 0.0000
# 6 0.0000 0.0000 0.0000 0.8402 0.0000 6.0638
#
#
#
# Elastic Compliance Matrix: (Units=1/GPa)
#
#
# Indices 1 2 3 4 5 6 
#
# 1 0.014924 -0.006895 -0.005780 0.000000 0.002815 0.000000
# 2 -0.006895 0.026325 -0.001734 0.000000 0.004149 0.000000
# 3 -0.005780 -0.001734 0.016859 0.000000 -0.002732 0.000000
# 4 0.000000 0.000000 0.000000 0.104578 0.000000 -0.014491
# 5 0.002815 0.004149 -0.002732 0.000000 0.039739 0.000000
# 6 0.000000 0.000000 0.000000 -0.014491 0.000000 0.166920
#
#
# Mechanical properties :
#
#
# Convention : Reuss Voigt Hill
#
# Bulk Modulus (GPa) = 34.14270 40.69596 37.41933
# Shear Modulus (GPa) = 12.25713 17.66277 14.95995
#
# Velocity S-wave (km/s) = 2.62360 3.14944 2.89847
# Velocity P-wave (km/s) = 5.32460 6.00658 5.67584
#
# Compressibility (1/GPa) = 0.02928884
#
# Stress axis : x y z
#
# Youngs Moduli (GPa) = 67.00681 37.98709 59.31688
#
# Poissons Ratio (x) = 0.26192 0.34287
# Poissons Ratio (y) = 0.46201 0.10285
# Poissons Ratio (z) = 0.38732 0.06587
#
# Static dielectric constant tensor:
#      x y z
#    x 3.327440 0.000000 0.020480 
#    y 0.000000 3.061920 0.000000 
#    z 0.020480 0.000000 3.471900 
# 
# 
# High freq. dielectric constant tensor:
#      x y z
#    x 1.684840 0.000000 -0.009530 
#    y 0.000000 1.669750 0.000000 
#    z -0.009530 0.000000 1.666670 
# 
# From -- ./inp_files/244275.got.cif
#   From: 2010.06.25/outbox.cif.g09.slc.cpg/sg12_123_cif.got.tgz:244275.got - 2010.06.28 00:19:55.
