data_PCOD8080946
_publ_section_title
;
Structure prediction by ZEFSAII (Michael W. Deem and Ramdas Pophale) SiO2 
 PCOD8080946
Probable space group: C 2/M
;
_chemical_formula_sum "Si O2"
_cell_formula_units_Z 56
_cell_length_a 20.251805
_cell_length_b 9.150746
_cell_length_c 16.828367
_cell_angle_alpha 90.000000
_cell_angle_beta 89.496350
_cell_angle_gamma 90.000000
_cell_volume 3118.497737
_symmetry_space_group_name_H-M "C 2/M"
_symmetry_group_IT_number 12
_symmetry_cell_setting 'monoclinic'
loop_
_space_group_symop_operation_xyz
x,y,z
-x,y,-z
-x,-y,-z
x,-y,z
1/2+x,1/2+y,z
1/2-x,1/2+y,-z
1/2-x,1/2-y,-z
1/2+x,1/2-y,z
loop_
_atom_site_type_symbol
_atom_site_label
_atom_site_fract_x
_atom_site_fract_y
_atom_site_fract_z
Si Si1 0.682966 0.333357 0.504208
Si Si2 0.017531 0.171673 0.909175
Si Si3 0.819881 0.172114 0.323777
Si Si4 0.633382 0.168577 0.823975
Si Si5 0.111598 0.827114 0.176757
Si Si6 0.264443 0.667693 0.919891
Si Si7 0.320646 0.328897 0.667371
O O1 0.704116 0.500000 0.506796
O O2 0.750000 0.250000 0.500000
O O3 0.647222 0.296442 0.588634
O O4 0.645584 0.301219 0.420561
O O5 0.082977 0.258370 0.885735
O O6 0.958810 0.231226 0.852895
O O7 0.030319 0.000000 0.897308
O O8 0.000000 0.207849 0.000000
O O9 0.868360 0.249685 0.260748
O O10 0.746185 0.237377 0.320825
O O11 0.816631 0.000000 0.304973
O O12 0.706220 0.187697 0.857709
O O13 0.614359 0.000000 0.812078
O O14 0.169777 0.764588 0.120242
O O15 0.125414 0.779155 0.267763
O O16 0.112134 0.000000 0.168829
O O17 0.274913 0.500000 0.942467
O O18 0.250000 0.750000 0.000000
O O19 0.302498 0.500000 0.679702
#
# Coordination Sequence:
#
# PCOD8080946 Si02
#       7
#     8   8   8   8   8   8   8
#     4   8  15  25  43  71 102 134 164 203 250 301
#     4  10  21  37  56  75 100 135 173 213 258 305
#     4  10  18  29  47  76 107 133 169 209 252 302
#     4  11  22  36  54  75 103 137 172 210 255 305
#     4   9  17  32  53  74  99 132 169 207 252 307
#     4  10  20  34  52  75  99 128 165 207 255 303
#     4   9  15  29  50  73 104 136 168 207 256 305
#
# _framework density 17.957363999999998
#
# number of rings (size 3 to 8) (size 9 to 14) (size 15 to 20)
#    0.000    2.429    1.429    1.714    0.000    3.143 
#    0.000    1.429    0.000    0.857    0.000    6.000 
#    0.000    0.000    0.000    0.000    0.000    0.000 
#
# Total GULP energy -346950.650062 kJ/mol
# GULP energy per Si atom -12391.094645 kJ/mol
# Density = 1.791649 g / cm^3
# Si number density = 17.957364 Si / 1000 Ang^3
#
#
#
# Elastic Constant Matrix: (Units=GPa)
#
#
# Indices 1 2 3 4 5 6 
#
# 1 40.4238 18.1685 10.6675 0.0000 1.1615 0.0000
# 2 18.1685 62.0102 44.9035 0.0000 -5.6892 0.0000
# 3 10.6675 44.9035 130.0747 0.0000 6.6168 0.0000
# 4 0.0000 0.0000 0.0000 27.0018 0.0000 -4.2603
# 5 1.1615 -5.6892 6.6168 0.0000 26.8626 0.0000
# 6 0.0000 0.0000 0.0000 -4.2603 0.0000 19.7776
#
#
#
# Elastic Compliance Matrix: (Units=1/GPa)
#
#
# Indices 1 2 3 4 5 6 
#
# 1 0.028856 -0.009598 0.001128 0.000000 -0.003558 0.000000
# 2 -0.009598 0.025862 -0.008548 0.000000 0.007998 0.000000
# 3 0.001128 -0.008548 0.010776 0.000000 -0.004513 0.000000
# 4 0.000000 0.000000 0.000000 0.038338 0.000000 0.008258
# 5 -0.003558 0.007998 -0.004513 0.000000 0.040186 0.000000
# 6 0.000000 0.000000 0.000000 0.008258 0.000000 0.052341
#
#
# Mechanical properties :
#
#
# Convention : Reuss Voigt Hill
#
# Bulk Modulus (GPa) = 31.78776 42.22084 37.00430
# Shear Modulus (GPa) = 20.75729 25.31303 23.03516
#
# Velocity S-wave (km/s) = 3.40357 3.75856 3.58546
# Velocity P-wave (km/s) = 5.76073 6.51141 6.14754
#
# Compressibility (1/GPa) = 0.03145865
#
# Stress axis : x y z
#
# Youngs Moduli (GPa) = 34.65459 38.66727 92.80134
#
# Poissons Ratio (x) = 0.37112 -0.10466
# Poissons Ratio (y) = 0.33260 0.79322
# Poissons Ratio (z) = -0.03908 0.33051
#
# Static dielectric constant tensor:
#      x y z
#    x 3.156330 0.000000 0.251380 
#    y 0.000000 3.140630 0.000000 
#    z 0.251380 0.000000 4.067250 
# 
# 
# High freq. dielectric constant tensor:
#      x y z
#    x 1.653850 0.000000 0.007210 
#    y 0.000000 1.682660 0.000000 
#    z 0.007210 0.000000 1.722020 
# 
# From -- ./inp_files/280260.got.cif
#   From: 2010.06.25/outbox.cif.g09.slc.cpg/sg12_141_cif.got.tgz:280260.got - 2010.06.28 00:19:55.
