data_PCOD8080864
_publ_section_title
;
Structure prediction by ZEFSAII (Michael W. Deem and Ramdas Pophale) SiO2 
 PCOD8080864
Probable space group: C 2/M
;
_chemical_formula_sum "Si O2"
_cell_formula_units_Z 48
_cell_length_a 19.470565
_cell_length_b 9.081230
_cell_length_c 15.638472
_cell_angle_alpha 90.000000
_cell_angle_beta 89.253105
_cell_angle_gamma 90.000000
_cell_volume 2764.907745
_symmetry_space_group_name_H-M "C 2/M"
_symmetry_group_IT_number 12
_symmetry_cell_setting 'monoclinic'
loop_
_space_group_symop_operation_xyz
x,y,z
-x,y,-z
-x,-y,-z
x,-y,z
1/2+x,1/2+y,z
1/2-x,1/2+y,-z
1/2-x,1/2-y,-z
1/2+x,1/2-y,z
loop_
_atom_site_type_symbol
_atom_site_label
_atom_site_fract_x
_atom_site_fract_y
_atom_site_fract_z
Si Si1 0.177681 0.171910 0.492966
Si Si2 0.829270 0.674064 0.671054
Si Si3 0.927581 0.174795 0.174922
Si Si4 0.927701 0.673351 0.822503
Si Si5 0.418604 0.162241 0.008645
Si Si6 0.325854 0.329085 0.319495
O O1 0.250000 0.250000 0.500000
O O2 0.138082 0.248396 0.414263
O O3 0.141416 0.196425 0.586106
O O4 0.187225 0.000000 0.473659
O O5 0.830261 0.500000 0.655786
O O6 0.874298 0.721956 0.751083
O O7 0.751677 0.734938 0.686585
O O8 0.876401 0.240020 0.248037
O O9 0.002003 0.240131 0.193277
O O10 0.932927 0.000000 0.176362
O O11 0.897347 0.224404 0.083255
O O12 0.944366 0.500000 0.819118
O O13 0.892834 0.713770 0.914960
O O14 0.389275 0.000000 0.031802
O O15 0.500000 0.154220 0.000000
O O16 0.319611 0.500000 0.299113
#
# Coordination Sequence:
#
# PCOD8080864 Si02
#       6
#     8   8   8   8   8   8
#     4   9  16  29  48  68  91 120 154 186 220 267
#     4   9  17  32  51  68  89 119 155 189 222 265
#     4  10  18  29  47  69  92 118 150 187 224 266
#     4   9  18  32  49  67  90 121 152 185 227 270
#     4   8  15  29  46  64  88 120 154 182 218 270
#     4   8  16  30  47  67  91 120 149 180 225 273
#
# _framework density 17.360436
#
# number of rings (size 3 to 8) (size 9 to 14) (size 15 to 20)
#    0.000    3.167    0.000    3.000    0.000    3.667 
#    0.000   10.000    0.000    5.000    0.000    0.000 
#    0.000    0.000    0.000    0.000    0.000    0.000 
#
# Total GULP energy -297359.365409 kJ/mol
# GULP energy per Si atom -12389.973559 kJ/mol
# Density = 1.732092 g / cm^3
# Si number density = 17.360436 Si / 1000 Ang^3
#
#
#
# Elastic Constant Matrix: (Units=GPa)
#
#
# Indices 1 2 3 4 5 6 
#
# 1 57.6413 28.1116 65.8452 0.0000 1.2030 0.0000
# 2 28.1116 57.5132 55.5251 0.0000 -0.4811 0.0000
# 3 65.8452 55.5251 187.4238 0.0000 8.3243 0.0000
# 4 0.0000 0.0000 0.0000 31.9264 0.0000 1.8096
# 5 1.2030 -0.4811 8.3243 0.0000 31.7814 0.0000
# 6 0.0000 0.0000 0.0000 1.8096 0.0000 14.2871
#
#
#
# Elastic Compliance Matrix: (Units=1/GPa)
#
#
# Indices 1 2 3 4 5 6 
#
# 1 0.030612 -0.006337 -0.008925 0.000000 0.001083 0.000000
# 2 -0.006337 0.025829 -0.005518 0.000000 0.002076 0.000000
# 3 -0.008925 -0.005518 0.010213 0.000000 -0.002421 0.000000
# 4 0.000000 0.000000 0.000000 0.031549 0.000000 -0.003996
# 5 0.001083 0.002076 -0.002421 0.000000 0.032089 0.000000
# 6 0.000000 0.000000 0.000000 -0.003996 0.000000 0.070500
#
#
# Mechanical properties :
#
#
# Convention : Reuss Voigt Hill
#
# Bulk Modulus (GPa) = 39.84947 66.83800 53.34374
# Shear Modulus (GPa) = 19.94273 25.80540 22.87406
#
# Velocity S-wave (km/s) = 3.39299 3.85963 3.63381
# Velocity P-wave (km/s) = 6.19305 7.64501 6.95701
#
# Compressibility (1/GPa) = 0.02509444
#
# Stress axis : x y z
#
# Youngs Moduli (GPa) = 32.66659 38.71571 97.91057
#
# Poissons Ratio (x) = 0.24534 0.87389
# Poissons Ratio (y) = 0.20700 0.54027
# Poissons Ratio (z) = 0.29156 0.21363
#
# Static dielectric constant tensor:
#      x y z
#    x 2.846970 0.000000 -0.173350 
#    y 0.000000 3.169790 0.000000 
#    z -0.173350 0.000000 3.685810 
# 
# 
# High freq. dielectric constant tensor:
#      x y z
#    x 1.622740 0.000000 0.003590 
#    y 0.000000 1.657870 0.000000 
#    z 0.003590 0.000000 1.694190 
# 
# From -- ./inp_files/236318.got.cif
#   From: 2010.06.25/outbox.cif.g09.slc.cpg/sg12_119_cif.got.tgz:236318.got - 2010.06.28 00:19:55.
