data_PCOD8080667
_publ_section_title
;
Structure prediction by ZEFSAII (Michael W. Deem and Ramdas Pophale) SiO2 
 PCOD8080667
Probable space group: C 2/M
;
_chemical_formula_sum "Si O2"
_cell_formula_units_Z 64
_cell_length_a 29.651592
_cell_length_b 14.506960
_cell_length_c 10.107054
_cell_angle_alpha 90.000000
_cell_angle_beta 115.800783
_cell_angle_gamma 90.000000
_cell_volume 3914.194941
_symmetry_space_group_name_H-M "C 2/M"
_symmetry_group_IT_number 12
_symmetry_cell_setting 'monoclinic'
loop_
_space_group_symop_operation_xyz
x,y,z
-x,y,-z
-x,-y,-z
x,-y,z
1/2+x,1/2+y,z
1/2-x,1/2+y,-z
1/2-x,1/2-y,-z
1/2+x,1/2-y,z
loop_
_atom_site_type_symbol
_atom_site_label
_atom_site_fract_x
_atom_site_fract_y
_atom_site_fract_z
Si Si1 0.937118 0.896717 0.556324
Si Si2 0.730733 0.394777 0.079164
Si Si3 0.137793 0.222460 0.882613
Si Si4 0.813914 0.395211 0.973311
Si Si5 0.205167 0.395145 0.580709
Si Si6 0.452669 0.603469 0.264234
Si Si7 0.153054 0.223026 0.590537
Si Si8 0.251380 0.395291 0.359519
O O1 0.943203 0.896252 0.407563
O O2 0.893614 0.825570 0.543531
O O3 0.989771 0.867216 0.691241
O O4 0.922272 0.000000 0.583603
O O5 0.714690 0.500000 0.033848
O O6 0.754333 0.380057 0.252907
O O7 0.681645 0.333417 0.009859
O O8 0.769964 0.364327 0.017108
O O9 0.084752 0.175805 0.853815
O O10 0.144860 0.221559 0.735516
O O11 0.139184 0.327108 0.940316
O O12 0.831300 0.500000 0.024411
O O13 0.794818 0.383406 0.799842
O O14 0.184873 0.500000 0.553400
O O15 0.157817 0.327957 0.544592
O O16 0.231931 0.368526 0.478905
O O17 0.442769 0.500000 0.197062
O O18 0.203929 0.170718 0.622872
O O19 0.271479 0.500000 0.380367
#
# Coordination Sequence:
#
# PCOD8080667 Si02
#       8
#     8   8   8   8   8   8   8   8
#     4   8  15  27  43  65  92 117 146 184 225 267
#     4  10  18  29  44  65  91 119 150 183 222 266
#     4  11  18  26  45  68  91 119 152 183 222 270
#     4  10  19  30  44  64  91 121 153 185 218 262
#     4  10  21  33  43  62  95 126 152 184 219 260
#     4   8  15  27  42  65  94 118 142 182 230 268
#     4  11  18  27  46  67  88 121 155 183 221 268
#     4  10  20  32  45  65  92 121 154 188 219 258
#
# _framework density 16.350743999999999
#
# number of rings (size 3 to 8) (size 9 to 14) (size 15 to 20)
#    0.000    2.250    2.500    3.000    0.000    1.000 
#    0.000    0.000    0.000    0.750    0.000    7.000 
#    0.000   14.000    0.000    0.000    0.000    0.000 
#
# Total GULP energy -396731.576938 kJ/mol
# GULP energy per Si atom -12397.861779 kJ/mol
# Density = 1.631353 g / cm^3
# Si number density = 16.350744 Si / 1000 Ang^3
#
#
#
# Elastic Constant Matrix: (Units=GPa)
#
#
# Indices 1 2 3 4 5 6 
#
# 1 73.3377 63.3323 41.3167 0.0000 20.8544 0.0000
# 2 63.3323 114.5858 35.9177 0.0000 26.0962 0.0000
# 3 41.3167 35.9177 78.0136 0.0000 0.4252 0.0000
# 4 0.0000 0.0000 0.0000 24.5252 0.0000 4.3941
# 5 20.8544 26.0962 0.4252 0.0000 26.9562 0.0000
# 6 0.0000 0.0000 0.0000 4.3941 0.0000 28.4530
#
#
#
# Elastic Compliance Matrix: (Units=1/GPa)
#
#
# Indices 1 2 3 4 5 6 
#
# 1 0.036401 -0.012184 -0.013581 0.000000 -0.016152 0.000000
# 2 -0.012184 0.017746 -0.001676 0.000000 -0.007728 0.000000
# 3 -0.013581 -0.001676 0.020718 0.000000 0.011802 0.000000
# 4 0.000000 0.000000 0.000000 0.041935 0.000000 -0.006476
# 5 -0.016152 -0.007728 0.011802 0.000000 0.056889 0.000000
# 6 0.000000 0.000000 0.000000 -0.006476 0.000000 0.036146
#
#
# Mechanical properties :
#
#
# Convention : Reuss Voigt Hill
#
# Bulk Modulus (GPa) = 50.03774 60.78559 55.41167
# Shear Modulus (GPa) = 18.42452 24.34491 21.38472
#
# Velocity S-wave (km/s) = 3.36047 3.86284 3.62038
# Velocity P-wave (km/s) = 6.76211 7.55990 7.17211
#
# Compressibility (1/GPa) = 0.01998491
#
# Stress axis : x y z
#
# Youngs Moduli (GPa) = 27.47158 56.34969 48.26683
#
# Poissons Ratio (x) = 0.68654 0.65551
# Poissons Ratio (y) = 0.33470 0.08089
# Poissons Ratio (z) = 0.37309 0.09443
#
# Static dielectric constant tensor:
#      x y z
#    x 2.989580 0.000000 0.143170 
#    y 0.000000 3.425010 0.000000 
#    z 0.143170 0.000000 3.023250 
# 
# 
# High freq. dielectric constant tensor:
#      x y z
#    x 1.591150 0.000000 0.004530 
#    y 0.000000 1.640720 0.000000 
#    z 0.004530 0.000000 1.612420 
# 
# From -- ./inp_files/104680.got.cif
#   From: 2010.06.25/outbox.cif.g09.slc.cpg/sg12_53_cif.got.tgz:104680.got - 2010.06.28 00:19:55.
