data_PCOD8080307
_publ_section_title
;
Structure prediction by ZEFSAII (Michael W. Deem and Ramdas Pophale) SiO2 
 PCOD8080307
Probable space group: C 2/M
;
_chemical_formula_sum "Si O2"
_cell_formula_units_Z 56
_cell_length_a 27.388735
_cell_length_b 9.078300
_cell_length_c 17.120120
_cell_angle_alpha 90.000000
_cell_angle_beta 126.144211
_cell_angle_gamma 90.000000
_cell_volume 3437.515499
_symmetry_space_group_name_H-M "C 2/M"
_symmetry_group_IT_number 12
_symmetry_cell_setting 'monoclinic'
loop_
_space_group_symop_operation_xyz
x,y,z
-x,y,-z
-x,-y,-z
x,-y,z
1/2+x,1/2+y,z
1/2-x,1/2+y,-z
1/2-x,1/2-y,-z
1/2+x,1/2-y,z
loop_
_atom_site_type_symbol
_atom_site_label
_atom_site_fract_x
_atom_site_fract_y
_atom_site_fract_z
Si Si1 0.606186 0.666187 0.621283
Si Si2 0.738994 0.828969 0.109557
Si Si3 0.726040 0.171651 0.715790
Si Si4 0.341289 0.171519 0.109401
Si Si5 0.085487 0.831304 0.426722
Si Si6 0.452894 0.330681 0.273815
Si Si7 0.707877 0.173530 0.522645
O O1 0.632826 0.500000 0.651271
O O2 0.659595 0.783134 0.681621
O O3 0.573643 0.690348 0.507779
O O4 0.558774 0.695149 0.645303
O O5 0.726450 0.756359 0.182889
O O6 0.799330 0.759401 0.129688
O O7 0.751906 0.000000 0.132474
O O8 0.681159 0.799465 0.000228
O O9 0.733895 0.216814 0.632612
O O10 0.735681 0.000000 0.736947
O O11 0.409945 0.228951 0.180187
O O12 0.337812 0.000000 0.127439
O O13 0.139295 0.728561 0.446789
O O14 0.022952 0.788059 0.324303
O O15 0.103052 0.000000 0.424839
O O16 0.441040 0.500000 0.239701
O O17 0.750000 0.250000 0.500000
O O18 0.708473 0.000000 0.510280
#
# Coordination Sequence:
#
# PCOD8080307 Si02
#       7
#     8   8   8   8   8   8   8
#     4   9  16  27  43  64  93 128 162 191 222 270
#     4  10  19  31  45  64  91 128 167 198 235 279
#     4  10  19  30  47  71  96 122 156 198 239 278
#     4  10  20  30  43  64  94 129 165 203 234 267
#     4   9  18  31  47  68  95 126 159 194 231 279
#     4  10  18  28  44  67  95 130 165 192 228 276
#     4  10  21  36  53  74  97 121 153 195 242 288
#
# _framework density 16.290835999999999
#
# number of rings (size 3 to 8) (size 9 to 14) (size 15 to 20)
#    0.000    2.286    1.429    2.143    0.000    5.714 
#    0.000    0.000    0.000    4.286    0.000    1.000 
#    0.000    8.000    0.000    0.000    0.000    0.000 
#
# Total GULP energy -347132.179695 kJ/mol
# GULP energy per Si atom -12397.577846 kJ/mol
# Density = 1.625376 g / cm^3
# Si number density = 16.290836 Si / 1000 Ang^3
#
#
#
# Elastic Constant Matrix: (Units=GPa)
#
#
# Indices 1 2 3 4 5 6 
#
# 1 80.3547 46.9105 52.7193 0.0000 2.4518 0.0000
# 2 46.9105 90.7409 60.3436 0.0000 0.4923 0.0000
# 3 52.7193 60.3436 107.7152 0.0000 11.2562 0.0000
# 4 0.0000 0.0000 0.0000 28.8113 0.0000 2.5265
# 5 2.4518 0.4923 11.2562 0.0000 19.0539 0.0000
# 6 0.0000 0.0000 0.0000 2.5265 0.0000 22.6029
#
#
#
# Elastic Compliance Matrix: (Units=1/GPa)
#
#
# Indices 1 2 3 4 5 6 
#
# 1 0.020344 -0.006055 -0.006723 0.000000 0.001510 0.000000
# 2 -0.006055 0.019969 -0.008794 0.000000 0.005458 0.000000
# 3 -0.006723 -0.008794 0.018530 0.000000 -0.009855 0.000000
# 4 0.000000 0.000000 0.000000 0.035052 0.000000 -0.003918
# 5 0.001510 0.005458 -0.009855 0.000000 0.057969 0.000000
# 6 0.000000 0.000000 0.000000 -0.003918 0.000000 0.044680
#
#
# Mechanical properties :
#
#
# Convention : Reuss Voigt Hill
#
# Bulk Modulus (GPa) = 63.69261 66.52864 65.11063
# Shear Modulus (GPa) = 20.41467 22.01610 21.21539
#
# Velocity S-wave (km/s) = 3.54381 3.68018 3.61264
# Velocity P-wave (km/s) = 7.47843 7.68017 7.57997
#
# Compressibility (1/GPa) = 0.01570041
#
# Stress axis : x y z
#
# Youngs Moduli (GPa) = 49.15376 50.07774 53.96517
#
# Poissons Ratio (x) = 0.30321 0.36281
# Poissons Ratio (y) = 0.29761 0.47456
# Poissons Ratio (z) = 0.33046 0.44038
#
# Static dielectric constant tensor:
#      x y z
#    x 2.717060 0.000000 0.076070 
#    y 0.000000 3.151050 0.000000 
#    z 0.076070 0.000000 3.320830 
# 
# 
# High freq. dielectric constant tensor:
#      x y z
#    x 1.579620 0.000000 0.011220 
#    y 0.000000 1.635260 0.000000 
#    z 0.011220 0.000000 1.628640 
# 
# From -- ./inp_files/248571.got.cif
#   From: 2010.06.25/outbox.cif.g09.slc.cpg/sg12_125_cif.got.tgz:248571.got - 2010.06.28 00:19:55.
