data_PCOD8080351
_publ_section_title
;
Structure prediction by ZEFSAII (Michael W. Deem and Ramdas Pophale) SiO2 
 PCOD8080351
Probable space group: C 2/M
;
_chemical_formula_sum "Si O2"
_cell_formula_units_Z 56
_cell_length_a 27.128643
_cell_length_b 8.984513
_cell_length_c 16.140032
_cell_angle_alpha 90.000000
_cell_angle_beta 115.662056
_cell_angle_gamma 90.000000
_cell_volume 3545.905999
_symmetry_space_group_name_H-M "C 2/M"
_symmetry_group_IT_number 12
_symmetry_cell_setting 'monoclinic'
loop_
_space_group_symop_operation_xyz
x,y,z
-x,y,-z
-x,-y,-z
x,-y,z
1/2+x,1/2+y,z
1/2-x,1/2+y,-z
1/2-x,1/2-y,-z
1/2+x,1/2-y,z
loop_
_atom_site_type_symbol
_atom_site_label
_atom_site_fract_x
_atom_site_fract_y
_atom_site_fract_z
Si Si1 0.897209 0.827343 0.311276
Si Si2 0.016033 0.172940 0.323786
Si Si3 0.692262 0.174562 0.050447
Si Si4 0.587363 0.324329 0.041300
Si Si5 0.513977 0.675222 0.137908
Si Si6 0.804417 0.674840 0.137759
Si Si7 0.439949 0.832288 0.494071
O O1 0.851312 0.739754 0.228946
O O2 0.900071 0.763376 0.406549
O O3 0.953833 0.800568 0.305266
O O4 0.881809 0.000000 0.304607
O O5 0.023171 0.240088 0.236539
O O6 0.058155 0.260195 0.413377
O O7 0.031569 0.000000 0.340016
O O8 0.747265 0.252131 0.122474
O O9 0.698316 0.000000 0.068629
O O10 0.643005 0.235873 0.069557
O O11 0.681454 0.215065 0.946792
O O12 0.597731 0.500000 0.038597
O O13 0.542496 0.264552 0.942774
O O14 0.565504 0.285452 0.117435
O O15 0.506773 0.500000 0.138863
O O16 0.800071 0.500000 0.148666
O O17 0.500000 0.829401 0.500000
O O18 0.417413 0.000000 0.484275
#
# Coordination Sequence:
#
# PCOD8080351 Si02
#       7
#     8   8   8   8   8   8   8
#     4  10  18  28  45  67  90 116 146 182 221 260
#     4   9  16  27  43  64  90 119 150 182 217 257
#     4  10  20  32  45  64  90 117 147 184 221 256
#     4   9  16  29  47  65  88 119 152 183 217 257
#     4   8  15  27  45  67  89 117 152 184 215 257
#     4  10  20  32  46  64  87 117 150 181 217 262
#     4   9  17  28  41  60  88 119 148 179 217 261
#
# _framework density 15.792862
#
# number of rings (size 3 to 8) (size 9 to 14) (size 15 to 20)
#    0.000    2.714    0.000    3.429    0.000    5.143 
#    0.000    2.857    0.000    0.000    0.000    1.000 
#    0.000    0.000    0.000    0.000    0.000    0.000 
#
# Total GULP energy -347180.597022 kJ/mol
# GULP energy per Si atom -12399.307037 kJ/mol
# Density = 1.575692 g / cm^3
# Si number density = 15.792862 Si / 1000 Ang^3
#
#
#
# Elastic Constant Matrix: (Units=GPa)
#
#
# Indices 1 2 3 4 5 6 
#
# 1 66.9684 33.6702 29.8193 0.0000 -5.5956 0.0000
# 2 33.6702 65.5660 34.7132 0.0000 -1.3584 0.0000
# 3 29.8193 34.7132 100.0072 0.0000 -15.2918 0.0000
# 4 0.0000 0.0000 0.0000 27.9775 0.0000 4.5275
# 5 -5.5956 -1.3584 -15.2918 0.0000 21.3548 0.0000
# 6 0.0000 0.0000 0.0000 4.5275 0.0000 22.0737
#
#
#
# Elastic Compliance Matrix: (Units=1/GPa)
#
#
# Indices 1 2 3 4 5 6 
#
# 1 0.021048 -0.009400 -0.002539 0.000000 0.003099 0.000000
# 2 -0.009400 0.023175 -0.006056 0.000000 -0.005325 0.000000
# 3 -0.002539 -0.006056 0.014259 0.000000 0.009160 0.000000
# 4 0.000000 0.000000 0.000000 0.036970 0.000000 -0.007583
# 5 0.003099 -0.005325 0.009160 0.000000 0.053860 0.000000
# 6 0.000000 0.000000 0.000000 -0.007583 0.000000 0.046858
#
#
# Mechanical properties :
#
#
# Convention : Reuss Voigt Hill
#
# Bulk Modulus (GPa) = 44.46041 47.66080 46.06060
# Shear Modulus (GPa) = 20.86304 23.23714 22.05009
#
# Velocity S-wave (km/s) = 3.63856 3.84000 3.74064
# Velocity P-wave (km/s) = 6.77241 7.06435 6.91992
#
# Compressibility (1/GPa) = 0.02249192
#
# Stress axis : x y z
#
# Youngs Moduli (GPa) = 47.50971 43.15007 70.13150
#
# Poissons Ratio (x) = 0.40563 0.17808
# Poissons Ratio (y) = 0.44661 0.42468
# Poissons Ratio (z) = 0.12064 0.26130
#
# Static dielectric constant tensor:
#      x y z
#    x 2.818530 0.000000 -0.132440 
#    y 0.000000 2.981510 0.000000 
#    z -0.132440 0.000000 3.206050 
# 
# 
# High freq. dielectric constant tensor:
#      x y z
#    x 1.575310 0.000000 -0.002010 
#    y 0.000000 1.605400 0.000000 
#    z -0.002010 0.000000 1.605930 
# 
# From -- ./inp_files/243697.got.cif
#   From: 2010.06.25/outbox.cif.g09.slc.cpg/sg12_122_cif.got.tgz:243697.got - 2010.06.28 00:19:55.
