data_PCOD8080053
_publ_section_title
;
Structure prediction by ZEFSAII (Michael W. Deem and Ramdas Pophale) SiO2 
 PCOD8080053
Probable space group: C 2/M
;
_chemical_formula_sum "Si O2"
_cell_formula_units_Z 56
_cell_length_a 26.634458
_cell_length_b 9.534457
_cell_length_c 13.419218
_cell_angle_alpha 90.000000
_cell_angle_beta 61.812903
_cell_angle_gamma 90.000000
_cell_volume 3003.619636
_symmetry_space_group_name_H-M "C 2/M"
_symmetry_group_IT_number 12
_symmetry_cell_setting 'monoclinic'
loop_
_space_group_symop_operation_xyz
x,y,z
-x,y,-z
-x,-y,-z
x,-y,z
1/2+x,1/2+y,z
1/2-x,1/2+y,-z
1/2-x,1/2-y,-z
1/2+x,1/2-y,z
loop_
_atom_site_type_symbol
_atom_site_label
_atom_site_fract_x
_atom_site_fract_y
_atom_site_fract_z
Si Si1 0.910247 0.161903 0.753247
Si Si2 0.975783 0.162736 0.272903
Si Si3 0.908519 0.159063 0.534144
Si Si4 0.618524 0.158107 0.723437
Si Si5 0.685930 0.837526 0.459361
Si Si6 0.772956 0.662106 0.274424
Si Si7 0.218170 0.833468 0.114878
O O1 0.935560 0.181660 0.617891
O O2 0.846930 0.225613 0.824037
O O3 0.958681 0.220714 0.784683
O O4 0.904270 0.000000 0.783717
O O5 0.953252 0.189536 0.405544
O O6 0.937356 0.243811 0.227813
O O7 0.973260 0.000000 0.246038
O O8 0.856753 0.267427 0.579387
O O9 0.884339 0.000000 0.547946
O O10 0.661133 0.187058 0.592072
O O11 0.658058 0.186050 0.783829
O O12 0.595137 0.000000 0.742909
O O13 0.745486 0.757495 0.387238
O O14 0.694077 0.000000 0.426248
O O15 0.759115 0.500000 0.311973
O O16 0.749720 0.705199 0.188232
O O17 0.221051 0.000000 0.093103
O O18 0.250000 0.750000 0.000000
#
# Coordination Sequence:
#
# PCOD8080053 Si02
#       7
#     8   8   8   8   8   8   8
#     4   9  16  30  51  73  97 128 166 206 246 292
#     4   9  17  28  48  75 101 131 167 201 235 289
#     4   9  15  27  46  69 100 135 169 197 235 294
#     4   9  19  32  46  70 105 138 166 196 238 293
#     4  10  18  27  43  72 106 133 164 204 242 285
#     4  10  19  34  53  69  94 135 171 202 246 299
#     4  10  21  37  56  76  97 123 164 214 259 297
#
# _framework density 18.644171
#
# number of rings (size 3 to 8) (size 9 to 14) (size 15 to 20)
#    0.000    2.571    1.429    1.286    0.000    3.429 
#    0.000    1.429    0.000    4.286    0.000    6.000 
#    0.000    0.000    0.000    0.000    0.000    0.000 
#
# Total GULP energy -346914.870754 kJ/mol
# GULP energy per Si atom -12389.816813 kJ/mol
# Density = 1.860174 g / cm^3
# Si number density = 18.644171 Si / 1000 Ang^3
#
#
#
# Elastic Constant Matrix: (Units=GPa)
#
#
# Indices 1 2 3 4 5 6 
#
# 1 173.7244 51.2400 32.3445 0.0000 -11.9582 0.0000
# 2 51.2400 58.8776 19.6722 0.0000 -3.0008 0.0000
# 3 32.3445 19.6722 37.5067 0.0000 -4.4781 0.0000
# 4 0.0000 0.0000 0.0000 20.4742 0.0000 -1.5607
# 5 -11.9582 -3.0008 -4.4781 0.0000 12.6542 0.0000
# 6 0.0000 0.0000 0.0000 -1.5607 0.0000 26.2848
#
#
#
# Elastic Compliance Matrix: (Units=1/GPa)
#
#
# Indices 1 2 3 4 5 6 
#
# 1 0.008560 -0.005969 -0.003606 0.000000 0.005397 0.000000
# 2 -0.005969 0.024771 -0.008162 0.000000 -0.002655 0.000000
# 3 -0.003606 -0.008162 0.034889 0.000000 0.007003 0.000000
# 4 0.000000 0.000000 0.000000 0.049064 0.000000 0.002913
# 5 0.005397 -0.002655 0.007003 0.000000 0.085975 0.000000
# 6 0.000000 0.000000 0.000000 0.002913 0.000000 0.038218
#
#
# Mechanical properties :
#
#
# Convention : Reuss Voigt Hill
#
# Bulk Modulus (GPa) = 30.53900 52.95801 41.74851
# Shear Modulus (GPa) = 17.36920 23.00611 20.18766
#
# Velocity S-wave (km/s) = 3.05555 3.51658 3.29414
# Velocity P-wave (km/s) = 5.37252 6.70483 6.07531
#
# Compressibility (1/GPa) = 0.03274502
#
# Stress axis : x y z
#
# Youngs Moduli (GPa) = 116.82377 40.36966 28.66248
#
# Poissons Ratio (x) = 0.24098 0.10337
# Poissons Ratio (y) = 0.69737 0.23393
# Poissons Ratio (z) = 0.42131 0.32948
#
# Static dielectric constant tensor:
#      x y z
#    x 3.892170 0.000000 -0.110210 
#    y 0.000000 3.274470 0.000000 
#    z -0.110210 0.000000 3.018920 
# 
# 
# High freq. dielectric constant tensor:
#      x y z
#    x 1.743240 0.000000 -0.004260 
#    y 0.000000 1.701230 0.000000 
#    z -0.004260 0.000000 1.672620 
# 
# From -- ./inp_files/243627.got.cif
#   From: 2010.06.25/outbox.cif.g09.slc.cpg/sg12_122_cif.got.tgz:243627.got - 2010.06.28 00:19:55.
