data_PCOD8080984
_publ_section_title
;
Structure prediction by ZEFSAII (Michael W. Deem and Ramdas Pophale) SiO2 
 PCOD8080984
Probable space group: C 2/M
;
_chemical_formula_sum "Si O2"
_cell_formula_units_Z 56
_cell_length_a 27.274662
_cell_length_b 9.215535
_cell_length_c 14.159790
_cell_angle_alpha 90.000000
_cell_angle_beta 76.335108
_cell_angle_gamma 90.000000
_cell_volume 3458.328874
_symmetry_space_group_name_H-M "C 2/M"
_symmetry_group_IT_number 12
_symmetry_cell_setting 'monoclinic'
loop_
_space_group_symop_operation_xyz
x,y,z
-x,y,-z
-x,-y,-z
x,-y,z
1/2+x,1/2+y,z
1/2-x,1/2+y,-z
1/2-x,1/2-y,-z
1/2+x,1/2-y,z
loop_
_atom_site_type_symbol
_atom_site_label
_atom_site_fract_x
_atom_site_fract_y
_atom_site_fract_z
Si Si1 0.319358 0.832142 0.276983
Si Si2 0.207266 0.836810 0.384184
Si Si3 0.556882 0.670835 0.460531
Si Si4 0.135762 0.835156 0.582431
Si Si5 0.296789 0.669749 0.098980
Si Si6 0.129716 0.332639 0.301173
Si Si7 0.684845 0.833923 0.091262
O O1 0.266462 0.807200 0.353852
O O2 0.362071 0.766370 0.326431
O O3 0.320685 0.749960 0.177317
O O4 0.331243 0.000000 0.253428
O O5 0.187685 0.819401 0.500003
O O6 0.179742 0.722168 0.330421
O O7 0.194557 0.000000 0.353828
O O8 0.500000 0.726006 0.500000
O O9 0.559385 0.500000 0.441668
O O10 0.588969 0.714884 0.538270
O O11 0.580142 0.746277 0.357020
O O12 0.127947 0.000000 0.620097
O O13 0.307472 0.500000 0.103835
O O14 0.237409 0.706041 0.119264
O O15 0.324713 0.729269 0.992851
O O16 0.122269 0.500000 0.330316
O O17 0.138763 0.310944 0.185144
O O18 0.687439 0.000000 0.054521
#
# Coordination Sequence:
#
# PCOD8080984 Si02
#       7
#     8   8   8   8   8   8   8
#     4  11  20  29  43  65  94 128 161 194 231 273
#     4   9  18  30  43  62  91 128 163 191 224 271
#     4   9  19  36  54  72  95 122 154 194 238 284
#     4   9  18  31  46  65  90 121 157 193 230 277
#     4  10  19  30  45  64  91 129 166 198 229 269
#     4  10  18  29  48  72  97 123 155 196 238 278
#     4   9  18  31  44  65  94 125 160 198 235 270
#
# _framework density 16.192792000000001
#
# number of rings (size 3 to 8) (size 9 to 14) (size 15 to 20)
#    0.000    2.429    1.429    2.571    0.000    4.857 
#    0.000    0.000    0.000    0.000    0.000    1.000 
#    0.000    8.000    0.000    0.000    0.000    0.000 
#
# Total GULP energy -347190.957765 kJ/mol
# GULP energy per Si atom -12399.677063 kJ/mol
# Density = 1.615594 g / cm^3
# Si number density = 16.192792 Si / 1000 Ang^3
#
#
#
# Elastic Constant Matrix: (Units=GPa)
#
#
# Indices 1 2 3 4 5 6 
#
# 1 64.6019 38.3484 48.9366 0.0000 1.2388 0.0000
# 2 38.3484 88.2397 60.5692 0.0000 7.7917 0.0000
# 3 48.9366 60.5692 98.9262 0.0000 9.5153 0.0000
# 4 0.0000 0.0000 0.0000 31.6169 0.0000 4.8984
# 5 1.2388 7.7917 9.5153 0.0000 20.7029 0.0000
# 6 0.0000 0.0000 0.0000 4.8984 0.0000 19.5778
#
#
#
# Elastic Compliance Matrix: (Units=1/GPa)
#
#
# Indices 1 2 3 4 5 6 
#
# 1 0.026116 -0.004474 -0.010663 0.000000 0.005022 0.000000
# 2 -0.004474 0.020390 -0.010000 0.000000 -0.002810 0.000000
# 3 -0.010663 -0.010000 0.022058 0.000000 -0.005736 0.000000
# 4 0.000000 0.000000 0.000000 0.032904 0.000000 -0.008233
# 5 0.005022 -0.002810 -0.005736 0.000000 0.051696 0.000000
# 6 0.000000 0.000000 0.000000 -0.008233 0.000000 0.053138
#
#
# Mechanical properties :
#
#
# Convention : Reuss Voigt Hill
#
# Bulk Modulus (GPa) = 54.67754 60.83070 57.75412
# Shear Modulus (GPa) = 19.03505 21.30707 20.17106
#
# Velocity S-wave (km/s) = 3.43231 3.63138 3.53325
# Velocity P-wave (km/s) = 7.03901 7.43173 7.23803
#
# Compressibility (1/GPa) = 0.01828904
#
# Stress axis : x y z
#
# Youngs Moduli (GPa) = 38.29041 49.04395 45.33551
#
# Poissons Ratio (x) = 0.21944 0.48340
# Poissons Ratio (y) = 0.17133 0.45337
# Poissons Ratio (z) = 0.40828 0.49046
#
# Static dielectric constant tensor:
#      x y z
#    x 2.757870 0.000000 -0.006130 
#    y 0.000000 3.103070 0.000000 
#    z -0.006130 0.000000 3.014000 
# 
# 
# High freq. dielectric constant tensor:
#      x y z
#    x 1.577790 0.000000 0.009930 
#    y 0.000000 1.633140 0.000000 
#    z 0.009930 0.000000 1.615960 
# 
# From -- ./inp_files/248138.got.cif
#   From: 2010.06.25/outbox.cif.g09.slc.cpg/sg12_125_cif.got.tgz:248138.got - 2010.06.28 00:19:55.
