data_PCOD8080819
_publ_section_title
;
Structure prediction by ZEFSAII (Michael W. Deem and Ramdas Pophale) SiO2 
 PCOD8080819
Probable space group: C 2/M
;
_chemical_formula_sum "Si O2"
_cell_formula_units_Z 48
_cell_length_a 23.885429
_cell_length_b 8.660505
_cell_length_c 20.459781
_cell_angle_alpha 90.000000
_cell_angle_beta 39.516745
_cell_angle_gamma 90.000000
_cell_volume 2693.033124
_symmetry_space_group_name_H-M "C 2/M"
_symmetry_group_IT_number 12
_symmetry_cell_setting 'monoclinic'
loop_
_space_group_symop_operation_xyz
x,y,z
-x,y,-z
-x,-y,-z
x,-y,z
1/2+x,1/2+y,z
1/2-x,1/2+y,-z
1/2-x,1/2-y,-z
1/2+x,1/2-y,z
loop_
_atom_site_type_symbol
_atom_site_label
_atom_site_fract_x
_atom_site_fract_y
_atom_site_fract_z
Si Si1 0.917375 0.681255 0.116955
Si Si2 0.237386 0.678734 0.279145
Si Si3 0.270104 0.680279 0.577312
Si Si4 0.089136 0.820953 0.738241
Si Si5 0.954892 0.180191 0.361276
Si Si6 0.053132 0.677946 0.389684
O O1 0.900619 0.500000 0.125502
O O2 0.832352 0.771622 0.164751
O O3 0.937074 0.720809 0.175131
O O4 0.000000 0.735765 0.000000
O O5 0.240968 0.500000 0.298132
O O6 0.218275 0.791109 0.356354
O O7 0.158003 0.705117 0.299922
O O8 0.252980 0.500000 0.579582
O O9 0.187937 0.780113 0.625484
O O10 0.357881 0.744838 0.464474
O O11 0.025525 0.784954 0.733296
O O12 0.084467 0.000000 0.761859
O O13 0.027312 0.252539 0.343159
O O14 0.955050 0.000000 0.375241
O O15 0.027634 0.500000 0.410137
O O16 0.000000 0.750592 0.500000
#
# Coordination Sequence:
#
# PCOD8080819 Si02
#       6
#     8   8   8   8   8   8
#     4  10  21  37  57  79 100 125 162 211 264 310
#     4  10  19  32  51  76 103 133 171 210 248 293
#     4  10  18  29  46  70 101 137 172 204 245 293
#     4  10  20  33  49  73 102 131 168 209 253 302
#     4  10  21  32  46  71 103 140 174 205 244 293
#     4  10  20  33  49  72 104 141 177 208 241 288
#
# _framework density 17.823767
#
# number of rings (size 3 to 8) (size 9 to 14) (size 15 to 20)
#    0.000    2.000    1.667    4.500    0.000    5.000 
#    0.000    0.000    0.000    1.000    0.000    0.000 
#    0.000    0.000    0.000    0.000    0.000    0.000 
#
# Total GULP energy -297484.406856 kJ/mol
# GULP energy per Si atom -12395.183619 kJ/mol
# Density = 1.778320 g / cm^3
# Si number density = 17.823767 Si / 1000 Ang^3
#
#
#
# Elastic Constant Matrix: (Units=GPa)
#
#
# Indices 1 2 3 4 5 6 
#
# 1 132.0378 25.2247 47.1079 -0.0028 0.5957 0.0016
# 2 25.2247 36.3846 19.1866 -0.0088 -5.4243 0.0070
# 3 47.1079 19.1866 89.4781 0.0013 -12.1978 0.0009
# 4 -0.0028 -0.0088 0.0013 23.1070 -0.0008 -2.0527
# 5 0.5957 -5.4243 -12.1978 -0.0008 10.6083 -0.0003
# 6 0.0016 0.0070 0.0009 -2.0527 -0.0003 29.9807
#
#
#
# Elastic Compliance Matrix: (Units=1/GPa)
#
#
# Indices 1 2 3 4 5 6 
#
# 1 0.010850 -0.005989 -0.005845 -0.000001 -0.010392 0.000001
# 2 -0.005989 0.035165 -0.002241 0.000013 0.015740 -0.000007
# 3 -0.005845 -0.002241 0.017340 -0.000002 0.019120 0.000000
# 4 -0.000001 0.000013 -0.000002 0.043542 0.000008 0.002981
# 5 -0.010392 0.015740 0.019120 0.000008 0.124883 -0.000002
# 6 0.000001 -0.000007 0.000000 0.002981 -0.000002 0.033559
#
#
# Mechanical properties :
#
#
# Convention : Reuss Voigt Hill
#
# Bulk Modulus (GPa) = 28.40564 48.99321 38.69942
# Shear Modulus (GPa) = 16.38141 23.83128 20.10635
#
# Velocity S-wave (km/s) = 3.03492 3.66054 3.36231
# Velocity P-wave (km/s) = 5.31531 6.73894 6.06901
#
# Compressibility (1/GPa) = 0.03520428
#
# Stress axis : x y z
#
# Youngs Moduli (GPa) = 92.16683 28.43743 57.66992
#
# Poissons Ratio (x) = 0.17032 0.33706
# Poissons Ratio (y) = 0.55201 0.12926
# Poissons Ratio (z) = 0.53868 0.06374
#
# Static dielectric constant tensor:
#      x y z
#    x 3.356930 0.000000 -0.069560 
#    y 0.000000 3.258770 0.000000 
#    z -0.069560 0.000000 3.168510 
# 
# 
# High freq. dielectric constant tensor:
#      x y z
#    x 1.690430 0.000000 0.000640 
#    y 0.000000 1.694040 0.000000 
#    z 0.000640 0.000000 1.654530 
# 
# From -- ./inp_files/323518.got.cif
#   From: 2010.06.25/outbox.cif.g09.slc.cpg/sg12_162_cif.got.tgz:323518.got - 2010.06.28 00:19:55.
