data_PCOD8080685
_publ_section_title
;
Structure prediction by ZEFSAII (Michael W. Deem and Ramdas Pophale) SiO2 
 PCOD8080685
Probable space group: C 2/M
;
_chemical_formula_sum "Si O2"
_cell_formula_units_Z 64
_cell_length_a 31.762900
_cell_length_b 9.071073
_cell_length_c 30.492491
_cell_angle_alpha 90.000000
_cell_angle_beta 29.264586
_cell_angle_gamma 90.000000
_cell_volume 4294.784890
_symmetry_space_group_name_H-M "C 2/M"
_symmetry_group_IT_number 12
_symmetry_cell_setting 'monoclinic'
loop_
_space_group_symop_operation_xyz
x,y,z
-x,y,-z
-x,-y,-z
x,-y,z
1/2+x,1/2+y,z
1/2-x,1/2+y,-z
1/2-x,1/2-y,-z
1/2+x,1/2-y,z
loop_
_atom_site_type_symbol
_atom_site_label
_atom_site_fract_x
_atom_site_fract_y
_atom_site_fract_z
Si Si1 0.295538 0.169263 0.998119
Si Si2 0.211341 0.827982 0.469273
Si Si3 0.585931 0.172300 0.332716
Si Si4 0.455389 0.831824 0.800100
Si Si5 0.613298 0.173284 0.480589
Si Si6 0.602162 0.333642 0.403887
Si Si7 0.330324 0.827913 0.833955
Si Si8 0.630716 0.671334 0.635212
O O1 0.398215 0.184187 0.896572
O O2 0.267336 0.000000 0.023625
O O3 0.250000 0.250000 0.000000
O O4 0.260559 0.244105 0.074639
O O5 0.171819 0.743679 0.464414
O O6 0.306337 0.765058 0.391229
O O7 0.151169 0.797217 0.565829
O O8 0.218203 0.000000 0.452200
O O9 0.485550 0.211742 0.418881
O O10 0.629823 0.258852 0.333038
O O11 0.633495 0.224553 0.245545
O O12 0.597743 0.000000 0.331004
O O13 0.400118 0.787076 0.807618
O O14 0.534186 0.721077 0.732963
O O15 0.488410 0.000000 0.764892
O O16 0.641734 0.241940 0.408218
O O17 0.629603 0.000000 0.464105
O O18 0.500000 0.330187 0.500000
O O19 0.637858 0.500000 0.372954
O O20 0.310330 0.000000 0.852662
O O21 0.641802 0.500000 0.636568
#
# Coordination Sequence:
#
# PCOD8080685 Si02
#       8
#     8   8   8   8   8   8   8   8
#     4   9  17  28  41  58  81 109 140 172 208 248
#     4  10  20  32  44  60  84 110 138 175 213 246
#     4   9  17  28  42  61  85 113 142 172 208 248
#     4   9  17  29  43  59  82 112 142 173 210 248
#     4  10  18  29  45  61  81 111 144 174 207 249
#     4   9  17  28  41  59  83 109 139 174 208 244
#     4   9  17  28  42  61  85 112 142 174 208 247
#     4  10  20  31  44  62  82 108 142 176 209 246
#
# _framework density 14.901794000000001
#
# number of rings (size 3 to 8) (size 9 to 14) (size 15 to 20)
#    0.000    2.625    0.000    3.375    0.000    7.500 
#    0.000    0.000    0.000    0.000    0.000    0.000 
#    0.000    1.000    0.000   10.500    0.000    5.750 
#
# Total GULP energy -396753.501183 kJ/mol
# GULP energy per Si atom -12398.546912 kJ/mol
# Density = 1.486788 g / cm^3
# Si number density = 14.901794 Si / 1000 Ang^3
#
#
#
# Elastic Constant Matrix: (Units=GPa)
#
#
# Indices 1 2 3 4 5 6 
#
# 1 94.3722 50.3920 42.0232 0.0101 14.0183 -0.0027
# 2 50.3920 82.6177 42.5788 0.0581 6.6747 -0.0278
# 3 42.0232 42.5788 86.6200 0.0226 13.9706 -0.0122
# 4 0.0101 0.0581 0.0226 26.1805 -0.0150 1.1207
# 5 14.0183 6.6747 13.9706 -0.0150 20.4844 0.0014
# 6 -0.0027 -0.0278 -0.0122 1.1207 0.0014 27.8461
#
#
#
# Elastic Compliance Matrix: (Units=1/GPa)
#
#
# Indices 1 2 3 4 5 6 
#
# 1 0.017636 -0.008523 -0.003222 0.000011 -0.007094 -0.000008
# 2 -0.008523 0.020330 -0.006439 -0.000035 0.003600 0.000018
# 3 -0.003222 -0.006439 0.017505 -0.000004 -0.007635 0.000001
# 4 0.000011 -0.000035 -0.000004 0.038262 0.000035 -0.001540
# 5 -0.007094 0.003600 -0.007635 0.000035 0.057707 -0.000005
# 6 -0.000008 0.000018 0.000001 -0.001540 -0.000005 0.035974
#
#
# Mechanical properties :
#
#
# Convention : Reuss Voigt Hill
#
# Bulk Modulus (GPa) = 52.35085 59.28866 55.81976
# Shear Modulus (GPa) = 21.72493 23.47660 22.60076
#
# Velocity S-wave (km/s) = 3.82235 3.97346 3.89864
# Velocity P-wave (km/s) = 7.39509 7.80537 7.60300
#
# Compressibility (1/GPa) = 0.01910188
#
# Stress axis : x y z
#
# Youngs Moduli (GPa) = 56.70182 49.18743 57.12798
#
# Poissons Ratio (x) = 0.41924 0.18408
# Poissons Ratio (y) = 0.48328 0.36786
# Poissons Ratio (z) = 0.18270 0.31673
#
# Static dielectric constant tensor:
#      x y z
#    x 2.712160 0.000000 0.136630 
#    y 0.000000 3.033290 0.000060 
#    z 0.136630 0.000060 2.823680 
# 
# 
# High freq. dielectric constant tensor:
#      x y z
#    x 1.543190 0.000000 0.015100 
#    y 0.000000 1.585710 0.000000 
#    z 0.015100 0.000000 1.550640 
# 
# From -- ./inp_files/248478.got.cif
#   From: 2010.06.25/outbox.cif.g09.slc.cpg/sg12_125_cif.got.tgz:248478.got - 2010.06.28 00:19:55.
