data_PCOD8080448
_publ_section_title
;
Structure prediction by ZEFSAII (Michael W. Deem and Ramdas Pophale) SiO2 
 PCOD8080448
Probable space group: C 2/M
;
_chemical_formula_sum "Si O2"
_cell_formula_units_Z 48
_cell_length_a 26.805266
_cell_length_b 9.249726
_cell_length_c 11.876724
_cell_angle_alpha 90.000000
_cell_angle_beta 107.472120
_cell_angle_gamma 90.000000
_cell_volume 2808.870581
_symmetry_space_group_name_H-M "C 2/M"
_symmetry_group_IT_number 12
_symmetry_cell_setting 'monoclinic'
loop_
_space_group_symop_operation_xyz
x,y,z
-x,y,-z
-x,-y,-z
x,-y,z
1/2+x,1/2+y,z
1/2-x,1/2+y,-z
1/2-x,1/2-y,-z
1/2+x,1/2-y,z
loop_
_atom_site_type_symbol
_atom_site_label
_atom_site_fract_x
_atom_site_fract_y
_atom_site_fract_z
Si Si1 0.695580 0.669621 0.956090
Si Si2 0.555565 0.171419 0.496118
Si Si3 0.040653 0.339306 0.890610
Si Si4 0.424216 0.833902 0.738128
Si Si5 0.885733 0.832093 0.908074
Si Si6 0.380515 0.164135 0.250003
O O1 0.704188 0.500000 0.943808
O O2 0.663770 0.729833 0.827399
O O3 0.750000 0.750000 0.000000
O O4 0.665302 0.702864 0.051846
O O5 0.500000 0.237862 0.500000
O O6 0.571981 0.232927 0.384886
O O7 0.602508 0.212462 0.613276
O O8 0.548685 0.000000 0.482258
O O9 0.051972 0.500000 0.947565
O O10 0.066469 0.325071 0.785799
O O11 0.979453 0.314051 0.837240
O O12 0.063324 0.221734 0.990713
O O13 0.381659 0.747398 0.784248
O O14 0.406553 0.000000 0.720941
O O15 0.892030 0.000000 0.889366
O O16 0.358565 0.000000 0.233929
#
# Coordination Sequence:
#
# PCOD8080448 Si02
#       6
#     8   8   8   8   8   8
#     4  10  21  37  56  75  95 121 159 209 260 304
#     4   9  15  27  48  74 103 136 173 205 230 270
#     4   9  16  27  45  69  97 131 169 202 231 275
#     4  10  18  28  46  71 100 135 171 201 228 273
#     4  10  21  33  45  67  99 129 158 199 252 300
#     4   9  16  29  51  76 102 131 164 203 245 285
#
# _framework density 17.088718
#
# number of rings (size 3 to 8) (size 9 to 14) (size 15 to 20)
#    0.000    2.500    1.667    1.500    0.000    4.667 
#    0.000    0.833    0.000    2.000    0.000    0.000 
#    0.000    0.000    0.000    0.000    0.000    0.000 
#
# Total GULP energy -297542.971259 kJ/mol
# GULP energy per Si atom -12397.623802 kJ/mol
# Density = 1.704982 g / cm^3
# Si number density = 17.088718 Si / 1000 Ang^3
#
#
#
# Elastic Constant Matrix: (Units=GPa)
#
#
# Indices 1 2 3 4 5 6 
#
# 1 79.1966 51.5981 58.3157 0.0000 -3.4960 0.0000
# 2 51.5981 79.3633 54.2515 0.0000 -5.2751 0.0000
# 3 58.3157 54.2515 110.0494 0.0000 -22.3791 0.0000
# 4 0.0000 0.0000 0.0000 17.5768 0.0000 -4.0137
# 5 -3.4960 -5.2751 -22.3791 0.0000 23.0527 0.0000
# 6 0.0000 0.0000 0.0000 -4.0137 0.0000 22.9209
#
#
#
# Elastic Compliance Matrix: (Units=1/GPa)
#
#
# Indices 1 2 3 4 5 6 
#
# 1 0.027436 -0.010929 -0.010981 0.000000 -0.009000 0.000000
# 2 -0.010929 0.024028 -0.006570 0.000000 -0.002537 0.000000
# 3 -0.010981 -0.006570 0.021804 0.000000 0.017999 0.000000
# 4 0.000000 0.000000 0.000000 0.059263 0.000000 0.010378
# 5 -0.009000 -0.002537 0.017999 0.000000 0.058906 0.000000
# 6 0.000000 0.000000 0.000000 0.010378 0.000000 0.045446
#
#
# Mechanical properties :
#
#
# Convention : Reuss Voigt Hill
#
# Bulk Modulus (GPa) = 61.31589 66.32666 63.82127
# Shear Modulus (GPa) = 16.70680 19.67299 18.18990
#
# Velocity S-wave (km/s) = 3.13013 3.39665 3.26611
# Velocity P-wave (km/s) = 7.00160 7.36752 7.18689
#
# Compressibility (1/GPa) = 0.01630899
#
# Stress axis : x y z
#
# Youngs Moduli (GPa) = 36.44884 41.61750 45.86235
#
# Poissons Ratio (x) = 0.45485 0.50360
# Poissons Ratio (y) = 0.39836 0.30130
# Poissons Ratio (z) = 0.40023 0.27341
#
# Static dielectric constant tensor:
#      x y z
#    x 3.039150 0.000000 -0.241900 
#    y 0.000000 3.051700 0.000000 
#    z -0.241900 0.000000 3.300810 
# 
# 
# High freq. dielectric constant tensor:
#      x y z
#    x 1.635770 0.000000 -0.018690 
#    y 0.000000 1.640480 0.000000 
#    z -0.018690 0.000000 1.658960 
# 
# From -- ./inp_files/172280.got.cif
#   From: 2010.06.25/outbox.cif.g09.slc.cpg/sg12_87_cif.got.tgz:172280.got - 2010.06.28 00:19:55.
