data_PCOD8080815
_publ_section_title
;
Structure prediction by ZEFSAII (Michael W. Deem and Ramdas Pophale) SiO2 
 PCOD8080815
Probable space group: C 2/M
;
_chemical_formula_sum "Si O2"
_cell_formula_units_Z 64
_cell_length_a 34.540014
_cell_length_b 12.078170
_cell_length_c 8.329601
_cell_angle_alpha 90.000000
_cell_angle_beta 95.020358
_cell_angle_gamma 90.000000
_cell_volume 3461.613244
_symmetry_space_group_name_H-M "C 2/M"
_symmetry_group_IT_number 12
_symmetry_cell_setting 'monoclinic'
loop_
_space_group_symop_operation_xyz
x,y,z
-x,y,-z
-x,-y,-z
x,-y,z
1/2+x,1/2+y,z
1/2-x,1/2+y,-z
1/2-x,1/2-y,-z
1/2+x,1/2-y,z
loop_
_atom_site_type_symbol
_atom_site_label
_atom_site_fract_x
_atom_site_fract_y
_atom_site_fract_z
Si Si1 0.582306 0.372190 0.717508
Si Si2 0.233877 0.125851 0.749298
Si Si3 0.578144 0.372798 0.341675
Si Si4 0.655922 0.625751 0.232589
Si Si5 0.498577 0.371156 0.185981
Si Si6 0.279147 0.868885 0.081832
Si Si7 0.736245 0.365996 0.391778
Si Si8 0.160552 0.803434 0.881173
O O1 0.587046 0.500000 0.775826
O O2 0.585536 0.361126 0.530452
O O3 0.541208 0.320024 0.758365
O O4 0.616294 0.298386 0.806788
O O5 0.247628 0.177201 0.578895
O O6 0.187337 0.134918 0.758194
O O7 0.246619 0.000000 0.739244
O O8 0.253890 0.174325 0.919545
O O9 0.574837 0.500000 0.283928
O O10 0.614957 0.315111 0.265218
O O11 0.537077 0.315599 0.278597
O O12 0.652212 0.500000 0.288963
O O13 0.692566 0.677430 0.339982
O O14 0.663335 0.628793 0.046442
O O15 0.497386 0.500000 0.230543
O O16 0.500000 0.347820 0.000000
O O17 0.263208 0.822954 0.251092
O O18 0.322759 0.820699 0.082818
O O19 0.280587 0.000000 0.086187
O O20 0.737495 0.500000 0.388757
#
# Coordination Sequence:
#
# PCOD8080815 Si02
#       8
#     8   8   8   8   8   8   8   8
#     4  10  19  30  45  69 100 129 160 194 229 279
#     4  10  19  33  52  72  95 123 157 197 242 291
#     4   9  17  29  44  67 100 135 159 184 226 277
#     4  10  18  29  46  70 100 125 155 195 232 281
#     4   9  16  27  44  65  94 133 164 184 218 273
#     4  10  22  39  50  65  93 124 166 209 245 287
#     4   9  18  33  51  69  94 128 158 195 241 281
#     4  12  21  31  48  71  93 126 163 198 245 281
#
# _framework density 18.488489000000001
#
# number of rings (size 3 to 8) (size 9 to 14) (size 15 to 20)
#    0.000    2.125    1.250    3.375    0.000    6.000 
#    2.250    0.000    0.000    0.000    0.000    0.000 
#    0.000    6.500    0.000    0.000    0.000    0.250 
#
# Total GULP energy -396643.205993 kJ/mol
# GULP energy per Si atom -12395.100187 kJ/mol
# Density = 1.844641 g / cm^3
# Si number density = 18.488489 Si / 1000 Ang^3
#
#
#
# Elastic Constant Matrix: (Units=GPa)
#
#
# Indices 1 2 3 4 5 6 
#
# 1 156.4798 24.8141 65.8868 0.0000 4.9417 0.0000
# 2 24.8141 28.6681 39.1384 0.0000 -1.1342 0.0000
# 3 65.8868 39.1384 107.6999 0.0000 1.2048 0.0000
# 4 0.0000 0.0000 0.0000 26.4304 0.0000 -0.0511
# 5 4.9417 -1.1342 1.2048 0.0000 36.8024 0.0000
# 6 0.0000 0.0000 0.0000 -0.0511 0.0000 19.7860
#
#
#
# Elastic Compliance Matrix: (Units=1/GPa)
#
#
# Indices 1 2 3 4 5 6 
#
# 1 0.008649 -0.000632 -0.005050 0.000000 -0.001016 0.000000
# 2 -0.000632 0.069597 -0.024939 0.000000 0.003046 0.000000
# 3 -0.005050 -0.024939 0.021447 0.000000 -0.000793 0.000000
# 4 0.000000 0.000000 0.000000 0.037835 0.000000 0.000098
# 5 -0.001016 0.003046 -0.000793 0.000000 0.027428 0.000000
# 6 0.000000 0.000000 0.000000 0.000098 0.000000 0.050541
#
#
# Mechanical properties :
#
#
# Convention : Reuss Voigt Hill
#
# Bulk Modulus (GPa) = 26.00779 61.39183 43.69981
# Shear Modulus (GPa) = 17.26772 27.47102 22.36937
#
# Velocity S-wave (km/s) = 3.05941 3.85885 3.48215
# Velocity P-wave (km/s) = 5.15534 7.28916 6.31305
#
# Compressibility (1/GPa) = 0.03845003
#
# Stress axis : x y z
#
# Youngs Moduli (GPa) = 115.61550 14.36838 46.62750
#
# Poissons Ratio (x) = 0.00908 0.23549
# Poissons Ratio (y) = 0.07305 1.16286
# Poissons Ratio (z) = 0.58390 0.35834
#
# Static dielectric constant tensor:
#      x y z
#    x 3.658280 0.000000 -0.051670 
#    y 0.000000 3.054180 0.000000 
#    z -0.051670 0.000000 3.690300 
# 
# 
# High freq. dielectric constant tensor:
#      x y z
#    x 1.716550 0.000000 -0.004260 
#    y 0.000000 1.665220 0.000000 
#    z -0.004260 0.000000 1.745930 
# 
# From -- ./inp_files/111181.got.cif
#   From: 2010.06.25/outbox.cif.g09.slc.cpg/sg12_56_cif.got.tgz:111181.got - 2010.06.28 00:19:55.
