data_PCOD8080755
_publ_section_title
;
Structure prediction by ZEFSAII (Michael W. Deem and Ramdas Pophale) SiO2 
 PCOD8080755
Probable space group: C 2/M
;
_chemical_formula_sum "Si O2"
_cell_formula_units_Z 64
_cell_length_a 32.639245
_cell_length_b 9.042912
_cell_length_c 34.507288
_cell_angle_alpha 90.000000
_cell_angle_beta 156.324967
_cell_angle_gamma 90.000000
_cell_volume 4089.756930
_symmetry_space_group_name_H-M "C 2/M"
_symmetry_group_IT_number 12
_symmetry_cell_setting 'monoclinic'
loop_
_space_group_symop_operation_xyz
x,y,z
-x,y,-z
-x,-y,-z
x,-y,z
1/2+x,1/2+y,z
1/2-x,1/2+y,-z
1/2-x,1/2-y,-z
1/2+x,1/2-y,z
loop_
_atom_site_type_symbol
_atom_site_label
_atom_site_fract_x
_atom_site_fract_y
_atom_site_fract_z
Si Si1 0.646393 0.831433 0.444523
Si Si2 0.349193 0.168598 0.634874
Si Si3 0.270387 0.173601 0.786541
Si Si4 0.901506 0.333471 0.514426
Si Si5 0.541623 0.325011 0.576546
Si Si6 0.661611 0.328835 0.299439
Si Si7 0.576823 0.333198 0.030908
Si Si8 0.580619 0.826356 0.153997
O O1 0.590105 0.810488 0.353807
O O2 0.733068 0.708139 0.523745
O O3 0.570755 0.812012 0.415837
O O4 0.692304 0.000000 0.486567
O O5 0.389133 0.273340 0.704055
O O6 0.355567 0.000000 0.654946
O O7 0.155807 0.234116 0.682343
O O8 0.318553 0.254885 0.865441
O O9 0.330495 0.213751 0.799402
O O10 0.274539 0.000000 0.798435
O O11 0.925871 0.500000 0.521911
O O12 0.782284 0.297673 0.404782
O O13 0.969016 0.221776 0.548534
O O14 0.500000 0.258963 0.500000
O O15 0.542415 0.500000 0.575214
O O16 0.635979 0.500000 0.271524
O O17 0.611378 0.237025 0.221825
O O18 0.600837 0.500000 0.038568
O O19 0.500000 0.329120 0.000000
O O20 0.526482 0.245801 0.951606
O O21 0.563877 0.000000 0.142727
#
# Coordination Sequence:
#
# PCOD8080755 Si02
#       8
#     8   8   8   8   8   8   8   8
#     4   8  15  27  40  56  80 107 137 175 212 247
#     4   9  15  24  40  59  79 107 140 170 206 252
#     4   9  18  31  45  61  83 111 144 181 214 246
#     4   9  18  30  42  58  82 113 146 178 212 248
#     4  10  20  32  44  60  84 113 147 184 214 241
#     4  10  19  29  40  59  89 116 140 174 212 251
#     4   9  17  29  45  64  84 106 135 172 214 257
#     4  10  18  29  46  64  83 110 142 173 211 257
#
# _framework density 15.648851000000001
#
# number of rings (size 3 to 8) (size 9 to 14) (size 15 to 20)
#    0.000    2.750    0.000    3.000    0.000    6.750 
#    0.000    0.000    0.000    0.000    0.000    0.000 
#    0.000    1.000    0.000    3.000    0.000    4.875 
#
# Total GULP energy -396611.483698 kJ/mol
# GULP energy per Si atom -12394.108866 kJ/mol
# Density = 1.561323 g / cm^3
# Si number density = 15.648851 Si / 1000 Ang^3
#
#
#
# Elastic Constant Matrix: (Units=GPa)
#
#
# Indices 1 2 3 4 5 6 
#
# 1 81.2204 26.7331 44.9875 -0.0006 -20.5746 0.0001
# 2 26.7331 54.2541 36.0602 0.0013 -9.4941 -0.0030
# 3 44.9875 36.0602 96.4733 -0.0034 -13.8698 -0.0016
# 4 -0.0006 0.0013 -0.0034 23.5191 -0.0011 -4.7877
# 5 -20.5746 -9.4941 -13.8698 -0.0011 20.5431 -0.0003
# 6 0.0001 -0.0030 -0.0016 -4.7877 -0.0003 22.9413
#
#
#
# Elastic Compliance Matrix: (Units=1/GPa)
#
#
# Indices 1 2 3 4 5 6 
#
# 1 0.020659 -0.003449 -0.006201 0.000000 0.014910 -0.000001
# 2 -0.003449 0.025718 -0.007523 -0.000002 0.003353 0.000002
# 3 -0.006201 -0.007523 0.016254 0.000003 0.001287 0.000001
# 4 0.000000 -0.000002 0.000003 0.044405 0.000004 0.009267
# 5 0.014910 0.003353 0.001287 0.000004 0.066029 0.000002
# 6 -0.000001 0.000002 0.000001 0.009267 0.000002 0.045523
#
#
# Mechanical properties :
#
#
# Convention : Reuss Voigt Hill
#
# Bulk Modulus (GPa) = 35.35327 49.72328 42.53828
# Shear Modulus (GPa) = 19.05760 21.67850 20.36805
#
# Velocity S-wave (km/s) = 3.49352 3.72601 3.61164
# Velocity P-wave (km/s) = 6.23808 7.09607 6.68086
#
# Compressibility (1/GPa) = 0.02828592
#
# Stress axis : x y z
#
# Youngs Moduli (GPa) = 48.40493 38.88362 61.52290
#
# Poissons Ratio (x) = 0.13410 0.38151
# Poissons Ratio (y) = 0.16694 0.46282
# Poissons Ratio (z) = 0.30016 0.29251
#
# Static dielectric constant tensor:
#      x y z
#    x 2.989860 0.000000 -0.290110 
#    y 0.000000 3.047390 0.000000 
#    z -0.290110 0.000000 2.911330 
# 
# 
# High freq. dielectric constant tensor:
#      x y z
#    x 1.579460 0.000000 -0.033830 
#    y 0.000000 1.611290 0.000000 
#    z -0.033830 0.000000 1.570490 
# 
# From -- ./inp_files/248246.got.cif
#   From: 2010.06.25/outbox.cif.g09.slc.cpg/sg12_125_cif.got.tgz:248246.got - 2010.06.28 00:19:55.
