data_PCOD8080875
_publ_section_title
;
Structure prediction by ZEFSAII (Michael W. Deem and Ramdas Pophale) SiO2 
 PCOD8080875
Probable space group: C 2/M
;
_chemical_formula_sum "Si O2"
_cell_formula_units_Z 48
_cell_length_a 27.972378
_cell_length_b 8.695353
_cell_length_c 11.883545
_cell_angle_alpha 90.000000
_cell_angle_beta 108.550124
_cell_angle_gamma 90.000000
_cell_volume 2740.260787
_symmetry_space_group_name_H-M "C 2/M"
_symmetry_group_IT_number 12
_symmetry_cell_setting 'monoclinic'
loop_
_space_group_symop_operation_xyz
x,y,z
-x,y,-z
-x,-y,-z
x,-y,z
1/2+x,1/2+y,z
1/2-x,1/2+y,-z
1/2-x,1/2-y,-z
1/2+x,1/2-y,z
loop_
_atom_site_type_symbol
_atom_site_label
_atom_site_fract_x
_atom_site_fract_y
_atom_site_fract_z
Si Si1 0.812629 0.682385 0.753738
Si Si2 0.873532 0.672353 0.600311
Si Si3 0.137243 0.820031 0.758398
Si Si4 0.709638 0.173729 0.641589
Si Si5 0.442545 0.816440 0.459744
Si Si6 0.196377 0.681336 0.996093
O O1 0.805377 0.500000 0.733377
O O2 0.861972 0.738542 0.717328
O O3 0.765763 0.769162 0.662855
O O4 0.817850 0.729222 0.887413
O O5 0.893143 0.500000 0.630008
O O6 0.819977 0.679881 0.497315
O O7 0.916396 0.753459 0.554433
O O8 0.184369 0.786379 0.713166
O O9 0.085869 0.747259 0.671227
O O10 0.150159 0.746935 0.888704
O O11 0.129478 0.000000 0.766678
O O12 0.709002 0.000000 0.689809
O O13 0.500000 0.760414 0.500000
O O14 0.437484 0.000000 0.452981
O O15 0.200050 0.500000 0.984801
O O16 0.250000 0.750000 0.000000
#
# Coordination Sequence:
#
# PCOD8080875 Si02
#       6
#     8   8   8   8   8   8
#     4  10  19  30  46  68  99 135 167 200 243 296
#     4   8  16  30  47  72 100 126 159 201 250 303
#     4  11  21  33  50  73 102 134 171 210 247 293
#     4  10  18  29  47  69  99 133 166 204 244 294
#     4   9  18  35  59  81 100 124 158 207 262 307
#     4  11  21  32  48  70 101 139 176 209 242 289
#
# _framework density 17.516580000000001
#
# number of rings (size 3 to 8) (size 9 to 14) (size 15 to 20)
#    0.000    2.167    1.667    4.000    0.000    1.000 
#    0.000    3.333    0.000    1.000    0.000    7.000 
#    0.000    0.000    0.000    0.000    0.000    0.000 
#
# Total GULP energy -297418.881678 kJ/mol
# GULP energy per Si atom -12392.453403 kJ/mol
# Density = 1.747671 g / cm^3
# Si number density = 17.516580 Si / 1000 Ang^3
#
#
#
# Elastic Constant Matrix: (Units=GPa)
#
#
# Indices 1 2 3 4 5 6 
#
# 1 127.8573 29.6882 76.4439 0.0000 -2.9667 0.0000
# 2 29.6882 54.0870 30.7109 0.0000 -1.2497 0.0000
# 3 76.4439 30.7109 104.4841 0.0000 -13.8834 0.0000
# 4 0.0000 0.0000 0.0000 20.4900 0.0000 4.1792
# 5 -2.9667 -1.2497 -13.8834 0.0000 26.0780 0.0000
# 6 0.0000 0.0000 0.0000 4.1792 0.0000 17.9759
#
#
#
# Elastic Compliance Matrix: (Units=1/GPa)
#
#
# Indices 1 2 3 4 5 6 
#
# 1 0.014517 -0.002070 -0.010553 0.000000 -0.004066 0.000000
# 2 -0.002070 0.022652 -0.005413 0.000000 -0.002032 0.000000
# 3 -0.010553 -0.005413 0.020111 0.000000 0.009247 0.000000
# 4 0.000000 0.000000 0.000000 0.051234 0.000000 -0.011911
# 5 -0.004066 -0.002032 0.009247 0.000000 0.042710 0.000000
# 6 0.000000 0.000000 0.000000 -0.011911 0.000000 0.058399
#
#
# Mechanical properties :
#
#
# Convention : Reuss Voigt Hill
#
# Bulk Modulus (GPa) = 47.15339 62.23495 54.69417
# Shear Modulus (GPa) = 19.78123 22.88114 21.33118
#
# Velocity S-wave (km/s) = 3.36413 3.61814 3.49344
# Velocity P-wave (km/s) = 6.48595 7.28429 6.89668
#
# Compressibility (1/GPa) = 0.02120738
#
# Stress axis : x y z
#
# Youngs Moduli (GPa) = 68.88504 44.14637 49.72299
#
# Poissons Ratio (x) = 0.09140 0.52472
# Poissons Ratio (y) = 0.14261 0.26917
# Poissons Ratio (z) = 0.72693 0.23898
#
# Static dielectric constant tensor:
#      x y z
#    x 3.222410 0.000000 -0.186360 
#    y 0.000000 3.133430 0.000000 
#    z -0.186360 0.000000 3.421870 
# 
# 
# High freq. dielectric constant tensor:
#      x y z
#    x 1.653380 0.000000 -0.016710 
#    y 0.000000 1.664900 0.000000 
#    z -0.016710 0.000000 1.674360 
# 
# From -- ./inp_files/185723.got.cif
#   From: 2010.06.25/outbox.cif.g09.slc.cpg/sg12_93_cif.got.tgz:185723.got - 2010.06.28 00:19:55.
