data_PCOD8080292
_publ_section_title
;
Structure prediction by ZEFSAII (Michael W. Deem and Ramdas Pophale) SiO2 
 PCOD8080292
Probable space group: C 2/M
;
_chemical_formula_sum "Si O2"
_cell_formula_units_Z 52
_cell_length_a 28.071336
_cell_length_b 9.770767
_cell_length_c 19.970146
_cell_angle_alpha 90.000000
_cell_angle_beta 33.024481
_cell_angle_gamma 90.000000
_cell_volume 2985.158202
_symmetry_space_group_name_H-M "C 2/M"
_symmetry_group_IT_number 12
_symmetry_cell_setting 'monoclinic'
loop_
_space_group_symop_operation_xyz
x,y,z
-x,y,-z
-x,-y,-z
x,-y,z
1/2+x,1/2+y,z
1/2-x,1/2+y,-z
1/2-x,1/2-y,-z
1/2+x,1/2-y,z
loop_
_atom_site_type_symbol
_atom_site_label
_atom_site_fract_x
_atom_site_fract_y
_atom_site_fract_z
Si Si1 0.876252 0.841945 0.342611
Si Si2 0.279032 0.158915 0.563726
Si Si3 0.063561 0.157975 0.152432
Si Si4 0.000000 0.245953 0.500000
Si Si5 0.821211 0.655281 0.658031
Si Si6 0.603148 0.346447 0.253192
Si Si7 0.244117 0.164001 0.884102
O O1 0.823721 0.826468 0.334632
O O2 0.835218 0.745833 0.446507
O O3 0.976785 0.792721 0.215226
O O4 0.873475 0.000000 0.370798
O O5 0.297115 0.225357 0.615607
O O6 0.308497 0.000000 0.524347
O O7 0.050442 0.187433 0.247064
O O8 0.077661 0.000000 0.121716
O O9 0.151384 0.224915 0.018119
O O10 0.076879 0.336118 0.441827
O O11 0.039603 0.157047 0.392620
O O12 0.795375 0.500000 0.678080
O O13 0.759229 0.714040 0.789699
O O14 0.642346 0.500000 0.203095
O O15 0.680519 0.236281 0.161722
O O16 0.255376 0.000000 0.878522
#
# Coordination Sequence:
#
# PCOD8080292 Si02
#       7
#     8   8   8   4   8   8   8
#     4   9  17  30  48  68  90 116 146 181 221 264
#     4   9  17  30  47  68  92 115 144 183 223 260
#     4   9  17  30  47  66  88 117 150 183 219 260
#     4  10  18  28  44  66  93 120 147 176 219 268
#     4   9  17  29  45  66  91 118 147 182 220 259
#     4  10  19  30  45  66  92 117 146 184 221 260
#     4   9  18  32  47  63  88 120 151 180 216 263
#
# _framework density 17.419512000000001
#
# number of rings (size 3 to 8) (size 9 to 14) (size 15 to 20)
#    0.000    2.769    0.000    1.846    0.000    0.615 
#    0.000    5.385    0.000    4.615    0.000    0.000 
#    0.000    9.846    0.000    0.000    0.000    0.000 
#
# Total GULP energy -322126.930307 kJ/mol
# GULP energy per Si atom -12389.497320 kJ/mol
# Density = 1.737986 g / cm^3
# Si number density = 17.419512 Si / 1000 Ang^3
#
#
#
# Elastic Constant Matrix: (Units=GPa)
#
#
# Indices 1 2 3 4 5 6 
#
# 1 126.6567 19.5703 60.4483 -0.0003 -5.4033 0.0001
# 2 19.5703 38.1292 17.8733 -0.0056 -3.4131 0.0031
# 3 60.4483 17.8733 113.2327 -0.0098 -13.4928 0.0048
# 4 -0.0003 -0.0056 -0.0098 16.4427 0.0028 -0.7198
# 5 -5.4033 -3.4131 -13.4928 0.0028 25.0336 -0.0002
# 6 0.0001 0.0031 0.0048 -0.7198 -0.0002 19.0695
#
#
#
# Elastic Compliance Matrix: (Units=1/GPa)
#
#
# Indices 1 2 3 4 5 6 
#
# 1 0.010948 -0.003147 -0.005469 -0.000004 -0.001014 0.000002
# 2 -0.003147 0.029283 -0.002722 0.000008 0.001846 -0.000004
# 3 -0.005469 -0.002722 0.012819 0.000006 0.005358 -0.000003
# 4 -0.000004 0.000008 0.000006 0.060918 -0.000003 0.002299
# 5 -0.001014 0.001846 0.005358 -0.000003 0.042867 -0.000001
# 6 0.000002 -0.000004 -0.000003 0.002299 -0.000001 0.052527
#
#
# Mechanical properties :
#
#
# Convention : Reuss Voigt Hill
#
# Bulk Modulus (GPa) = 32.92206 52.64469 42.78338
# Shear Modulus (GPa) = 20.64729 24.11760 22.38245
#
# Velocity S-wave (km/s) = 3.44655 3.72495 3.58845
# Velocity P-wave (km/s) = 5.89736 6.98481 6.46399
#
# Compressibility (1/GPa) = 0.03037477
#
# Stress axis : x y z
#
# Youngs Moduli (GPa) = 91.33797 34.14943 78.00933
#
# Poissons Ratio (x) = 0.10745 0.42662
# Poissons Ratio (y) = 0.28740 0.21238
# Poissons Ratio (z) = 0.49951 0.09297
#
# Static dielectric constant tensor:
#      x y z
#    x 3.579740 -0.000010 -0.029040 
#    y -0.000010 3.024310 0.000020 
#    z -0.029040 0.000020 3.377510 
# 
# 
# High freq. dielectric constant tensor:
#      x y z
#    x 1.679030 0.000000 -0.001730 
#    y 0.000000 1.646010 0.000000 
#    z -0.001730 0.000000 1.666470 
# 
# From -- ./inp_files/329252.got.cif
#   From: 2010.06.25/outbox.cif.g09.slc.cpg/sg12_165_cif.got.tgz:329252.got - 2010.06.28 00:19:55.
