data_PCOD8080066
_publ_section_title
;
Structure prediction by ZEFSAII (Michael W. Deem and Ramdas Pophale) SiO2 
 PCOD8080066
Probable space group: C 2/M
;
_chemical_formula_sum "Si O2"
_cell_formula_units_Z 64
_cell_length_a 19.336864
_cell_length_b 8.950014
_cell_length_c 26.870104
_cell_angle_alpha 90.000000
_cell_angle_beta 129.428699
_cell_angle_gamma 90.000000
_cell_volume 3591.948574
_symmetry_space_group_name_H-M "C 2/M"
_symmetry_group_IT_number 12
_symmetry_cell_setting 'monoclinic'
loop_
_space_group_symop_operation_xyz
x,y,z
-x,y,-z
-x,-y,-z
x,-y,z
1/2+x,1/2+y,z
1/2-x,1/2+y,-z
1/2-x,1/2-y,-z
1/2+x,1/2-y,z
loop_
_atom_site_type_symbol
_atom_site_label
_atom_site_fract_x
_atom_site_fract_y
_atom_site_fract_z
Si Si1 0.249344 0.172058 0.614833
Si Si2 0.755337 0.325570 0.181128
Si Si3 0.058959 0.825211 0.070855
Si Si4 0.776997 0.673102 0.736089
Si Si5 0.064279 0.674441 0.788709
Si Si6 0.163130 0.827991 0.479945
Si Si7 0.575297 0.324543 0.344712
Si Si8 0.034468 0.175212 0.170677
O O1 0.221303 0.198041 0.659461
O O2 0.161560 0.204205 0.539101
O O3 0.331549 0.279246 0.638526
O O4 0.280949 0.000000 0.622076
O O5 0.746582 0.500000 0.189334
O O6 0.660694 0.262053 0.117008
O O7 0.778083 0.245302 0.243758
O O8 0.832021 0.292713 0.176094
O O9 0.012364 0.791832 0.102694
O O10 0.064785 0.000000 0.063114
O O11 0.000000 0.748964 0.000000
O O12 0.792425 0.500000 0.754756
O O13 0.872704 0.749753 0.771749
O O14 0.045258 0.500000 0.786587
O O15 0.005824 0.734407 0.716307
O O16 0.043847 0.756938 0.831169
O O17 0.250000 0.750000 0.500000
O O18 0.079081 0.781409 0.406143
O O19 0.178097 0.000000 0.476008
O O20 0.558620 0.500000 0.328239
O O21 0.042361 0.000000 0.184599
#
# Coordination Sequence:
#
# PCOD8080066 Si02
#       8
#     8   8   8   8   8   8   8   8
#     4   9  16  27  44  67  96 126 158 201 252 300
#     4   9  20  35  51  72  99 132 166 201 243 292
#     4   8  15  32  57  79  98 125 161 197 237 288
#     4  10  18  29  49  74  99 128 162 203 249 295
#     4  11  21  33  48  69 101 135 166 204 249 291
#     4   8  15  26  39  61  92 123 158 200 246 295
#     4  10  18  27  44  68  94 127 165 205 247 293
#     4  10  19  31  51  77 102 129 164 201 237 285
#
# _framework density 17.817626000000001
#
# number of rings (size 3 to 8) (size 9 to 14) (size 15 to 20)
#    0.000    2.625    1.250    2.250    0.000    2.000 
#    0.000    0.625    0.000   10.125    0.000    5.250 
#    0.000    0.000    0.000    0.000    0.000    0.000 
#
# Total GULP energy -396449.974132 kJ/mol
# GULP energy per Si atom -12389.061692 kJ/mol
# Density = 1.777707 g / cm^3
# Si number density = 17.817626 Si / 1000 Ang^3
#
#
#
# Elastic Constant Matrix: (Units=GPa)
#
#
# Indices 1 2 3 4 5 6 
#
# 1 89.1366 39.1712 45.6470 0.0000 -10.2304 0.0000
# 2 39.1712 62.4200 29.9445 0.0000 -6.7436 0.0000
# 3 45.6470 29.9445 126.9620 0.0000 -19.4365 0.0000
# 4 0.0000 0.0000 0.0000 16.8340 0.0000 -4.4616
# 5 -10.2304 -6.7436 -19.4365 0.0000 21.0089 0.0000
# 6 0.0000 0.0000 0.0000 -4.4616 0.0000 23.7140
#
#
#
# Elastic Compliance Matrix: (Units=1/GPa)
#
#
# Indices 1 2 3 4 5 6 
#
# 1 0.017272 -0.008783 -0.003824 0.000000 0.002054 0.000000
# 2 -0.008783 0.022615 -0.002003 0.000000 0.001129 0.000000
# 3 -0.003824 -0.002003 0.010881 0.000000 0.007562 0.000000
# 4 0.000000 0.000000 0.000000 0.062521 0.000000 0.011763
# 5 0.002054 0.001129 0.007562 0.000000 0.055957 0.000000
# 6 0.000000 0.000000 0.000000 0.011763 0.000000 0.044382
#
#
# Mechanical properties :
#
#
# Convention : Reuss Voigt Hill
#
# Bulk Modulus (GPa) = 46.40708 56.44933 51.42821
# Shear Modulus (GPa) = 19.99741 23.22845 21.61293
#
# Velocity S-wave (km/s) = 3.35377 3.61457 3.48661
# Velocity P-wave (km/s) = 6.41086 7.01218 6.71825
#
# Compressibility (1/GPa) = 0.02154844
#
# Stress axis : x y z
#
# Youngs Moduli (GPa) = 57.89596 44.21833 91.89999
#
# Poissons Ratio (x) = 0.38836 0.35144
# Poissons Ratio (y) = 0.50848 0.18411
# Poissons Ratio (z) = 0.22140 0.08858
#
# Static dielectric constant tensor:
#      x y z
#    x 3.044760 0.000000 -0.232940 
#    y 0.000000 3.249770 0.000000 
#    z -0.232940 0.000000 3.833490 
# 
# 
# High freq. dielectric constant tensor:
#      x y z
#    x 1.650940 0.000000 -0.023040 
#    y 0.000000 1.686670 0.000000 
#    z -0.023040 0.000000 1.695210 
# 
# From -- ./inp_files/365232.got.cif
#   From: 2010.06.25/outbox.cif.g09.slc.cpg/sg12_183_cif.got.tgz:365232.got - 2010.06.28 00:19:55.
