data_PCOD8080889
_publ_section_title
;
Structure prediction by ZEFSAII (Michael W. Deem and Ramdas Pophale) SiO2 
 PCOD8080889
Probable space group: C 2/M
;
_chemical_formula_sum "Si O2"
_cell_formula_units_Z 56
_cell_length_a 30.965858
_cell_length_b 10.650167
_cell_length_c 28.212024
_cell_angle_alpha 90.000000
_cell_angle_beta 18.895184
_cell_angle_gamma 90.000000
_cell_volume 3013.016060
_symmetry_space_group_name_H-M "C 2/M"
_symmetry_group_IT_number 12
_symmetry_cell_setting 'monoclinic'
loop_
_space_group_symop_operation_xyz
x,y,z
-x,y,-z
-x,-y,-z
x,-y,z
1/2+x,1/2+y,z
1/2-x,1/2+y,-z
1/2-x,1/2-y,-z
1/2+x,1/2-y,z
loop_
_atom_site_type_symbol
_atom_site_label
_atom_site_fract_x
_atom_site_fract_y
_atom_site_fract_z
Si Si1 0.389044 0.149949 0.151432
Si Si2 0.045946 0.731837 0.180051
Si Si3 0.846655 0.138491 0.445502
Si Si4 0.699210 0.861837 0.107240
Si Si5 0.910491 0.851584 0.550488
Si Si6 0.566977 0.639637 0.294665
Si Si7 0.095171 0.354755 0.759796
O O1 0.241445 0.200684 0.290478
O O2 0.427565 0.201878 0.164017
O O3 0.390887 0.000000 0.148129
O O4 0.500000 0.204057 0.000000
O O5 0.103169 0.639126 0.160835
O O6 0.896636 0.777466 0.349509
O O7 0.030471 0.665626 0.144707
O O8 0.148379 0.847660 0.068503
O O9 0.727547 0.204710 0.598283
O O10 0.973881 0.124744 0.346575
O O11 0.802274 0.000000 0.473331
O O12 0.672507 0.749506 0.172629
O O13 0.682717 0.000000 0.147848
O O14 0.000000 0.794069 0.500000
O O15 0.981606 0.813473 0.427924
O O16 0.902881 0.000000 0.563379
O O17 0.632500 0.500000 0.236381
O O18 0.125249 0.500000 0.736224
#
# Coordination Sequence:
#
# PCOD8080889 Si02
#       7
#     8   8   8   8   8   8   8
#     4   9  17  29  45  70 104 136 165 209 266 316
#     4  10  20  31  48  70  97 134 177 212 249 301
#     4   9  16  29  48  69  98 131 164 203 250 301
#     4  10  21  35  49  70 105 139 173 215 258 305
#     4   9  16  28  48  75 106 136 171 215 264 316
#     4   9  17  31  52  75 101 137 172 207 257 309
#     4  10  18  29  47  70  99 131 167 208 253 305
#
# _framework density 18.586027999999999
#
# number of rings (size 3 to 8) (size 9 to 14) (size 15 to 20)
#    0.000    2.571    1.429    1.286    0.000    5.143 
#    0.000    2.857    0.000    1.286    0.000    0.000 
#    0.000    4.000    0.000    0.000    0.000    0.000 
#
# Total GULP energy -346914.663816 kJ/mol
# GULP energy per Si atom -12389.809422 kJ/mol
# Density = 1.854372 g / cm^3
# Si number density = 18.586028 Si / 1000 Ang^3
#
#
#
# Elastic Constant Matrix: (Units=GPa)
#
#
# Indices 1 2 3 4 5 6 
#
# 1 93.7022 10.8536 54.5709 -0.0008 15.6784 -0.0003
# 2 10.8536 62.3709 33.3819 -0.0182 11.7235 0.0046
# 3 54.5709 33.3819 119.5838 -0.0101 18.7169 0.0039
# 4 -0.0008 -0.0182 -0.0101 11.2049 0.0028 4.6256
# 5 15.6784 11.7235 18.7169 0.0028 23.0576 -0.0002
# 6 -0.0003 0.0046 0.0039 4.6256 -0.0002 13.2092
#
#
#
# Elastic Compliance Matrix: (Units=1/GPa)
#
#
# Indices 1 2 3 4 5 6 
#
# 1 0.015292 0.002006 -0.006588 -0.000001 -0.006070 0.000002
# 2 0.002006 0.019889 -0.005351 0.000037 -0.007133 -0.000018
# 3 -0.006588 -0.005351 0.013444 0.000006 -0.003712 -0.000004
# 4 -0.000001 0.000037 0.000006 0.104328 -0.000036 -0.036534
# 5 -0.006070 -0.007133 -0.003712 -0.000036 0.054137 0.000017
# 6 0.000002 -0.000018 -0.000004 -0.036534 0.000017 0.088498
#
#
# Mechanical properties :
#
#
# Convention : Reuss Voigt Hill
#
# Bulk Modulus (GPa) = 34.77295 52.58554 43.67924
# Shear Modulus (GPa) = 15.38265 21.28437 18.33351
#
# Velocity S-wave (km/s) = 2.88000 3.38772 3.14413
# Velocity P-wave (km/s) = 5.45977 6.60732 6.06076
#
# Compressibility (1/GPa) = 0.02875799
#
# Stress axis : x y z
#
# Youngs Moduli (GPa) = 65.39170 50.27989 74.38430
#
# Poissons Ratio (x) = -0.10087 0.49008
# Poissons Ratio (y) = -0.13118 0.39803
# Poissons Ratio (z) = 0.43083 0.26905
#
# Static dielectric constant tensor:
#      x y z
#    x 3.458280 0.000000 0.118430 
#    y 0.000000 3.099050 0.000010 
#    z 0.118430 0.000010 3.575440 
# 
# 
# High freq. dielectric constant tensor:
#      x y z
#    x 1.715240 0.000000 0.002210 
#    y 0.000000 1.657480 0.000000 
#    z 0.002210 0.000000 1.730280 
# 
# From -- ./inp_files/370737.got.cif
#   From: 2010.06.25/outbox.cif.g09.slc.cpg/sg12_186_cif.got.tgz:370737.got - 2010.06.28 00:19:55.
