data_PCOD8080186
_publ_section_title
;
Structure prediction by ZEFSAII (Michael W. Deem and Ramdas Pophale) SiO2 
 PCOD8080186
Probable space group: C 2/M
;
_chemical_formula_sum "Si O2"
_cell_formula_units_Z 56
_cell_length_a 26.844485
_cell_length_b 9.292727
_cell_length_c 21.986985
_cell_angle_alpha 90.000000
_cell_angle_beta 139.695874
_cell_angle_gamma 90.000000
_cell_volume 3547.839454
_symmetry_space_group_name_H-M "C 2/M"
_symmetry_group_IT_number 12
_symmetry_cell_setting 'monoclinic'
loop_
_space_group_symop_operation_xyz
x,y,z
-x,y,-z
-x,-y,-z
x,-y,z
1/2+x,1/2+y,z
1/2-x,1/2+y,-z
1/2-x,1/2-y,-z
1/2+x,1/2-y,z
loop_
_atom_site_type_symbol
_atom_site_label
_atom_site_fract_x
_atom_site_fract_y
_atom_site_fract_z
Si Si1 0.264288 0.168059 0.107253
Si Si2 0.359681 0.331091 0.433916
Si Si3 0.139632 0.836064 0.900415
Si Si4 0.493448 0.834570 0.396974
Si Si5 0.323916 0.164079 0.289282
Si Si6 0.682702 0.335029 0.468923
Si Si7 0.486786 0.334587 0.703485
O O1 0.326290 0.240668 0.121453
O O2 0.273045 0.222372 0.184845
O O3 0.284328 0.000000 0.125261
O O4 0.178039 0.202366 0.001526
O O5 0.370130 0.500000 0.432896
O O6 0.442544 0.254685 0.506903
O O7 0.305846 0.263996 0.330830
O O8 0.321208 0.297730 0.463221
O O9 0.046444 0.815693 0.815606
O O10 0.160600 0.000000 0.903543
O O11 0.413710 0.823095 0.357829
O O12 0.481879 0.768378 0.319727
O O13 0.520476 0.000000 0.416906
O O14 0.301543 0.000000 0.284232
O O15 0.702487 0.500000 0.477125
O O16 0.750000 0.250000 0.500000
O O17 0.600958 0.293972 0.360695
O O18 0.486520 0.500000 0.679193
#
# Coordination Sequence:
#
# PCOD8080186 Si02
#       7
#     8   8   8   8   8   8   8
#     4   9  17  28  41  62  92 123 155 187 212 246
#     4  10  21  33  45  63  87 114 148 185 219 266
#     4   9  16  27  44  63  88 123 155 183 218 253
#     4  10  18  28  42  62  90 122 152 182 214 253
#     4  10  19  29  41  62  92 123 153 182 213 251
#     4   9  19  34  49  67  88 108 139 184 229 273
#     4   9  17  29  45  67  92 118 150 184 220 264
#
# _framework density 15.784255
#
# number of rings (size 3 to 8) (size 9 to 14) (size 15 to 20)
#    0.000    2.571    1.429    2.143    0.000    6.286 
#    0.000    0.000    0.000    0.000    0.000    1.000 
#    0.000    8.000    0.000    0.000    0.000    0.000 
#
# Total GULP energy -347005.730258 kJ/mol
# GULP energy per Si atom -12393.061795 kJ/mol
# Density = 1.574833 g / cm^3
# Si number density = 15.784255 Si / 1000 Ang^3
#
#
#
# Elastic Constant Matrix: (Units=GPa)
#
#
# Indices 1 2 3 4 5 6 
#
# 1 59.6145 33.6877 51.6288 0.0000 3.6762 0.0000
# 2 33.6877 65.6842 46.2429 0.0000 -4.0953 0.0000
# 3 51.6288 46.2429 148.4751 0.0000 -7.3509 0.0000
# 4 0.0000 0.0000 0.0000 22.2815 0.0000 -3.4823
# 5 3.6762 -4.0953 -7.3509 0.0000 15.9022 0.0000
# 6 0.0000 0.0000 0.0000 -3.4823 0.0000 23.3014
#
#
#
# Elastic Compliance Matrix: (Units=1/GPa)
#
#
# Indices 1 2 3 4 5 6 
#
# 1 0.030692 -0.011017 -0.007914 0.000000 -0.013591 0.000000
# 2 -0.011017 0.023535 -0.003145 0.000000 0.007154 0.000000
# 3 -0.007914 -0.003145 0.010763 0.000000 0.005995 0.000000
# 4 0.000000 0.000000 0.000000 0.045954 0.000000 0.006868
# 5 -0.013591 0.007154 0.005995 0.000000 0.070640 0.000000
# 6 0.000000 0.000000 0.000000 0.006868 0.000000 0.043942
#
#
# Mechanical properties :
#
#
# Convention : Reuss Voigt Hill
#
# Bulk Modulus (GPa) = 47.98821 59.65476 53.82149
# Shear Modulus (GPa) = 18.07508 21.77797 19.92653
#
# Velocity S-wave (km/s) = 3.38765 3.71850 3.55692
# Velocity P-wave (km/s) = 6.76537 7.50415 7.14431
#
# Compressibility (1/GPa) = 0.02083845
#
# Stress axis : x y z
#
# Youngs Moduli (GPa) = 32.58174 42.49043 92.90756
#
# Poissons Ratio (x) = 0.46811 0.73528
# Poissons Ratio (y) = 0.35895 0.29219
# Poissons Ratio (z) = 0.25786 0.13363
#
# Static dielectric constant tensor:
#      x y z
#    x 2.581570 0.000000 -0.061820 
#    y 0.000000 3.100860 0.000000 
#    z -0.061820 0.000000 3.424560 
# 
# 
# High freq. dielectric constant tensor:
#      x y z
#    x 1.549970 0.000000 -0.004780 
#    y 0.000000 1.613560 0.000000 
#    z -0.004780 0.000000 1.618370 
# 
# From -- ./inp_files/291481.got.cif
#   From: 2010.06.25/outbox.cif.g09.slc.cpg/sg12_146_cif.got.tgz:291481.got - 2010.06.28 00:19:55.
