data_PCOD8080747
_publ_section_title
;
Structure prediction by ZEFSAII (Michael W. Deem and Ramdas Pophale) SiO2 
 PCOD8080747
Probable space group: C 2/M
;
_chemical_formula_sum "Si O2"
_cell_formula_units_Z 48
_cell_length_a 23.801120
_cell_length_b 8.443989
_cell_length_c 17.510204
_cell_angle_alpha 90.000000
_cell_angle_beta 132.828434
_cell_angle_gamma 90.000000
_cell_volume 2580.909500
_symmetry_space_group_name_H-M "C 2/M"
_symmetry_group_IT_number 12
_symmetry_cell_setting 'monoclinic'
loop_
_space_group_symop_operation_xyz
x,y,z
-x,y,-z
-x,-y,-z
x,-y,z
1/2+x,1/2+y,z
1/2-x,1/2+y,-z
1/2-x,1/2-y,-z
1/2+x,1/2-y,z
loop_
_atom_site_type_symbol
_atom_site_label
_atom_site_fract_x
_atom_site_fract_y
_atom_site_fract_z
Si Si1 0.559250 0.811252 0.618636
Si Si2 0.812864 0.312146 0.501242
Si Si3 0.384123 0.685972 0.884349
Si Si4 0.215364 0.688050 0.694258
Si Si5 0.989421 0.686312 0.105938
Si Si6 0.520000 0.188350 0.303284
O O1 0.500000 0.746894 0.500000
O O2 0.644824 0.747259 0.680204
O O3 0.535305 0.748524 0.680379
O O4 0.557245 0.000000 0.615139
O O5 0.813037 0.500000 0.501234
O O6 0.750000 0.250000 0.500000
O O7 0.794104 0.245603 0.399966
O O8 0.894997 0.245157 0.603292
O O9 0.389742 0.500000 0.873137
O O10 0.296387 0.746454 0.803177
O O11 0.429919 0.775625 0.859936
O O12 0.419948 0.724660 0.999790
O O13 0.212372 0.500000 0.690320
O O14 0.974727 0.500000 0.087917
O O15 0.990529 0.749201 0.193962
O O16 0.522287 0.000000 0.305552
#
# Coordination Sequence:
#
# PCOD8080747 Si02
#       6
#     8   8   8   8   8   8
#     4   9  14  26  47  70  96 126 156 195 238 277
#     4  10  18  29  45  71  99 122 149 190 240 286
#     4  10  19  32  49  71  97 127 161 196 236 283
#     4   9  17  28  46  71  97 122 156 197 238 280
#     4  10  19  32  49  71  97 127 161 196 236 283
#     4   9  17  28  46  71  97 122 156 197 238 280
#
# _framework density 18.598096000000002
#
# number of rings (size 3 to 8) (size 9 to 14) (size 15 to 20)
#    0.000    2.500    1.667    3.000    0.000    0.000 
#    0.000    2.500    0.000    0.000    0.000   10.500 
#    0.000    0.000    0.000    0.000    0.000    0.000 
#
# Total GULP energy -297540.885346 kJ/mol
# GULP energy per Si atom -12397.536889 kJ/mol
# Density = 1.855577 g / cm^3
# Si number density = 18.598096 Si / 1000 Ang^3
#
#
#
# Elastic Constant Matrix: (Units=GPa)
#
#
# Indices 1 2 3 4 5 6 
#
# 1 177.7171 1.7869 101.5749 0.0000 -2.1218 0.0000
# 2 1.7869 13.9034 5.0450 0.0000 -0.2002 0.0000
# 3 101.5749 5.0450 155.3568 0.0000 -3.3822 0.0000
# 4 0.0000 0.0000 0.0000 14.8202 0.0000 0.1603
# 5 -2.1218 -0.2002 -3.3822 0.0000 37.6215 0.0000
# 6 0.0000 0.0000 0.0000 0.1603 0.0000 16.8227
#
#
#
# Elastic Compliance Matrix: (Units=1/GPa)
#
#
# Indices 1 2 3 4 5 6 
#
# 1 0.008998 0.000990 -0.005915 0.000000 -0.000019 0.000000
# 2 0.000990 0.072892 -0.003010 0.000000 0.000173 0.000000
# 3 -0.005915 -0.003010 0.010415 0.000000 0.000587 0.000000
# 4 0.000000 0.000000 0.000000 0.067482 0.000000 -0.000643
# 5 -0.000019 0.000173 0.000587 0.000000 0.026633 0.000000
# 6 0.000000 0.000000 0.000000 -0.000643 0.000000 0.059449
#
#
# Mechanical properties :
#
#
# Convention : Reuss Voigt Hill
#
# Bulk Modulus (GPa) = 13.08335 62.64341 37.86338
# Shear Modulus (GPa) = 17.40827 29.75760 23.58294
#
# Velocity S-wave (km/s) = 3.06277 4.00438 3.56480
# Velocity P-wave (km/s) = 4.42238 7.42536 6.11119
#
# Compressibility (1/GPa) = 0.07643301
#
# Stress axis : x y z
#
# Youngs Moduli (GPa) = 111.13921 13.71883 96.01601
#
# Poissons Ratio (x) = -0.01358 0.56798
# Poissons Ratio (y) = -0.11000 0.28905
# Poissons Ratio (z) = 0.65744 0.04130
#
# Static dielectric constant tensor:
#      x y z
#    x 3.606870 0.000000 -0.000080 
#    y 0.000000 2.954630 0.000000 
#    z -0.000080 0.000000 3.667280 
# 
# 
# High freq. dielectric constant tensor:
#      x y z
#    x 1.724920 0.000000 0.000140 
#    y 0.000000 1.676770 0.000000 
#    z 0.000140 0.000000 1.727120 
# 
# From -- ./inp_files/287964.got.cif
#   From: 2010.06.25/outbox.cif.g09.slc.cpg/sg12_144_cif.got.tgz:287964.got - 2010.06.28 00:19:55.
