data_PCOD8080607
_publ_section_title
;
Structure prediction by ZEFSAII (Michael W. Deem and Ramdas Pophale) SiO2 
 PCOD8080607
Probable space group: C 2/M
;
_chemical_formula_sum "Si O2"
_cell_formula_units_Z 64
_cell_length_a 14.502967
_cell_length_b 23.270030
_cell_length_c 17.913621
_cell_angle_alpha 90.000000
_cell_angle_beta 149.412863
_cell_angle_gamma 90.000000
_cell_volume 3076.276700
_symmetry_space_group_name_H-M "C 2/M"
_symmetry_group_IT_number 12
_symmetry_cell_setting 'monoclinic'
loop_
_space_group_symop_operation_xyz
x,y,z
-x,y,-z
-x,-y,-z
x,-y,z
1/2+x,1/2+y,z
1/2-x,1/2+y,-z
1/2-x,1/2-y,-z
1/2+x,1/2-y,z
loop_
_atom_site_type_symbol
_atom_site_label
_atom_site_fract_x
_atom_site_fract_y
_atom_site_fract_z
Si Si1 0.566130 0.861870 0.825095
Si Si2 0.540845 0.648974 0.844491
Si Si3 0.117898 0.215543 0.146548
Si Si4 0.500811 0.209093 0.365119
Si Si5 0.877118 0.653521 0.850514
Si Si6 0.503757 0.342459 0.645975
Si Si7 0.298480 0.063357 0.564065
Si Si8 0.167759 0.608697 0.563690
O O1 0.536563 0.808274 0.747460
O O2 0.455550 0.851695 0.823402
O O3 0.488533 0.920329 0.735304
O O4 0.775914 0.873837 0.989948
O O5 0.484396 0.708876 0.845449
O O6 0.572745 0.655699 0.779255
O O7 0.366466 0.607804 0.741614
O O8 0.323406 0.191413 0.290481
O O9 0.137578 0.280665 0.135731
O O10 0.000000 0.183596 0.000000
O O11 0.555744 0.276291 0.412200
O O12 0.658220 0.170301 0.511920
O O13 0.668153 0.633198 0.709458
O O14 0.000000 0.622185 0.000000
O O15 0.343811 0.386340 0.515248
O O16 0.331710 0.059333 0.498491
O O17 0.235477 0.000000 0.547622
O O18 0.000000 0.596044 0.500000
#
# Coordination Sequence:
#
# PCOD8080607 Si02
#       8
#     8   8   8   8   8   8   8   8
#     4  11  22  37  60  87 123 164 199 252 303 360
#     4  11  20  33  57  88 125 168 198 238 298 362
#     4  10  18  28  51  87 130 170 189 228 289 373
#     4  10  20  35  55  93 132 163 197 234 299 366
#     4  10  20  34  55  88 126 157 202 244 296 357
#     4  10  22  39  60  88 123 164 207 250 295 361
#     4  10  25  47  65  83 115 160 211 265 311 354
#     4  10  21  38  63  97 126 160 194 244 300 376
#
# _framework density 20.804369999999999
#
# number of rings (size 3 to 8) (size 9 to 14) (size 15 to 20)
#    0.000    1.750    3.750    0.750    0.000    7.250 
#    0.000    3.750    0.000    1.500    0.000    0.000 
#    0.000    0.000    0.000    0.000    0.000    0.000 
#
# Total GULP energy -396491.768259 kJ/mol
# GULP energy per Si atom -12390.367758 kJ/mol
# Density = 2.075702 g / cm^3
# Si number density = 20.804370 Si / 1000 Ang^3
#
#
#
# Elastic Constant Matrix: (Units=GPa)
#
#
# Indices 1 2 3 4 5 6 
#
# 1 119.8329 14.1685 36.4263 0.0001 21.3102 0.0001
# 2 14.1685 85.4267 39.9850 0.0000 14.5665 0.0000
# 3 36.4263 39.9850 129.4076 0.0005 18.9151 0.0006
# 4 0.0001 0.0000 0.0005 6.0597 0.0005 2.6739
# 5 21.3102 14.5665 18.9151 0.0005 26.2341 0.0003
# 6 0.0001 0.0000 0.0006 2.6739 0.0003 11.2405
#
#
#
# Elastic Compliance Matrix: (Units=1/GPa)
#
#
# Indices 1 2 3 4 5 6 
#
# 1 0.010146 0.000440 -0.001958 0.000001 -0.007074 0.000000
# 2 0.000440 0.014339 -0.003732 0.000001 -0.005629 0.000000
# 3 -0.001958 -0.003732 0.009944 0.000000 -0.003508 0.000000
# 4 0.000001 0.000001 0.000000 0.184379 -0.000004 -0.043860
# 5 -0.007074 -0.005629 -0.003508 -0.000004 0.049519 0.000000
# 6 0.000000 0.000000 0.000000 -0.043860 0.000000 0.099398
#
#
# Mechanical properties :
#
#
# Convention : Reuss Voigt Hill
#
# Bulk Modulus (GPa) = 41.78762 57.31408 49.55085
# Shear Modulus (GPa) = 12.94660 24.97935 18.96297
#
# Velocity S-wave (km/s) = 2.49730 3.46884 3.02236
# Velocity P-wave (km/s) = 5.33338 6.60702 6.00407
#
# Compressibility (1/GPa) = 0.02393053
#
# Stress axis : x y z
#
# Youngs Moduli (GPa) = 98.55948 69.73763 100.55929
#
# Poissons Ratio (x) = -0.03068 0.19688
# Poissons Ratio (y) = -0.04336 0.37526
# Poissons Ratio (z) = 0.19297 0.26025
#
# Static dielectric constant tensor:
#      x y z
#    x 3.880170 0.000000 0.163890 
#    y 0.000000 3.188090 0.000000 
#    z 0.163890 0.000000 4.060150 
# 
# 
# High freq. dielectric constant tensor:
#      x y z
#    x 1.829640 0.000000 0.007800 
#    y 0.000000 1.746210 0.000000 
#    z 0.007800 0.000000 1.831110 
# 
# From -- ./inp_files/272886.got.cif
#   From: 2010.06.25/outbox.cif.g09.slc.cpg/sg12_137_cif.got.tgz:272886.got - 2010.06.28 00:19:55.
