data_PCOD8080732
_publ_section_title
;
Structure prediction by ZEFSAII (Michael W. Deem and Ramdas Pophale) SiO2 
 PCOD8080732
Probable space group: C 2/M
;
_chemical_formula_sum "Si O2"
_cell_formula_units_Z 48
_cell_length_a 24.224585
_cell_length_b 8.527314
_cell_length_c 15.154739
_cell_angle_alpha 90.000000
_cell_angle_beta 61.210221
_cell_angle_gamma 90.000000
_cell_volume 2743.568242
_symmetry_space_group_name_H-M "C 2/M"
_symmetry_group_IT_number 12
_symmetry_cell_setting 'monoclinic'
loop_
_space_group_symop_operation_xyz
x,y,z
-x,y,-z
-x,-y,-z
x,-y,z
1/2+x,1/2+y,z
1/2-x,1/2+y,-z
1/2-x,1/2-y,-z
1/2+x,1/2-y,z
loop_
_atom_site_type_symbol
_atom_site_label
_atom_site_fract_x
_atom_site_fract_y
_atom_site_fract_z
Si Si1 0.706958 0.315391 0.334598
Si Si2 0.318797 0.185975 0.468011
Si Si3 0.072372 0.681785 0.936232
Si Si4 0.841025 0.817894 0.988726
Si Si5 0.342172 0.316948 0.274913
Si Si6 0.701067 0.816820 0.153610
O O1 0.699450 0.500000 0.335577
O O2 0.663756 0.248625 0.447968
O O3 0.780100 0.272842 0.290000
O O4 0.679930 0.239647 0.266196
O O5 0.250000 0.250000 0.500000
O O6 0.363152 0.256029 0.356340
O O7 0.321042 0.000000 0.464313
O O8 0.080529 0.500000 0.906195
O O9 0.105828 0.717998 0.003150
O O10 0.101374 0.785134 0.835533
O O11 0.000000 0.730135 0.000000
O O12 0.774136 0.773467 0.083384
O O13 0.856284 0.000000 0.988748
O O14 0.841354 0.773219 0.885439
O O15 0.326170 0.500000 0.289985
O O16 0.689159 0.000000 0.151445
#
# Coordination Sequence:
#
# PCOD8080732 Si02
#       6
#     8   8   8   8   8   8
#     4  11  19  29  47  72 102 133 165 201 247 301
#     4  10  18  29  45  67  97 130 164 201 246 299
#     4  11  23  37  53  73  99 134 173 211 251 295
#     4  10  20  33  50  72  99 132 168 207 250 298
#     4  11  20  32  48  69  98 131 167 207 251 296
#     4  10  19  31  49  73 102 134 165 203 250 302
#
# _framework density 17.495463999999998
#
# number of rings (size 3 to 8) (size 9 to 14) (size 15 to 20)
#    0.000    1.500    1.667    8.000    0.000    2.667 
#    0.000    0.000    0.000    0.000    0.000    1.167 
#    0.000    9.333    0.000    0.000    0.000    0.000 
#
# Total GULP energy -297638.531840 kJ/mol
# GULP energy per Si atom -12401.605493 kJ/mol
# Density = 1.745564 g / cm^3
# Si number density = 17.495464 Si / 1000 Ang^3
#
#
#
# Elastic Constant Matrix: (Units=GPa)
#
#
# Indices 1 2 3 4 5 6 
#
# 1 58.7274 14.1004 37.8203 0.0000 9.7585 0.0000
# 2 14.1004 59.3669 11.7946 0.0000 1.1504 0.0001
# 3 37.8203 11.7946 114.8770 0.0000 29.9471 0.0000
# 4 0.0000 0.0000 0.0000 33.9784 0.0000 7.2940
# 5 9.7585 1.1504 29.9471 0.0000 24.5707 0.0000
# 6 0.0000 0.0001 0.0000 7.2940 0.0000 20.1471
#
#
#
# Elastic Compliance Matrix: (Units=1/GPa)
#
#
# Indices 1 2 3 4 5 6 
#
# 1 0.022483 -0.003961 -0.006912 0.000000 -0.000319 0.000000
# 2 -0.003961 0.017958 -0.001071 0.000000 0.002038 0.000000
# 3 -0.006912 -0.001071 0.015187 0.000000 -0.015715 0.000000
# 4 0.000000 0.000000 0.000000 0.031910 0.000000 -0.011553
# 5 -0.000319 0.002038 -0.015715 0.000000 0.059884 0.000000
# 6 0.000000 0.000000 0.000000 -0.011553 0.000000 0.053817
#
#
# Mechanical properties :
#
#
# Convention : Reuss Voigt Hill
#
# Bulk Modulus (GPa) = 31.50460 40.04465 35.77463
# Shear Modulus (GPa) = 21.21258 27.02297 24.11778
#
# Velocity S-wave (km/s) = 3.48582 3.93437 3.71687
# Velocity P-wave (km/s) = 5.85215 6.60131 6.23798
#
# Compressibility (1/GPa) = 0.03174140
#
# Stress axis : x y z
#
# Youngs Moduli (GPa) = 44.47760 55.68425 65.84439
#
# Poissons Ratio (x) = 0.22054 0.45512
# Poissons Ratio (y) = 0.17616 0.07052
# Poissons Ratio (z) = 0.30743 0.05964
#
# Static dielectric constant tensor:
#      x y z
#    x 2.867630 0.000000 0.383030 
#    y 0.000000 3.331100 0.000000 
#    z 0.383030 0.000000 3.860920 
# 
# 
# High freq. dielectric constant tensor:
#      x y z
#    x 1.616390 0.000000 0.035380 
#    y 0.000000 1.698070 0.000000 
#    z 0.035380 0.000000 1.685280 
# 
# From -- ./inp_files/229975.got.cif
#   From: 2010.06.25/outbox.cif.g09.slc.cpg/sg12_115_cif.got.tgz:229975.got - 2010.06.28 00:19:55.
