data_PCOD8080985
_publ_section_title
;
Structure prediction by ZEFSAII (Michael W. Deem and Ramdas Pophale) SiO2 
 PCOD8080985
Probable space group: C 2/M
;
_chemical_formula_sum "Si O2"
_cell_formula_units_Z 64
_cell_length_a 21.682001
_cell_length_b 19.413978
_cell_length_c 12.655141
_cell_angle_alpha 90.000000
_cell_angle_beta 132.615101
_cell_angle_gamma 90.000000
_cell_volume 3920.222331
_symmetry_space_group_name_H-M "C 2/M"
_symmetry_group_IT_number 12
_symmetry_cell_setting 'monoclinic'
loop_
_space_group_symop_operation_xyz
x,y,z
-x,y,-z
-x,-y,-z
x,-y,z
1/2+x,1/2+y,z
1/2-x,1/2+y,-z
1/2-x,1/2-y,-z
1/2+x,1/2-y,z
loop_
_atom_site_type_symbol
_atom_site_label
_atom_site_fract_x
_atom_site_fract_y
_atom_site_fract_z
Si Si1 0.531636 0.186961 0.654818
Si Si2 0.322891 0.923405 0.706952
Si Si3 0.811444 0.312050 0.040844
Si Si4 0.425246 0.161269 0.984391
Si Si5 0.012242 0.841829 0.639216
Si Si6 0.472348 0.923459 0.739091
Si Si7 0.356115 0.422562 0.466433
Si Si8 0.176560 0.919472 0.816356
O O1 0.500000 0.182514 0.500000
O O2 0.630638 0.171869 0.788905
O O3 0.516638 0.263439 0.683082
O O4 0.476777 0.130698 0.650480
O O5 0.353920 0.866790 0.825159
O O6 0.375836 0.922295 0.661508
O O7 0.227153 0.907403 0.561954
O O8 0.326536 0.000000 0.763659
O O9 0.750000 0.250000 0.000000
O O10 0.875584 0.293560 0.016423
O O11 0.759203 0.380858 0.954938
O O12 0.500000 0.198605 0.000000
O O13 0.469446 0.097208 0.094508
O O14 0.094135 0.883937 0.771869
O O15 0.000000 0.848066 0.500000
O O16 0.929395 0.874134 0.595600
O O17 0.498747 0.000000 0.732025
O O18 0.389815 0.500000 0.517162
O O19 0.328503 0.408330 0.314228
O O20 0.180847 0.000000 0.853072
#
# Coordination Sequence:
#
# PCOD8080985 Si02
#       8
#     8   8   8   8   8   8   8   8
#     4  10  21  34  48  65  97 136 167 198 246 289
#     4   9  15  26  45  71  99 125 154 199 254 302
#     4  11  20  32  50  75 102 133 165 204 247 295
#     4   9  17  28  46  70  98 128 159 199 252 304
#     4   9  17  30  45  65  95 127 156 192 247 297
#     4   9  18  30  45  66  94 130 170 205 238 288
#     4   9  16  26  46  73  98 123 150 188 246 309
#     4  10  18  29  48  72  97 124 158 201 244 298
#
# _framework density 16.325606000000001
#
# number of rings (size 3 to 8) (size 9 to 14) (size 15 to 20)
#    0.000    2.500    2.500    0.750    0.000    5.250 
#    0.000    0.625    0.000    1.500    0.000    0.000 
#    0.000    0.500    0.000    0.375    0.000    0.000 
#
# Total GULP energy -396469.763085 kJ/mol
# GULP energy per Si atom -12389.680096 kJ/mol
# Density = 1.628845 g / cm^3
# Si number density = 16.325606 Si / 1000 Ang^3
#
#
#
# Elastic Constant Matrix: (Units=GPa)
#
#
# Indices 1 2 3 4 5 6 
#
# 1 104.1354 51.3743 35.7532 0.0000 21.1093 0.0000
# 2 51.3743 100.2940 35.2564 0.0000 7.9115 0.0000
# 3 35.7532 35.2564 73.7616 0.0000 15.5515 0.0000
# 4 0.0000 0.0000 0.0000 22.6996 0.0000 5.0046
# 5 21.1093 7.9115 15.5515 0.0000 23.6565 0.0000
# 6 0.0000 0.0000 0.0000 5.0046 0.0000 27.7047
#
#
#
# Elastic Compliance Matrix: (Units=1/GPa)
#
#
# Indices 1 2 3 4 5 6 
#
# 1 0.015640 -0.006367 -0.002373 0.000000 -0.010267 0.000000
# 2 -0.006367 0.014578 -0.004704 0.000000 0.003898 0.000000
# 3 -0.002373 -0.004704 0.018781 0.000000 -0.008656 0.000000
# 4 0.000000 0.000000 0.000000 0.045881 0.000000 -0.008288
# 5 -0.010267 0.003898 -0.008656 0.000000 0.055819 0.000000
# 6 0.000000 0.000000 0.000000 -0.008288 0.000000 0.037592
#
#
# Mechanical properties :
#
#
# Convention : Reuss Voigt Hill
#
# Bulk Modulus (GPa) = 45.22658 58.10654 51.66656
# Shear Modulus (GPa) = 22.46695 25.19930 23.83312
#
# Velocity S-wave (km/s) = 3.71371 3.93306 3.82496
# Velocity P-wave (km/s) = 6.79352 7.50299 7.15705
#
# Compressibility (1/GPa) = 0.02211089
#
# Stress axis : x y z
#
# Youngs Moduli (GPa) = 63.93856 68.59526 53.24670
#
# Poissons Ratio (x) = 0.43677 0.12635
# Poissons Ratio (y) = 0.40712 0.25045
# Poissons Ratio (z) = 0.15172 0.32265
#
# Static dielectric constant tensor:
#      x y z
#    x 3.323970 0.000000 0.320050 
#    y 0.000000 3.054670 0.000000 
#    z 0.320050 0.000000 2.913400 
# 
# 
# High freq. dielectric constant tensor:
#      x y z
#    x 1.623680 0.000000 0.034100 
#    y 0.000000 1.615570 0.000000 
#    z 0.034100 0.000000 1.602960 
# 
# From -- ./inp_files/168771.got.cif
#   From: 2010.06.25/outbox.cif.g09.slc.cpg/sg12_85_cif.got.tgz:168771.got - 2010.06.28 00:19:55.
