data_PCOD8080419
_publ_section_title
;
Structure prediction by ZEFSAII (Michael W. Deem and Ramdas Pophale) SiO2 
 PCOD8080419
Probable space group: C 2/M
;
_chemical_formula_sum "Si O2"
_cell_formula_units_Z 64
_cell_length_a 24.848928
_cell_length_b 8.764113
_cell_length_c 23.744236
_cell_angle_alpha 90.000000
_cell_angle_beta 133.420872
_cell_angle_gamma 90.000000
_cell_volume 3755.816943
_symmetry_space_group_name_H-M "C 2/M"
_symmetry_group_IT_number 12
_symmetry_cell_setting 'monoclinic'
loop_
_space_group_symop_operation_xyz
x,y,z
-x,y,-z
-x,-y,-z
x,-y,z
1/2+x,1/2+y,z
1/2-x,1/2+y,-z
1/2-x,1/2-y,-z
1/2+x,1/2-y,z
loop_
_atom_site_type_symbol
_atom_site_label
_atom_site_fract_x
_atom_site_fract_y
_atom_site_fract_z
Si Si1 0.468961 0.822775 0.082238
Si Si2 0.161804 0.822059 0.076228
Si Si3 0.721998 0.320341 0.922012
Si Si4 0.808194 0.677666 0.666695
Si Si5 0.862541 0.323308 0.825520
Si Si6 0.924788 0.179071 0.667031
Si Si7 0.066649 0.321467 0.815593
Si Si8 0.192454 0.176089 0.499413
O O1 0.553111 0.783752 0.128678
O O2 0.453179 0.775562 0.134954
O O3 0.450806 0.000000 0.058976
O O4 0.418636 0.723091 0.004929
O O5 0.225178 0.728510 0.090505
O O6 0.166141 0.782512 0.145108
O O7 0.175579 0.000000 0.076851
O O8 0.724381 0.500000 0.930357
O O9 0.639537 0.266646 0.848343
O O10 0.750000 0.250000 0.000000
O O11 0.829654 0.500000 0.672845
O O12 0.811939 0.717564 0.735214
O O13 0.867357 0.777226 0.675016
O O14 0.722588 0.711136 0.584476
O O15 0.854754 0.500000 0.837258
O O16 0.890212 0.226034 0.580173
O O17 0.000387 0.272276 0.726958
O O18 0.942325 0.000000 0.684120
O O19 0.080910 0.500000 0.819922
O O20 0.250000 0.250000 0.500000
O O21 0.197134 0.000000 0.489754
#
# Coordination Sequence:
#
# PCOD8080419 Si02
#       8
#     8   8   8   8   8   8   8   8
#     4  10  20  35  54  74 101 137 175 214 255 302
#     4  12  25  38  53  75 102 136 174 216 259 306
#     4  12  24  40  59  78 100 131 170 216 261 306
#     4   9  16  30  49  70 100 140 178 209 253 307
#     4  10  20  35  53  74 102 139 178 215 254 302
#     4  10  18  28  45  74 108 137 169 212 257 304
#     4  11  21  35  55  78 103 137 174 213 256 305
#     4   8  15  26  43  68 100 136 171 207 249 303
#
# _framework density 17.040233000000001
#
# number of rings (size 3 to 8) (size 9 to 14) (size 15 to 20)
#    0.000    1.750    2.500    3.375    0.000    3.500 
#    0.000    0.000    0.000    0.000    0.000    0.875 
#    0.000    7.000    0.000    0.000    0.000    0.000 
#
# Total GULP energy -396672.217589 kJ/mol
# GULP energy per Si atom -12396.006800 kJ/mol
# Density = 1.700145 g / cm^3
# Si number density = 17.040233 Si / 1000 Ang^3
#
#
#
# Elastic Constant Matrix: (Units=GPa)
#
#
# Indices 1 2 3 4 5 6 
#
# 1 65.0732 26.0525 47.2288 0.0000 -4.0191 0.0000
# 2 26.0525 74.0830 43.2293 0.0000 -0.7935 -0.0001
# 3 47.2288 43.2293 150.5831 0.0000 2.4402 0.0000
# 4 0.0000 0.0000 0.0000 25.4501 0.0000 1.6461
# 5 -4.0191 -0.7935 2.4402 0.0000 15.0149 0.0000
# 6 0.0000 -0.0001 0.0000 1.6461 0.0000 24.4851
#
#
#
# Elastic Compliance Matrix: (Units=1/GPa)
#
#
# Indices 1 2 3 4 5 6 
#
# 1 0.021559 -0.004211 -0.005658 0.000000 0.006468 0.000000
# 2 -0.004211 0.017076 -0.003587 0.000000 0.000358 0.000000
# 3 -0.005658 -0.003587 0.009498 0.000000 -0.003248 0.000000
# 4 0.000000 0.000000 0.000000 0.039464 0.000000 -0.002653
# 5 0.006468 0.000358 -0.003248 0.000000 0.068879 0.000000
# 6 0.000000 0.000000 0.000000 -0.002653 0.000000 0.041020
#
#
# Mechanical properties :
#
#
# Convention : Reuss Voigt Hill
#
# Bulk Modulus (GPa) = 47.12266 58.08449 52.60358
# Shear Modulus (GPa) = 21.60007 24.53860 23.06933
#
# Velocity S-wave (km/s) = 3.56419 3.79890 3.68342
# Velocity P-wave (km/s) = 6.68219 7.30773 7.00195
#
# Compressibility (1/GPa) = 0.02122121
#
# Stress axis : x y z
#
# Youngs Moduli (GPa) = 46.38472 58.56049 105.28745
#
# Poissons Ratio (x) = 0.24659 0.59568
# Poissons Ratio (y) = 0.19532 0.37771
# Poissons Ratio (z) = 0.26243 0.21008
#
# Static dielectric constant tensor:
#      x y z
#    x 2.968340 0.000000 0.051580 
#    y 0.000000 3.261110 0.000000 
#    z 0.051580 0.000000 3.787420 
# 
# 
# High freq. dielectric constant tensor:
#      x y z
#    x 1.615700 0.000000 0.005480 
#    y 0.000000 1.663790 0.000000 
#    z 0.005480 0.000000 1.673060 
# 
# From -- ./inp_files/348608.got.cif
#   From: 2010.06.25/outbox.cif.g09.slc.cpg/sg12_175_cif.got.tgz:348608.got - 2010.06.28 00:19:55.
