data_PCOD8080224
_publ_section_title
;
Structure prediction by ZEFSAII (Michael W. Deem and Ramdas Pophale) SiO2 
 PCOD8080224
Probable space group: C 2/M
;
_chemical_formula_sum "Si O2"
_cell_formula_units_Z 64
_cell_length_a 29.944861
_cell_length_b 9.028641
_cell_length_c 13.942948
_cell_angle_alpha 90.000000
_cell_angle_beta 90.849743
_cell_angle_gamma 90.000000
_cell_volume 3769.220374
_symmetry_space_group_name_H-M "C 2/M"
_symmetry_group_IT_number 12
_symmetry_cell_setting 'monoclinic'
loop_
_space_group_symop_operation_xyz
x,y,z
-x,y,-z
-x,-y,-z
x,-y,z
1/2+x,1/2+y,z
1/2-x,1/2+y,-z
1/2-x,1/2-y,-z
1/2+x,1/2-y,z
loop_
_atom_site_type_symbol
_atom_site_label
_atom_site_fract_x
_atom_site_fract_y
_atom_site_fract_z
Si Si1 0.873618 0.166964 0.623570
Si Si2 0.049503 0.326917 0.019079
Si Si3 0.426791 0.334007 0.448718
Si Si4 0.918716 0.328708 0.183320
Si Si5 0.295965 0.325785 0.475929
Si Si6 0.422628 0.173880 0.775783
Si Si7 0.853623 0.669154 0.336829
Si Si8 0.505674 0.330659 0.698971
O O1 0.920229 0.179725 0.563532
O O2 0.832374 0.222632 0.557057
O O3 0.878745 0.261276 0.721129
O O4 0.864788 0.000000 0.655908
O O5 0.043079 0.500000 0.037547
O O6 0.072115 0.260318 0.116194
O O7 0.082070 0.294378 0.930450
O O8 0.000000 0.257717 0.000000
O O9 0.409044 0.500000 0.418890
O O10 0.397536 0.206206 0.399493
O O11 0.477627 0.317125 0.411894
O O12 0.933797 0.500000 0.201219
O O13 0.868797 0.303902 0.226157
O O14 0.953387 0.216043 0.231699
O O15 0.289271 0.500000 0.471721
O O16 0.250000 0.250000 0.500000
O O17 0.312475 0.270476 0.371317
O O18 0.465317 0.220078 0.715082
O O19 0.417297 0.000000 0.776259
O O20 0.839572 0.500000 0.353689
O O21 0.491711 0.500000 0.721934
#
# Coordination Sequence:
#
# PCOD8080224 Si02
#       8
#     8   8   8   8   8   8   8   8
#     4   9  19  35  49  65  93 124 151 187 234 282
#     4   9  16  29  47  64  89 126 168 210 247 279
#     4   8  16  30  45  60  86 126 161 190 234 284
#     4   9  16  29  47  66  91 126 165 204 241 280
#     4  10  20  35  56  78 102 127 150 180 228 286
#     4  11  21  31  45  64  89 125 166 204 240 279
#     4   9  16  26  46  74  99 121 153 194 234 278
#     4  10  18  28  43  63  88 121 162 204 242 280
#
# _framework density 16.979638999999999
#
# number of rings (size 3 to 8) (size 9 to 14) (size 15 to 20)
#    0.000    2.625    1.250    2.250    0.000    4.000 
#    0.000    4.375    0.000    0.000    0.000    0.875 
#    0.000    0.000    0.000    0.000    0.000    0.000 
#
# Total GULP energy -396476.915592 kJ/mol
# GULP energy per Si atom -12389.903612 kJ/mol
# Density = 1.694099 g / cm^3
# Si number density = 16.979639 Si / 1000 Ang^3
#
#
#
# Elastic Constant Matrix: (Units=GPa)
#
#
# Indices 1 2 3 4 5 6 
#
# 1 60.2701 24.5309 46.8152 0.0000 -12.3619 0.0000
# 2 24.5309 52.7725 37.2377 0.0000 -2.0377 0.0000
# 3 46.8152 37.2377 118.3954 0.0000 -5.2982 0.0000
# 4 0.0000 0.0000 0.0000 19.8771 0.0000 0.3783
# 5 -12.3619 -2.0377 -5.2982 0.0000 20.9382 0.0000
# 6 0.0000 0.0000 0.0000 0.3783 0.0000 23.7237
#
#
#
# Elastic Compliance Matrix: (Units=1/GPa)
#
#
# Indices 1 2 3 4 5 6 
#
# 1 0.029060 -0.006811 -0.008709 0.000000 0.014291 0.000000
# 2 -0.006811 0.025955 -0.005600 0.000000 -0.002913 0.000000
# 3 -0.008709 -0.005600 0.013550 0.000000 -0.002258 0.000000
# 4 0.000000 0.000000 0.000000 0.050324 0.000000 -0.000802
# 5 0.014291 -0.002913 -0.002258 0.000000 0.055342 0.000000
# 6 0.000000 0.000000 0.000000 -0.000802 0.000000 0.042165
#
#
# Mechanical properties :
#
#
# Convention : Reuss Voigt Hill
#
# Bulk Modulus (GPa) = 37.98825 49.84508 43.91667
# Shear Modulus (GPa) = 18.69773 21.09809 19.89791
#
# Velocity S-wave (km/s) = 3.32201 3.52881 3.42697
# Velocity P-wave (km/s) = 6.09391 6.78401 6.44820
#
# Compressibility (1/GPa) = 0.02632393
#
# Stress axis : x y z
#
# Youngs Moduli (GPa) = 34.41136 38.52861 73.79906
#
# Poissons Ratio (x) = 0.26243 0.64272
# Poissons Ratio (y) = 0.23439 0.41330
# Poissons Ratio (z) = 0.29969 0.21577
#
# Static dielectric constant tensor:
#      x y z
#    x 2.932440 0.000000 -0.211070 
#    y 0.000000 3.136110 0.000000 
#    z -0.211070 0.000000 3.405450 
# 
# 
# High freq. dielectric constant tensor:
#      x y z
#    x 1.612360 0.000000 -0.018480 
#    y 0.000000 1.651550 0.000000 
#    z -0.018480 0.000000 1.648840 
# 
# From -- ./inp_files/248405.got.cif
#   From: 2010.06.25/outbox.cif.g09.slc.cpg/sg12_125_cif.got.tgz:248405.got - 2010.06.28 00:19:55.
