data_PCOD8080135
_publ_section_title
;
Structure prediction by ZEFSAII (Michael W. Deem and Ramdas Pophale) SiO2 
 PCOD8080135
Probable space group: C 2/M
;
_chemical_formula_sum "Si O2"
_cell_formula_units_Z 48
_cell_length_a 14.879044
_cell_length_b 18.801860
_cell_length_c 16.143001
_cell_angle_alpha 90.000000
_cell_angle_beta 144.581476
_cell_angle_gamma 90.000000
_cell_volume 2617.261022
_symmetry_space_group_name_H-M "C 2/M"
_symmetry_group_IT_number 12
_symmetry_cell_setting 'monoclinic'
loop_
_space_group_symop_operation_xyz
x,y,z
-x,y,-z
-x,-y,-z
x,-y,z
1/2+x,1/2+y,z
1/2-x,1/2+y,-z
1/2-x,1/2-y,-z
1/2+x,1/2-y,z
loop_
_atom_site_type_symbol
_atom_site_label
_atom_site_fract_x
_atom_site_fract_y
_atom_site_fract_z
Si Si1 0.863522 0.705305 0.524718
Si Si2 0.072474 0.185601 0.880727
Si Si3 0.203110 0.737820 0.830121
Si Si4 0.798025 0.284117 0.726146
Si Si5 0.648534 0.418588 0.367482
Si Si6 0.350456 0.419629 0.441362
O O1 0.750000 0.750000 0.500000
O O2 0.848680 0.742607 0.424101
O O3 0.809354 0.623624 0.477552
O O4 0.040429 0.702407 0.685064
O O5 0.178460 0.201578 0.880503
O O6 0.956521 0.251791 0.809241
O O7 0.979898 0.113254 0.791817
O O8 0.182615 0.177594 0.044437
O O9 0.288628 0.775041 0.817564
O O10 0.787917 0.366876 0.690607
O O11 0.676018 0.500000 0.363513
O O12 0.596391 0.409229 0.423669
O O13 0.500000 0.400994 0.500000
O O14 0.291255 0.500000 0.381642
#
# Coordination Sequence:
#
# PCOD8080135 Si02
#       6
#     8   8   8   8   8   8
#     4  11  18  34  55  80 102 134 181 228 257 313
#     4  10  21  35  52  79 109 139 187 218 260 325
#     4  11  20  33  56  80 105 141 179 228 266 303
#     4  11  19  33  56  79 107 139 180 224 271 313
#     4  10  19  34  54  77 110 146 172 217 279 319
#     4  10  18  27  48  82 112 140 177 217 266 327
#
# _framework density 18.339783000000001
#
# number of rings (size 3 to 8) (size 9 to 14) (size 15 to 20)
#    0.000    1.500    5.000    3.000    0.000    0.000 
#    0.000    0.833    0.000   22.000    0.000    0.000 
#    0.000    0.000    0.000    0.000    0.000    0.000 
#
# Total GULP energy -297508.486885 kJ/mol
# GULP energy per Si atom -12396.186954 kJ/mol
# Density = 1.829804 g / cm^3
# Si number density = 18.339783 Si / 1000 Ang^3
#
#
#
# Elastic Constant Matrix: (Units=GPa)
#
#
# Indices 1 2 3 4 5 6 
#
# 1 61.0887 27.8985 19.7045 -0.0012 -12.0936 -0.0005
# 2 27.8985 124.7904 43.3504 -0.0006 -3.2138 0.0001
# 3 19.7045 43.3504 124.0649 -0.0014 -4.1132 -0.0007
# 4 -0.0012 -0.0006 -0.0014 25.9354 -0.0019 -3.2304
# 5 -12.0936 -3.2138 -4.1132 -0.0019 25.9014 -0.0010
# 6 -0.0005 0.0001 -0.0007 -3.2304 -0.0010 17.9286
#
#
#
# Elastic Compliance Matrix: (Units=1/GPa)
#
#
# Indices 1 2 3 4 5 6 
#
# 1 0.020348 -0.003758 -0.001628 0.000002 0.008776 0.000001
# 2 -0.003758 0.009825 -0.002869 0.000000 -0.000991 0.000000
# 3 -0.001628 -0.002869 0.009333 0.000000 0.000366 0.000000
# 4 0.000002 0.000000 0.000000 0.039443 0.000004 0.007107
# 5 0.008776 -0.000991 0.000366 0.000004 0.042641 0.000003
# 6 0.000001 0.000000 0.000000 0.007107 0.000003 0.057057
#
#
# Mechanical properties :
#
#
# Convention : Reuss Voigt Hill
#
# Bulk Modulus (GPa) = 43.48320 54.65009 49.06665
# Shear Modulus (GPa) = 24.65226 28.55245 26.60235
#
# Velocity S-wave (km/s) = 3.67030 3.94999 3.81271
# Velocity P-wave (km/s) = 6.45932 7.11804 6.79666
#
# Compressibility (1/GPa) = 0.02299739
#
# Stress axis : x y z
#
# Youngs Moduli (GPa) = 49.14467 101.78531 107.14162
#
# Poissons Ratio (x) = 0.38247 0.17441
# Poissons Ratio (y) = 0.18466 0.30738
# Poissons Ratio (z) = 0.08000 0.29202
#
# Static dielectric constant tensor:
#      x y z
#    x 3.419030 0.000000 -0.211870 
#    y 0.000000 3.258060 0.000000 
#    z -0.211870 0.000000 3.694040 
# 
# 
# High freq. dielectric constant tensor:
#      x y z
#    x 1.712700 0.000000 -0.013070 
#    y 0.000000 1.682500 0.000000 
#    z -0.013070 0.000000 1.712220 
# 
# From -- ./inp_files/216489.got.cif
#   From: 2010.06.25/outbox.cif.g09.slc.cpg/sg12_109_cif.got.tgz:216489.got - 2010.06.28 00:19:55.
