data_PCOD8080305
_publ_section_title
;
Structure prediction by ZEFSAII (Michael W. Deem and Ramdas Pophale) SiO2 
 PCOD8080305
Probable space group: C 2/M
;
_chemical_formula_sum "Si O2"
_cell_formula_units_Z 56
_cell_length_a 27.251390
_cell_length_b 8.763806
_cell_length_c 13.671146
_cell_angle_alpha 90.000000
_cell_angle_beta 115.521813
_cell_angle_gamma 90.000000
_cell_volume 2946.426980
_symmetry_space_group_name_H-M "C 2/M"
_symmetry_group_IT_number 12
_symmetry_cell_setting 'monoclinic'
loop_
_space_group_symop_operation_xyz
x,y,z
-x,y,-z
-x,-y,-z
x,-y,z
1/2+x,1/2+y,z
1/2-x,1/2+y,-z
1/2-x,1/2-y,-z
1/2+x,1/2-y,z
loop_
_atom_site_type_symbol
_atom_site_label
_atom_site_fract_x
_atom_site_fract_y
_atom_site_fract_z
Si Si1 0.699873 0.319633 0.679275
Si Si2 0.973336 0.823857 0.750848
Si Si3 0.412017 0.318806 0.100998
Si Si4 0.699053 0.317749 0.898995
Si Si5 0.629545 0.319395 0.445799
Si Si6 0.098676 0.823961 0.128678
Si Si7 0.309034 0.821017 0.674775
O O1 0.704224 0.500000 0.691598
O O2 0.698287 0.252969 0.787454
O O3 0.645538 0.273814 0.570778
O O4 0.751654 0.256766 0.664612
O O5 0.929654 0.750214 0.636562
O O6 0.952671 0.802090 0.844137
O O7 0.034175 0.751886 0.796905
O O8 0.978187 0.000000 0.727930
O O9 0.412781 0.500000 0.109953
O O10 0.356583 0.255319 0.100323
O O11 0.416918 0.268708 0.992684
O O12 0.702486 0.500000 0.906089
O O13 0.750000 0.250000 0.000000
O O14 0.628138 0.500000 0.430718
O O15 0.676581 0.260513 0.414310
O O16 0.147494 0.717031 0.204585
O O17 0.118100 0.000000 0.146189
O O18 0.307142 0.000000 0.654152
#
# Coordination Sequence:
#
# PCOD8080305 Si02
#       7
#     8   8   8   8   8   8   8
#     4   9  18  31  46  66  93 123 149 183 230 267
#     4   8  14  25  44  69  92 114 146 188 227 263
#     4   9  16  27  46  70  91 117 154 190 221 259
#     4  10  20  34  50  68  93 121 152 187 221 263
#     4   9  17  31  49  67  90 119 150 183 225 274
#     4   9  16  27  45  68  94 121 149 183 224 269
#     4  10  18  28  44  67  95 121 148 184 226 269
#
# _framework density 19.006069
#
# number of rings (size 3 to 8) (size 9 to 14) (size 15 to 20)
#    0.000    2.857    0.000    3.000    0.000    1.714 
#    0.000    2.857    0.000   14.571    0.000    0.000 
#    0.000    5.714    0.000    0.000    0.000    0.000 
#
# Total GULP energy -346965.902181 kJ/mol
# GULP energy per Si atom -12391.639364 kJ/mol
# Density = 1.896281 g / cm^3
# Si number density = 19.006069 Si / 1000 Ang^3
#
#
#
# Elastic Constant Matrix: (Units=GPa)
#
#
# Indices 1 2 3 4 5 6 
#
# 1 116.9734 12.4761 80.7903 0.0000 17.6855 0.0000
# 2 12.4761 15.6702 13.9745 0.0000 1.2301 0.0000
# 3 80.7903 13.9745 167.7525 0.0000 5.7531 0.0000
# 4 0.0000 0.0000 0.0000 19.6386 0.0000 2.4236
# 5 17.6855 1.2301 5.7531 0.0000 22.3910 0.0000
# 6 0.0000 0.0000 0.0000 2.4236 0.0000 16.5132
#
#
#
# Elastic Compliance Matrix: (Units=1/GPa)
#
#
# Indices 1 2 3 4 5 6 
#
# 1 0.015119 -0.005472 -0.006483 0.000000 -0.009975 0.000000
# 2 -0.005472 0.071038 -0.003326 0.000000 0.001274 0.000000
# 3 -0.006483 -0.003326 0.009260 0.000000 0.002924 0.000000
# 4 0.000000 0.000000 0.000000 0.051859 0.000000 -0.007611
# 5 -0.009975 0.001274 0.002924 0.000000 0.051718 0.000000
# 6 0.000000 0.000000 0.000000 -0.007611 0.000000 0.061675
#
#
# Mechanical properties :
#
#
# Convention : Reuss Voigt Hill
#
# Bulk Modulus (GPa) = 15.41918 57.20864 36.31391
# Shear Modulus (GPa) = 15.98208 24.58558 20.28383
#
# Velocity S-wave (km/s) = 2.90296 3.60052 3.27039
# Velocity P-wave (km/s) = 4.40075 6.88843 5.78001
#
# Compressibility (1/GPa) = 0.06485427
#
# Stress axis : x y z
#
# Youngs Moduli (GPa) = 66.14410 14.07691 107.98809
#
# Poissons Ratio (x) = 0.07703 0.70011
# Poissons Ratio (y) = 0.36195 0.35917
# Poissons Ratio (z) = 0.42882 0.04682
#
# Static dielectric constant tensor:
#      x y z
#    x 3.684450 0.000000 0.184080 
#    y 0.000000 2.972780 0.000000 
#    z 0.184080 0.000000 3.817650 
# 
# 
# High freq. dielectric constant tensor:
#      x y z
#    x 1.730440 0.000000 0.015220 
#    y 0.000000 1.682660 0.000000 
#    z 0.015220 0.000000 1.751740 
# 
# From -- ./inp_files/248569.got.cif
#   From: 2010.06.25/outbox.cif.g09.slc.cpg/sg12_125_cif.got.tgz:248569.got - 2010.06.28 00:19:55.
