data_PCOD8080760
_publ_section_title
;
Structure prediction by ZEFSAII (Michael W. Deem and Ramdas Pophale) SiO2 
 PCOD8080760
Probable space group: C 2/M
;
_chemical_formula_sum "Si O2"
_cell_formula_units_Z 56
_cell_length_a 5.196930
_cell_length_b 31.385146
_cell_length_c 23.066329
_cell_angle_alpha 90.000000
_cell_angle_beta 62.978257
_cell_angle_gamma 90.000000
_cell_volume 3351.555171
_symmetry_space_group_name_H-M "C 2/M"
_symmetry_group_IT_number 12
_symmetry_cell_setting 'monoclinic'
loop_
_space_group_symop_operation_xyz
x,y,z
-x,y,-z
-x,-y,-z
x,-y,z
1/2+x,1/2+y,z
1/2-x,1/2+y,-z
1/2-x,1/2-y,-z
1/2+x,1/2-y,z
loop_
_atom_site_type_symbol
_atom_site_label
_atom_site_fract_x
_atom_site_fract_y
_atom_site_fract_z
Si Si1 0.155089 0.450672 0.928390
Si Si2 0.679946 0.777459 0.427405
Si Si3 0.473082 0.885502 0.271298
Si Si4 0.827237 0.449724 0.848264
Si Si5 0.259952 0.045824 0.381891
Si Si6 0.336733 0.922006 0.569691
Si Si7 0.369773 0.350896 0.322588
O O1 0.076329 0.500000 0.937414
O O2 0.494367 0.442513 0.898067
O O3 0.022333 0.433585 0.881873
O O4 0.000000 0.428803 0.000000
O O5 0.500000 0.798588 0.500000
O O6 0.481313 0.740369 0.421091
O O7 0.764688 0.808731 0.366418
O O8 0.598712 0.916954 0.210068
O O9 0.352092 0.915969 0.332296
O O10 0.718710 0.855370 0.274896
O O11 0.215646 0.854160 0.275957
O O12 0.883331 0.500000 0.826248
O O13 0.438708 0.046314 0.422861
O O14 0.922449 0.050461 0.430395
O O15 0.314209 0.000000 0.345907
O O16 0.500000 0.898359 0.500000
O O17 0.221064 0.889064 0.627503
#
# Coordination Sequence:
#
# PCOD8080760 Si02
#       7
#     8   8   8   8   8   8   8
#     4   9  17  28  43  65  91 120 158 205 246 269
#     4  10  20  34  54  76  93 113 145 185 231 285
#     4  10  20  32  46  64  87 121 155 182 224 266
#     4  10  18  29  46  65  90 125 167 205 228 262
#     4  10  20  31  42  57  79 106 144 191 223 254
#     4  10  20  31  44  59  77 107 139 176 229 271
#     4  10  20  34  48  65  91 114 142 182 223 276
#
# _framework density 16.708659999999998
#
# number of rings (size 3 to 8) (size 9 to 14) (size 15 to 20)
#    0.000    2.143    0.000    3.857    0.000    3.429 
#    0.000    8.571    0.000    0.000    0.000    0.000 
#    0.000    0.000    0.000    0.000    0.000  180.000 
#
# Total GULP energy -346918.408890 kJ/mol
# GULP energy per Si atom -12389.943175 kJ/mol
# Density = 1.667063 g / cm^3
# Si number density = 16.708660 Si / 1000 Ang^3
#
#
#
# Elastic Constant Matrix: (Units=GPa)
#
#
# Indices 1 2 3 4 5 6 
#
# 1 93.3613 15.6776 16.5412 0.0000 -12.2699 0.0000
# 2 15.6776 42.0243 17.2745 0.0000 -0.3807 0.0000
# 3 16.5412 17.2745 70.8459 0.0000 -2.9788 0.0000
# 4 0.0000 0.0000 0.0000 10.0687 0.0000 4.7935
# 5 -12.2699 -0.3807 -2.9788 0.0000 8.2085 0.0000
# 6 0.0000 0.0000 0.0000 4.7935 0.0000 4.7407
#
#
#
# Elastic Compliance Matrix: (Units=1/GPa)
#
#
# Indices 1 2 3 4 5 6 
#
# 1 0.014487 -0.004653 -0.001367 0.000000 0.020943 0.000000
# 2 -0.004653 0.027951 -0.006059 0.000000 -0.007857 0.000000
# 3 -0.001367 -0.006059 0.016059 0.000000 0.003503 0.000000
# 4 0.000000 0.000000 0.000000 0.191500 0.000000 -0.193629
# 5 0.020943 -0.007857 0.003503 0.000000 0.154037 0.000000
# 6 0.000000 0.000000 0.000000 -0.193629 0.000000 0.406719
#
#
# Mechanical properties :
#
#
# Convention : Reuss Voigt Hill
#
# Bulk Modulus (GPa) = 29.12207 33.91315 31.51761
# Shear Modulus (GPa) = 5.90766 15.05279 10.48022
#
# Velocity S-wave (km/s) = 1.88238 3.00475 2.50718
# Velocity P-wave (km/s) = 4.71080 5.69024 5.22353
#
# Compressibility (1/GPa) = 0.03433822
#
# Stress axis : x y z
#
# Youngs Moduli (GPa) = 69.02710 35.77675 62.26971
#
# Poissons Ratio (x) = 0.16646 0.08515
# Poissons Ratio (y) = 0.32116 0.37732
# Poissons Ratio (z) = 0.09439 0.21679
#
# Static dielectric constant tensor:
#      x y z
#    x 3.738830 0.000000 0.081890 
#    y 0.000000 2.721120 0.000000 
#    z 0.081890 0.000000 3.053720 
# 
# 
# High freq. dielectric constant tensor:
#      x y z
#    x 1.674070 0.000000 0.002540 
#    y 0.000000 1.594310 0.000000 
#    z 0.002540 0.000000 1.623160 
# 
# From -- ./inp_files/298266.got.cif
#   From: 2010.06.25/outbox.cif.g09.slc.cpg/sg12_150_cif.got.tgz:298266.got - 2010.06.28 00:19:55.
