data_PCOD8080062
_publ_section_title
;
Structure prediction by ZEFSAII (Michael W. Deem and Ramdas Pophale) SiO2 
 PCOD8080062
Probable space group: C 2/M
;
_chemical_formula_sum "Si O2"
_cell_formula_units_Z 60
_cell_length_a 16.199573
_cell_length_b 17.087370
_cell_length_c 13.942480
_cell_angle_alpha 90.000000
_cell_angle_beta 108.859814
_cell_angle_gamma 90.000000
_cell_volume 3652.189577
_symmetry_space_group_name_H-M "C 2/M"
_symmetry_group_IT_number 12
_symmetry_cell_setting 'monoclinic'
loop_
_space_group_symop_operation_xyz
x,y,z
-x,y,-z
-x,-y,-z
x,-y,z
1/2+x,1/2+y,z
1/2-x,1/2+y,-z
1/2-x,1/2-y,-z
1/2+x,1/2-y,z
loop_
_atom_site_type_symbol
_atom_site_label
_atom_site_fract_x
_atom_site_fract_y
_atom_site_fract_z
Si Si1 0.000000 0.694333 0.500000
Si Si2 0.809276 0.408679 0.861279
Si Si3 0.531745 0.693111 0.344402
Si Si4 0.065921 0.413589 0.936190
Si Si5 0.872751 0.909808 0.288459
Si Si6 0.829383 0.091665 0.490695
Si Si7 0.063971 0.336779 0.240096
Si Si8 0.130117 0.590263 0.453141
O O1 0.012759 0.748251 0.597068
O O2 0.913124 0.640904 0.477851
O O3 0.829178 0.500000 0.843197
O O4 0.707146 0.390940 0.812681
O O5 0.859976 0.353321 0.806699
O O6 0.840131 0.389691 0.982258
O O7 0.455680 0.636424 0.279341
O O8 0.609558 0.642832 0.418420
O O9 0.568122 0.745072 0.270097
O O10 0.071752 0.500000 0.892194
O O11 0.031567 0.354678 0.841631
O O12 0.000000 0.414638 0.000000
O O13 0.848794 0.886094 0.388177
O O14 0.898326 0.000000 0.294763
O O15 0.730481 0.114975 0.477776
O O16 0.846933 0.000000 0.515939
O O17 0.077403 0.392940 0.336079
O O18 0.121766 0.500000 0.477419
#
# Coordination Sequence:
#
# PCOD8080062 Si02
#       8
#     4   8   8   8   8   8   8   8
#     4  10  21  30  41  62  96 124 144 182 223 270
#     4   9  16  29  50  73  89 111 149 193 233 270
#     4  11  21  31  41  65  96 125 154 181 226 268
#     4   8  14  26  46  69  92 112 143 188 231 272
#     4  10  18  31  49  66  88 117 155 195 230 264
#     4  10  19  32  50  64  84 120 163 197 219 259
#     4  10  18  27  44  67  93 118 144 183 227 278
#     4  10  19  31  46  64  87 121 159 184 215 263
#
# _framework density 16.428502000000002
#
# number of rings (size 3 to 8) (size 9 to 14) (size 15 to 20)
#    0.000    2.267    2.667    2.600    0.000    4.267 
#    0.000    0.667    0.000    0.000    0.000    0.000 
#    0.000   19.200    0.000    0.000    0.000    2.800 
#
# Total GULP energy -371879.131947 kJ/mol
# GULP energy per Si atom -12395.971065 kJ/mol
# Density = 1.639111 g / cm^3
# Si number density = 16.428502 Si / 1000 Ang^3
#
#
#
# Elastic Constant Matrix: (Units=GPa)
#
#
# Indices 1 2 3 4 5 6 
#
# 1 76.0905 44.0325 36.6069 0.0000 21.2621 0.0000
# 2 44.0325 75.4576 41.2841 0.0000 15.6286 0.0000
# 3 36.6069 41.2841 89.2286 0.0000 32.1313 0.0000
# 4 0.0000 0.0000 0.0000 15.5461 0.0000 -0.3748
# 5 21.2621 15.6286 32.1313 0.0000 27.6746 0.0000
# 6 0.0000 0.0000 0.0000 -0.3748 0.0000 21.8977
#
#
#
# Elastic Compliance Matrix: (Units=1/GPa)
#
#
# Indices 1 2 3 4 5 6 
#
# 1 0.022549 -0.010695 -0.000411 0.000000 -0.010807 0.000000
# 2 -0.010695 0.022828 -0.007718 0.000000 0.004286 0.000000
# 3 -0.000411 -0.007718 0.022793 0.000000 -0.021789 0.000000
# 4 0.000000 0.000000 0.000000 0.064352 0.000000 0.001101
# 5 -0.010807 0.004286 -0.021789 0.000000 0.067316 0.000000
# 6 0.000000 0.000000 0.000000 0.001101 0.000000 0.045686
#
#
# Mechanical properties :
#
#
# Convention : Reuss Voigt Hill
#
# Bulk Modulus (GPa) = 32.76212 53.84708 43.30460
# Shear Modulus (GPa) = 17.04482 20.94721 18.99601
#
# Velocity S-wave (km/s) = 3.22454 3.57466 3.40411
# Velocity P-wave (km/s) = 5.81800 7.06296 6.47049
#
# Compressibility (1/GPa) = 0.03052305
#
# Stress axis : x y z
#
# Youngs Moduli (GPa) = 44.34818 43.80540 43.87329
#
# Poissons Ratio (x) = 0.46850 0.01802
# Poissons Ratio (y) = 0.47430 0.33860
# Poissons Ratio (z) = 0.01822 0.33807
#
# Static dielectric constant tensor:
#      x y z
#    x 3.014400 0.000000 0.260740 
#    y 0.000000 3.127990 0.000000 
#    z 0.260740 0.000000 3.203390 
# 
# 
# High freq. dielectric constant tensor:
#      x y z
#    x 1.612950 0.000000 0.027180 
#    y 0.000000 1.628140 0.000000 
#    z 0.027180 0.000000 1.616520 
# 
# From -- ./inp_files/215993.got.cif
#   From: 2010.06.25/outbox.cif.g09.slc.cpg/sg12_108_cif.got.tgz:215993.got - 2010.06.28 00:19:55.
