data_PCOD8080402
_publ_section_title
;
Structure prediction by ZEFSAII (Michael W. Deem and Ramdas Pophale) SiO2 
 PCOD8080402
Probable space group: C 2/M
;
_chemical_formula_sum "Si O2"
_cell_formula_units_Z 40
_cell_length_a 25.312393
_cell_length_b 8.740309
_cell_length_c 24.985625
_cell_angle_alpha 90.000000
_cell_angle_beta 23.837200
_cell_angle_gamma 90.000000
_cell_volume 2233.990136
_symmetry_space_group_name_H-M "C 2/M"
_symmetry_group_IT_number 12
_symmetry_cell_setting 'monoclinic'
loop_
_space_group_symop_operation_xyz
x,y,z
-x,y,-z
-x,-y,-z
x,-y,z
1/2+x,1/2+y,z
1/2-x,1/2+y,-z
1/2-x,1/2-y,-z
1/2+x,1/2-y,z
loop_
_atom_site_type_symbol
_atom_site_label
_atom_site_fract_x
_atom_site_fract_y
_atom_site_fract_z
Si Si1 0.609304 0.676278 0.858210
Si Si2 0.374653 0.680632 0.646932
Si Si3 0.169996 0.180916 0.192248
Si Si4 0.443773 0.322803 0.910046
Si Si5 0.108973 0.318411 0.144398
O O1 0.633349 0.500000 0.850474
O O2 0.744024 0.763975 0.739330
O O3 0.563648 0.698535 0.839444
O O4 0.500000 0.743543 0.000000
O O5 0.500000 0.749899 0.500000
O O6 0.374639 0.500000 0.643341
O O7 0.382383 0.733531 0.701446
O O8 0.075522 0.259488 0.235191
O O9 0.165592 0.000000 0.188432
O O10 0.318722 0.236275 0.049682
O O11 0.406529 0.500000 0.937024
O O12 0.486688 0.249782 0.812896
O O13 0.107277 0.500000 0.143823
O O14 0.250000 0.250000 0.000000
#
# Coordination Sequence:
#
# PCOD8080402 Si02
#       5
#     8   8   8   8   8
#     4  10  20  34  53  78 106 136 171 214 261 306
#     4  10  22  37  53  76 106 140 176 213 256 308
#     4  10  18  30  49  72 101 135 171 208 254 303
#     4  10  18  30  49  74 105 132 165 210 256 304
#     4  10  18  28  45  71 102 132 167 208 255 303
#
# _framework density 17.905183000000001
#
# number of rings (size 3 to 8) (size 9 to 14) (size 15 to 20)
#    0.000    2.000    2.000    5.400    0.000    3.200 
#    0.000    0.000    0.000    1.200    0.000    0.000 
#    0.000    0.000    0.000    0.000    0.000    0.000 
#
# Total GULP energy -247946.631153 kJ/mol
# GULP energy per Si atom -12397.331558 kJ/mol
# Density = 1.786443 g / cm^3
# Si number density = 17.905183 Si / 1000 Ang^3
#
#
#
# Elastic Constant Matrix: (Units=GPa)
#
#
# Indices 1 2 3 4 5 6 
#
# 1 158.7742 48.6110 53.6173 -0.0005 15.6192 0.0013
# 2 48.6110 55.6383 6.0579 -0.0053 10.0716 0.0024
# 3 53.6173 6.0579 79.3990 -0.0090 6.6063 0.0019
# 4 -0.0005 -0.0053 -0.0090 15.8730 0.0029 -2.1423
# 5 15.6192 10.0716 6.6063 0.0029 19.0703 -0.0010
# 6 0.0013 0.0024 0.0019 -2.1423 -0.0010 32.9763
#
#
#
# Elastic Compliance Matrix: (Units=1/GPa)
#
#
# Indices 1 2 3 4 5 6 
#
# 1 0.011636 -0.008977 -0.006975 -0.000006 -0.002373 0.000000
# 2 -0.008977 0.026833 0.004718 0.000013 -0.008453 -0.000001
# 3 -0.006975 0.004718 0.017172 0.000012 -0.002728 0.000000
# 4 -0.000006 0.000013 0.000012 0.063557 -0.000015 0.004129
# 5 -0.002373 -0.008453 -0.002728 -0.000015 0.059790 0.000002
# 6 0.000000 -0.000001 0.000000 0.004129 0.000002 0.030593
#
#
# Mechanical properties :
#
#
# Convention : Reuss Voigt Hill
#
# Bulk Modulus (GPa) = 30.14556 56.70931 43.42743
# Shear Modulus (GPa) = 20.56718 25.95227 23.25973
#
# Velocity S-wave (km/s) = 3.39288 3.81127 3.60814
# Velocity P-wave (km/s) = 5.67641 7.14902 6.45485
#
# Compressibility (1/GPa) = 0.03317239
#
# Stress axis : x y z
#
# Youngs Moduli (GPa) = 85.94385 37.26778 58.23520
#
# Poissons Ratio (x) = 0.33455 0.40619
# Poissons Ratio (y) = 0.77152 -0.27476
# Poissons Ratio (z) = 0.59946 -0.17583
#
# Static dielectric constant tensor:
#      x y z
#    x 4.466650 -0.000030 0.597780 
#    y -0.000030 3.338660 -0.000010 
#    z 0.597780 -0.000010 3.272870 
# 
# 
# High freq. dielectric constant tensor:
#      x y z
#    x 1.721070 0.000000 0.010830 
#    y 0.000000 1.700970 0.000000 
#    z 0.010830 0.000000 1.632630 
# 
# From -- ./inp_files/101018.got.cif
#   From: 2010.06.25/outbox.cif.g09.slc.cpg/sg12_51_cif.got.tgz:101018.got - 2010.06.28 00:19:55.
