data_PCOD8080291
_publ_section_title
;
Structure prediction by ZEFSAII (Michael W. Deem and Ramdas Pophale) SiO2 
 PCOD8080291
Probable space group: C 2/M
;
_chemical_formula_sum "Si O2"
_cell_formula_units_Z 48
_cell_length_a 30.643241
_cell_length_b 8.871052
_cell_length_c 11.645133
_cell_angle_alpha 90.000000
_cell_angle_beta 79.069140
_cell_angle_gamma 90.000000
_cell_volume 3108.153025
_symmetry_space_group_name_H-M "C 2/M"
_symmetry_group_IT_number 12
_symmetry_cell_setting 'monoclinic'
loop_
_space_group_symop_operation_xyz
x,y,z
-x,y,-z
-x,-y,-z
x,-y,z
1/2+x,1/2+y,z
1/2-x,1/2+y,-z
1/2-x,1/2-y,-z
1/2+x,1/2-y,z
loop_
_atom_site_type_symbol
_atom_site_label
_atom_site_fract_x
_atom_site_fract_y
_atom_site_fract_z
Si Si1 0.432036 0.822141 0.089275
Si Si2 0.122303 0.170712 0.488038
Si Si3 0.297610 0.821311 0.457863
Si Si4 0.041418 0.321005 0.403115
Si Si5 0.978626 0.321886 0.839388
Si Si6 0.361355 0.670084 0.271074
O O1 0.473200 0.761330 0.145233
O O2 0.387006 0.741931 0.151221
O O3 0.426084 0.000000 0.107246
O O4 0.441259 0.777912 0.952003
O O5 0.169472 0.259979 0.457597
O O6 0.086519 0.253076 0.428415
O O7 0.107254 0.171707 0.630107
O O8 0.128901 0.000000 0.440547
O O9 0.250000 0.750000 0.500000
O O10 0.316916 0.766157 0.324082
O O11 0.294654 0.000000 0.463540
O O12 0.045705 0.500000 0.403141
O O13 0.034560 0.256478 0.278007
O O14 0.000000 0.266261 0.500000
O O15 0.982494 0.500000 0.830453
O O16 0.347355 0.500000 0.245993
#
# Coordination Sequence:
#
# PCOD8080291 Si02
#       6
#     8   8   8   8   8   8
#     4   9  15  28  46  62  86 123 161 199 236 273
#     4   9  19  31  43  65  95 123 153 189 231 275
#     4  10  18  31  50  72  96 121 149 186 236 284
#     4  10  18  28  44  66  92 126 165 197 231 278
#     4   8  16  27  42  65  90 119 162 203 233 271
#     4   9  18  29  43  66  94 118 148 190 230 274
#
# _framework density 15.443255000000001
#
# number of rings (size 3 to 8) (size 9 to 14) (size 15 to 20)
#    1.000    1.833    0.000    4.000    0.000    1.667 
#    0.000    3.333    0.000    0.000    0.000    1.167 
#    0.000    0.000    0.000    0.000    0.000    0.000 
#
# Total GULP energy -297360.801242 kJ/mol
# GULP energy per Si atom -12390.033385 kJ/mol
# Density = 1.540811 g / cm^3
# Si number density = 15.443255 Si / 1000 Ang^3
#
#
#
# Elastic Constant Matrix: (Units=GPa)
#
#
# Indices 1 2 3 4 5 6 
#
# 1 105.4794 45.4989 56.4205 0.0000 -13.7287 0.0000
# 2 45.4989 79.3507 37.7864 0.0000 -10.3941 0.0000
# 3 56.4205 37.7864 104.0222 0.0000 -10.9198 0.0000
# 4 0.0000 0.0000 0.0000 17.9984 0.0000 -4.4765
# 5 -13.7287 -10.3941 -10.9198 0.0000 26.1813 0.0000
# 6 0.0000 0.0000 0.0000 -4.4765 0.0000 26.3860
#
#
#
# Elastic Compliance Matrix: (Units=1/GPa)
#
#
# Indices 1 2 3 4 5 6 
#
# 1 0.015582 -0.005602 -0.006058 0.000000 0.003420 0.000000
# 2 -0.005602 0.017645 -0.003079 0.000000 0.002783 0.000000
# 3 -0.006058 -0.003079 0.014176 0.000000 0.001514 0.000000
# 4 0.000000 0.000000 0.000000 0.058008 0.000000 0.009841
# 5 0.003420 0.002783 0.001514 0.000000 0.041725 0.000000
# 6 0.000000 0.000000 0.000000 0.009841 0.000000 0.039568
#
#
# Mechanical properties :
#
#
# Convention : Reuss Voigt Hill
#
# Bulk Modulus (GPa) = 55.78351 63.14041 59.46196
# Shear Modulus (GPa) = 22.50640 24.05624 23.28132
#
# Velocity S-wave (km/s) = 3.82168 3.95108 3.88692
# Velocity P-wave (km/s) = 7.46148 7.86059 7.66363
#
# Compressibility (1/GPa) = 0.01792645
#
# Stress axis : x y z
#
# Youngs Moduli (GPa) = 64.17475 56.67229 70.54013
#
# Poissons Ratio (x) = 0.31749 0.42731
# Poissons Ratio (y) = 0.35952 0.21719
# Poissons Ratio (z) = 0.38875 0.17449
#
# Static dielectric constant tensor:
#      x y z
#    x 2.763230 0.000000 -0.001770 
#    y 0.000000 2.838710 0.000000 
#    z -0.001770 0.000000 3.006600 
# 
# 
# High freq. dielectric constant tensor:
#      x y z
#    x 1.566710 0.000000 -0.011310 
#    y 0.000000 1.588620 0.000000 
#    z -0.011310 0.000000 1.576360 
# 
# From -- ./inp_files/185744.got.cif
#   From: 2010.06.25/outbox.cif.g09.slc.cpg/sg12_93_cif.got.tgz:185744.got - 2010.06.28 00:19:55.
