data_PCOD8080589
_publ_section_title
;
Structure prediction by ZEFSAII (Michael W. Deem and Ramdas Pophale) SiO2 
 PCOD8080589
Probable space group: C 2/M
;
_chemical_formula_sum "Si O2"
_cell_formula_units_Z 64
_cell_length_a 19.997361
_cell_length_b 18.281868
_cell_length_c 20.705986
_cell_angle_alpha 90.000000
_cell_angle_beta 151.295133
_cell_angle_gamma 90.000000
_cell_volume 3635.799741
_symmetry_space_group_name_H-M "C 2/M"
_symmetry_group_IT_number 12
_symmetry_cell_setting 'monoclinic'
loop_
_space_group_symop_operation_xyz
x,y,z
-x,y,-z
-x,-y,-z
x,-y,z
1/2+x,1/2+y,z
1/2-x,1/2+y,-z
1/2-x,1/2-y,-z
1/2+x,1/2-y,z
loop_
_atom_site_type_symbol
_atom_site_label
_atom_site_fract_x
_atom_site_fract_y
_atom_site_fract_z
Si Si1 0.165288 0.418110 0.278622
Si Si2 0.669629 0.832146 0.892901
Si Si3 0.580550 0.083872 0.355252
Si Si4 0.742618 0.796066 0.558854
Si Si5 0.366028 0.082050 0.010777
Si Si6 0.448608 0.680372 0.177278
Si Si7 0.590269 0.315602 0.516032
Si Si8 0.423494 0.583792 0.277131
O O1 0.224271 0.500000 0.320680
O O2 0.132504 0.401453 0.326277
O O3 0.277779 0.361777 0.347071
O O4 0.022916 0.407903 0.116264
O O5 0.578994 0.886952 0.772096
O O6 0.659335 0.855010 0.958966
O O7 0.606687 0.751330 0.830146
O O8 0.838448 0.834760 0.024648
O O9 0.680538 0.124626 0.490146
O O10 0.583843 0.000000 0.377601
O O11 0.750000 0.750000 0.500000
O O12 0.641194 0.756972 0.523429
O O13 0.897192 0.804644 0.720227
O O14 0.359221 0.000000 0.037020
O O15 0.244688 0.088151 0.853982
O O16 0.459503 0.612337 0.235849
O O17 0.500000 0.289399 0.500000
O O18 0.499737 0.367706 0.394100
O O19 0.476185 0.500000 0.327350
#
# Coordination Sequence:
#
# PCOD8080589 Si02
#       8
#     8   8   8   8   8   8   8   8
#     4   9  16  29  48  73 102 134 169 203 242 295
#     4   9  15  26  44  73 105 126 163 206 260 299
#     4  10  18  30  53  80 105 133 166 206 256 307
#     4  12  19  35  53  74 103 133 170 216 252 295
#     4   8  15  27  46  69  98 134 168 204 247 296
#     4  10  18  28  49  74  98 135 166 209 255 299
#     4  12  24  35  49  70  99 137 174 211 252 297
#     4  10  19  32  48  72 103 133 167 206 249 301
#
# _framework density 17.602730000000001
#
# number of rings (size 3 to 8) (size 9 to 14) (size 15 to 20)
#    0.000    2.000    3.750    2.250    0.000    3.000 
#    0.000    0.625    0.000    2.625    0.000    0.000 
#    0.000    1.000    0.000    0.000    0.000    0.000 
#
# Total GULP energy -396538.898756 kJ/mol
# GULP energy per Si atom -12391.840586 kJ/mol
# Density = 1.756267 g / cm^3
# Si number density = 17.602730 Si / 1000 Ang^3
#
#
#
# Elastic Constant Matrix: (Units=GPa)
#
#
# Indices 1 2 3 4 5 6 
#
# 1 52.1338 29.4178 28.1250 0.0023 16.4935 0.0009
# 2 29.4178 95.1320 52.5762 0.0029 12.0630 0.0021
# 3 28.1250 52.5762 136.7846 0.0095 22.8181 0.0023
# 4 0.0023 0.0029 0.0095 30.5133 0.0030 3.0468
# 5 16.4935 12.0630 22.8181 0.0030 14.9004 0.0017
# 6 0.0009 0.0021 0.0023 3.0468 0.0017 13.2453
#
#
#
# Elastic Compliance Matrix: (Units=1/GPa)
#
#
# Indices 1 2 3 4 5 6 
#
# 1 0.032562 -0.006651 0.001311 0.000001 -0.032666 0.000003
# 2 -0.006651 0.014882 -0.004796 0.000000 0.002659 -0.000001
# 3 0.001311 -0.004796 0.011388 -0.000002 -0.015008 0.000001
# 4 0.000001 0.000000 -0.000002 0.033543 -0.000004 -0.007716
# 5 -0.032666 0.002659 -0.015008 -0.000004 0.124101 -0.000010
# 6 0.000003 -0.000001 0.000001 -0.007716 -0.000010 0.077273
#
#
# Mechanical properties :
#
#
# Convention : Reuss Voigt Hill
#
# Bulk Modulus (GPa) = 25.93466 56.03202 40.98334
# Shear Modulus (GPa) = 15.29631 23.32724 19.31178
#
# Velocity S-wave (km/s) = 2.95103 3.64429 3.31583
# Velocity P-wave (km/s) = 5.13583 7.04332 6.16381
#
# Compressibility (1/GPa) = 0.03855844
#
# Stress axis : x y z
#
# Youngs Moduli (GPa) = 30.71059 67.19510 87.80886
#
# Poissons Ratio (x) = 0.44694 -0.11508
# Poissons Ratio (y) = 0.20427 0.42115
# Poissons Ratio (z) = -0.04025 0.32228
#
# Static dielectric constant tensor:
#      x y z
#    x 2.628620 0.000000 0.254660 
#    y 0.000000 3.387680 0.000000 
#    z 0.254660 0.000000 3.942940 
# 
# 
# High freq. dielectric constant tensor:
#      x y z
#    x 1.587470 0.000000 0.019290 
#    y 0.000000 1.687250 0.000000 
#    z 0.019290 0.000000 1.715240 
# 
# From -- ./inp_files/317395.got.cif
#   From: 2010.06.25/outbox.cif.g09.slc.cpg/sg12_159_cif.got.tgz:317395.got - 2010.06.28 00:19:55.
