data_PCOD8080886
_publ_section_title
;
Structure prediction by ZEFSAII (Michael W. Deem and Ramdas Pophale) SiO2 
 PCOD8080886
Probable space group: C 2/M
;
_chemical_formula_sum "Si O2"
_cell_formula_units_Z 56
_cell_length_a 26.218383
_cell_length_b 13.737878
_cell_length_c 15.112163
_cell_angle_alpha 90.000000
_cell_angle_beta 36.148650
_cell_angle_gamma 90.000000
_cell_volume 3210.831297
_symmetry_space_group_name_H-M "C 2/M"
_symmetry_group_IT_number 12
_symmetry_cell_setting 'monoclinic'
loop_
_space_group_symop_operation_xyz
x,y,z
-x,y,-z
-x,-y,-z
x,-y,z
1/2+x,1/2+y,z
1/2-x,1/2+y,-z
1/2-x,1/2-y,-z
1/2+x,1/2-y,z
loop_
_atom_site_type_symbol
_atom_site_label
_atom_site_fract_x
_atom_site_fract_y
_atom_site_fract_z
Si Si1 0.109416 0.892593 0.005826
Si Si2 0.691294 0.886364 0.021629
Si Si3 0.960787 0.768779 0.152179
Si Si4 0.145865 0.386564 0.437081
Si Si5 0.276118 0.202516 0.841194
Si Si6 0.999125 0.611236 0.230616
Si Si7 0.313959 0.393024 0.295867
O O1 0.179371 0.838910 0.968168
O O2 0.141236 0.898750 0.861564
O O3 0.094872 0.000000 0.065609
O O4 0.018430 0.837311 0.134622
O O5 0.678892 0.851410 0.139754
O O6 0.600482 0.868752 0.099609
O O7 0.718512 0.000000 0.978673
O O8 0.765210 0.819234 0.871741
O O9 0.864126 0.813629 0.284638
O O10 0.958884 0.665165 0.202395
O O11 0.000000 0.756083 0.000000
O O12 0.155046 0.500000 0.394942
O O13 0.164153 0.317766 0.327447
O O14 0.214378 0.363127 0.419716
O O15 0.051466 0.361037 0.607661
O O16 0.979926 0.500000 0.236352
O O17 0.320457 0.500000 0.331918
#
# Coordination Sequence:
#
# PCOD8080886 Si02
#       7
#     8   8   8   8   8   8   8
#     4   9  15  26  46  73  98 120 157 204 248 289
#     4  10  20  33  52  78 104 129 164 204 243 294
#     4  10  18  29  47  70  97 131 169 201 251 292
#     4   9  18  33  53  75 101 129 162 208 254 293
#     4  10  18  32  54  78  97 130 165 201 249 294
#     4  10  21  35  48  70 104 135 166 205 246 292
#     4   8  15  27  46  70  95 122 158 205 249 287
#
# _framework density 17.440964999999998
#
# number of rings (size 3 to 8) (size 9 to 14) (size 15 to 20)
#    0.000    2.571    1.429    2.571    0.000    3.143 
#    0.000    2.143    0.000    1.714    0.000    2.000 
#    0.000    0.000    0.000    0.000    0.000    0.000 
#
# Total GULP energy -347077.674607 kJ/mol
# GULP energy per Si atom -12395.631236 kJ/mol
# Density = 1.740127 g / cm^3
# Si number density = 17.440965 Si / 1000 Ang^3
#
#
#
# Elastic Constant Matrix: (Units=GPa)
#
#
# Indices 1 2 3 4 5 6 
#
# 1 58.7408 35.3190 2.5076 0.0000 8.6704 0.0000
# 2 35.3190 109.3775 31.0649 0.0000 10.3727 0.0000
# 3 2.5076 31.0649 43.6594 0.0000 4.5694 0.0000
# 4 0.0000 0.0000 0.0000 18.2160 0.0000 2.6859
# 5 8.6704 10.3727 4.5694 0.0000 14.5530 0.0000
# 6 0.0000 0.0000 0.0000 2.6859 0.0000 31.1452
#
#
#
# Elastic Compliance Matrix: (Units=1/GPa)
#
#
# Indices 1 2 3 4 5 6 
#
# 1 0.023080 -0.008077 0.005437 0.000000 -0.009701 0.000000
# 2 -0.008077 0.014778 -0.009774 0.000000 -0.002652 0.000000
# 3 0.005437 -0.009774 0.030147 0.000000 -0.005739 0.000000
# 4 0.000000 0.000000 0.000000 0.055604 0.000000 -0.004795
# 5 -0.009701 -0.002652 -0.005739 0.000000 0.078186 0.000000
# 6 0.000000 0.000000 0.000000 -0.004795 0.000000 0.032521
#
#
# Mechanical properties :
#
#
# Convention : Reuss Voigt Hill
#
# Bulk Modulus (GPa) = 23.16013 38.84008 31.00010
# Shear Modulus (GPa) = 18.27909 22.30860 20.29385
#
# Velocity S-wave (km/s) = 3.24088 3.58032 3.41482
# Velocity P-wave (km/s) = 5.22613 6.27769 5.77589
#
# Compressibility (1/GPa) = 0.04317765
#
# Stress axis : x y z
#
# Youngs Moduli (GPa) = 43.32730 67.66763 33.17072
#
# Poissons Ratio (x) = 0.54654 -0.18034
# Poissons Ratio (y) = 0.34995 0.32420
# Poissons Ratio (z) = -0.23555 0.66135
#
# Static dielectric constant tensor:
#      x y z
#    x 3.324970 0.000000 -0.224900 
#    y 0.000000 3.345040 0.000000 
#    z -0.224900 0.000000 2.947110 
# 
# 
# High freq. dielectric constant tensor:
#      x y z
#    x 1.674790 0.000000 -0.014720 
#    y 0.000000 1.673840 0.000000 
#    z -0.014720 0.000000 1.636420 
# 
# From -- ./inp_files/224281.got.cif
#   From: 2010.06.25/outbox.cif.g09.slc.cpg/sg12_113_cif.got.tgz:224281.got - 2010.06.28 00:19:55.
