data_PCOD8080378
_publ_section_title
;
Structure prediction by ZEFSAII (Michael W. Deem and Ramdas Pophale) SiO2 
 PCOD8080378
Probable space group: C 2/M
;
_chemical_formula_sum "Si O2"
_cell_formula_units_Z 64
_cell_length_a 23.667228
_cell_length_b 9.243556
_cell_length_c 30.126958
_cell_angle_alpha 90.000000
_cell_angle_beta 145.259544
_cell_angle_gamma 90.000000
_cell_volume 3755.863868
_symmetry_space_group_name_H-M "C 2/M"
_symmetry_group_IT_number 12
_symmetry_cell_setting 'monoclinic'
loop_
_space_group_symop_operation_xyz
x,y,z
-x,y,-z
-x,-y,-z
x,-y,z
1/2+x,1/2+y,z
1/2-x,1/2+y,-z
1/2-x,1/2-y,-z
1/2+x,1/2-y,z
loop_
_atom_site_type_symbol
_atom_site_label
_atom_site_fract_x
_atom_site_fract_y
_atom_site_fract_z
Si Si1 0.690439 0.166829 0.734873
Si Si2 0.015790 0.831854 0.395626
Si Si3 0.333429 0.836937 0.183984
Si Si4 0.970598 0.833258 0.692603
Si Si5 0.097436 0.830147 0.539550
Si Si6 0.456913 0.169227 0.767955
Si Si7 0.316824 0.835786 0.076838
Si Si8 0.779766 0.329117 0.714431
O O1 0.581313 0.234632 0.660322
O O2 0.729901 0.181020 0.811575
O O3 0.768418 0.250036 0.754233
O O4 0.684777 0.000000 0.716639
O O5 0.071378 0.803507 0.384360
O O6 0.094240 0.792595 0.485041
O O7 0.982317 0.000000 0.377518
O O8 0.415493 0.713579 0.236847
O O9 0.272520 0.818605 0.098510
O O10 0.381140 0.000000 0.214265
O O11 0.916369 0.743465 0.696401
O O12 0.963236 0.000000 0.700926
O O13 0.196282 0.768437 0.626463
O O14 0.000000 0.762672 0.500000
O O15 0.098022 0.000000 0.547758
O O16 0.569108 0.220127 0.850844
O O17 0.386655 0.213392 0.763453
O O18 0.451550 0.000000 0.755375
O O19 0.313815 0.000000 0.058793
O O20 0.250000 0.750000 0.000000
O O21 0.770789 0.500000 0.716325
#
# Coordination Sequence:
#
# PCOD8080378 Si02
#       8
#     8   8   8   8   8   8   8   8
#     4  10  18  28  45  69  95 123 154 193 234 269
#     4   9  16  28  45  66  90 119 158 200 236 272
#     4   8  16  30  46  67  97 125 149 181 226 276
#     4   9  16  26  45  68  90 117 154 199 234 263
#     4   9  15  26  46  67  88 118 160 201 230 267
#     4   9  19  34  49  66  94 127 155 183 226 285
#     4   9  17  31  51  74  95 116 146 184 225 272
#     4  10  19  32  49  66  89 127 164 192 227 274
#
# _framework density 17.040022
#
# number of rings (size 3 to 8) (size 9 to 14) (size 15 to 20)
#    0.000    2.875    1.250    1.500    0.000    3.500 
#    0.000    1.875    0.000    0.750    0.000    5.250 
#    0.000    0.000    0.000    0.000    0.000    0.000 
#
# Total GULP energy -396461.025895 kJ/mol
# GULP energy per Si atom -12389.407059 kJ/mol
# Density = 1.700124 g / cm^3
# Si number density = 17.040022 Si / 1000 Ang^3
#
#
#
# Elastic Constant Matrix: (Units=GPa)
#
#
# Indices 1 2 3 4 5 6 
#
# 1 127.3088 44.3202 55.7375 0.0000 -22.0414 0.0000
# 2 44.3202 49.9517 29.7621 0.0000 -10.0417 0.0003
# 3 55.7375 29.7621 92.5238 0.0001 -21.5945 0.0000
# 4 0.0000 0.0000 0.0001 18.2090 0.0000 -7.5312
# 5 -22.0414 -10.0417 -21.5945 0.0000 24.9749 0.0000
# 6 0.0000 0.0003 0.0000 -7.5312 0.0000 26.2467
#
#
#
# Elastic Compliance Matrix: (Units=1/GPa)
#
#
# Indices 1 2 3 4 5 6 
#
# 1 0.013516 -0.008465 -0.004297 0.000000 0.004810 0.000000
# 2 -0.008465 0.030366 -0.004463 0.000000 0.000879 0.000000
# 3 -0.004297 -0.004463 0.016948 0.000000 0.009068 0.000000
# 4 0.000000 0.000000 0.000000 0.062313 0.000000 0.017880
# 5 0.004810 0.000879 0.009068 0.000000 0.052479 0.000000
# 6 0.000000 0.000000 0.000000 0.017880 0.000000 0.043231
#
#
# Mechanical properties :
#
#
# Convention : Reuss Voigt Hill
#
# Bulk Modulus (GPa) = 37.90651 58.82488 48.36569
# Shear Modulus (GPa) = 19.07699 23.21708 21.14703
#
# Velocity S-wave (km/s) = 3.34958 3.69521 3.52664
# Velocity P-wave (km/s) = 6.10356 7.26655 6.71030
#
# Compressibility (1/GPa) = 0.02638070
#
# Stress axis : x y z
#
# Youngs Moduli (GPa) = 73.98829 32.93145 59.00274
#
# Poissons Ratio (x) = 0.27877 0.25351
# Poissons Ratio (y) = 0.62632 0.26334
# Poissons Ratio (z) = 0.31789 0.14698
#
# Static dielectric constant tensor:
#      x y z
#    x 3.361910 0.000000 -0.373780 
#    y 0.000000 3.104550 0.000000 
#    z -0.373780 0.000000 3.093150 
# 
# 
# High freq. dielectric constant tensor:
#      x y z
#    x 1.650280 0.000000 -0.037760 
#    y 0.000000 1.647840 0.000000 
#    z -0.037760 0.000000 1.626420 
# 
# From -- ./inp_files/287491.got.cif
#   From: 2010.06.25/outbox.cif.g09.slc.cpg/sg12_144_cif.got.tgz:287491.got - 2010.06.28 00:19:55.
