data_PCOD8080724
_publ_section_title
;
Structure prediction by ZEFSAII (Michael W. Deem and Ramdas Pophale) SiO2 
 PCOD8080724
Probable space group: C 2/M
;
_chemical_formula_sum "Si O2"
_cell_formula_units_Z 56
_cell_length_a 27.268392
_cell_length_b 8.719531
_cell_length_c 16.150054
_cell_angle_alpha 90.000000
_cell_angle_beta 114.814499
_cell_angle_gamma 90.000000
_cell_volume 3485.420966
_symmetry_space_group_name_H-M "C 2/M"
_symmetry_group_IT_number 12
_symmetry_cell_setting 'monoclinic'
loop_
_space_group_symop_operation_xyz
x,y,z
-x,y,-z
-x,-y,-z
x,-y,z
1/2+x,1/2+y,z
1/2-x,1/2+y,-z
1/2-x,1/2-y,-z
1/2+x,1/2-y,z
loop_
_atom_site_type_symbol
_atom_site_label
_atom_site_fract_x
_atom_site_fract_y
_atom_site_fract_z
Si Si1 0.169962 0.822301 0.453038
Si Si2 0.438142 0.680124 0.533041
Si Si3 0.733822 0.177551 0.358683
Si Si4 0.250367 0.679243 0.803242
Si Si5 0.143129 0.819561 0.802430
Si Si6 0.197628 0.822978 0.999078
Si Si7 0.050457 0.680494 0.633437
O O1 0.109542 0.779798 0.437245
O O2 0.209978 0.780984 0.556716
O O3 0.183993 0.722161 0.382627
O O4 0.176121 0.000000 0.433728
O O5 0.440691 0.500000 0.516020
O O6 0.426690 0.766315 0.438937
O O7 0.493825 0.736541 0.613044
O O8 0.729374 0.275194 0.272498
O O9 0.730069 0.000000 0.333065
O O10 0.235354 0.500000 0.795044
O O11 0.197259 0.774066 0.791029
O O12 0.301643 0.714828 0.901930
O O13 0.092335 0.725066 0.734038
O O14 0.133008 0.000000 0.781581
O O15 0.147557 0.773242 0.904205
O O16 0.204766 0.000000 0.988811
O O17 0.250000 0.750000 0.000000
O O18 0.040916 0.500000 0.625564
#
# Coordination Sequence:
#
# PCOD8080724 Si02
#       7
#     8   8   8   8   8   8   8
#     4   9  19  33  47  64  88 118 152 188 221 257
#     4  10  19  33  50  66  89 121 154 188 225 263
#     4  10  19  30  46  68  92 120 151 181 219 266
#     4  10  18  29  45  67  94 121 150 185 225 265
#     4  10  18  30  46  65  91 122 155 186 221 266
#     4   8  16  28  43  63  88 118 149 183 221 264
#     4  11  21  31  45  68  94 120 152 186 224 267
#
# _framework density 16.066925000000001
#
# number of rings (size 3 to 8) (size 9 to 14) (size 15 to 20)
#    0.000    2.286    0.000    4.714    0.000    4.000 
#    0.000    0.000    0.000    0.000    0.000    1.000 
#    0.000    8.000    0.000    0.000    0.000    0.000 
#
# Total GULP energy -347023.128079 kJ/mol
# GULP energy per Si atom -12393.683146 kJ/mol
# Density = 1.603036 g / cm^3
# Si number density = 16.066925 Si / 1000 Ang^3
#
#
#
# Elastic Constant Matrix: (Units=GPa)
#
#
# Indices 1 2 3 4 5 6 
#
# 1 76.6909 17.8402 38.9371 0.0000 1.9368 0.0000
# 2 17.8402 40.8954 23.6001 0.0000 0.6669 0.0000
# 3 38.9371 23.6001 114.3727 0.0000 5.5979 0.0000
# 4 0.0000 0.0000 0.0000 22.8976 0.0000 0.1074
# 5 1.9368 0.6669 5.5979 0.0000 20.6100 0.0000
# 6 0.0000 0.0000 0.0000 0.1074 0.0000 23.5230
#
#
#
# Elastic Compliance Matrix: (Units=1/GPa)
#
#
# Indices 1 2 3 4 5 6 
#
# 1 0.016457 -0.004481 -0.004671 0.000000 -0.000133 0.000000
# 2 -0.004481 0.028987 -0.004490 0.000000 0.000703 0.000000
# 3 -0.004671 -0.004490 0.011383 0.000000 -0.002507 0.000000
# 4 0.000000 0.000000 0.000000 0.043674 0.000000 -0.000199
# 5 -0.000133 0.000703 -0.002507 0.000000 0.049191 0.000000
# 6 0.000000 0.000000 0.000000 -0.000199 0.000000 0.042512
#
#
# Mechanical properties :
#
#
# Convention : Reuss Voigt Hill
#
# Bulk Modulus (GPa) = 33.85063 43.63485 38.74274
# Shear Modulus (GPa) = 21.80199 23.51156 22.65677
#
# Velocity S-wave (km/s) = 3.68767 3.82953 3.75927
# Velocity P-wave (km/s) = 6.26468 6.83892 6.55809
#
# Compressibility (1/GPa) = 0.02954154
#
# Stress axis : x y z
#
# Youngs Moduli (GPa) = 60.76474 34.49792 87.85086
#
# Poissons Ratio (x) = 0.15459 0.41039
# Poissons Ratio (y) = 0.27230 0.39446
# Poissons Ratio (z) = 0.28386 0.15490
#
# Static dielectric constant tensor:
#      x y z
#    x 2.814340 0.000000 0.073940 
#    y 0.000000 3.133910 0.000000 
#    z 0.073940 0.000000 3.530300 
# 
# 
# High freq. dielectric constant tensor:
#      x y z
#    x 1.581720 0.000000 0.004340 
#    y 0.000000 1.632860 0.000000 
#    z 0.004340 0.000000 1.620600 
# 
# From -- ./inp_files/243274.got.cif
#   From: 2010.06.25/outbox.cif.g09.slc.cpg/sg12_122_cif.got.tgz:243274.got - 2010.06.28 00:19:55.
