data_PCOD8080630
_publ_section_title
;
Structure prediction by ZEFSAII (Michael W. Deem and Ramdas Pophale) SiO2 
 PCOD8080630
Probable space group: C 2/M
;
_chemical_formula_sum "Si O2"
_cell_formula_units_Z 56
_cell_length_a 27.352176
_cell_length_b 8.795793
_cell_length_c 14.584298
_cell_angle_alpha 90.000000
_cell_angle_beta 103.360510
_cell_angle_gamma 90.000000
_cell_volume 3413.786890
_symmetry_space_group_name_H-M "C 2/M"
_symmetry_group_IT_number 12
_symmetry_cell_setting 'monoclinic'
loop_
_space_group_symop_operation_xyz
x,y,z
-x,y,-z
-x,-y,-z
x,-y,z
1/2+x,1/2+y,z
1/2-x,1/2+y,-z
1/2-x,1/2-y,-z
1/2+x,1/2-y,z
loop_
_atom_site_type_symbol
_atom_site_label
_atom_site_fract_x
_atom_site_fract_y
_atom_site_fract_z
Si Si1 0.638084 0.177498 0.436575
Si Si2 0.286204 0.176392 0.380139
Si Si3 0.943306 0.680704 0.457250
Si Si4 0.690743 0.325244 0.894837
Si Si5 0.370703 0.676101 0.299380
Si Si6 0.293254 0.677989 0.896340
Si Si7 0.315400 0.821115 0.723216
O O1 0.691428 0.211092 0.509255
O O2 0.590986 0.245769 0.473283
O O3 0.643362 0.238555 0.334008
O O4 0.628132 0.000000 0.428998
O O5 0.330035 0.217392 0.329092
O O6 0.239075 0.281378 0.339668
O O7 0.271321 0.000000 0.361471
O O8 0.938568 0.500000 0.443823
O O9 0.925101 0.760598 0.354488
O O10 0.000000 0.732048 0.500000
O O11 0.708610 0.500000 0.902598
O O12 0.639152 0.305063 0.814568
O O13 0.735548 0.231639 0.866718
O O14 0.681902 0.271283 0.995935
O O15 0.364787 0.500000 0.325597
O O16 0.294422 0.500000 0.883032
O O17 0.325436 0.748372 0.826978
O O18 0.319038 0.000000 0.735993
#
# Coordination Sequence:
#
# PCOD8080630 Si02
#       7
#     8   8   8   8   8   8   8
#     4   8  17  30  44  63  88 117 149 183 225 273
#     4  10  18  29  43  62  88 121 158 188 216 260
#     4   9  18  34  53  71  91 115 146 186 230 276
#     4   9  18  31  44  62  89 121 155 190 229 263
#     4  10  18  29  47  69  93 119 148 185 229 274
#     4  10  19  29  43  62  88 123 159 192 220 260
#     4  11  19  28  41  61  91 124 153 184 222 264
#
# _framework density 16.404070000000001
#
# number of rings (size 3 to 8) (size 9 to 14) (size 15 to 20)
#    0.000    2.429    1.429    3.000    0.000    1.429 
#    0.000    6.429    0.000    0.000    0.000    1.000 
#    0.000    8.000    0.000    0.000    0.000    0.000 
#
# Total GULP energy -346958.733118 kJ/mol
# GULP energy per Si atom -12391.383326 kJ/mol
# Density = 1.636673 g / cm^3
# Si number density = 16.404070 Si / 1000 Ang^3
#
#
#
# Elastic Constant Matrix: (Units=GPa)
#
#
# Indices 1 2 3 4 5 6 
#
# 1 56.4346 9.6766 51.1107 0.0000 2.8824 0.0000
# 2 9.6766 41.1463 35.6494 0.0000 -3.2277 0.0000
# 3 51.1107 35.6494 132.5673 0.0000 -4.1725 0.0000
# 4 0.0000 0.0000 0.0000 25.2996 0.0000 -0.0767
# 5 2.8824 -3.2277 -4.1725 0.0000 21.8143 0.0000
# 6 0.0000 0.0000 0.0000 -0.0767 0.0000 13.9161
#
#
#
# Elastic Compliance Matrix: (Units=1/GPa)
#
#
# Indices 1 2 3 4 5 6 
#
# 1 0.028266 0.003274 -0.011952 0.000000 -0.005537 0.000000
# 2 0.003274 0.032272 -0.009863 0.000000 0.002456 0.000000
# 3 -0.011952 -0.009863 0.014897 0.000000 0.002969 0.000000
# 4 0.000000 0.000000 0.000000 0.039527 0.000000 0.000218
# 5 -0.005537 0.002456 0.002969 0.000000 0.047504 0.000000
# 6 0.000000 0.000000 0.000000 0.000218 0.000000 0.071860
#
#
# Mechanical properties :
#
#
# Convention : Reuss Voigt Hill
#
# Bulk Modulus (GPa) = 26.07462 47.00238 36.53850
# Shear Modulus (GPa) = 17.59358 21.12012 19.35685
#
# Velocity S-wave (km/s) = 3.27848 3.59206 3.43884
# Velocity P-wave (km/s) = 5.50099 6.77635 6.17170
#
# Compressibility (1/GPa) = 0.03835147
#
# Stress axis : x y z
#
# Youngs Moduli (GPa) = 35.37830 30.98669 67.12566
#
# Poissons Ratio (x) = -0.10145 0.80232
# Poissons Ratio (y) = -0.11583 0.66209
# Poissons Ratio (z) = 0.42286 0.30563
#
# Static dielectric constant tensor:
#      x y z
#    x 2.947910 0.000000 -0.136410 
#    y 0.000000 3.056320 0.000000 
#    z -0.136410 0.000000 3.496310 
# 
# 
# High freq. dielectric constant tensor:
#      x y z
#    x 1.578760 0.000000 -0.011510 
#    y 0.000000 1.630440 0.000000 
#    z -0.011510 0.000000 1.639070 
# 
# From -- ./inp_files/243224.got.cif
#   From: 2010.06.25/outbox.cif.g09.slc.cpg/sg12_122_cif.got.tgz:243224.got - 2010.06.28 00:19:55.
