data_PCOD8080554
_publ_section_title
;
Structure prediction by ZEFSAII (Michael W. Deem and Ramdas Pophale) SiO2 
 PCOD8080554
Probable space group: C 2/M
;
_chemical_formula_sum "Si O2"
_cell_formula_units_Z 56
_cell_length_a 27.346578
_cell_length_b 9.013001
_cell_length_c 14.265770
_cell_angle_alpha 90.000000
_cell_angle_beta 104.402928
_cell_angle_gamma 90.000000
_cell_volume 3405.640811
_symmetry_space_group_name_H-M "C 2/M"
_symmetry_group_IT_number 12
_symmetry_cell_setting 'monoclinic'
loop_
_space_group_symop_operation_xyz
x,y,z
-x,y,-z
-x,-y,-z
x,-y,z
1/2+x,1/2+y,z
1/2-x,1/2+y,-z
1/2-x,1/2-y,-z
1/2+x,1/2-y,z
loop_
_atom_site_type_symbol
_atom_site_label
_atom_site_fract_x
_atom_site_fract_y
_atom_site_fract_z
Si Si1 0.185635 0.171731 0.392019
Si Si2 0.318714 0.828391 0.220080
Si Si3 0.711400 0.327243 0.610855
Si Si4 0.368404 0.328872 0.080858
Si Si5 0.866333 0.672128 0.783726
Si Si6 0.294115 0.667693 0.882632
Si Si7 0.557931 0.173509 0.022103
O O1 0.233956 0.254810 0.373056
O O2 0.179814 0.198252 0.500147
O O3 0.136202 0.236990 0.315467
O O4 0.192412 0.000000 0.371438
O O5 0.319864 0.749274 0.321326
O O6 0.361724 0.756341 0.175667
O O7 0.265434 0.804501 0.142469
O O8 0.331462 0.000000 0.241201
O O9 0.718685 0.500000 0.636300
O O10 0.379102 0.500000 0.107450
O O11 0.416454 0.263686 0.049399
O O12 0.317440 0.306318 0.996280
O O13 0.864262 0.500000 0.758342
O O14 0.817744 0.715353 0.822202
O O15 0.916688 0.713716 0.865706
O O16 0.306337 0.500000 0.854050
O O17 0.564651 0.000000 0.003453
O O18 0.500000 0.221621 0.000000
#
# Coordination Sequence:
#
# PCOD8080554 Si02
#       7
#     8   8   8   8   8   8   8
#     4  10  19  31  45  65  95 128 162 200 238 276
#     4  11  20  30  45  66  95 131 164 194 234 277
#     4  10  20  31  45  65  92 129 168 201 232 271
#     4  10  20  32  47  68  95 125 160 197 234 283
#     4  10  18  28  48  72  94 125 161 196 236 282
#     4   9  18  30  43  63  93 128 161 194 229 271
#     4   9  19  36  54  73  97 123 155 197 242 287
#
# _framework density 16.443307999999998
#
# number of rings (size 3 to 8) (size 9 to 14) (size 15 to 20)
#    0.000    2.143    1.429    2.571    0.000    3.714 
#    0.000    0.000    0.000    0.000    0.000    1.000 
#    0.000    8.000    0.000    0.000    0.000    0.000 
#
# Total GULP energy -347210.216458 kJ/mol
# GULP energy per Si atom -12400.364873 kJ/mol
# Density = 1.640588 g / cm^3
# Si number density = 16.443308 Si / 1000 Ang^3
#
#
#
# Elastic Constant Matrix: (Units=GPa)
#
#
# Indices 1 2 3 4 5 6 
#
# 1 75.4690 51.0468 53.7942 0.0000 -4.1144 0.0000
# 2 51.0468 111.8651 68.1680 0.0000 -8.5838 0.0000
# 3 53.7942 68.1680 114.1126 0.0000 -14.0987 0.0000
# 4 0.0000 0.0000 0.0000 30.5421 0.0000 -4.9969
# 5 -4.1144 -8.5838 -14.0987 0.0000 18.9250 0.0000
# 6 0.0000 0.0000 0.0000 -4.9969 0.0000 21.2522
#
#
#
# Elastic Compliance Matrix: (Units=1/GPa)
#
#
# Indices 1 2 3 4 5 6 
#
# 1 0.022373 -0.005955 -0.007404 0.000000 -0.003353 0.000000
# 2 -0.005955 0.015641 -0.006410 0.000000 0.001025 0.000000
# 3 -0.007404 -0.006410 0.017098 0.000000 0.008221 0.000000
# 4 0.000000 0.000000 0.000000 0.034052 0.000000 0.008006
# 5 -0.003353 0.001025 0.008221 0.000000 0.058700 0.000000
# 6 0.000000 0.000000 0.000000 0.008006 0.000000 0.048937
#
#
# Mechanical properties :
#
#
# Convention : Reuss Voigt Hill
#
# Bulk Modulus (GPa) = 64.20391 71.94051 68.07221
# Shear Modulus (GPa) = 20.70131 22.70637 21.70384
#
# Velocity S-wave (km/s) = 3.55202 3.72006 3.63701
# Velocity P-wave (km/s) = 7.48016 7.89287 7.68929
#
# Compressibility (1/GPa) = 0.01557538
#
# Stress axis : x y z
#
# Youngs Moduli (GPa) = 44.69670 63.93287 58.48489
#
# Poissons Ratio (x) = 0.38071 0.43302
# Poissons Ratio (y) = 0.26616 0.37489
# Poissons Ratio (z) = 0.33093 0.40981
#
# Static dielectric constant tensor:
#      x y z
#    x 2.694410 0.000000 0.023790 
#    y 0.000000 3.217230 0.000000 
#    z 0.023790 0.000000 3.283290 
# 
# 
# High freq. dielectric constant tensor:
#      x y z
#    x 1.581560 0.000000 -0.008710 
#    y 0.000000 1.649800 0.000000 
#    z -0.008710 0.000000 1.635100 
# 
# From -- ./inp_files/242984.got.cif
#   From: 2010.06.25/outbox.cif.g09.slc.cpg/sg12_122_cif.got.tgz:242984.got - 2010.06.28 00:19:55.
