data_PCOD8080370
_publ_section_title
;
Structure prediction by ZEFSAII (Michael W. Deem and Ramdas Pophale) SiO2 
 PCOD8080370
Probable space group: C 2/M
;
_chemical_formula_sum "Si O2"
_cell_formula_units_Z 56
_cell_length_a 18.340038
_cell_length_b 9.130397
_cell_length_c 25.739357
_cell_angle_alpha 90.000000
_cell_angle_beta 45.006478
_cell_angle_gamma 90.000000
_cell_volume 3048.047181
_symmetry_space_group_name_H-M "C 2/M"
_symmetry_group_IT_number 12
_symmetry_cell_setting 'monoclinic'
loop_
_space_group_symop_operation_xyz
x,y,z
-x,y,-z
-x,-y,-z
x,-y,z
1/2+x,1/2+y,z
1/2-x,1/2+y,-z
1/2-x,1/2-y,-z
1/2+x,1/2-y,z
loop_
_atom_site_type_symbol
_atom_site_label
_atom_site_fract_x
_atom_site_fract_y
_atom_site_fract_z
Si Si1 0.763741 0.163409 0.572297
Si Si2 0.597055 0.162074 0.565339
Si Si3 0.669717 0.674281 0.002770
Si Si4 0.559175 0.326968 0.858757
Si Si5 0.551393 0.826773 0.273682
Si Si6 0.718239 0.326333 0.862337
Si Si7 0.889996 0.173360 0.282858
O O1 0.683878 0.161069 0.565612
O O2 0.871964 0.230118 0.497168
O O3 0.717552 0.261555 0.641827
O O4 0.785020 0.000000 0.582333
O O5 0.491157 0.211630 0.647035
O O6 0.585168 0.000000 0.547421
O O7 0.679826 0.500000 0.003149
O O8 0.556320 0.732430 0.074939
O O9 0.750000 0.750000 0.000000
O O10 0.692952 0.728371 0.932785
O O11 0.556596 0.500000 0.866241
O O12 0.634653 0.259182 0.864531
O O13 0.601974 0.281382 0.781174
O O14 0.668626 0.772512 0.211639
O O15 0.488393 0.740489 0.261933
O O16 0.538569 0.000000 0.269232
O O17 0.713580 0.500000 0.862422
O O18 0.889675 0.000000 0.291595
#
# Coordination Sequence:
#
# PCOD8080370 Si02
#       7
#     8   8   8   8   8   8   8
#     4   9  16  26  42  65  92 121 156 196 236 281
#     4   8  14  24  39  63  92 118 149 193 242 283
#     4  10  19  32  53  77 100 126 157 196 237 278
#     4   9  18  31  48  72  98 126 162 198 232 275
#     4   9  17  29  47  70  94 122 158 199 238 280
#     4   9  17  31  51  72  95 126 163 198 232 274
#     4  10  18  28  45  68  96 126 156 196 240 281
#
# _framework density 18.372420000000002
#
# number of rings (size 3 to 8) (size 9 to 14) (size 15 to 20)
#    0.000    2.857    0.000    3.000    0.000    5.143 
#    0.000    0.714    0.000    6.857    0.000    6.000 
#    0.000    0.000    0.000    0.000    0.000    0.000 
#
# Total GULP energy -347115.201168 kJ/mol
# GULP energy per Si atom -12396.971470 kJ/mol
# Density = 1.833060 g / cm^3
# Si number density = 18.372420 Si / 1000 Ang^3
#
#
#
# Elastic Constant Matrix: (Units=GPa)
#
#
# Indices 1 2 3 4 5 6 
#
# 1 108.8689 37.1960 76.7227 0.0000 5.7812 0.0001
# 2 37.1960 62.0524 53.4446 0.0000 3.1768 0.0001
# 3 76.7227 53.4446 175.4385 0.0000 13.1448 -0.0001
# 4 0.0000 0.0000 0.0000 21.4413 0.0000 -0.0672
# 5 5.7812 3.1768 13.1448 0.0000 9.2737 0.0000
# 6 0.0001 0.0001 -0.0001 -0.0672 0.0000 16.8634
#
#
#
# Elastic Compliance Matrix: (Units=1/GPa)
#
#
# Indices 1 2 3 4 5 6 
#
# 1 0.014058 -0.004255 -0.004816 0.000000 -0.000480 0.000000
# 2 -0.004255 0.023175 -0.005374 0.000000 0.002331 0.000000
# 3 -0.004816 -0.005374 0.010159 0.000000 -0.009557 0.000000
# 4 0.000000 0.000000 0.000000 0.046640 0.000000 0.000186
# 5 -0.000480 0.002331 -0.009557 0.000000 0.120879 0.000000
# 6 0.000000 0.000000 0.000000 0.000186 0.000000 0.059301
#
#
# Mechanical properties :
#
#
# Convention : Reuss Voigt Hill
#
# Bulk Modulus (GPa) = 54.04317 75.67628 64.85972
# Shear Modulus (GPa) = 16.16718 21.44877 18.80797
#
# Velocity S-wave (km/s) = 2.96965 3.42050 3.20301
# Velocity P-wave (km/s) = 6.42165 7.54184 7.00417
#
# Compressibility (1/GPa) = 0.01850373
#
# Stress axis : x y z
#
# Youngs Moduli (GPa) = 71.13197 43.15029 98.43259
#
# Poissons Ratio (x) = 0.18358 0.47405
# Poissons Ratio (y) = 0.30263 0.52897
# Poissons Ratio (z) = 0.34257 0.23189
#
# Static dielectric constant tensor:
#      x y z
#    x 3.158010 0.000000 -0.022560 
#    y 0.000000 3.192810 0.000000 
#    z -0.022560 0.000000 3.796260 
# 
# 
# High freq. dielectric constant tensor:
#      x y z
#    x 1.677660 0.000000 0.002350 
#    y 0.000000 1.683280 0.000000 
#    z 0.002350 0.000000 1.735950 
# 
# From -- ./inp_files/362953.got.cif
#   From: 2010.06.25/outbox.cif.g09.slc.cpg/sg12_182_cif.got.tgz:362953.got - 2010.06.28 00:19:55.
