data_PCOD8080101
_publ_section_title
;
Structure prediction by ZEFSAII (Michael W. Deem and Ramdas Pophale) SiO2 
 PCOD8080101
Probable space group: C 2/M
;
_chemical_formula_sum "Si O2"
_cell_formula_units_Z 64
_cell_length_a 31.786344
_cell_length_b 9.137084
_cell_length_c 14.608676
_cell_angle_alpha 90.000000
_cell_angle_beta 61.938404
_cell_angle_gamma 90.000000
_cell_volume 3744.082494
_symmetry_space_group_name_H-M "C 2/M"
_symmetry_group_IT_number 12
_symmetry_cell_setting 'monoclinic'
loop_
_space_group_symop_operation_xyz
x,y,z
-x,y,-z
-x,-y,-z
x,-y,z
1/2+x,1/2+y,z
1/2-x,1/2+y,-z
1/2-x,1/2-y,-z
1/2+x,1/2-y,z
loop_
_atom_site_type_symbol
_atom_site_label
_atom_site_fract_x
_atom_site_fract_y
_atom_site_fract_z
Si Si1 0.172023 0.168289 0.936087
Si Si2 0.277899 0.673416 0.631486
Si Si3 0.551528 0.326401 0.550160
Si Si4 0.136534 0.827642 0.582204
Si Si5 0.179826 0.829083 0.722371
Si Si6 0.944501 0.826818 0.660306
Si Si7 0.281116 0.831005 0.811940
Si Si8 0.634301 0.170881 0.140916
O O1 0.159046 0.206786 0.843978
O O2 0.227422 0.204261 0.898542
O O3 0.160739 0.000000 0.969683
O O4 0.138877 0.267679 0.033627
O O5 0.273198 0.500000 0.640414
O O6 0.316551 0.727760 0.518317
O O7 0.227645 0.740305 0.653586
O O8 0.295250 0.730579 0.712095
O O9 0.551884 0.500000 0.551238
O O10 0.588844 0.258521 0.585529
O O11 0.498228 0.274796 0.629645
O O12 0.566687 0.277077 0.432377
O O13 0.140901 0.784826 0.685058
O O14 0.132819 0.000000 0.574087
O O15 0.193228 0.000000 0.702038
O O16 0.909776 0.745507 0.764486
O O17 0.938137 0.000000 0.678927
O O18 0.316619 0.791901 0.857488
O O19 0.285195 0.000000 0.777571
O O20 0.624242 0.000000 0.146215
#
# Coordination Sequence:
#
# PCOD8080101 Si02
#       8
#     8   8   8   8   8   8   8   8
#     4   9  18  32  47  63  87 122 160 193 227 266
#     4  10  18  27  45  72  98 124 154 187 224 271
#     4   8  15  29  50  74  96 120 152 188 225 268
#     4   9  16  27  46  71  95 121 156 193 227 267
#     4   9  18  32  47  64  93 128 157 191 231 267
#     4   9  17  31  51  73  97 122 149 185 228 275
#     4   9  19  33  46  65  95 126 154 187 228 272
#     4  11  21  31  47  70  94 121 153 190 233 278
#
# _framework density 17.093641000000002
#
# number of rings (size 3 to 8) (size 9 to 14) (size 15 to 20)
#    0.000    2.750    0.000    3.750    0.000    4.000 
#    0.000    1.875    0.000    3.750    0.000    5.250 
#    0.000    0.000    0.000    0.000    0.000    0.000 
#
# Total GULP energy -396711.980021 kJ/mol
# GULP energy per Si atom -12397.249376 kJ/mol
# Density = 1.705473 g / cm^3
# Si number density = 17.093641 Si / 1000 Ang^3
#
#
#
# Elastic Constant Matrix: (Units=GPa)
#
#
# Indices 1 2 3 4 5 6 
#
# 1 118.9299 35.6930 75.2772 0.0000 13.0705 0.0000
# 2 35.6930 50.3981 48.4720 0.0000 0.6880 0.0000
# 3 75.2772 48.4720 139.5031 0.0000 3.0878 0.0000
# 4 0.0000 0.0000 0.0000 22.1612 0.0000 -2.3162
# 5 13.0705 0.6880 3.0878 0.0000 20.9481 0.0000
# 6 0.0000 0.0000 0.0000 -2.3162 0.0000 17.6499
#
#
#
# Elastic Compliance Matrix: (Units=1/GPa)
#
#
# Indices 1 2 3 4 5 6 
#
# 1 0.014441 -0.004196 -0.006158 0.000000 -0.007965 0.000000
# 2 -0.004196 0.031026 -0.008580 0.000000 0.002864 0.000000
# 3 -0.006158 -0.008580 0.013425 0.000000 0.002145 0.000000
# 4 0.000000 0.000000 0.000000 0.045751 0.000000 0.006004
# 5 -0.007965 0.002864 0.002145 0.000000 0.052296 0.000000
# 6 0.000000 0.000000 0.000000 0.006004 0.000000 0.057445
#
#
# Mechanical properties :
#
#
# Convention : Reuss Voigt Hill
#
# Bulk Modulus (GPa) = 47.56325 69.74618 58.65472
# Shear Modulus (GPa) = 19.28563 22.11112 20.69837
#
# Velocity S-wave (km/s) = 3.36256 3.60047 3.48355
# Velocity P-wave (km/s) = 6.55449 7.62729 7.11115
#
# Compressibility (1/GPa) = 0.02102463
#
# Stress axis : x y z
#
# Youngs Moduli (GPa) = 69.24882 32.23076 74.48772
#
# Poissons Ratio (x) = 0.13523 0.45871
# Poissons Ratio (y) = 0.29054 0.63909
# Poissons Ratio (z) = 0.42645 0.27654
#
# Static dielectric constant tensor:
#      x y z
#    x 3.433470 0.000000 0.128840 
#    y 0.000000 2.950160 0.000000 
#    z 0.128840 0.000000 3.132940 
# 
# 
# High freq. dielectric constant tensor:
#      x y z
#    x 1.650470 0.000000 0.009760 
#    y 0.000000 1.637060 0.000000 
#    z 0.009760 0.000000 1.654340 
# 
# From -- ./inp_files/249081.got.cif
#   From: 2010.06.25/outbox.cif.g09.slc.cpg/sg12_125_cif.got.tgz:249081.got - 2010.06.28 00:19:55.
