data_PCOD8080371
_publ_section_title
;
Structure prediction by ZEFSAII (Michael W. Deem and Ramdas Pophale) SiO2 
 PCOD8080371
Probable space group: C 2/M
;
_chemical_formula_sum "Si O2"
_cell_formula_units_Z 56
_cell_length_a 24.449893
_cell_length_b 9.497863
_cell_length_c 23.465344
_cell_angle_alpha 90.000000
_cell_angle_beta 141.877134
_cell_angle_gamma 90.000000
_cell_volume 3364.040055
_symmetry_space_group_name_H-M "C 2/M"
_symmetry_group_IT_number 12
_symmetry_cell_setting 'monoclinic'
loop_
_space_group_symop_operation_xyz
x,y,z
-x,y,-z
-x,-y,-z
x,-y,z
1/2+x,1/2+y,z
1/2-x,1/2+y,-z
1/2-x,1/2-y,-z
1/2+x,1/2-y,z
loop_
_atom_site_type_symbol
_atom_site_label
_atom_site_fract_x
_atom_site_fract_y
_atom_site_fract_z
Si Si1 0.652188 0.335843 0.360791
Si Si2 0.936279 0.837481 0.828647
Si Si3 0.960028 0.735106 0.521748
Si Si4 0.361558 0.655284 0.343966
Si Si5 0.197466 0.163842 0.178182
Si Si6 0.352222 0.844081 0.538337
Si Si7 0.933214 0.659926 0.997596
O O1 0.639469 0.500000 0.360594
O O2 0.600229 0.287136 0.262134
O O3 0.611637 0.257560 0.382581
O O4 0.755375 0.294497 0.437830
O O5 0.858261 0.816970 0.810052
O O6 0.967376 0.000000 0.853606
O O7 0.019940 0.738720 0.911231
O O8 0.882199 0.830382 0.429080
O O9 0.919571 0.648875 0.540502
O O10 0.000000 0.642616 0.500000
O O11 0.044453 0.827056 0.612970
O O12 0.321870 0.500000 0.299619
O O13 0.294486 0.774571 0.267975
O O14 0.153259 0.250626 0.090253
O O15 0.204559 0.000000 0.166747
O O16 0.346115 0.000000 0.559266
O O17 0.907204 0.500000 0.993582
O O18 0.000000 0.658108 0.000000
#
# Coordination Sequence:
#
# PCOD8080371 Si02
#       7
#     8   8   8   8   8   8   8
#     4   9  19  32  48  69  96 131 163 197 240 281
#     4   9  17  30  45  64  93 126 161 195 236 287
#     4   8  19  32  48  70  95 127 157 200 241 280
#     4   9  18  31  46  67  93 123 158 192 233 283
#     4  10  18  28  45  68  96 127 156 193 239 286
#     4  10  19  33  49  70  97 126 166 203 234 281
#     4   9  17  28  43  65  92 122 157 196 238 283
#
# _framework density 16.646650999999999
#
# number of rings (size 3 to 8) (size 9 to 14) (size 15 to 20)
#    0.857    1.857    0.000    2.571    0.000    6.571 
#    0.000    2.857    0.000    0.000    0.000    1.000 
#    0.000    0.000    0.000    0.000    0.000    0.000 
#
# Total GULP energy -346869.236880 kJ/mol
# GULP energy per Si atom -12388.187031 kJ/mol
# Density = 1.660876 g / cm^3
# Si number density = 16.646651 Si / 1000 Ang^3
#
#
#
# Elastic Constant Matrix: (Units=GPa)
#
#
# Indices 1 2 3 4 5 6 
#
# 1 66.2855 25.9804 33.7024 0.0000 -10.5490 0.0000
# 2 25.9804 105.5415 69.7539 0.0000 -2.8625 0.0000
# 3 33.7024 69.7539 133.8063 0.0000 -6.8619 0.0000
# 4 0.0000 0.0000 0.0000 21.8636 0.0000 -1.5413
# 5 -10.5490 -2.8625 -6.8619 0.0000 22.4687 0.0000
# 6 0.0000 0.0000 0.0000 -1.5413 0.0000 16.0867
#
#
#
# Elastic Compliance Matrix: (Units=1/GPa)
#
#
# Indices 1 2 3 4 5 6 
#
# 1 0.018802 -0.002364 -0.003115 0.000000 0.007575 0.000000
# 2 -0.002364 0.014757 -0.007170 0.000000 -0.001420 0.000000
# 3 -0.003115 -0.007170 0.012063 0.000000 0.001308 0.000000
# 4 0.000000 0.000000 0.000000 0.046049 0.000000 0.004412
# 5 0.007575 -0.001420 0.001308 0.000000 0.048282 0.000000
# 6 0.000000 0.000000 0.000000 0.004412 0.000000 0.062586
#
#
# Mechanical properties :
#
#
# Convention : Reuss Voigt Hill
#
# Bulk Modulus (GPa) = 49.20380 62.72296 55.96338
# Shear Modulus (GPa) = 21.31172 23.83026 22.57099
#
# Velocity S-wave (km/s) = 3.58193 3.78767 3.68623
# Velocity P-wave (km/s) = 6.83585 7.54251 7.19786
#
# Compressibility (1/GPa) = 0.02032363
#
# Stress axis : x y z
#
# Youngs Moduli (GPa) = 53.18540 67.76218 82.89752
#
# Poissons Ratio (x) = 0.16021 0.25821
# Poissons Ratio (y) = 0.12575 0.59441
# Poissons Ratio (z) = 0.16566 0.48588
#
# Static dielectric constant tensor:
#      x y z
#    x 2.712630 0.000000 -0.017810 
#    y 0.000000 3.100300 0.000000 
#    z -0.017810 0.000000 3.155910 
# 
# 
# High freq. dielectric constant tensor:
#      x y z
#    x 1.591510 0.000000 0.001470 
#    y 0.000000 1.642940 0.000000 
#    z 0.001470 0.000000 1.639800 
# 
# From -- ./inp_files/348619.got.cif
#   From: 2010.06.25/outbox.cif.g09.slc.cpg/sg12_175_cif.got.tgz:348619.got - 2010.06.28 00:19:55.
