data_PCOD8080476
_publ_section_title
;
Structure prediction by ZEFSAII (Michael W. Deem and Ramdas Pophale) SiO2 
 PCOD8080476
Probable space group: C 2/M
;
_chemical_formula_sum "Si O2"
_cell_formula_units_Z 64
_cell_length_a 23.827189
_cell_length_b 8.993517
_cell_length_c 17.580787
_cell_angle_alpha 90.000000
_cell_angle_beta 106.666796
_cell_angle_gamma 90.000000
_cell_volume 3609.118511
_symmetry_space_group_name_H-M "C 2/M"
_symmetry_group_IT_number 12
_symmetry_cell_setting 'monoclinic'
loop_
_space_group_symop_operation_xyz
x,y,z
-x,y,-z
-x,-y,-z
x,-y,z
1/2+x,1/2+y,z
1/2-x,1/2+y,-z
1/2-x,1/2-y,-z
1/2+x,1/2-y,z
loop_
_atom_site_type_symbol
_atom_site_label
_atom_site_fract_x
_atom_site_fract_y
_atom_site_fract_z
Si Si1 0.681738 0.325100 0.325839
Si Si2 0.638889 0.325834 0.472253
Si Si3 0.909175 0.675093 0.286182
Si Si4 0.578154 0.676985 0.180625
Si Si5 0.568471 0.663573 0.010913
Si Si6 0.480640 0.831236 0.578831
Si Si7 0.688975 0.177117 0.641033
Si Si8 0.046204 0.325529 0.856221
O O1 0.678196 0.500000 0.313002
O O2 0.676407 0.283379 0.412352
O O3 0.628699 0.257129 0.255146
O O4 0.744603 0.264860 0.321016
O O5 0.641325 0.500000 0.491134
O O6 0.572884 0.278779 0.428505
O O7 0.663786 0.235965 0.552407
O O8 0.909149 0.500000 0.297775
O O9 0.850313 0.737751 0.303746
O O10 0.911952 0.718445 0.198427
O O11 0.966791 0.736878 0.350564
O O12 0.570021 0.500000 0.184157
O O13 0.516624 0.749639 0.179670
O O14 0.597164 0.719753 0.101265
O O15 0.592502 0.500000 0.998252
O O16 0.580562 0.773820 0.945445
O O17 0.500000 0.654311 0.000000
O O18 0.500000 0.829707 0.500000
O O19 0.464092 0.000000 0.597066
O O20 0.687603 0.000000 0.634992
O O21 0.035423 0.500000 0.856625
#
# Coordination Sequence:
#
# PCOD8080476 Si02
#       8
#     8   8   8   8   8   8   8   8
#     4   9  19  33  52  72  91 121 164 204 235 275
#     4  11  21  32  47  74 101 119 152 203 250 284
#     4   9  18  31  48  70  93 121 162 199 227 271
#     4   9  17  32  50  71  97 123 154 191 231 281
#     4   8  15  28  47  69  96 126 152 183 228 282
#     4  10  18  32  51  68  90 126 163 192 227 280
#     4  10  19  36  54  65  87 130 170 198 230 275
#     4  10  18  28  46  74 101 122 150 190 234 282
#
# _framework density 17.732862000000001
#
# number of rings (size 3 to 8) (size 9 to 14) (size 15 to 20)
#    0.000    2.500    1.250    2.625    0.000    2.500 
#    0.000    3.750    0.000    0.750    0.000    0.000 
#    0.000    0.000    0.000    0.000    0.000    1.250 
#
# Total GULP energy -396651.658706 kJ/mol
# GULP energy per Si atom -12395.364335 kJ/mol
# Density = 1.769250 g / cm^3
# Si number density = 17.732862 Si / 1000 Ang^3
#
#
#
# Elastic Constant Matrix: (Units=GPa)
#
#
# Indices 1 2 3 4 5 6 
#
# 1 108.5577 26.1366 51.6276 0.0000 -12.2341 0.0000
# 2 26.1366 36.1007 28.9977 0.0000 -7.3703 0.0000
# 3 51.6276 28.9977 103.5043 0.0000 -21.3856 0.0000
# 4 0.0000 0.0000 0.0000 27.9612 0.0000 17.0259
# 5 -12.2341 -7.3703 -21.3856 0.0000 17.1441 0.0000
# 6 0.0000 0.0000 0.0000 17.0259 0.0000 101.3724
#
#
#
# Elastic Compliance Matrix: (Units=1/GPa)
#
#
# Indices 1 2 3 4 5 6 
#
# 1 0.012844 -0.005309 -0.004711 0.000000 0.001006 0.000000
# 2 -0.005309 0.038131 -0.007316 0.000000 0.003478 0.000000
# 3 -0.004711 -0.007316 0.017132 0.000000 0.014864 0.000000
# 4 0.000000 0.000000 0.000000 0.039838 0.000000 -0.006691
# 5 0.001006 0.003478 0.014864 0.000000 0.079084 0.000000
# 6 0.000000 0.000000 0.000000 -0.006691 0.000000 0.010988
#
#
# Mechanical properties :
#
#
# Convention : Reuss Voigt Hill
#
# Bulk Modulus (GPa) = 29.90961 51.29850 40.60406
# Shear Modulus (GPa) = 20.50581 38.72225 29.61403
#
# Velocity S-wave (km/s) = 3.40424 4.67802 4.09101
# Velocity P-wave (km/s) = 5.68816 7.62691 6.72774
#
# Compressibility (1/GPa) = 0.03343407
#
# Stress axis : x y z
#
# Youngs Moduli (GPa) = 77.85819 26.22570 58.37036
#
# Poissons Ratio (x) = 0.13924 0.27499
# Poissons Ratio (y) = 0.41337 0.42703
# Poissons Ratio (z) = 0.36680 0.19186
#
# Static dielectric constant tensor:
#      x y z
#    x 3.425380 0.000000 -0.004000 
#    y 0.000000 3.078100 0.000000 
#    z -0.004000 0.000000 3.637660 
# 
# 
# High freq. dielectric constant tensor:
#      x y z
#    x 1.666360 0.000000 -0.007480 
#    y 0.000000 1.660510 0.000000 
#    z -0.007480 0.000000 1.692950 
# 
# From -- ./inp_files/287755.got.cif
#   From: 2010.06.25/outbox.cif.g09.slc.cpg/sg12_144_cif.got.tgz:287755.got - 2010.06.28 00:19:55.
