data_PCOD8080759
_publ_section_title
;
Structure prediction by ZEFSAII (Michael W. Deem and Ramdas Pophale) SiO2 
 PCOD8080759
Probable space group: C 2/M
;
_chemical_formula_sum "Si O2"
_cell_formula_units_Z 64
_cell_length_a 27.618496
_cell_length_b 9.355605
_cell_length_c 20.258455
_cell_angle_alpha 90.000000
_cell_angle_beta 133.399366
_cell_angle_gamma 90.000000
_cell_volume 3803.321352
_symmetry_space_group_name_H-M "C 2/M"
_symmetry_group_IT_number 12
_symmetry_cell_setting 'monoclinic'
loop_
_space_group_symop_operation_xyz
x,y,z
-x,y,-z
-x,-y,-z
x,-y,z
1/2+x,1/2+y,z
1/2-x,1/2+y,-z
1/2-x,1/2-y,-z
1/2+x,1/2-y,z
loop_
_atom_site_type_symbol
_atom_site_label
_atom_site_fract_x
_atom_site_fract_y
_atom_site_fract_z
Si Si1 0.186003 0.166125 0.260334
Si Si2 0.679284 0.839501 0.661319
Si Si3 0.535872 0.667733 0.100961
Si Si4 0.483566 0.838165 0.791097
Si Si5 0.506892 0.334281 0.325076
Si Si6 0.825426 0.341505 0.626576
Si Si7 0.864369 0.337254 0.526962
Si Si8 0.940359 0.164084 0.398714
O O1 0.242149 0.202577 0.256916
O O2 0.113500 0.213509 0.166395
O O3 0.205684 0.238671 0.348239
O O4 0.187528 0.000000 0.277819
O O5 0.671634 0.827297 0.575855
O O6 0.630380 0.737475 0.654824
O O7 0.665071 0.000000 0.673040
O O8 0.528817 0.500000 0.109853
O O9 0.500002 0.755584 0.125592
O O10 0.500000 0.710753 0.000000
O O11 0.518029 0.753781 0.762308
O O12 0.405313 0.836356 0.706075
O O13 0.511629 0.000000 0.821207
O O14 0.516604 0.500000 0.314833
O O15 0.575400 0.273857 0.418195
O O16 0.453358 0.316686 0.333364
O O17 0.797972 0.500000 0.615549
O O18 0.812137 0.295787 0.537389
O O19 0.890594 0.500000 0.564783
O O20 0.000000 0.230907 0.500000
O O21 0.932479 0.000000 0.411878
#
# Coordination Sequence:
#
# PCOD8080759 Si02
#       8
#     8   8   8   8   8   8   8   8
#     4   9  18  31  44  64  92 119 152 190 226 272
#     4  10  20  31  44  62  88 122 158 196 235 274
#     4   9  17  31  52  75  99 126 153 183 226 281
#     4   9  17  29  46  70  98 122 150 189 231 277
#     4  10  18  29  46  65  90 121 156 198 236 270
#     4   8  15  27  41  58  84 118 152 184 220 265
#     4   9  17  28  41  60  86 118 157 194 229 268
#     4  10  20  33  46  65  90 119 161 206 239 271
#
# _framework density 16.827397999999999
#
# number of rings (size 3 to 8) (size 9 to 14) (size 15 to 20)
#    0.000    2.750    1.250    1.500    0.000    5.500 
#    0.000    0.000    0.000    0.000    0.000    0.875 
#    0.000    0.000    0.000    0.000    0.000    0.000 
#
# Total GULP energy -396611.104122 kJ/mol
# GULP energy per Si atom -12394.097004 kJ/mol
# Density = 1.678910 g / cm^3
# Si number density = 16.827398 Si / 1000 Ang^3
#
#
#
# Elastic Constant Matrix: (Units=GPa)
#
#
# Indices 1 2 3 4 5 6 
#
# 1 98.4864 50.2146 26.4537 0.0000 -1.5879 0.0000
# 2 50.2146 76.0023 21.8333 0.0000 -5.3208 0.0000
# 3 26.4537 21.8333 48.6863 0.0000 -9.6774 0.0000
# 4 0.0000 0.0000 0.0000 15.5400 0.0000 -5.8465
# 5 -1.5879 -5.3208 -9.6774 0.0000 18.8409 0.0000
# 6 0.0000 0.0000 0.0000 -5.8465 0.0000 28.8818
#
#
#
# Elastic Compliance Matrix: (Units=1/GPa)
#
#
# Indices 1 2 3 4 5 6 
#
# 1 0.016438 -0.009582 -0.005454 0.000000 -0.004122 0.000000
# 2 -0.009582 0.020702 -0.003425 0.000000 0.003279 0.000000
# 3 -0.005454 -0.003425 0.027570 0.000000 0.012734 0.000000
# 4 0.000000 0.000000 0.000000 0.069655 0.000000 0.014100
# 5 -0.004122 0.003279 0.012734 0.000000 0.060196 0.000000
# 6 0.000000 0.000000 0.000000 0.014100 0.000000 0.037478
#
#
# Mechanical properties :
#
#
# Convention : Reuss Voigt Hill
#
# Bulk Modulus (GPa) = 35.98761 46.68646 41.33703
# Shear Modulus (GPa) = 17.97115 20.96409 19.46762
#
# Velocity S-wave (km/s) = 3.27153 3.53346 3.40501
# Velocity P-wave (km/s) = 5.97522 6.66721 6.33068
#
# Compressibility (1/GPa) = 0.02778734
#
# Stress axis : x y z
#
# Youngs Moduli (GPa) = 60.83568 48.30424 36.27105
#
# Poissons Ratio (x) = 0.46286 0.19781
# Poissons Ratio (y) = 0.58294 0.12425
# Poissons Ratio (z) = 0.33177 0.16547
#
# Static dielectric constant tensor:
#      x y z
#    x 3.195270 0.000000 -0.097690 
#    y 0.000000 3.250590 0.000000 
#    z -0.097690 0.000000 2.928070 
# 
# 
# High freq. dielectric constant tensor:
#      x y z
#    x 1.641340 0.000000 -0.012200 
#    y 0.000000 1.652930 0.000000 
#    z -0.012200 0.000000 1.607500 
# 
# From -- ./inp_files/326941.got.cif
#   From: 2010.06.25/outbox.cif.g09.slc.cpg/sg12_164_cif.got.tgz:326941.got - 2010.06.28 00:19:55.
