data_PCOD8080405
_publ_section_title
;
Structure prediction by ZEFSAII (Michael W. Deem and Ramdas Pophale) SiO2 
 PCOD8080405
Probable space group: C 2/M
;
_chemical_formula_sum "Si O2"
_cell_formula_units_Z 48
_cell_length_a 24.225576
_cell_length_b 8.973340
_cell_length_c 15.039679
_cell_angle_alpha 90.000000
_cell_angle_beta 60.118034
_cell_angle_gamma 90.000000
_cell_volume 2834.736863
_symmetry_space_group_name_H-M "C 2/M"
_symmetry_group_IT_number 12
_symmetry_cell_setting 'monoclinic'
loop_
_space_group_symop_operation_xyz
x,y,z
-x,y,-z
-x,-y,-z
x,-y,z
1/2+x,1/2+y,z
1/2-x,1/2+y,-z
1/2-x,1/2-y,-z
1/2+x,1/2-y,z
loop_
_atom_site_type_symbol
_atom_site_label
_atom_site_fract_x
_atom_site_fract_y
_atom_site_fract_z
Si Si1 0.698109 0.327520 0.344532
Si Si2 0.314895 0.172732 0.473811
Si Si3 0.926905 0.825779 0.048540
Si Si4 0.835708 0.326627 0.995551
Si Si5 0.346925 0.831077 0.257493
Si Si6 0.709064 0.826620 0.160093
O O1 0.680261 0.500000 0.356681
O O2 0.659045 0.251583 0.457505
O O3 0.773059 0.298662 0.296956
O O4 0.675475 0.251967 0.270811
O O5 0.250000 0.250000 0.500000
O O6 0.361654 0.191655 0.351140
O O7 0.302053 0.000000 0.503937
O O8 0.900731 0.737323 0.983802
O O9 0.890138 0.781724 0.167825
O O10 0.918071 0.000000 0.038660
O O11 0.000000 0.780563 0.000000
O O12 0.828601 0.500000 0.024144
O O13 0.778114 0.243011 0.089468
O O14 0.835455 0.298833 0.889976
O O15 0.363345 0.000000 0.215738
O O16 0.718258 0.000000 0.172623
#
# Coordination Sequence:
#
# PCOD8080405 Si02
#       6
#     8   8   8   8   8   8
#     4  10  18  28  45  71  99 127 159 190 234 292
#     4   9  17  28  43  65  94 125 158 194 236 287
#     4  11  23  35  49  70  95 128 168 204 240 282
#     4  10  20  33  48  69  95 126 163 198 240 289
#     4   9  18  31  46  66  93 126 162 198 236 283
#     4  10  19  30  48  71  97 128 158 195 240 287
#
# _framework density 16.932787999999999
#
# number of rings (size 3 to 8) (size 9 to 14) (size 15 to 20)
#    0.000    2.167    1.667    3.500    0.000    6.667 
#    0.000    0.000    0.000    0.000    0.000    1.167 
#    0.000    9.333    0.000    0.000    0.000    0.000 
#
# Total GULP energy -297551.157513 kJ/mol
# GULP energy per Si atom -12397.964896 kJ/mol
# Density = 1.689425 g / cm^3
# Si number density = 16.932788 Si / 1000 Ang^3
#
#
#
# Elastic Constant Matrix: (Units=GPa)
#
#
# Indices 1 2 3 4 5 6 
#
# 1 67.8497 42.8846 39.1116 0.0000 15.9432 0.0000
# 2 42.8846 113.0102 50.2536 0.0000 19.8388 0.0000
# 3 39.1116 50.2536 97.3496 0.0000 35.0632 0.0000
# 4 0.0000 0.0000 0.0000 32.1242 0.0000 6.5327
# 5 15.9432 19.8388 35.0632 0.0000 27.3886 0.0000
# 6 0.0000 0.0000 0.0000 6.5327 0.0000 22.1356
#
#
#
# Elastic Compliance Matrix: (Units=1/GPa)
#
#
# Indices 1 2 3 4 5 6 
#
# 1 0.021698 -0.005614 -0.005075 0.000000 -0.002067 0.000000
# 2 -0.005614 0.012965 -0.004141 0.000000 -0.000821 0.000000
# 3 -0.005075 -0.004141 0.022833 0.000000 -0.023277 0.000000
# 4 0.000000 0.000000 0.000000 0.033117 0.000000 -0.009774
# 5 -0.002067 -0.000821 -0.023277 0.000000 0.068109 0.000000
# 6 0.000000 0.000000 0.000000 -0.009774 0.000000 0.048061
#
#
# Mechanical properties :
#
#
# Convention : Reuss Voigt Hill
#
# Bulk Modulus (GPa) = 35.92587 60.30100 48.11343
# Shear Modulus (GPa) = 20.34822 26.06031 23.20426
#
# Velocity S-wave (km/s) = 3.47032 3.92732 3.70587
# Velocity P-wave (km/s) = 6.10904 7.50029 6.84013
#
# Compressibility (1/GPa) = 0.02783509
#
# Stress axis : x y z
#
# Youngs Moduli (GPa) = 46.08705 77.13067 43.79659
#
# Poissons Ratio (x) = 0.43304 0.22225
# Poissons Ratio (y) = 0.25875 0.18138
# Poissons Ratio (z) = 0.23388 0.31943
#
# Static dielectric constant tensor:
#      x y z
#    x 2.853020 0.000000 0.412930 
#    y 0.000000 3.322720 0.000000 
#    z 0.412930 0.000000 3.467550 
# 
# 
# High freq. dielectric constant tensor:
#      x y z
#    x 1.598270 0.000000 0.039010 
#    y 0.000000 1.672310 0.000000 
#    z 0.039010 0.000000 1.656100 
# 
# From -- ./inp_files/229842.got.cif
#   From: 2010.06.25/outbox.cif.g09.slc.cpg/sg12_115_cif.got.tgz:229842.got - 2010.06.28 00:19:55.
