data_PCOD8080615
_publ_section_title
;
Structure prediction by ZEFSAII (Michael W. Deem and Ramdas Pophale) SiO2 
 PCOD8080615
Probable space group: C 2/M
;
_chemical_formula_sum "Si O2"
_cell_formula_units_Z 56
_cell_length_a 26.973478
_cell_length_b 9.498733
_cell_length_c 14.203526
_cell_angle_alpha 90.000000
_cell_angle_beta 102.334076
_cell_angle_gamma 90.000000
_cell_volume 3555.144228
_symmetry_space_group_name_H-M "C 2/M"
_symmetry_group_IT_number 12
_symmetry_cell_setting 'monoclinic'
loop_
_space_group_symop_operation_xyz
x,y,z
-x,y,-z
-x,-y,-z
x,-y,z
1/2+x,1/2+y,z
1/2-x,1/2+y,-z
1/2-x,1/2-y,-z
1/2+x,1/2-y,z
loop_
_atom_site_type_symbol
_atom_site_label
_atom_site_fract_x
_atom_site_fract_y
_atom_site_fract_z
Si Si1 0.289159 0.836239 0.889577
Si Si2 0.443784 0.665594 0.453874
Si Si3 0.814941 0.837636 0.731247
Si Si4 0.690791 0.837977 0.891540
Si Si5 0.381734 0.842352 0.294786
Si Si6 0.644231 0.662284 0.444413
Si Si7 0.790812 0.658359 0.402090
O O1 0.324459 0.761913 0.825151
O O2 0.234273 0.763347 0.869321
O O3 0.281945 0.000000 0.862183
O O4 0.317317 0.814942 0.000641
O O5 0.500000 0.719842 0.500000
O O6 0.443060 0.500000 0.435893
O O7 0.425150 0.737567 0.349508
O O8 0.408068 0.711060 0.527250
O O9 0.858660 0.812723 0.669732
O O10 0.762148 0.791841 0.662378
O O11 0.814044 0.000000 0.764020
O O12 0.637204 0.802976 0.818510
O O13 0.706766 0.000000 0.876342
O O14 0.331934 0.829099 0.337255
O O15 0.404267 0.000000 0.307061
O O16 0.654596 0.500000 0.470995
O O17 0.692939 0.743843 0.504554
O O18 0.786470 0.500000 0.439079
#
# Coordination Sequence:
#
# PCOD8080615 Si02
#       7
#     8   8   8   8   8   8   8
#     4  10  19  27  42  64  87 119 154 182 210 250
#     4   9  18  32  47  66  91 111 136 182 228 262
#     4  10  18  29  41  57  87 121 148 176 212 253
#     4   9  17  31  44  60  89 120 148 182 219 249
#     4   9  16  28  46  64  86 115 145 175 212 259
#     4   9  18  29  43  61  82 114 148 175 214 265
#     4   9  16  26  40  58  84 116 142 174 212 244
#
# _framework density 15.751822000000001
#
# number of rings (size 3 to 8) (size 9 to 14) (size 15 to 20)
#    0.000    2.714    1.429    0.857    0.000    2.571 
#    0.000    0.000    0.000    0.000    0.000    1.000 
#    0.000    8.000    0.000    0.000    0.000    0.000 
#
# Total GULP energy -347105.492703 kJ/mol
# GULP energy per Si atom -12396.624739 kJ/mol
# Density = 1.571597 g / cm^3
# Si number density = 15.751822 Si / 1000 Ang^3
#
#
#
# Elastic Constant Matrix: (Units=GPa)
#
#
# Indices 1 2 3 4 5 6 
#
# 1 52.4771 28.0682 42.9504 0.0000 4.2055 0.0000
# 2 28.0682 65.1016 54.6112 0.0000 -2.5178 0.0000
# 3 42.9504 54.6112 111.4834 0.0000 -1.6134 0.0000
# 4 0.0000 0.0000 0.0000 29.7889 0.0000 -2.0984
# 5 4.2055 -2.5178 -1.6134 0.0000 22.2997 0.0000
# 6 0.0000 0.0000 0.0000 -2.0984 0.0000 15.7148
#
#
#
# Elastic Compliance Matrix: (Units=1/GPa)
#
#
# Indices 1 2 3 4 5 6 
#
# 1 0.029895 -0.005791 -0.008781 0.000000 -0.006927 0.000000
# 2 -0.005791 0.027289 -0.011088 0.000000 0.003371 0.000000
# 3 -0.008781 -0.011088 0.017809 0.000000 0.001693 0.000000
# 4 0.000000 0.000000 0.000000 0.033888 0.000000 0.004525
# 5 -0.006927 0.003371 0.001693 0.000000 0.046653 0.000000
# 6 0.000000 0.000000 0.000000 0.004525 0.000000 0.064239
#
#
# Mechanical properties :
#
#
# Convention : Reuss Voigt Hill
#
# Bulk Modulus (GPa) = 42.24161 53.36908 47.80535
# Shear Modulus (GPa) = 17.92215 20.45618 19.18916
#
# Velocity S-wave (km/s) = 3.37676 3.60759 3.49409
# Velocity P-wave (km/s) = 6.48680 7.16294 6.83324
#
# Compressibility (1/GPa) = 0.02367334
#
# Stress axis : x y z
#
# Youngs Moduli (GPa) = 33.44993 36.64492 56.15153
#
# Poissons Ratio (x) = 0.21221 0.49307
# Poissons Ratio (y) = 0.19371 0.62260
# Poissons Ratio (z) = 0.29373 0.40631
#
# Static dielectric constant tensor:
#      x y z
#    x 2.808060 0.000000 -0.158410 
#    y 0.000000 3.069220 0.000000 
#    z -0.158410 0.000000 3.161150 
# 
# 
# High freq. dielectric constant tensor:
#      x y z
#    x 1.562820 0.000000 -0.015800 
#    y 0.000000 1.608320 0.000000 
#    z -0.015800 0.000000 1.600450 
# 
# From -- ./inp_files/243048.got.cif
#   From: 2010.06.25/outbox.cif.g09.slc.cpg/sg12_122_cif.got.tgz:243048.got - 2010.06.28 00:19:55.
