data_PCOD8080932
_publ_section_title
;
Structure prediction by ZEFSAII (Michael W. Deem and Ramdas Pophale) SiO2 
 PCOD8080932
Probable space group: C 2/M
;
_chemical_formula_sum "Si O2"
_cell_formula_units_Z 40
_cell_length_a 20.719829
_cell_length_b 8.631610
_cell_length_c 14.362308
_cell_angle_alpha 90.000000
_cell_angle_beta 120.730845
_cell_angle_gamma 90.000000
_cell_volume 2207.939399
_symmetry_space_group_name_H-M "C 2/M"
_symmetry_group_IT_number 12
_symmetry_cell_setting 'monoclinic'
loop_
_space_group_symop_operation_xyz
x,y,z
-x,y,-z
-x,-y,-z
x,-y,z
1/2+x,1/2+y,z
1/2-x,1/2+y,-z
1/2-x,1/2-y,-z
1/2+x,1/2-y,z
loop_
_atom_site_type_symbol
_atom_site_label
_atom_site_fract_x
_atom_site_fract_y
_atom_site_fract_z
Si Si1 0.969018 0.317413 0.078079
Si Si2 0.320370 0.183496 0.496216
Si Si3 0.736149 0.816790 0.277369
Si Si4 0.902572 0.817760 0.713833
Si Si5 0.201640 0.682637 0.046888
O O1 0.977270 0.500000 0.101120
O O2 0.014691 0.226346 0.190851
O O3 0.883764 0.258447 0.023422
O O4 0.000000 0.270877 0.000000
O O5 0.250000 0.250000 0.500000
O O6 0.308723 0.239009 0.381001
O O7 0.393638 0.255731 0.600584
O O8 0.323761 0.000000 0.503633
O O9 0.657718 0.763892 0.263919
O O10 0.737447 0.763218 0.171107
O O11 0.741532 0.000000 0.291922
O O12 0.889384 0.000000 0.706694
O O13 0.202356 0.500000 0.041120
O O14 0.250000 0.750000 0.000000
#
# Coordination Sequence:
#
# PCOD8080932 Si02
#       5
#     8   8   8   8   8
#     4  10  19  36  56  76 106 143 179 216 267 318
#     4  10  18  29  47  74 105 139 173 217 266 315
#     4  10  18  33  52  74 105 143 178 216 264 315
#     4  11  20  30  49  80 109 137 173 222 268 311
#     4  10  22  37  56  78 107 145 178 217 264 317
#
# _framework density 18.116440000000001
#
# number of rings (size 3 to 8) (size 9 to 14) (size 15 to 20)
#    0.000    1.800    2.000    6.600    0.000    2.800 
#    0.000    0.000    0.000    1.200    0.000    8.400 
#    0.000    0.000    0.000    0.000    0.000    0.000 
#
# Total GULP energy -247969.354546 kJ/mol
# GULP energy per Si atom -12398.467727 kJ/mol
# Density = 1.807521 g / cm^3
# Si number density = 18.116440 Si / 1000 Ang^3
#
#
#
# Elastic Constant Matrix: (Units=GPa)
#
#
# Indices 1 2 3 4 5 6 
#
# 1 81.8448 10.8136 56.1891 0.0000 -1.7441 0.0000
# 2 10.8136 66.5045 47.0593 0.0000 3.8640 0.0000
# 3 56.1891 47.0593 190.8117 0.0000 5.1865 0.0000
# 4 0.0000 0.0000 0.0000 35.8402 0.0000 1.5445
# 5 -1.7441 3.8640 5.1865 0.0000 20.8102 0.0000
# 6 0.0000 0.0000 0.0000 1.5445 0.0000 22.4955
#
#
#
# Elastic Compliance Matrix: (Units=1/GPa)
#
#
# Indices 1 2 3 4 5 6 
#
# 1 0.015467 0.000747 -0.004803 0.000000 0.002355 0.000000
# 2 0.000747 0.018359 -0.004689 0.000000 -0.002178 0.000000
# 3 -0.004803 -0.004689 0.007852 0.000000 -0.001489 0.000000
# 4 0.000000 0.000000 0.000000 0.027984 0.000000 -0.001921
# 5 0.002355 -0.002178 -0.001489 0.000000 0.049026 0.000000
# 6 0.000000 0.000000 0.000000 -0.001921 0.000000 0.044585
#
#
# Mechanical properties :
#
#
# Convention : Reuss Voigt Hill
#
# Bulk Modulus (GPa) = 41.34109 63.03164 52.18636
# Shear Modulus (GPa) = 26.47934 30.83579 28.65756
#
# Velocity S-wave (km/s) = 3.82726 4.13011 3.98157
# Velocity P-wave (km/s) = 6.51151 7.59025 7.07148
#
# Compressibility (1/GPa) = 0.02418901
#
# Stress axis : x y z
#
# Youngs Moduli (GPa) = 64.65358 54.46795 127.35794
#
# Poissons Ratio (x) = -0.04068 0.61168
# Poissons Ratio (y) = -0.04828 0.59714
# Poissons Ratio (z) = 0.31052 0.25538
#
# Static dielectric constant tensor:
#      x y z
#    x 2.848640 0.000000 0.201000 
#    y 0.000000 3.322370 0.000000 
#    z 0.201000 0.000000 4.261880 
# 
# 
# High freq. dielectric constant tensor:
#      x y z
#    x 1.641760 0.000000 0.008710 
#    y 0.000000 1.708670 0.000000 
#    z 0.008710 0.000000 1.731550 
# 
# From -- ./inp_files/221227.got.cif
#   From: 2010.06.25/outbox.cif.g09.slc.cpg/sg12_111_cif.got.tgz:221227.got - 2010.06.28 00:19:55.
