data_PCOD8080629
_publ_section_title
;
Structure prediction by ZEFSAII (Michael W. Deem and Ramdas Pophale) SiO2 
 PCOD8080629
Probable space group: C 2/M
;
_chemical_formula_sum "Si O2"
_cell_formula_units_Z 64
_cell_length_a 30.006864
_cell_length_b 9.200286
_cell_length_c 15.311010
_cell_angle_alpha 90.000000
_cell_angle_beta 79.498120
_cell_angle_gamma 90.000000
_cell_volume 4156.131302
_symmetry_space_group_name_H-M "C 2/M"
_symmetry_group_IT_number 12
_symmetry_cell_setting 'monoclinic'
loop_
_space_group_symop_operation_xyz
x,y,z
-x,y,-z
-x,-y,-z
x,-y,z
1/2+x,1/2+y,z
1/2-x,1/2+y,-z
1/2-x,1/2-y,-z
1/2+x,1/2-y,z
loop_
_atom_site_type_symbol
_atom_site_label
_atom_site_fract_x
_atom_site_fract_y
_atom_site_fract_z
Si Si1 0.542685 0.330708 0.799832
Si Si2 0.966932 0.172488 0.389903
Si Si3 0.807031 0.332122 0.050092
Si Si4 0.436294 0.673020 0.581607
Si Si5 0.376919 0.327991 0.754870
Si Si6 0.405099 0.829788 0.071959
Si Si7 0.791321 0.829997 0.880020
Si Si8 0.939642 0.830832 0.890379
O O1 0.555209 0.500000 0.804340
O O2 0.549881 0.271839 0.698194
O O3 0.576554 0.237795 0.845848
O O4 0.491338 0.302969 0.846577
O O5 0.933362 0.223969 0.480889
O O6 0.017249 0.231866 0.392238
O O7 0.969708 0.000000 0.384761
O O8 0.805006 0.500000 0.023594
O O9 0.851121 0.298173 0.091779
O O10 0.761197 0.288973 0.120330
O O11 0.809735 0.242123 0.960924
O O12 0.436509 0.500000 0.583369
O O13 0.394732 0.735061 0.655398
O O14 0.381872 0.500000 0.750069
O O15 0.324494 0.279829 0.788982
O O16 0.408049 0.271384 0.823475
O O17 0.415641 0.000000 0.065889
O O18 0.429459 0.758257 0.980906
O O19 0.797157 0.000000 0.893032
O O20 0.930452 0.000000 0.912863
#
# Coordination Sequence:
#
# PCOD8080629 Si02
#       8
#     8   8   8   8   8   8   8   8
#     4  10  19  30  44  62  84 112 146 176 202 238
#     4   8  13  22  37  60  88 110 128 162 208 248
#     4   9  18  30  41  58  82 108 139 175 209 242
#     4   8  12  20  37  62  89 108 125 159 211 255
#     4   9  14  22  40  65  87 107 131 162 206 254
#     4  11  22  32  41  56  83 117 149 176 204 240
#     4   9  16  27  45  63  81 105 135 171 210 250
#     4  10  18  29  43  62  86 111 142 175 201 237
#
# _framework density 15.398936000000001
#
# number of rings (size 3 to 8) (size 9 to 14) (size 15 to 20)
#    0.000    2.750    2.500    1.500    0.000    2.500 
#    0.000    0.000    0.000    0.000    0.000    4.375 
#    0.000    0.000    0.000    0.000    0.000    0.000 
#
# Total GULP energy -396509.295181 kJ/mol
# GULP energy per Si atom -12390.915474 kJ/mol
# Density = 1.536389 g / cm^3
# Si number density = 15.398936 Si / 1000 Ang^3
#
#
#
# Elastic Constant Matrix: (Units=GPa)
#
#
# Indices 1 2 3 4 5 6 
#
# 1 91.1617 30.4631 71.5009 0.0000 -10.6302 0.0000
# 2 30.4631 30.3209 31.5418 0.0000 0.3133 0.0000
# 3 71.5009 31.5418 152.0103 0.0000 -11.7211 0.0000
# 4 0.0000 0.0000 0.0000 5.6484 0.0000 -0.2046
# 5 -10.6302 0.3133 -11.7211 0.0000 24.1298 0.0000
# 6 0.0000 0.0000 0.0000 -0.2046 0.0000 16.2808
#
#
#
# Elastic Compliance Matrix: (Units=1/GPa)
#
#
# Indices 1 2 3 4 5 6 
#
# 1 0.022140 -0.015324 -0.006718 0.000000 0.006689 0.000000
# 2 -0.015324 0.053247 -0.004587 0.000000 -0.009670 0.000000
# 3 -0.006718 -0.004587 0.010874 0.000000 0.002382 0.000000
# 4 0.000000 0.000000 0.000000 0.177123 0.000000 0.002226
# 5 0.006689 -0.009670 0.002382 0.000000 0.045672 0.000000
# 6 0.000000 0.000000 0.000000 0.002226 0.000000 0.061450
#
#
# Mechanical properties :
#
#
# Convention : Reuss Voigt Hill
#
# Bulk Modulus (GPa) = 30.29970 60.05605 45.17787
# Shear Modulus (GPa) = 11.50050 18.54427 15.02239
#
# Velocity S-wave (km/s) = 2.73580 3.47401 3.12676
# Velocity P-wave (km/s) = 5.44965 7.42808 6.51441
#
# Compressibility (1/GPa) = 0.03300363
#
# Stress axis : x y z
#
# Youngs Moduli (GPa) = 45.16805 18.78038 91.96263
#
# Poissons Ratio (x) = 0.28778 0.61784
# Poissons Ratio (y) = 0.69213 0.42179
# Poissons Ratio (z) = 0.30346 0.08614
#
# Static dielectric constant tensor:
#      x y z
#    x 3.077600 0.000000 -0.236100 
#    y 0.000000 2.654880 0.000000 
#    z -0.236100 0.000000 3.278590 
# 
# 
# High freq. dielectric constant tensor:
#      x y z
#    x 1.577690 0.000000 -0.015280 
#    y 0.000000 1.556040 0.000000 
#    z -0.015280 0.000000 1.584900 
# 
# From -- ./inp_files/248330.got.cif
#   From: 2010.06.25/outbox.cif.g09.slc.cpg/sg12_125_cif.got.tgz:248330.got - 2010.06.28 00:19:55.
