data_PCOD8080492
_publ_section_title
;
Structure prediction by ZEFSAII (Michael W. Deem and Ramdas Pophale) SiO2 
 PCOD8080492
Probable space group: C 2/M
;
_chemical_formula_sum "Si O2"
_cell_formula_units_Z 64
_cell_length_a 17.746474
_cell_length_b 23.301686
_cell_length_c 18.038309
_cell_angle_alpha 90.000000
_cell_angle_beta 148.526902
_cell_angle_gamma 90.000000
_cell_volume 3894.461498
_symmetry_space_group_name_H-M "C 2/M"
_symmetry_group_IT_number 12
_symmetry_cell_setting 'monoclinic'
loop_
_space_group_symop_operation_xyz
x,y,z
-x,y,-z
-x,-y,-z
x,-y,z
1/2+x,1/2+y,z
1/2-x,1/2+y,-z
1/2-x,1/2-y,-z
1/2+x,1/2-y,z
loop_
_atom_site_type_symbol
_atom_site_label
_atom_site_fract_x
_atom_site_fract_y
_atom_site_fract_z
Si Si1 0.807269 0.841708 0.137408
Si Si2 0.654572 0.064742 0.106460
Si Si3 0.914937 0.188121 0.688486
Si Si4 0.643855 0.435857 0.585767
Si Si5 0.221943 0.659181 0.391645
Si Si6 0.788430 0.730192 0.369851
Si Si7 0.390641 0.767941 0.297754
Si Si8 0.925824 0.690223 0.177531
O O1 0.736005 0.897919 0.112997
O O2 0.847824 0.796442 0.235897
O O3 0.956910 0.858629 0.218801
O O4 0.698022 0.813635 0.987198
O O5 0.737108 0.063426 0.252159
O O6 0.638490 0.000000 0.060770
O O7 0.500000 0.091145 0.000000
O O8 0.797148 0.187778 0.525138
O O9 0.823283 0.183639 0.687851
O O10 0.999381 0.247897 0.759800
O O11 0.500000 0.407990 0.500000
O O12 0.610129 0.500000 0.527876
O O13 0.696746 0.399210 0.560540
O O14 0.228109 0.705021 0.329554
O O15 0.053865 0.644441 0.268890
O O16 0.792779 0.715976 0.286328
O O17 0.943450 0.728098 0.538836
O O18 0.361090 0.814492 0.207056
#
# Coordination Sequence:
#
# PCOD8080492 Si02
#       8
#     8   8   8   8   8   8   8   8
#     4  11  20  31  49  69  94 129 158 197 244 277
#     4  10  21  37  50  68  98 131 167 201 239 281
#     4  10  18  32  45  67  94 125 161 195 234 282
#     4  10  21  32  46  71  97 122 161 210 238 266
#     4  11  17  30  49  63  91 129 164 185 235 291
#     4  10  18  28  47  68  92 126 164 186 226 289
#     4  10  18  29  45  69  95 124 158 194 228 282
#     4  10  19  32  43  68  94 121 160 199 234 281
#
# _framework density 16.433593999999999
#
# number of rings (size 3 to 8) (size 9 to 14) (size 15 to 20)
#    0.000    1.750    3.750    4.500    1.750    1.000 
#    0.000    3.125    0.000    0.000    0.000    0.000 
#    0.000    6.000    0.000    0.000    0.000    0.000 
#
# Total GULP energy -396514.361123 kJ/mol
# GULP energy per Si atom -12391.073785 kJ/mol
# Density = 1.639619 g / cm^3
# Si number density = 16.433594 Si / 1000 Ang^3
#
#
#
# Elastic Constant Matrix: (Units=GPa)
#
#
# Indices 1 2 3 4 5 6 
#
# 1 152.0267 43.2068 40.5405 -0.0001 11.2039 -0.0006
# 2 43.2068 47.4985 9.5007 0.0000 5.4113 -0.0006
# 3 40.5405 9.5007 80.9290 -0.0006 9.3775 -0.0025
# 4 -0.0001 0.0000 -0.0006 19.4086 -0.0003 2.0814
# 5 11.2039 5.4113 9.3775 -0.0003 28.5613 -0.0010
# 6 -0.0006 -0.0006 -0.0025 2.0814 -0.0010 29.5187
#
#
#
# Elastic Compliance Matrix: (Units=1/GPa)
#
#
# Indices 1 2 3 4 5 6 
#
# 1 0.010047 -0.008227 -0.003941 0.000000 -0.001089 0.000000
# 2 -0.008227 0.028615 0.001056 0.000000 -0.002541 0.000000
# 3 -0.003941 0.001056 0.014606 0.000000 -0.003450 0.000001
# 4 0.000000 0.000000 0.000000 0.051916 0.000000 -0.003661
# 5 -0.001089 -0.002541 -0.003450 0.000000 0.037053 0.000001
# 6 0.000000 0.000000 0.000001 -0.003661 0.000001 0.034135
#
#
# Mechanical properties :
#
#
# Convention : Reuss Voigt Hill
#
# Bulk Modulus (GPa) = 32.21091 51.88337 42.04714
# Shear Modulus (GPa) = 23.92973 27.97814 25.95394
#
# Velocity S-wave (km/s) = 3.82009 4.13061 3.97838
# Velocity P-wave (km/s) = 6.25305 7.37491 6.83703
#
# Compressibility (1/GPa) = 0.03104538
#
# Stress axis : x y z
#
# Youngs Moduli (GPa) = 99.53096 34.94650 68.46283
#
# Poissons Ratio (x) = 0.28751 0.26982
# Poissons Ratio (y) = 0.81884 -0.07232
# Poissons Ratio (z) = 0.39226 -0.03692
#
# Static dielectric constant tensor:
#      x y z
#    x 3.627180 0.000000 0.259340 
#    y 0.000000 2.887300 0.000000 
#    z 0.259340 0.000000 3.245470 
# 
# 
# High freq. dielectric constant tensor:
#      x y z
#    x 1.638530 0.000000 0.014170 
#    y 0.000000 1.575260 0.000000 
#    z 0.014170 0.000000 1.645990 
# 
# From -- ./inp_files/279395.got.cif
#   From: 2010.06.25/outbox.cif.g09.slc.cpg/sg12_140_cif.got.tgz:279395.got - 2010.06.28 00:19:55.
