data_PCOD8080873
_publ_section_title
;
Structure prediction by ZEFSAII (Michael W. Deem and Ramdas Pophale) SiO2 
 PCOD8080873
Probable space group: C 2/M
;
_chemical_formula_sum "Si O2"
_cell_formula_units_Z 64
_cell_length_a 26.446601
_cell_length_b 21.029131
_cell_length_c 8.798918
_cell_angle_alpha 90.000000
_cell_angle_beta 131.713782
_cell_angle_gamma 90.000000
_cell_volume 3652.898099
_symmetry_space_group_name_H-M "C 2/M"
_symmetry_group_IT_number 12
_symmetry_cell_setting 'monoclinic'
loop_
_space_group_symop_operation_xyz
x,y,z
-x,y,-z
-x,-y,-z
x,-y,z
1/2+x,1/2+y,z
1/2-x,1/2+y,-z
1/2-x,1/2-y,-z
1/2+x,1/2-y,z
loop_
_atom_site_type_symbol
_atom_site_label
_atom_site_fract_x
_atom_site_fract_y
_atom_site_fract_z
Si Si1 0.567642 0.235438 0.707187
Si Si2 0.431667 0.627355 0.792855
Si Si3 0.291476 0.569714 0.152839
Si Si4 0.432358 0.235438 0.936618
Si Si5 0.568333 0.627355 0.566186
Si Si6 0.287471 0.809572 0.002831
Si Si7 0.212529 0.309572 0.352949
Si Si8 0.291476 0.569714 0.513066
O O1 0.500000 0.203704 0.500000
O O2 0.581391 0.302934 0.658052
O O3 0.632270 0.190965 0.802257
O O4 0.556452 0.245559 0.862904
O O5 0.418609 0.697065 0.832490
O O6 0.439569 0.632536 0.629138
O O7 0.368855 0.583507 0.715290
O O8 0.500000 0.597339 0.000000
O O9 0.271328 0.500000 0.047235
O O10 0.368855 0.583507 0.260129
O O11 0.285005 0.569124 0.320011
O O12 0.242045 0.624429 0.987716
O O13 0.367730 0.190966 0.773176
O O14 0.500000 0.203704 0.000000
O O15 0.500000 0.597339 0.500000
O O16 0.250000 0.750000 0.000000
O O17 0.272480 0.805454 0.794961
O O18 0.250000 0.250000 0.500000
O O19 0.242045 0.375571 0.480465
O O20 0.271328 0.500000 0.538076
#
# Coordination Sequence:
#
# PCOD8080873 Si02
#       8
#     8   8   8   8   8   8   8   8
#     4  10  19  30  48  73  99 126 159 199 244 288
#     4  10  18  29  47  69  97 131 163 197 236 281
#     4   9  18  32  49  70  97 130 165 199 240 290
#     4  10  19  30  48  73  99 126 159 199 244 288
#     4  10  18  29  47  69  97 131 163 197 236 281
#     4  10  19  32  52  75  97 126 163 203 244 286
#     4  10  19  32  52  75  97 126 163 203 244 286
#     4   9  18  32  49  70  97 130 165 199 240 290
#
# _framework density 17.520333999999998
#
# number of rings (size 3 to 8) (size 9 to 14) (size 15 to 20)
#    0.000    2.250    2.500    3.000    0.000    1.500 
#    0.000    0.000    0.000    6.750    0.000    0.000 
#    0.000    0.000    0.000    0.000    0.000    1.000 
#
# Total GULP energy -396655.863335 kJ/mol
# GULP energy per Si atom -12395.495729 kJ/mol
# Density = 1.748046 g / cm^3
# Si number density = 17.520334 Si / 1000 Ang^3
#
#
#
# Elastic Constant Matrix: (Units=GPa)
#
#
# Indices 1 2 3 4 5 6 
#
# 1 96.6089 58.6082 47.0590 0.0000 20.0438 0.0000
# 2 58.6082 132.2928 49.9128 0.0000 30.1983 0.0000
# 3 47.0590 49.9128 85.5634 0.0000 18.3164 0.0000
# 4 0.0000 0.0000 0.0000 19.4281 0.0000 5.9181
# 5 20.0438 30.1983 18.3164 0.0000 27.8877 0.0000
# 6 0.0000 0.0000 0.0000 5.9181 0.0000 21.1322
#
#
#
# Elastic Compliance Matrix: (Units=1/GPa)
#
#
# Indices 1 2 3 4 5 6 
#
# 1 0.016529 -0.004363 -0.005834 0.000000 -0.003324 0.000000
# 2 -0.004363 0.012608 -0.003146 0.000000 -0.008450 0.000000
# 3 -0.005834 -0.003146 0.017576 0.000000 -0.003943 0.000000
# 4 0.000000 0.000000 0.000000 0.056272 0.000000 -0.015759
# 5 -0.003324 -0.008450 -0.003943 0.000000 0.049987 0.000000
# 6 0.000000 0.000000 0.000000 -0.015759 0.000000 0.051734
#
#
# Mechanical properties :
#
#
# Convention : Reuss Voigt Hill
#
# Bulk Modulus (GPa) = 49.93560 69.51389 59.72475
# Shear Modulus (GPa) = 21.00231 24.28194 22.64213
#
# Velocity S-wave (km/s) = 3.46604 3.72685 3.59880
# Velocity P-wave (km/s) = 6.67692 7.63423 7.17157
#
# Compressibility (1/GPa) = 0.02002579
#
# Stress axis : x y z
#
# Youngs Moduli (GPa) = 60.49845 79.31623 56.89716
#
# Poissons Ratio (x) = 0.34604 0.33196
# Poissons Ratio (y) = 0.26394 0.17901
# Poissons Ratio (z) = 0.35297 0.24955
#
# Static dielectric constant tensor:
#      x y z
#    x 3.447120 0.000000 0.264950 
#    y 0.000000 3.330800 0.000000 
#    z 0.264950 0.000000 3.370830 
# 
# 
# High freq. dielectric constant tensor:
#      x y z
#    x 1.677190 0.000000 0.012200 
#    y 0.000000 1.651050 0.000000 
#    z 0.012200 0.000000 1.673680 
# 
# From -- ./inp_files/106425.got.cif
#   From: 2010.06.25/outbox.cif.g09.slc.cpg/sg12_54_cif.got.tgz:106425.got - 2010.06.28 00:19:55.
