data_PCOD8080149
_publ_section_title
;
Structure prediction by ZEFSAII (Michael W. Deem and Ramdas Pophale) SiO2 
 PCOD8080149
Probable space group: C 2/M
;
_chemical_formula_sum "Si O2"
_cell_formula_units_Z 56
_cell_length_a 29.319139
_cell_length_b 9.140558
_cell_length_c 13.660288
_cell_angle_alpha 90.000000
_cell_angle_beta 103.601415
_cell_angle_gamma 90.000000
_cell_volume 3558.197264
_symmetry_space_group_name_H-M "C 2/M"
_symmetry_group_IT_number 12
_symmetry_cell_setting 'monoclinic'
loop_
_space_group_symop_operation_xyz
x,y,z
-x,y,-z
-x,-y,-z
x,-y,z
1/2+x,1/2+y,z
1/2-x,1/2+y,-z
1/2-x,1/2-y,-z
1/2+x,1/2-y,z
loop_
_atom_site_type_symbol
_atom_site_label
_atom_site_fract_x
_atom_site_fract_y
_atom_site_fract_z
Si Si1 0.551167 0.831675 0.911589
Si Si2 0.894163 0.667368 0.861587
Si Si3 0.601960 0.668988 0.771735
Si Si4 0.966253 0.173397 0.783204
Si Si5 0.200330 0.167496 0.878641
Si Si6 0.515034 0.328127 0.610618
Si Si7 0.696588 0.828674 0.078502
O O1 0.590044 0.768530 0.858170
O O2 0.503306 0.740366 0.878563
O O3 0.540636 0.000000 0.880127
O O4 0.570758 0.816569 0.029998
O O5 0.890764 0.500000 0.824608
O O6 0.914691 0.763724 0.782631
O O7 0.842462 0.729490 0.864688
O O8 0.590837 0.500000 0.793099
O O9 0.657779 0.691167 0.778990
O O10 0.569336 0.714185 0.662900
O O11 0.980997 0.224585 0.681214
O O12 0.966114 0.000000 0.793440
O O13 0.250708 0.208750 0.855756
O O14 0.202212 0.000000 0.914499
O O15 0.189551 0.260738 0.968751
O O16 0.500000 0.253009 0.500000
O O17 0.509731 0.500000 0.596909
O O18 0.687703 0.000000 0.060722
#
# Coordination Sequence:
#
# PCOD8080149 Si02
#       7
#     8   8   8   8   8   8   8
#     4  10  18  28  41  58  84 117 145 166 197 246
#     4  10  19  29  40  57  84 118 146 165 196 246
#     4   9  16  26  43  66  86 108 140 177 212 241
#     4  10  20  30  43  62  81 105 140 177 211 246
#     4   9  16  26  41  61  85 110 142 180 206 232
#     4   8  15  29  46  63  83 104 130 171 220 261
#     4   9  17  28  40  57  84 118 147 168 199 242
#
# _framework density 15.738306
#
# number of rings (size 3 to 8) (size 9 to 14) (size 15 to 20)
#    0.000    2.714    1.429    2.143    0.000    3.429 
#    0.000    0.000    0.000   10.714    0.000    1.000 
#    0.000    0.000    0.000    0.000    0.000    0.000 
#
# Total GULP energy -346944.638984 kJ/mol
# GULP energy per Si atom -12390.879964 kJ/mol
# Density = 1.570248 g / cm^3
# Si number density = 15.738306 Si / 1000 Ang^3
#
#
#
# Elastic Constant Matrix: (Units=GPa)
#
#
# Indices 1 2 3 4 5 6 
#
# 1 154.0737 33.9067 54.5792 0.0000 -0.3649 0.0000
# 2 33.9067 45.8939 20.3401 0.0000 -3.0356 0.0000
# 3 54.5792 20.3401 68.6918 0.0000 3.3517 0.0000
# 4 0.0000 0.0000 0.0000 9.0943 0.0000 -2.5103
# 5 -0.3649 -3.0356 3.3517 0.0000 14.2570 0.0000
# 6 0.0000 0.0000 0.0000 -2.5103 0.0000 22.3685
#
#
#
# Elastic Compliance Matrix: (Units=1/GPa)
#
#
# Indices 1 2 3 4 5 6 
#
# 1 0.009737 -0.004245 -0.006523 0.000000 0.000879 0.000000
# 2 -0.004245 0.027677 -0.005164 0.000000 0.006998 0.000000
# 3 -0.006523 -0.005164 0.021579 0.000000 -0.006339 0.000000
# 4 0.000000 0.000000 0.000000 0.113474 0.000000 0.012735
# 5 0.000879 0.006998 -0.006339 0.000000 0.073144 0.000000
# 6 0.000000 0.000000 0.000000 0.012735 0.000000 0.046135
#
#
# Mechanical properties :
#
#
# Convention : Reuss Voigt Hill
#
# Bulk Modulus (GPa) = 36.85967 54.03459 45.44713
# Shear Modulus (GPa) = 15.03068 19.79951 17.41510
#
# Velocity S-wave (km/s) = 3.09372 3.55074 3.33008
# Velocity P-wave (km/s) = 6.01936 7.15668 6.61252
#
# Compressibility (1/GPa) = 0.02712992
#
# Stress axis : x y z
#
# Youngs Moduli (GPa) = 102.69829 36.13078 46.34178
#
# Poissons Ratio (x) = 0.15338 0.30227
# Poissons Ratio (y) = 0.43595 0.23931
# Poissons Ratio (z) = 0.66987 0.18658
#
# Static dielectric constant tensor:
#      x y z
#    x 3.381040 0.000000 0.081980 
#    y 0.000000 2.960110 0.000000 
#    z 0.081980 0.000000 2.827760 
# 
# 
# High freq. dielectric constant tensor:
#      x y z
#    x 1.616130 0.000000 0.005050 
#    y 0.000000 1.597200 0.000000 
#    z 0.005050 0.000000 1.551850 
# 
# From -- ./inp_files/247777.got.cif
#   From: 2010.06.25/outbox.cif.g09.slc.cpg/sg12_124_cif.got.tgz:247777.got - 2010.06.28 00:19:55.
