data_PCOD8080540
_publ_section_title
;
Structure prediction by ZEFSAII (Michael W. Deem and Ramdas Pophale) SiO2 
 PCOD8080540
Probable space group: C 2/M
;
_chemical_formula_sum "Si O2"
_cell_formula_units_Z 56
_cell_length_a 20.336385
_cell_length_b 8.786249
_cell_length_c 17.320288
_cell_angle_alpha 90.000000
_cell_angle_beta 105.958540
_cell_angle_gamma 90.000000
_cell_volume 2975.527704
_symmetry_space_group_name_H-M "C 2/M"
_symmetry_group_IT_number 12
_symmetry_cell_setting 'monoclinic'
loop_
_space_group_symop_operation_xyz
x,y,z
-x,y,-z
-x,-y,-z
x,-y,z
1/2+x,1/2+y,z
1/2-x,1/2+y,-z
1/2-x,1/2-y,-z
1/2+x,1/2-y,z
loop_
_atom_site_type_symbol
_atom_site_label
_atom_site_fract_x
_atom_site_fract_y
_atom_site_fract_z
Si Si1 0.393574 0.321548 0.101983
Si Si2 0.627024 0.320939 0.079724
Si Si3 0.777401 0.323736 0.339763
Si Si4 0.779761 0.675210 0.165237
Si Si5 0.677856 0.680930 0.502723
Si Si6 0.965941 0.678525 0.822811
Si Si7 0.363487 0.820398 0.657411
O O1 0.405899 0.500000 0.110073
O O2 0.325506 0.280192 0.126225
O O3 0.457444 0.238493 0.161615
O O4 0.384671 0.266142 0.011347
O O5 0.618874 0.500000 0.085602
O O6 0.701831 0.268257 0.131595
O O7 0.569051 0.246414 0.112896
O O8 0.766917 0.500000 0.358183
O O9 0.803956 0.304606 0.261303
O O10 0.834350 0.247699 0.414975
O O11 0.705142 0.239944 0.324823
O O12 0.786473 0.500000 0.140826
O O13 0.678360 0.500000 0.505160
O O14 0.750000 0.750000 0.500000
O O15 0.623239 0.741274 0.422012
O O16 0.966899 0.500000 0.833384
O O17 0.926186 0.726062 0.732349
O O18 0.357120 0.000000 0.643651
#
# Coordination Sequence:
#
# PCOD8080540 Si02
#       7
#     8   8   8   8   8   8   8
#     4  11  24  38  56  80 111 148 185 228 276 329
#     4  10  21  39  59  82 109 142 185 231 278 326
#     4  10  18  31  53  79 108 143 177 220 271 320
#     4  10  21  37  58  81 111 146 183 227 274 326
#     4  10  18  28  47  76 110 142 173 219 268 318
#     4  11  23  37  57  82 111 146 185 230 275 325
#     4  10  19  32  51  78 108 140 180 224 268 320
#
# _framework density 18.820191999999999
#
# number of rings (size 3 to 8) (size 9 to 14) (size 15 to 20)
#    0.000    1.714    1.429    5.571    0.000    6.286 
#    0.000    0.000    0.000    0.857    0.000    6.000 
#    0.000    0.000    0.000    0.000    0.000    0.000 
#
# Total GULP energy -347235.051942 kJ/mol
# GULP energy per Si atom -12401.251855 kJ/mol
# Density = 1.877736 g / cm^3
# Si number density = 18.820192 Si / 1000 Ang^3
#
#
#
# Elastic Constant Matrix: (Units=GPa)
#
#
# Indices 1 2 3 4 5 6 
#
# 1 42.5996 2.7333 13.0058 0.0000 4.0652 0.0000
# 2 2.7333 60.2072 48.3003 0.0000 0.4488 0.0000
# 3 13.0058 48.3003 120.6890 0.0000 7.7236 0.0000
# 4 0.0000 0.0000 0.0000 31.5539 0.0000 -0.7306
# 5 4.0652 0.4488 7.7236 0.0000 10.8103 0.0000
# 6 0.0000 0.0000 0.0000 -0.7306 0.0000 28.8468
#
#
#
# Elastic Compliance Matrix: (Units=1/GPa)
#
#
# Indices 1 2 3 4 5 6 
#
# 1 0.024927 0.001019 -0.002611 0.000000 -0.007551 0.000000
# 2 0.001019 0.024917 -0.010470 0.000000 0.006062 0.000000
# 3 -0.002611 -0.010470 0.013273 0.000000 -0.008067 0.000000
# 4 0.000000 0.000000 0.000000 0.031710 0.000000 0.000803
# 5 -0.007551 0.006062 -0.008067 0.000000 0.100855 0.000000
# 6 0.000000 0.000000 0.000000 0.000803 0.000000 0.034686
#
#
# Mechanical properties :
#
#
# Convention : Reuss Voigt Hill
#
# Bulk Modulus (GPa) = 25.64476 39.06383 32.35429
# Shear Modulus (GPa) = 18.69229 24.87264 21.78247
#
# Velocity S-wave (km/s) = 3.15493 3.63932 3.40575
# Velocity P-wave (km/s) = 5.18915 6.20169 5.71787
#
# Compressibility (1/GPa) = 0.03899433
#
# Stress axis : x y z
#
# Youngs Moduli (GPa) = 40.11768 40.13319 75.33870
#
# Poissons Ratio (x) = -0.04090 0.19670
# Poissons Ratio (y) = -0.04089 0.78877
# Poissons Ratio (z) = 0.10474 0.42018
#
# Static dielectric constant tensor:
#      x y z
#    x 3.087170 0.000000 0.104020 
#    y 0.000000 3.477330 0.000000 
#    z 0.104020 0.000000 4.277640 
# 
# 
# High freq. dielectric constant tensor:
#      x y z
#    x 1.688830 0.000000 0.001560 
#    y 0.000000 1.740720 0.000000 
#    z 0.001560 0.000000 1.755810 
# 
# From -- ./inp_files/275490.got.cif
#   From: 2010.06.25/outbox.cif.g09.slc.cpg/sg12_138_cif.got.tgz:275490.got - 2010.06.28 00:19:55.
