data_PCOD8080884
_publ_section_title
;
Structure prediction by ZEFSAII (Michael W. Deem and Ramdas Pophale) SiO2 
 PCOD8080884
Probable space group: C 2/M
;
_chemical_formula_sum "Si O2"
_cell_formula_units_Z 48
_cell_length_a 30.539322
_cell_length_b 9.274681
_cell_length_c 10.134513
_cell_angle_alpha 90.000000
_cell_angle_beta 102.914851
_cell_angle_gamma 90.000000
_cell_volume 2797.909679
_symmetry_space_group_name_H-M "C 2/M"
_symmetry_group_IT_number 12
_symmetry_cell_setting 'monoclinic'
loop_
_space_group_symop_operation_xyz
x,y,z
-x,y,-z
-x,-y,-z
x,-y,z
1/2+x,1/2+y,z
1/2-x,1/2+y,-z
1/2-x,1/2-y,-z
1/2+x,1/2-y,z
loop_
_atom_site_type_symbol
_atom_site_label
_atom_site_fract_x
_atom_site_fract_y
_atom_site_fract_z
Si Si1 0.277222 0.167408 0.628430
Si Si2 0.639648 0.830863 0.717970
Si Si3 0.727518 0.670898 0.863347
Si Si4 0.871828 0.334331 0.596179
Si Si5 0.544224 0.338836 0.361549
Si Si6 0.945971 0.163498 0.319532
O O1 0.250000 0.250000 0.500000
O O2 0.258798 0.205206 0.759460
O O3 0.329629 0.212969 0.657580
O O4 0.272144 0.000000 0.590709
O O5 0.678876 0.739691 0.810859
O O6 0.640582 0.798119 0.563111
O O7 0.593090 0.773485 0.750836
O O8 0.645165 0.000000 0.752974
O O9 0.723041 0.500000 0.885246
O O10 0.750000 0.750000 0.000000
O O11 0.883417 0.500000 0.620128
O O12 0.916452 0.254568 0.678392
O O13 0.550345 0.500000 0.312549
O O14 0.549751 0.333142 0.521187
O O15 0.493838 0.284751 0.290028
O O16 0.934725 0.000000 0.266246
#
# Coordination Sequence:
#
# PCOD8080884 Si02
#       6
#     8   8   8   8   8   8
#     4  10  20  34  52  74  99 131 167 205 250 297
#     4  10  18  29  47  70  97 128 164 204 246 294
#     4  11  23  37  53  72  99 134 170 209 251 295
#     4   9  17  28  44  69  99 126 158 201 244 290
#     4   8  14  24  39  62  93 128 161 195 237 287
#     4   8  14  25  40  61  93 128 162 197 237 288
#
# _framework density 17.155664000000002
#
# number of rings (size 3 to 8) (size 9 to 14) (size 15 to 20)
#    0.000    2.667    1.667    2.000    0.000    2.667 
#    0.000    3.333    0.000    0.000    0.000    1.167 
#    0.000    9.333    0.000    0.000    0.000    0.000 
#
# Total GULP energy -297478.120193 kJ/mol
# GULP energy per Si atom -12394.921675 kJ/mol
# Density = 1.711662 g / cm^3
# Si number density = 17.155664 Si / 1000 Ang^3
#
#
#
# Elastic Constant Matrix: (Units=GPa)
#
#
# Indices 1 2 3 4 5 6 
#
# 1 167.8356 77.3648 59.2190 0.0000 24.2980 0.0000
# 2 77.3648 93.8035 48.1662 0.0000 12.3627 0.0000
# 3 59.2190 48.1662 51.1558 0.0000 4.5765 0.0000
# 4 0.0000 0.0000 0.0000 20.3875 0.0000 8.1879
# 5 24.2980 12.3627 4.5765 0.0000 16.9474 0.0000
# 6 0.0000 0.0000 0.0000 8.1879 0.0000 35.5367
#
#
#
# Elastic Compliance Matrix: (Units=1/GPa)
#
#
# Indices 1 2 3 4 5 6 
#
# 1 0.013509 -0.003748 -0.010884 0.000000 -0.013695 0.000000
# 2 -0.003748 0.023496 -0.017146 0.000000 -0.007136 0.000000
# 3 -0.010884 -0.017146 0.046910 0.000000 0.015445 0.000000
# 4 0.000000 0.000000 0.000000 0.054051 0.000000 -0.012454
# 5 -0.013695 -0.007136 0.015445 0.000000 0.079676 0.000000
# 6 0.000000 0.000000 0.000000 -0.012454 0.000000 0.031009
#
#
# Mechanical properties :
#
#
# Convention : Reuss Voigt Hill
#
# Bulk Modulus (GPa) = 49.11801 75.81053 62.46427
# Shear Modulus (GPa) = 15.67425 23.11064 19.39245
#
# Velocity S-wave (km/s) = 3.02594 3.67429 3.36576
# Velocity P-wave (km/s) = 6.39542 7.89216 7.18288
#
# Compressibility (1/GPa) = 0.02035913
#
# Stress axis : x y z
#
# Youngs Moduli (GPa) = 74.02625 42.55973 21.31724
#
# Poissons Ratio (x) = 0.15950 0.23202
# Poissons Ratio (y) = 0.27743 0.36551
# Poissons Ratio (z) = 0.80571 0.72974
#
# Static dielectric constant tensor:
#      x y z
#    x 12.664410 0.000000 -5.646040 
#    y 0.000000 3.302060 0.000000 
#    z -5.646040 0.000000 6.466810 
# 
# 
# High freq. dielectric constant tensor:
#      x y z
#    x 1.681700 0.000000 0.017130 
#    y 0.000000 1.665980 0.000000 
#    z 0.017130 0.000000 1.600700 
# 
# From -- ./inp_files/108780.got.cif
#   From: 2010.06.25/outbox.cif.g09.slc.cpg/sg12_55_cif.got.tgz:108780.got - 2010.06.28 00:19:55.
