data_PCOD8080550
_publ_section_title
;
Structure prediction by ZEFSAII (Michael W. Deem and Ramdas Pophale) SiO2 
 PCOD8080550
Probable space group: C 2/M
;
_chemical_formula_sum "Si O2"
_cell_formula_units_Z 64
_cell_length_a 28.064148
_cell_length_b 13.924238
_cell_length_c 14.098203
_cell_angle_alpha 90.000000
_cell_angle_beta 135.744070
_cell_angle_gamma 90.000000
_cell_volume 3844.662514
_symmetry_space_group_name_H-M "C 2/M"
_symmetry_group_IT_number 12
_symmetry_cell_setting 'monoclinic'
loop_
_space_group_symop_operation_xyz
x,y,z
-x,y,-z
-x,-y,-z
x,-y,z
1/2+x,1/2+y,z
1/2-x,1/2+y,-z
1/2-x,1/2-y,-z
1/2+x,1/2-y,z
loop_
_atom_site_type_symbol
_atom_site_label
_atom_site_fract_x
_atom_site_fract_y
_atom_site_fract_z
Si Si1 0.034709 0.387433 0.187015
Si Si2 0.837355 0.676380 0.289707
Si Si3 0.048149 0.779914 0.646054
Si Si4 0.894363 0.613553 0.897406
Si Si5 0.698180 0.759977 0.115602
Si Si6 0.955258 0.389425 0.585926
Si Si7 0.871279 0.890692 0.096782
Si Si8 0.770947 0.604260 0.011872
O O1 0.037746 0.500000 0.178714
O O2 0.087277 0.348261 0.182278
O O3 0.056843 0.354682 0.323140
O O4 0.956772 0.356738 0.055489
O O5 0.880540 0.761196 0.304067
O O6 0.772887 0.722932 0.252977
O O7 0.883001 0.617680 0.429569
O O8 0.810474 0.607682 0.168173
O O9 0.061200 0.847442 0.755514
O O10 0.000000 0.833321 0.500000
O O11 0.013369 0.677711 0.623710
O O12 0.878531 0.500000 0.878164
O O13 0.828289 0.671443 0.838830
O O14 0.646773 0.670703 0.023264
O O15 0.702796 0.814555 0.021305
O O16 0.981240 0.500000 0.619137
O O17 0.886537 0.000000 0.087527
O O18 0.809218 0.884550 0.082767
O O19 0.785935 0.500000 0.987542
#
# Coordination Sequence:
#
# PCOD8080550 Si02
#       8
#     8   8   8   8   8   8   8   8
#     4   8  16  31  48  74 103 125 151 196 244 294
#     4  10  19  31  42  68 105 125 158 197 230 280
#     4  10  19  31  46  66  94 128 164 198 228 286
#     4   9  17  30  52  77 100 122 157 200 247 289
#     4  11  18  31  49  70  95 128 162 203 237 282
#     4  10  20  32  50  72 100 130 156 191 249 297
#     4  10  19  32  44  62  93 129 160 196 235 275
#     4  10  18  28  48  68  94 127 157 192 241 281
#
# _framework density 16.646453999999999
#
# number of rings (size 3 to 8) (size 9 to 14) (size 15 to 20)
#    0.000    2.250    2.500    3.000    0.000    3.500 
#    0.000    0.625    0.000    0.000    0.000    7.000 
#    0.000    0.000    0.000    0.000    0.000    0.000 
#
# Total GULP energy -396640.170936 kJ/mol
# GULP energy per Si atom -12395.005342 kJ/mol
# Density = 1.660857 g / cm^3
# Si number density = 16.646454 Si / 1000 Ang^3
#
#
#
# Elastic Constant Matrix: (Units=GPa)
#
#
# Indices 1 2 3 4 5 6 
#
# 1 60.0349 14.8275 18.8748 0.0000 2.3307 0.0000
# 2 14.8275 72.0307 23.2167 0.0000 6.4018 0.0000
# 3 18.8748 23.2167 85.5032 0.0000 0.5681 0.0000
# 4 0.0000 0.0000 0.0000 22.1448 0.0000 1.8364
# 5 2.3307 6.4018 0.5681 0.0000 21.8463 0.0000
# 6 0.0000 0.0000 0.0000 1.8364 0.0000 20.9366
#
#
#
# Elastic Compliance Matrix: (Units=1/GPa)
#
#
# Indices 1 2 3 4 5 6 
#
# 1 0.018396 -0.002610 -0.003345 0.000000 -0.001111 0.000000
# 2 -0.002610 0.016010 -0.003742 0.000000 -0.004316 0.000000
# 3 -0.003345 -0.003742 0.013443 0.000000 0.001104 0.000000
# 4 0.000000 0.000000 0.000000 0.045488 0.000000 -0.003990
# 5 -0.001111 -0.004316 0.001104 0.000000 0.047129 0.000000
# 6 0.000000 0.000000 0.000000 -0.003990 0.000000 0.048113
#
#
# Mechanical properties :
#
#
# Convention : Reuss Voigt Hill
#
# Bulk Modulus (GPa) = 35.14388 36.82298 35.98343
# Shear Modulus (GPa) = 22.99285 23.69552 23.34419
#
# Velocity S-wave (km/s) = 3.72054 3.77697 3.74886
# Velocity P-wave (km/s) = 6.29399 6.41789 6.35624
#
# Compressibility (1/GPa) = 0.02845445
#
# Stress axis : x y z
#
# Youngs Moduli (GPa) = 54.35858 62.46081 74.38988
#
# Poissons Ratio (x) = 0.16303 0.24883
# Poissons Ratio (y) = 0.14188 0.27839
# Poissons Ratio (z) = 0.18182 0.23375
#
# Static dielectric constant tensor:
#      x y z
#    x 3.050900 0.000000 -0.066450 
#    y 0.000000 3.022180 0.000000 
#    z -0.066450 0.000000 3.347310 
# 
# 
# High freq. dielectric constant tensor:
#      x y z
#    x 1.613570 0.000000 0.004100 
#    y 0.000000 1.625550 0.000000 
#    z 0.004100 0.000000 1.638880 
# 
# From -- ./inp_files/233165.got.cif
#   From: 2010.06.25/outbox.cif.g09.slc.cpg/sg12_117_cif.got.tgz:233165.got - 2010.06.28 00:19:55.
