data_PCOD8080716
_publ_section_title
;
Structure prediction by ZEFSAII (Michael W. Deem and Ramdas Pophale) SiO2 
 PCOD8080716
Probable space group: C 2/M
;
_chemical_formula_sum "Si O2"
_cell_formula_units_Z 48
_cell_length_a 22.878471
_cell_length_b 8.677209
_cell_length_c 16.020044
_cell_angle_alpha 90.000000
_cell_angle_beta 59.287745
_cell_angle_gamma 90.000000
_cell_volume 2734.257637
_symmetry_space_group_name_H-M "C 2/M"
_symmetry_group_IT_number 12
_symmetry_cell_setting 'monoclinic'
loop_
_space_group_symop_operation_xyz
x,y,z
-x,y,-z
-x,-y,-z
x,-y,z
1/2+x,1/2+y,z
1/2-x,1/2+y,-z
1/2-x,1/2-y,-z
1/2+x,1/2-y,z
loop_
_atom_site_type_symbol
_atom_site_label
_atom_site_fract_x
_atom_site_fract_y
_atom_site_fract_z
Si Si1 0.146452 0.681977 0.546482
Si Si2 0.320099 0.682960 0.983115
Si Si3 0.766538 0.319130 0.175793
Si Si4 0.502791 0.816504 0.592173
Si Si5 0.265912 0.820096 0.364984
Si Si6 0.872418 0.683129 0.788588
O O1 0.143655 0.500000 0.545087
O O2 0.070858 0.748343 0.587066
O O3 0.195033 0.736953 0.436352
O O4 0.175221 0.739798 0.615017
O O5 0.320395 0.500000 0.983177
O O6 0.378041 0.747319 0.878598
O O7 0.250000 0.750000 0.000000
O O8 0.325887 0.747041 0.073598
O O9 0.760231 0.500000 0.163049
O O10 0.788505 0.282202 0.254412
O O11 0.693971 0.242357 0.210896
O O12 0.500000 0.751789 0.500000
O O13 0.437896 0.756152 0.690724
O O14 0.502787 0.000000 0.590830
O O15 0.253448 0.000000 0.387192
O O16 0.869648 0.500000 0.796290
#
# Coordination Sequence:
#
# PCOD8080716 Si02
#       6
#     8   8   8   8   8   8
#     4   9  17  31  48  66  91 121 152 184 221 265
#     4  10  18  29  45  66  91 118 149 184 226 268
#     4  10  18  29  45  67  93 118 149 186 225 266
#     4   9  17  28  45  69  93 118 149 182 216 262
#     4   9  18  30  46  68  92 118 149 188 226 261
#     4  10  18  29  46  68  93 120 149 182 224 267
#
# _framework density 17.555039000000001
#
# number of rings (size 3 to 8) (size 9 to 14) (size 15 to 20)
#    0.000    2.500    0.000    5.500    0.000    2.667 
#    0.000    1.667    0.000    5.500    0.000    7.000 
#    0.000    0.000    0.000    0.000    0.000    0.000 
#
# Total GULP energy -297501.486235 kJ/mol
# GULP energy per Si atom -12395.895260 kJ/mol
# Density = 1.751508 g / cm^3
# Si number density = 17.555039 Si / 1000 Ang^3
#
#
#
# Elastic Constant Matrix: (Units=GPa)
#
#
# Indices 1 2 3 4 5 6 
#
# 1 86.6572 21.7392 66.0468 0.0000 4.3384 0.0000
# 2 21.7392 66.0911 40.8248 0.0000 6.4557 -0.0003
# 3 66.0468 40.8248 171.0525 0.0000 12.8363 0.0000
# 4 0.0000 0.0000 0.0000 27.2413 0.0000 1.8146
# 5 4.3384 6.4557 12.8363 0.0000 27.2505 0.0000
# 6 0.0000 -0.0003 0.0000 1.8146 0.0000 14.9664
#
#
#
# Elastic Compliance Matrix: (Units=1/GPa)
#
#
# Indices 1 2 3 4 5 6 
#
# 1 0.016533 -0.001791 -0.006003 0.000000 0.000620 0.000000
# 2 -0.001791 0.018080 -0.003445 0.000000 -0.002375 0.000000
# 3 -0.006003 -0.003445 0.009178 0.000000 -0.002551 0.000000
# 4 0.000000 0.000000 0.000000 0.037008 0.000000 -0.004487
# 5 0.000620 -0.002375 -0.002551 0.000000 0.038362 0.000000
# 6 0.000000 0.000000 0.000000 -0.004487 0.000000 0.067360
#
#
# Mechanical properties :
#
#
# Convention : Reuss Voigt Hill
#
# Bulk Modulus (GPa) = 46.92040 64.55804 55.73922
# Shear Modulus (GPa) = 23.13708 26.90433 25.02071
#
# Velocity S-wave (km/s) = 3.63433 3.91905 3.77937
# Velocity P-wave (km/s) = 6.66309 7.57186 7.13197
#
# Compressibility (1/GPa) = 0.02131269
#
# Stress axis : x y z
#
# Youngs Moduli (GPa) = 60.48484 55.31006 108.95915
#
# Poissons Ratio (x) = 0.09904 0.65407
# Poissons Ratio (y) = 0.10831 0.37541
# Poissons Ratio (z) = 0.36308 0.19057
#
# Static dielectric constant tensor:
#      x y z
#    x 3.304640 0.000000 0.231510 
#    y 0.000000 3.144210 0.000000 
#    z 0.231510 0.000000 3.840560 
# 
# 
# High freq. dielectric constant tensor:
#      x y z
#    x 1.647720 0.000000 0.018660 
#    y 0.000000 1.670960 0.000000 
#    z 0.018660 0.000000 1.689040 
# 
# From -- ./inp_files/280049.got.cif
#   From: 2010.06.25/outbox.cif.g09.slc.cpg/sg12_141_cif.got.tgz:280049.got - 2010.06.28 00:19:55.
