data_PCOD8080067
_publ_section_title
;
Structure prediction by ZEFSAII (Michael W. Deem and Ramdas Pophale) SiO2 
 PCOD8080067
Probable space group: C 2/M
;
_chemical_formula_sum "Si O2"
_cell_formula_units_Z 56
_cell_length_a 13.653884
_cell_length_b 24.970914
_cell_length_c 14.397695
_cell_angle_alpha 90.000000
_cell_angle_beta 140.645816
_cell_angle_gamma 90.000000
_cell_volume 3112.790297
_symmetry_space_group_name_H-M "C 2/M"
_symmetry_group_IT_number 12
_symmetry_cell_setting 'monoclinic'
loop_
_space_group_symop_operation_xyz
x,y,z
-x,y,-z
-x,-y,-z
x,-y,z
1/2+x,1/2+y,z
1/2-x,1/2+y,-z
1/2-x,1/2-y,-z
1/2+x,1/2-y,z
loop_
_atom_site_type_symbol
_atom_site_label
_atom_site_fract_x
_atom_site_fract_y
_atom_site_fract_z
Si Si1 0.055763 0.754561 0.633823
Si Si2 0.772930 0.442714 0.335770
Si Si3 0.560395 0.338017 0.312356
Si Si4 0.893213 0.354823 0.560717
Si Si5 0.696198 0.099033 0.827734
Si Si6 0.566361 0.439485 0.850997
Si Si7 0.858444 0.805372 0.838984
O O1 0.234465 0.741777 0.750496
O O2 0.000000 0.785506 0.500000
O O3 0.035706 0.791337 0.709331
O O4 0.951595 0.701277 0.563567
O O5 0.817049 0.500000 0.414251
O O6 0.863294 0.394980 0.452487
O O7 0.824666 0.445987 0.266319
O O8 0.587156 0.436063 0.199080
O O9 0.725756 0.346425 0.486402
O O10 0.459856 0.393169 0.245985
O O11 0.593221 0.321445 0.229845
O O12 0.023630 0.378519 0.726517
O O13 0.797693 0.144158 0.852172
O O14 0.779771 0.075360 0.978849
O O15 0.586574 0.500000 0.824445
O O16 0.000000 0.781116 0.000000
#
# Coordination Sequence:
#
# PCOD8080067 Si02
#       7
#     8   8   8   8   8   8   8
#     4  11  22  36  57  77 105 146 185 223 272 315
#     4  10  18  27  44  69 102 142 178 209 255 321
#     4  11  21  37  55  78 109 145 182 224 267 318
#     4  10  20  32  48  72 105 140 177 219 262 306
#     4  11  17  29  47  73 106 140 175 208 258 326
#     4  10  20  33  50  73 106 145 179 217 270 327
#     4  11  20  35  52  80 111 141 176 218 264 323
#
# _framework density 17.990290000000002
#
# number of rings (size 3 to 8) (size 9 to 14) (size 15 to 20)
#    0.000    1.429    5.714    2.571    0.000    3.429 
#    0.000    0.000    0.000    0.429    0.000    0.000 
#    0.000    1.714    0.000    0.000    0.000    0.000 
#
# Total GULP energy -346876.381853 kJ/mol
# GULP energy per Si atom -12388.442209 kJ/mol
# Density = 1.794934 g / cm^3
# Si number density = 17.990290 Si / 1000 Ang^3
#
#
#
# Elastic Constant Matrix: (Units=GPa)
#
#
# Indices 1 2 3 4 5 6 
#
# 1 37.1839 40.1250 31.1587 0.0000 3.5317 0.0000
# 2 40.1250 115.5603 49.6913 0.0000 -1.3815 0.0000
# 3 31.1587 49.6913 110.3218 0.0000 22.0568 0.0000
# 4 0.0000 0.0000 0.0000 22.6756 0.0000 3.0203
# 5 3.5317 -1.3815 22.0568 0.0000 14.8069 0.0000
# 6 0.0000 0.0000 0.0000 3.0203 0.0000 9.5702
#
#
#
# Elastic Compliance Matrix: (Units=1/GPa)
#
#
# Indices 1 2 3 4 5 6 
#
# 1 0.047498 -0.013601 -0.006794 0.000000 -0.002478 0.000000
# 2 -0.013601 0.016261 -0.006316 0.000000 0.014170 0.000000
# 3 -0.006794 -0.006316 0.019400 0.000000 -0.027867 0.000000
# 4 0.000000 0.000000 0.000000 0.046036 0.000000 -0.014529
# 5 -0.002478 0.014170 -0.027867 0.000000 0.110961 0.000000
# 6 0.000000 0.000000 0.000000 -0.014529 0.000000 0.109076
#
#
# Mechanical properties :
#
#
# Convention : Reuss Voigt Hill
#
# Bulk Modulus (GPa) = 33.62705 56.11288 44.86997
# Shear Modulus (GPa) = 12.11932 18.88327 15.50129
#
# Velocity S-wave (km/s) = 2.59831 3.24332 2.93857
# Velocity P-wave (km/s) = 5.26631 6.72933 6.04226
#
# Compressibility (1/GPa) = 0.02973797
#
# Stress axis : x y z
#
# Youngs Moduli (GPa) = 21.05360 61.49589 51.54745
#
# Poissons Ratio (x) = 0.83638 0.35019
# Poissons Ratio (y) = 0.28634 0.32558
# Poissons Ratio (z) = 0.14303 0.38842
#
# Static dielectric constant tensor:
#      x y z
#    x 2.938420 0.000000 0.386150 
#    y 0.000000 3.478990 0.000000 
#    z 0.386150 0.000000 3.566130 
# 
# 
# High freq. dielectric constant tensor:
#      x y z
#    x 1.631630 0.000000 0.036730 
#    y 0.000000 1.696630 0.000000 
#    z 0.036730 0.000000 1.704170 
# 
# From -- ./inp_files/218304.got.cif
#   From: 2010.06.25/outbox.cif.g09.slc.cpg/sg12_110_cif.got.tgz:218304.got - 2010.06.28 00:19:55.
