data_PCOD8080778
_publ_section_title
;
Structure prediction by ZEFSAII (Michael W. Deem and Ramdas Pophale) SiO2 
 PCOD8080778
Probable space group: C 2/M
;
_chemical_formula_sum "Si O2"
_cell_formula_units_Z 56
_cell_length_a 32.056031
_cell_length_b 8.942256
_cell_length_c 13.515713
_cell_angle_alpha 90.000000
_cell_angle_beta 64.873311
_cell_angle_gamma 90.000000
_cell_volume 3507.699967
_symmetry_space_group_name_H-M "C 2/M"
_symmetry_group_IT_number 12
_symmetry_cell_setting 'monoclinic'
loop_
_space_group_symop_operation_xyz
x,y,z
-x,y,-z
-x,-y,-z
x,-y,z
1/2+x,1/2+y,z
1/2-x,1/2+y,-z
1/2-x,1/2-y,-z
1/2+x,1/2-y,z
loop_
_atom_site_type_symbol
_atom_site_label
_atom_site_fract_x
_atom_site_fract_y
_atom_site_fract_z
Si Si1 0.727501 0.675244 0.879745
Si Si2 0.090195 0.825121 0.522246
Si Si3 0.820323 0.675463 0.895737
Si Si4 0.906548 0.823828 0.708171
Si Si5 0.317651 0.326787 0.459191
Si Si6 0.501226 0.168629 0.381200
Si Si7 0.272303 0.826618 0.328137
O O1 0.717853 0.500000 0.897477
O O2 0.779222 0.715471 0.861587
O O3 0.720011 0.728982 0.776352
O O4 0.690954 0.760385 0.984975
O O5 0.100138 0.777085 0.399392
O O6 0.133788 0.778720 0.543778
O O7 0.045964 0.740687 0.611825
O O8 0.079806 0.000000 0.537733
O O9 0.828328 0.500000 0.896289
O O10 0.866352 0.751465 0.811631
O O11 0.955053 0.762472 0.701078
O O12 0.905269 0.000000 0.723899
O O13 0.316800 0.500000 0.428274
O O14 0.309572 0.224943 0.371572
O O15 0.278910 0.295380 0.580384
O O16 0.500000 0.174638 0.500000
O O17 0.505238 0.000000 0.337354
O O18 0.279926 0.000000 0.295651
#
# Coordination Sequence:
#
# PCOD8080778 Si02
#       7
#     8   8   8   8   8   8   8
#     4  10  20  33  48  66  91 122 153 187 227 269
#     4   9  17  29  45  65  91 123 155 187 225 270
#     4  10  20  32  47  68  92 119 153 189 225 267
#     4  10  18  29  46  67  93 123 153 185 225 272
#     4   9  18  31  46  66  92 122 155 188 226 271
#     4   9  17  28  42  63  91 120 151 187 226 268
#     4  10  19  31  47  67  92 121 154 191 227 265
#
# _framework density 15.964877
#
# number of rings (size 3 to 8) (size 9 to 14) (size 15 to 20)
#    0.000    2.429    0.000    3.000    0.000    6.286 
#    0.000    0.000    0.000    0.000    0.000    1.000 
#    0.000    8.000    0.000    0.000    0.000    0.000 
#
# Total GULP energy -347271.336308 kJ/mol
# GULP energy per Si atom -12402.547725 kJ/mol
# Density = 1.592854 g / cm^3
# Si number density = 15.964877 Si / 1000 Ang^3
#
#
#
# Elastic Constant Matrix: (Units=GPa)
#
#
# Indices 1 2 3 4 5 6 
#
# 1 114.1095 46.5172 50.6534 0.0000 -16.8398 0.0000
# 2 46.5172 74.1634 40.2189 0.0000 -13.5147 0.0000
# 3 50.6534 40.2189 78.7877 0.0000 -15.0770 0.0000
# 4 0.0000 0.0000 0.0000 28.7978 0.0000 -3.4305
# 5 -16.8398 -13.5147 -15.0770 0.0000 24.7964 0.0000
# 6 0.0000 0.0000 0.0000 -3.4305 0.0000 28.6092
#
#
#
# Elastic Compliance Matrix: (Units=1/GPa)
#
#
# Indices 1 2 3 4 5 6 
#
# 1 0.013802 -0.004971 -0.005727 0.000000 0.003181 0.000000
# 2 -0.004971 0.020989 -0.006762 0.000000 0.003952 0.000000
# 3 -0.005727 -0.006762 0.020796 0.000000 0.005070 0.000000
# 4 0.000000 0.000000 0.000000 0.035228 0.000000 0.004224
# 5 0.003181 0.003952 0.005070 0.000000 0.047726 0.000000
# 6 0.000000 0.000000 0.000000 0.004224 0.000000 0.035460
#
#
# Mechanical properties :
#
#
# Convention : Reuss Voigt Hill
#
# Bulk Modulus (GPa) = 48.38661 60.20440 54.29550
# Shear Modulus (GPa) = 23.16854 25.08543 24.12698
#
# Velocity S-wave (km/s) = 3.81362 3.96825 3.89170
# Velocity P-wave (km/s) = 7.05447 7.66736 7.36729
#
# Compressibility (1/GPa) = 0.02066688
#
# Stress axis : x y z
#
# Youngs Moduli (GPa) = 72.45467 47.64379 48.08611
#
# Poissons Ratio (x) = 0.23686 0.27537
# Poissons Ratio (y) = 0.36021 0.32515
# Poissons Ratio (z) = 0.41492 0.32216
#
# Static dielectric constant tensor:
#      x y z
#    x 3.036590 0.000000 -0.108520 
#    y 0.000000 3.135490 0.000000 
#    z -0.108520 0.000000 2.826840 
# 
# 
# High freq. dielectric constant tensor:
#      x y z
#    x 1.604680 0.000000 -0.012250 
#    y 0.000000 1.628290 0.000000 
#    z -0.012250 0.000000 1.587850 
# 
# From -- ./inp_files/186792.got.cif
#   From: 2010.06.25/outbox.cif.g09.slc.cpg/sg12_94_cif.got.tgz:186792.got - 2010.06.28 00:19:55.
