data_PCOD8080542
_publ_section_title
;
Structure prediction by ZEFSAII (Michael W. Deem and Ramdas Pophale) SiO2 
 PCOD8080542
Probable space group: C 2/M
;
_chemical_formula_sum "Si O2"
_cell_formula_units_Z 56
_cell_length_a 20.118229
_cell_length_b 8.624672
_cell_length_c 23.045961
_cell_angle_alpha 90.000000
_cell_angle_beta 45.978423
_cell_angle_gamma 90.000000
_cell_volume 2875.432975
_symmetry_space_group_name_H-M "C 2/M"
_symmetry_group_IT_number 12
_symmetry_cell_setting 'monoclinic'
loop_
_space_group_symop_operation_xyz
x,y,z
-x,y,-z
-x,-y,-z
x,-y,z
1/2+x,1/2+y,z
1/2-x,1/2+y,-z
1/2-x,1/2-y,-z
1/2+x,1/2-y,z
loop_
_atom_site_type_symbol
_atom_site_label
_atom_site_fract_x
_atom_site_fract_y
_atom_site_fract_z
Si Si1 0.284087 0.179577 0.849795
Si Si2 0.846278 0.321615 0.686528
Si Si3 0.298946 0.320671 0.597278
Si Si4 0.169019 0.317312 0.009367
Si Si5 0.058129 0.680493 0.571022
Si Si6 0.443267 0.680939 0.829569
Si Si7 0.379697 0.680446 0.348350
O O1 0.283305 0.205986 0.781381
O O2 0.370116 0.269792 0.825215
O O3 0.296440 0.000000 0.858259
O O4 0.186601 0.243767 0.934842
O O5 0.842008 0.500000 0.668735
O O6 0.805293 0.213388 0.661621
O O7 0.950825 0.273540 0.638338
O O8 0.275553 0.500000 0.601833
O O9 0.395986 0.277504 0.508693
O O10 0.220382 0.216176 0.616119
O O11 0.174024 0.500000 0.001381
O O12 0.073408 0.265942 0.098150
O O13 0.250000 0.250000 0.000000
O O14 0.072018 0.500000 0.549507
O O15 0.105519 0.719979 0.603096
O O16 0.433234 0.500000 0.846812
O O17 0.544886 0.726674 0.745843
O O18 0.387190 0.500000 0.360173
#
# Coordination Sequence:
#
# PCOD8080542 Si02
#       7
#     8   8   8   8   8   8   8
#     4  10  18  32  54  81 112 145 183 226 276 330
#     4  10  22  39  60  84 113 150 187 231 283 335
#     4  12  26  40  57  82 114 151 190 233 282 336
#     4  10  18  28  47  77 113 147 180 224 274 324
#     4  11  22  40  63  85 112 145 188 236 284 335
#     4  10  19  32  53  81 111 144 183 229 277 327
#     4  11  23  39  60  84 114 149 189 235 282 335
#
# _framework density 19.475328000000001
#
# number of rings (size 3 to 8) (size 9 to 14) (size 15 to 20)
#    0.000    1.429    1.429    6.857    0.000    5.714 
#    0.000    0.000    0.000    0.857    0.000    6.000 
#    0.000    0.000    0.000    0.000    0.000    0.000 
#
# Total GULP energy -347274.273498 kJ/mol
# GULP energy per Si atom -12402.652625 kJ/mol
# Density = 1.943100 g / cm^3
# Si number density = 19.475328 Si / 1000 Ang^3
#
#
#
# Elastic Constant Matrix: (Units=GPa)
#
#
# Indices 1 2 3 4 5 6 
#
# 1 62.1977 9.1622 13.7798 -0.0001 15.0332 0.0009
# 2 9.1622 63.2981 42.7708 -0.0003 9.7018 0.0018
# 3 13.7798 42.7708 103.1484 0.0000 27.0459 0.0000
# 4 -0.0001 -0.0003 0.0000 34.8470 0.0000 5.2207
# 5 15.0332 9.7018 27.0459 0.0000 19.3799 -0.0002
# 6 0.0009 0.0018 0.0000 5.2207 -0.0002 26.3881
#
#
#
# Elastic Compliance Matrix: (Units=1/GPa)
#
#
# Indices 1 2 3 4 5 6 
#
# 1 0.020315 -0.002173 0.003208 0.000000 -0.019147 -0.000001
# 2 -0.002173 0.022270 -0.010193 0.000000 0.004761 -0.000001
# 3 0.003208 -0.010193 0.020198 0.000000 -0.025573 0.000000
# 4 0.000000 0.000000 0.000000 0.029573 0.000000 -0.005851
# 5 -0.019147 0.004761 -0.025573 0.000000 0.099758 0.000001
# 6 -0.000001 -0.000001 0.000000 -0.005851 0.000001 0.039053
#
#
# Mechanical properties :
#
#
# Convention : Reuss Voigt Hill
#
# Bulk Modulus (GPa) = 22.48851 40.00778 31.24814
# Shear Modulus (GPa) = 18.91739 26.98509 22.95124
#
# Velocity S-wave (km/s) = 3.12003 3.72641 3.43662
# Velocity P-wave (km/s) = 4.95497 6.25318 5.64154
#
# Compressibility (1/GPa) = 0.04446715
#
# Stress axis : x y z
#
# Youngs Moduli (GPa) = 49.22434 44.90312 49.50976
#
# Poissons Ratio (x) = 0.09759 -0.15881
# Poissons Ratio (y) = 0.10698 0.50463
# Poissons Ratio (z) = -0.15790 0.45768
#
# Static dielectric constant tensor:
#      x y z
#    x 3.148860 0.000000 0.140860 
#    y 0.000000 3.574480 0.000000 
#    z 0.140860 0.000000 4.197800 
# 
# 
# High freq. dielectric constant tensor:
#      x y z
#    x 1.713810 0.000000 0.012730 
#    y 0.000000 1.769520 0.000000 
#    z 0.012730 0.000000 1.781410 
# 
# From -- ./inp_files/342258.got.cif
#   From: 2010.06.25/outbox.cif.g09.slc.cpg/sg12_172_cif.got.tgz:342258.got - 2010.06.28 00:19:55.
