data_PCOD8080801
_publ_section_title
;
Structure prediction by ZEFSAII (Michael W. Deem and Ramdas Pophale) SiO2 
 PCOD8080801
Probable space group: C 2/M
;
_chemical_formula_sum "Si O2"
_cell_formula_units_Z 56
_cell_length_a 17.224067
_cell_length_b 13.784758
_cell_length_c 23.465387
_cell_angle_alpha 90.000000
_cell_angle_beta 145.242878
_cell_angle_gamma 90.000000
_cell_volume 3176.236042
_symmetry_space_group_name_H-M "C 2/M"
_symmetry_group_IT_number 12
_symmetry_cell_setting 'monoclinic'
loop_
_space_group_symop_operation_xyz
x,y,z
-x,y,-z
-x,-y,-z
x,-y,z
1/2+x,1/2+y,z
1/2-x,1/2+y,-z
1/2-x,1/2-y,-z
1/2+x,1/2-y,z
loop_
_atom_site_type_symbol
_atom_site_label
_atom_site_fract_x
_atom_site_fract_y
_atom_site_fract_z
Si Si1 0.878058 0.389707 0.242325
Si Si2 0.224446 0.112952 0.261008
Si Si3 0.449773 0.696533 0.138928
Si Si4 0.691621 0.889384 0.926564
Si Si5 0.092920 0.263179 0.416750
Si Si6 0.530058 0.392287 0.301656
Si Si7 0.660173 0.893113 0.552698
O O1 0.911764 0.500000 0.275607
O O2 0.784096 0.349048 0.237161
O O3 0.798960 0.375555 0.135761
O O4 0.025023 0.337300 0.330510
O O5 0.340262 0.127486 0.379822
O O6 0.094705 0.179026 0.197095
O O7 0.179090 0.000000 0.231609
O O8 0.415250 0.811260 0.112393
O O9 0.444820 0.664987 0.202282
O O10 0.340808 0.630660 0.040502
O O11 0.645921 0.000000 0.914090
O O12 0.250000 0.250000 0.500000
O O13 0.019627 0.160404 0.357657
O O14 0.074347 0.308200 0.468900
O O15 0.470200 0.500000 0.272637
O O16 0.685282 0.394583 0.375249
O O17 0.595593 0.000000 0.501401
#
# Coordination Sequence:
#
# PCOD8080801 Si02
#       7
#     8   8   8   8   8   8   8
#     4  10  20  33  49  78 110 130 162 212 265 307
#     4   9  18  32  52  76 106 138 165 203 255 313
#     4  10  18  33  53  75 103 139 171 202 250 306
#     4  10  20  32  52  81 106 131 168 212 253 298
#     4  10  18  29  46  68  99 131 169 206 256 294
#     4   9  16  28  46  68  94 125 170 207 238 293
#     4   8  15  27  45  68  93 126 162 197 243 301
#
# _framework density 17.630931
#
# number of rings (size 3 to 8) (size 9 to 14) (size 15 to 20)
#    0.000    2.571    1.429    2.571    0.000    1.714 
#    0.000    4.286    0.000    0.857    0.000    3.000 
#    0.000    0.000    0.000    0.000    0.000    0.000 
#
# Total GULP energy -346914.031806 kJ/mol
# GULP energy per Si atom -12389.786850 kJ/mol
# Density = 1.759080 g / cm^3
# Si number density = 17.630931 Si / 1000 Ang^3
#
#
#
# Elastic Constant Matrix: (Units=GPa)
#
#
# Indices 1 2 3 4 5 6 
#
# 1 58.8779 37.3047 31.7216 0.0001 -10.5681 0.0000
# 2 37.3047 113.4591 50.0454 -0.0003 -5.9831 0.0000
# 3 31.7216 50.0454 99.5891 -0.0002 -20.1976 0.0002
# 4 0.0001 -0.0003 -0.0002 31.8393 0.0001 -5.0358
# 5 -10.5681 -5.9831 -20.1976 0.0001 14.5275 0.0000
# 6 0.0000 0.0000 0.0002 -5.0358 0.0000 14.2368
#
#
#
# Elastic Compliance Matrix: (Units=1/GPa)
#
#
# Indices 1 2 3 4 5 6 
#
# 1 0.024378 -0.006475 -0.002027 0.000000 0.012249 0.000000
# 2 -0.006475 0.013261 -0.006196 0.000000 -0.007864 0.000000
# 3 -0.002027 -0.006196 0.018083 0.000000 0.021114 0.000000
# 4 0.000000 0.000000 0.000000 0.033269 0.000000 0.011768
# 5 0.012249 -0.007864 0.021114 0.000000 0.103862 -0.000001
# 6 0.000000 0.000000 0.000000 0.011768 -0.000001 0.074403
#
#
# Mechanical properties :
#
#
# Convention : Reuss Voigt Hill
#
# Bulk Modulus (GPa) = 37.98684 56.67440 47.33062
# Shear Modulus (GPa) = 16.37052 22.31100 19.34076
#
# Velocity S-wave (km/s) = 3.05045 3.56117 3.31566
# Velocity P-wave (km/s) = 5.83090 7.00884 6.44683
#
# Compressibility (1/GPa) = 0.02632491
#
# Stress axis : x y z
#
# Youngs Moduli (GPa) = 41.02137 75.40790 55.30152
#
# Poissons Ratio (x) = 0.48829 0.11208
# Poissons Ratio (y) = 0.26563 0.34266
# Poissons Ratio (z) = 0.08314 0.46725
#
# Static dielectric constant tensor:
#      x y z
#    x 3.099580 0.000000 -0.292940 
#    y 0.000000 3.555040 0.000000 
#    z -0.292940 0.000000 3.492420 
# 
# 
# High freq. dielectric constant tensor:
#      x y z
#    x 1.641300 0.000000 -0.014840 
#    y 0.000000 1.677820 0.000000 
#    z -0.014840 0.000000 1.699020 
# 
# From -- ./inp_files/310860.got.cif
#   From: 2010.06.25/outbox.cif.g09.slc.cpg/sg12_156_cif.got.tgz:310860.got - 2010.06.28 00:19:55.
