data_PCOD8080526
_publ_section_title
;
Structure prediction by ZEFSAII (Michael W. Deem and Ramdas Pophale) SiO2 
 PCOD8080526
Probable space group: C 2/M
;
_chemical_formula_sum "Si O2"
_cell_formula_units_Z 64
_cell_length_a 28.634219
_cell_length_b 12.311532
_cell_length_c 11.134397
_cell_angle_alpha 90.000000
_cell_angle_beta 106.922549
_cell_angle_gamma 90.000000
_cell_volume 3755.255659
_symmetry_space_group_name_H-M "C 2/M"
_symmetry_group_IT_number 12
_symmetry_cell_setting 'monoclinic'
loop_
_space_group_symop_operation_xyz
x,y,z
-x,y,-z
-x,-y,-z
x,-y,z
1/2+x,1/2+y,z
1/2-x,1/2+y,-z
1/2-x,1/2-y,-z
1/2+x,1/2-y,z
loop_
_atom_site_type_symbol
_atom_site_label
_atom_site_fract_x
_atom_site_fract_y
_atom_site_fract_z
Si Si1 0.617095 0.128661 0.671760
Si Si2 0.911903 0.374242 0.080652
Si Si3 0.124737 0.124836 0.380059
Si Si4 0.518831 0.122496 0.224058
Si Si5 0.698391 0.231838 0.582874
Si Si6 0.455811 0.732299 0.540657
Si Si7 0.883732 0.699437 0.817431
Si Si8 0.215927 0.621139 0.358914
O O1 0.608869 0.157315 0.804447
O O2 0.669196 0.178365 0.670955
O O3 0.575737 0.184701 0.561570
O O4 0.615618 0.000000 0.647107
O O5 0.900285 0.500000 0.043566
O O6 0.969779 0.350974 0.112917
O O7 0.884325 0.297248 0.963022
O O8 0.168866 0.178486 0.484946
O O9 0.076501 0.136977 0.425896
O O10 0.117013 0.181695 0.244381
O O11 0.136225 0.000000 0.364150
O O12 0.518646 0.198803 0.337811
O O13 0.567115 0.135784 0.181075
O O14 0.515424 0.000000 0.269497
O O15 0.746287 0.292313 0.671256
O O16 0.713425 0.137681 0.501020
O O17 0.500000 0.677371 0.500000
O O18 0.837236 0.632500 0.738488
O O19 0.234987 0.500000 0.347861
#
# Coordination Sequence:
#
# PCOD8080526 Si02
#       8
#     8   8   8   8   8   8   8   8
#     4  10  19  31  49  75 109 137 158 192 241 297
#     4  10  19  30  48  73 104 139 162 189 240 296
#     4   9  19  34  51  68  91 126 164 208 253 287
#     4  10  18  28  47  74 104 133 160 195 244 295
#     4   9  19  32  50  76  98 125 161 204 251 298
#     4  10  18  29  47  74 100 127 160 200 243 293
#     4  10  20  32  49  72  98 127 170 208 240 284
#     4  10  18  31  52  74  98 126 160 206 253 292
#
# _framework density 17.042781000000002
#
# number of rings (size 3 to 8) (size 9 to 14) (size 15 to 20)
#    0.000    2.250    1.250    3.375    0.000    1.750 
#    0.000    1.250    0.000    9.750    0.000    0.000 
#    0.000    0.000    0.000    0.000    0.000    0.000 
#
# Total GULP energy -396707.262192 kJ/mol
# GULP energy per Si atom -12397.101943 kJ/mol
# Density = 1.700399 g / cm^3
# Si number density = 17.042781 Si / 1000 Ang^3
#
#
#
# Elastic Constant Matrix: (Units=GPa)
#
#
# Indices 1 2 3 4 5 6 
#
# 1 88.5580 20.1171 22.4786 0.0000 1.5394 0.0000
# 2 20.1171 70.7156 30.2994 0.0000 -1.8347 0.0000
# 3 22.4786 30.2994 81.4168 0.0000 -1.3038 0.0000
# 4 0.0000 0.0000 0.0000 15.0326 0.0000 -0.6273
# 5 1.5394 -1.8347 -1.3038 0.0000 14.6226 0.0000
# 6 0.0000 0.0000 0.0000 -0.6273 0.0000 19.2111
#
#
#
# Elastic Compliance Matrix: (Units=1/GPa)
#
#
# Indices 1 2 3 4 5 6 
#
# 1 0.012546 -0.002523 -0.002555 0.000000 -0.001865 0.000000
# 2 -0.002523 0.017366 -0.005735 0.000000 0.001933 0.000000
# 3 -0.002555 -0.005735 0.015137 0.000000 0.000899 0.000000
# 4 0.000000 0.000000 0.000000 0.066613 0.000000 0.002175
# 5 -0.001865 0.001933 0.000899 0.000000 0.068906 0.000000
# 6 0.000000 0.000000 0.000000 0.002175 0.000000 0.052124
#
#
# Mechanical properties :
#
#
# Convention : Reuss Voigt Hill
#
# Bulk Modulus (GPa) = 42.69318 42.94227 42.81773
# Shear Modulus (GPa) = 19.07474 20.95961 20.01717
#
# Velocity S-wave (km/s) = 3.34911 3.51069 3.43085
# Velocity P-wave (km/s) = 6.32933 6.45637 6.39316
#
# Compressibility (1/GPa) = 0.02342295
#
# Stress axis : x y z
#
# Youngs Moduli (GPa) = 79.70641 57.58226 66.06447
#
# Poissons Ratio (x) = 0.14527 0.16879
# Poissons Ratio (y) = 0.20108 0.37891
# Poissons Ratio (z) = 0.20364 0.33026
#
# Static dielectric constant tensor:
#      x y z
#    x 3.413600 0.000000 -0.057580 
#    y 0.000000 2.912050 0.000000 
#    z -0.057580 0.000000 3.110870 
# 
# 
# High freq. dielectric constant tensor:
#      x y z
#    x 1.668170 0.000000 0.003370 
#    y 0.000000 1.634050 0.000000 
#    z 0.003370 0.000000 1.642620 
# 
# From -- ./inp_files/188361.got.cif
#   From: 2010.06.25/outbox.cif.g09.slc.cpg/sg12_95_cif.got.tgz:188361.got - 2010.06.28 00:19:55.
