data_PCOD8080792
_publ_section_title
;
Structure prediction by ZEFSAII (Michael W. Deem and Ramdas Pophale) SiO2 
 PCOD8080792
Probable space group: C 2/M
;
_chemical_formula_sum "Si O2"
_cell_formula_units_Z 48
_cell_length_a 23.731284
_cell_length_b 8.930525
_cell_length_c 13.854971
_cell_angle_alpha 90.000000
_cell_angle_beta 72.852600
_cell_angle_gamma 90.000000
_cell_volume 2805.801914
_symmetry_space_group_name_H-M "C 2/M"
_symmetry_group_IT_number 12
_symmetry_cell_setting 'monoclinic'
loop_
_space_group_symop_operation_xyz
x,y,z
-x,y,-z
-x,-y,-z
x,-y,z
1/2+x,1/2+y,z
1/2-x,1/2+y,-z
1/2-x,1/2-y,-z
1/2+x,1/2-y,z
loop_
_atom_site_type_symbol
_atom_site_label
_atom_site_fract_x
_atom_site_fract_y
_atom_site_fract_z
Si Si1 0.250661 0.321923 0.104786
Si Si2 0.056950 0.330966 0.078407
Si Si3 0.628872 0.167915 0.228628
Si Si4 0.986177 0.678417 0.614142
Si Si5 0.875893 0.827372 0.119191
Si Si6 0.957676 0.828340 0.242394
O O1 0.245186 0.500000 0.094284
O O2 0.194522 0.260006 0.196252
O O3 0.308612 0.276103 0.135880
O O4 0.250000 0.250000 0.000000
O O5 0.032647 0.500000 0.079826
O O6 0.110591 0.326838 0.126191
O O7 0.005392 0.223686 0.140293
O O8 0.080039 0.274206 0.964623
O O9 0.577894 0.245617 0.320316
O O10 0.633688 0.000000 0.265682
O O11 0.986028 0.500000 0.621137
O O12 0.000000 0.736109 0.500000
O O13 0.037210 0.735209 0.660868
O O14 0.893661 0.806748 0.223298
O O15 0.883911 0.000000 0.083386
O O16 0.969221 0.000000 0.262923
#
# Coordination Sequence:
#
# PCOD8080792 Si02
#       6
#     8   8   8   8   8   8
#     4  10  18  30  46  66  95 130 165 195 227 271
#     4  10  18  29  46  68  94 127 164 198 232 276
#     4   8  15  28  46  69  93 118 154 195 234 275
#     4   9  18  34  55  75  92 114 152 204 253 291
#     4  10  20  30  43  65  97 133 162 191 232 282
#     4  10  20  32  45  67  97 126 157 193 239 292
#
# _framework density 17.107408
#
# number of rings (size 3 to 8) (size 9 to 14) (size 15 to 20)
#    0.000    2.500    1.667    2.500    0.000    3.667 
#    0.000    0.000    0.000    1.000    0.000    0.000 
#    0.000    0.000    0.000    0.000    0.000    0.167 
#
# Total GULP energy -297389.318874 kJ/mol
# GULP energy per Si atom -12391.221620 kJ/mol
# Density = 1.706847 g / cm^3
# Si number density = 17.107408 Si / 1000 Ang^3
#
#
#
# Elastic Constant Matrix: (Units=GPa)
#
#
# Indices 1 2 3 4 5 6 
#
# 1 114.3362 20.1343 58.2529 0.0000 11.6363 0.0000
# 2 20.1343 32.0002 22.0482 0.0000 4.7316 0.0000
# 3 58.2529 22.0482 111.3053 0.0000 7.7784 0.0000
# 4 0.0000 0.0000 0.0000 20.2076 0.0000 3.7047
# 5 11.6363 4.7316 7.7784 0.0000 15.5120 0.0000
# 6 0.0000 0.0000 0.0000 3.7047 0.0000 18.4369
#
#
#
# Elastic Compliance Matrix: (Units=1/GPa)
#
#
# Indices 1 2 3 4 5 6 
#
# 1 0.012785 -0.003312 -0.005633 0.000000 -0.005756 0.000000
# 2 -0.003312 0.037960 -0.005337 0.000000 -0.006418 0.000000
# 3 -0.005633 -0.005337 0.013037 0.000000 -0.000684 0.000000
# 4 0.000000 0.000000 0.000000 0.051379 0.000000 -0.010324
# 5 -0.005756 -0.006418 -0.000684 0.000000 0.071085 0.000000
# 6 0.000000 0.000000 0.000000 -0.010324 0.000000 0.056313
#
#
# Mechanical properties :
#
#
# Convention : Reuss Voigt Hill
#
# Bulk Modulus (GPa) = 28.39484 50.94583 39.67034
# Shear Modulus (GPa) = 17.67634 21.31173 19.49403
#
# Velocity S-wave (km/s) = 3.21792 3.53336 3.37932
# Velocity P-wave (km/s) = 5.51731 6.81842 6.20208
#
# Compressibility (1/GPa) = 0.03521766
#
# Stress axis : x y z
#
# Youngs Moduli (GPa) = 78.21612 26.34338 76.70227
#
# Poissons Ratio (x) = 0.08725 0.43206
# Poissons Ratio (y) = 0.25906 0.40940
# Poissons Ratio (z) = 0.44058 0.14061
#
# Static dielectric constant tensor:
#      x y z
#    x 3.513500 0.000000 -0.033720 
#    y 0.000000 3.076510 0.000000 
#    z -0.033720 0.000000 3.063110 
# 
# 
# High freq. dielectric constant tensor:
#      x y z
#    x 1.666050 0.000000 0.004280 
#    y 0.000000 1.645920 0.000000 
#    z 0.004280 0.000000 1.626280 
# 
# From -- ./inp_files/236607.got.cif
#   From: 2010.06.25/outbox.cif.g09.slc.cpg/sg12_119_cif.got.tgz:236607.got - 2010.06.28 00:19:55.
