data_PCOD8080093
_publ_section_title
;
Structure prediction by ZEFSAII (Michael W. Deem and Ramdas Pophale) SiO2 
 PCOD8080093
Probable space group: C 2/M
;
_chemical_formula_sum "Si O2"
_cell_formula_units_Z 56
_cell_length_a 19.503852
_cell_length_b 9.175103
_cell_length_c 24.269205
_cell_angle_alpha 90.000000
_cell_angle_beta 132.725873
_cell_angle_gamma 90.000000
_cell_volume 3190.382195
_symmetry_space_group_name_H-M "C 2/M"
_symmetry_group_IT_number 12
_symmetry_cell_setting 'monoclinic'
loop_
_space_group_symop_operation_xyz
x,y,z
-x,y,-z
-x,-y,-z
x,-y,z
1/2+x,1/2+y,z
1/2-x,1/2+y,-z
1/2-x,1/2-y,-z
1/2+x,1/2-y,z
loop_
_atom_site_type_symbol
_atom_site_label
_atom_site_fract_x
_atom_site_fract_y
_atom_site_fract_z
Si Si1 0.285639 0.832306 0.935598
Si Si2 0.556990 0.329207 0.583500
Si Si3 0.730730 0.828693 0.290111
Si Si4 0.757850 0.168787 0.814353
Si Si5 0.879006 0.332497 0.096579
Si Si6 0.944672 0.328849 0.740639
Si Si7 0.040842 0.330809 0.684873
O O1 0.310788 0.741508 0.894780
O O2 0.191124 0.774100 0.910967
O O3 0.270582 0.000000 0.910948
O O4 0.369795 0.814341 0.025508
O O5 0.500000 0.270262 0.500000
O O6 0.542336 0.500000 0.583373
O O7 0.665416 0.289247 0.633020
O O8 0.516391 0.253507 0.615712
O O9 0.705337 0.744411 0.220720
O O10 0.658278 0.774974 0.297709
O O11 0.719811 0.000000 0.272490
O O12 0.647410 0.194723 0.761153
O O13 0.784015 0.000000 0.826099
O O14 0.856349 0.500000 0.101593
O O15 0.982941 0.286910 0.171387
O O16 0.944682 0.500000 0.732486
O O17 0.976219 0.264288 0.698578
O O18 0.021380 0.500000 0.663200
#
# Coordination Sequence:
#
# PCOD8080093 Si02
#       7
#     8   8   8   8   8   8   8
#     4  10  18  27  45  71  95 123 163 203 240 284
#     4   9  18  33  51  73 100 125 151 190 238 282
#     4   9  18  32  52  72  93 125 164 196 231 286
#     4  10  18  31  49  68  96 128 161 203 243 279
#     4   9  17  30  46  67  96 127 159 201 245 278
#     4   9  16  31  51  71  95 125 161 200 238 278
#     4   9  17  30  51  73  92 122 161 196 231 276
#
# _framework density 17.552757
#
# number of rings (size 3 to 8) (size 9 to 14) (size 15 to 20)
#    0.000    2.714    1.429    0.857    0.000    1.429 
#    0.000    2.857    0.000    4.286    0.000    0.000 
#    0.000    0.000    0.000    0.000    0.000    0.000 
#
# Total GULP energy -347140.581074 kJ/mol
# GULP energy per Si atom -12397.877895 kJ/mol
# Density = 1.751281 g / cm^3
# Si number density = 17.552757 Si / 1000 Ang^3
#
#
#
# Elastic Constant Matrix: (Units=GPa)
#
#
# Indices 1 2 3 4 5 6 
#
# 1 126.0981 33.5637 62.7150 0.0000 -16.0711 0.0000
# 2 33.5637 55.0699 40.6916 0.0000 -10.2573 0.0000
# 3 62.7150 40.6916 128.6276 0.0000 -19.8616 0.0000
# 4 0.0000 0.0000 0.0000 23.8971 0.0000 -7.8371
# 5 -16.0711 -10.2573 -19.8616 0.0000 22.3401 0.0000
# 6 0.0000 0.0000 0.0000 -7.8371 0.0000 21.6115
#
#
#
# Elastic Compliance Matrix: (Units=1/GPa)
#
#
# Indices 1 2 3 4 5 6 
#
# 1 0.011150 -0.003343 -0.003915 0.000000 0.003006 0.000000
# 2 -0.003343 0.025170 -0.005702 0.000000 0.004082 0.000000
# 3 -0.003915 -0.005702 0.012342 0.000000 0.005539 0.000000
# 4 0.000000 0.000000 0.000000 0.047495 0.000000 0.017223
# 5 0.003006 0.004082 0.005539 0.000000 0.053723 0.000000
# 6 0.000000 0.000000 0.000000 0.017223 0.000000 0.052518
#
#
# Mechanical properties :
#
#
# Convention : Reuss Voigt Hill
#
# Bulk Modulus (GPa) = 43.97134 64.85958 54.41546
# Shear Modulus (GPa) = 21.19549 25.09142 23.14346
#
# Velocity S-wave (km/s) = 3.47872 3.78496 3.63507
# Velocity P-wave (km/s) = 6.42189 7.49217 6.97758
#
# Compressibility (1/GPa) = 0.02274209
#
# Stress axis : x y z
#
# Youngs Moduli (GPa) = 89.68339 39.72966 81.02256
#
# Poissons Ratio (x) = 0.13283 0.31719
# Poissons Ratio (y) = 0.29984 0.46201
# Poissons Ratio (z) = 0.35109 0.22655
#
# Static dielectric constant tensor:
#      x y z
#    x 3.278010 0.000000 -0.131770 
#    y 0.000000 3.157520 0.000000 
#    z -0.131770 0.000000 3.350090 
# 
# 
# High freq. dielectric constant tensor:
#      x y z
#    x 1.660910 0.000000 -0.015600 
#    y 0.000000 1.666000 0.000000 
#    z -0.015600 0.000000 1.673070 
# 
# From -- ./inp_files/280454.got.cif
#   From: 2010.06.25/outbox.cif.g09.slc.cpg/sg12_141_cif.got.tgz:280454.got - 2010.06.28 00:19:55.
