data_PCOD8080082
_publ_section_title
;
Structure prediction by ZEFSAII (Michael W. Deem and Ramdas Pophale) SiO2 
 PCOD8080082
Probable space group: C 2/M
;
_chemical_formula_sum "Si O2"
_cell_formula_units_Z 64
_cell_length_a 23.758550
_cell_length_b 16.221100
_cell_length_c 27.872580
_cell_angle_alpha 90.000000
_cell_angle_beta 158.727911
_cell_angle_gamma 90.000000
_cell_volume 3897.099369
_symmetry_space_group_name_H-M "C 2/M"
_symmetry_group_IT_number 12
_symmetry_cell_setting 'monoclinic'
loop_
_space_group_symop_operation_xyz
x,y,z
-x,y,-z
-x,-y,-z
x,-y,z
1/2+x,1/2+y,z
1/2-x,1/2+y,-z
1/2-x,1/2-y,-z
1/2+x,1/2-y,z
loop_
_atom_site_type_symbol
_atom_site_label
_atom_site_fract_x
_atom_site_fract_y
_atom_site_fract_z
Si Si1 0.210845 0.141300 0.558954
Si Si2 0.605827 0.407460 0.727749
Si Si3 0.207392 0.305783 0.510724
Si Si4 0.011735 0.595499 0.289846
Si Si5 0.072057 0.402722 0.189684
Si Si6 0.701654 0.843915 0.961585
Si Si7 0.651172 0.090640 0.150053
Si Si8 0.983153 0.904642 0.240236
O O1 0.174714 0.239956 0.527142
O O2 0.336645 0.107658 0.621549
O O3 0.268276 0.118836 0.657184
O O4 0.058573 0.089258 0.428508
O O5 0.670695 0.500000 0.786947
O O6 0.724577 0.361062 0.785399
O O7 0.588629 0.366402 0.767058
O O8 0.250000 0.250000 0.500000
O O9 0.053061 0.359031 0.373549
O O10 0.354519 0.360852 0.643419
O O11 0.978911 0.500000 0.274242
O O12 0.863587 0.631898 0.143076
O O13 0.034663 0.500000 0.159619
O O14 0.927578 0.358157 0.100297
O O15 0.102608 0.364838 0.161045
O O16 0.750000 0.750000 0.000000
O O17 0.857689 0.894804 0.098048
O O18 0.719649 0.000000 0.218105
O O19 0.500000 0.079215 0.000000
O O20 0.023155 0.000000 0.279865
#
# Coordination Sequence:
#
# PCOD8080082 Si02
#       8
#     8   8   8   8   8   8   8   8
#     4  10  18  28  44  64  89 116 159 185 232 266
#     4  10  18  27  45  64  86 117 159 195 215 254
#     4  10  18  29  44  63  91 118 155 188 232 271
#     4  10  18  31  45  61  89 124 154 185 226 275
#     4  10  19  32  47  62  91 128 157 185 226 269
#     4  11  21  30  45  66  91 120 159 190 229 269
#     4   9  18  31  43  61  86 118 159 196 221 253
#     4  11  19  29  45  67  89 122 162 190 222 267
#
# _framework density 16.422471000000002
#
# number of rings (size 3 to 8) (size 9 to 14) (size 15 to 20)
#    0.000    1.875    2.500    6.375    0.000    2.500 
#    0.000    1.875    0.000    0.000    0.000    0.000 
#    0.000    0.000    0.000   27.000    1.500    1.000 
#
# Total GULP energy -396461.246692 kJ/mol
# GULP energy per Si atom -12389.413959 kJ/mol
# Density = 1.638509 g / cm^3
# Si number density = 16.422471 Si / 1000 Ang^3
#
#
#
# Elastic Constant Matrix: (Units=GPa)
#
#
# Indices 1 2 3 4 5 6 
#
# 1 42.5362 11.3925 10.8796 -0.0108 -3.5172 0.0072
# 2 11.3925 70.3465 16.7720 -0.0600 -0.2588 0.0013
# 3 10.8796 16.7720 102.1719 -0.0442 -8.0245 -0.0062
# 4 -0.0108 -0.0600 -0.0442 29.1436 0.0019 -1.3229
# 5 -3.5172 -0.2588 -8.0245 0.0019 14.7209 -0.0002
# 6 0.0072 0.0013 -0.0062 -1.3229 -0.0002 8.2913
#
#
#
# Elastic Compliance Matrix: (Units=1/GPa)
#
#
# Indices 1 2 3 4 5 6 
#
# 1 0.025348 -0.003682 -0.001697 -0.000002 0.005067 -0.000023
# 2 -0.003682 0.015347 -0.002272 0.000027 -0.001849 0.000003
# 3 -0.001697 -0.002272 0.010767 0.000011 0.005424 0.000012
# 4 -0.000002 0.000027 0.000011 0.034563 0.000002 0.005514
# 5 0.005067 -0.001849 0.005424 0.000002 0.072065 0.000002
# 6 -0.000023 0.000003 0.000012 0.005514 0.000002 0.121488
#
#
# Mechanical properties :
#
#
# Convention : Reuss Voigt Hill
#
# Bulk Modulus (GPa) = 27.65491 32.57144 30.11318
# Shear Modulus (GPa) = 16.29012 22.16518 19.22765
#
# Velocity S-wave (km/s) = 3.15293 3.67779 3.42543
# Velocity P-wave (km/s) = 5.48916 6.15722 5.83276
#
# Compressibility (1/GPa) = 0.03615994
#
# Stress axis : x y z
#
# Youngs Moduli (GPa) = 39.45012 65.16088 92.87535
#
# Poissons Ratio (x) = 0.23992 0.15759
# Poissons Ratio (y) = 0.14525 0.21104
# Poissons Ratio (z) = 0.06694 0.14807
#
# Static dielectric constant tensor:
#      x y z
#    x 3.211410 0.000200 -0.367180 
#    y 0.000200 5.195640 0.000840 
#    z -0.367180 0.000840 3.520220 
# 
# 
# High freq. dielectric constant tensor:
#      x y z
#    x 1.583640 0.000000 -0.016360 
#    y 0.000000 1.608110 0.000000 
#    z -0.016360 0.000000 1.653310 
# 
# From -- ./inp_files/368275.got.cif
#   From: 2010.06.25/outbox.cif.g09.slc.cpg/sg12_185_cif.got.tgz:368275.got - 2010.06.28 00:19:55.
