data_PCOD8080867
_publ_section_title
;
Structure prediction by ZEFSAII (Michael W. Deem and Ramdas Pophale) SiO2 
 PCOD8080867
Probable space group: C 2/M
;
_chemical_formula_sum "Si O2"
_cell_formula_units_Z 64
_cell_length_a 29.867464
_cell_length_b 8.826698
_cell_length_c 13.979282
_cell_angle_alpha 90.000000
_cell_angle_beta 88.730150
_cell_angle_gamma 90.000000
_cell_volume 3684.468185
_symmetry_space_group_name_H-M "C 2/M"
_symmetry_group_IT_number 12
_symmetry_cell_setting 'monoclinic'
loop_
_space_group_symop_operation_xyz
x,y,z
-x,y,-z
-x,-y,-z
x,-y,z
1/2+x,1/2+y,z
1/2-x,1/2+y,-z
1/2-x,1/2-y,-z
1/2+x,1/2-y,z
loop_
_atom_site_type_symbol
_atom_site_label
_atom_site_fract_x
_atom_site_fract_y
_atom_site_fract_z
Si Si1 0.506307 0.326789 0.315224
Si Si2 0.437323 0.177958 0.536267
Si Si3 0.136126 0.825629 0.337489
Si Si4 0.076042 0.678408 0.781104
Si Si5 0.880105 0.820864 0.384895
Si Si6 0.949977 0.321991 0.011692
Si Si7 0.702957 0.673363 0.487756
Si Si8 0.912586 0.167461 0.836009
O O1 0.489515 0.500000 0.329658
O O2 0.518354 0.252224 0.417761
O O3 0.470175 0.223286 0.265711
O O4 0.549283 0.321177 0.245288
O O5 0.395571 0.206553 0.608182
O O6 0.424843 0.256366 0.435573
O O7 0.445163 0.000000 0.520997
O O8 0.186018 0.803205 0.378621
O O9 0.133361 0.797983 0.222368
O O10 0.120369 0.000000 0.361129
O O11 0.083253 0.500000 0.774897
O O12 0.117355 0.760186 0.724307
O O13 0.074276 0.736786 0.890961
O O14 0.834732 0.760871 0.437548
O O15 0.881999 0.000000 0.387974
O O16 0.955223 0.500000 0.017721
O O17 0.919249 0.282793 0.922300
O O18 0.000000 0.249634 0.000000
O O19 0.710576 0.500000 0.512083
O O20 0.750000 0.750000 0.500000
O O21 0.911079 0.000000 0.881639
#
# Coordination Sequence:
#
# PCOD8080867 Si02
#       8
#     8   8   8   8   8   8   8   8
#     4  10  19  31  46  66  93 129 168 207 247 287
#     4  10  18  29  47  69  93 125 165 204 239 286
#     4   8  16  31  47  71 103 132 159 197 243 288
#     4  11  22  34  48  68  94 127 169 210 247 291
#     4  10  21  37  51  68  98 131 159 197 244 290
#     4  10  20  33  47  67  98 130 163 213 263 289
#     4   9  18  33  55  79 105 129 154 189 237 295
#     4   9  17  29  48  69  93 128 172 208 239 286
#
# _framework density 17.370213
#
# number of rings (size 3 to 8) (size 9 to 14) (size 15 to 20)
#    0.000    2.375    1.250    3.750    0.000    6.250 
#    0.000    2.500    0.000    0.000    0.000    0.875 
#    0.000    0.000    0.000    0.000    0.000    0.000 
#
# Total GULP energy -396591.015354 kJ/mol
# GULP energy per Si atom -12393.469230 kJ/mol
# Density = 1.733068 g / cm^3
# Si number density = 17.370213 Si / 1000 Ang^3
#
#
#
# Elastic Constant Matrix: (Units=GPa)
#
#
# Indices 1 2 3 4 5 6 
#
# 1 67.1599 11.1062 38.2314 0.0000 11.4596 0.0000
# 2 11.1062 46.8503 29.9237 0.0000 -2.4562 0.0000
# 3 38.2314 29.9237 127.0613 0.0000 6.8930 0.0000
# 4 0.0000 0.0000 0.0000 28.6179 0.0000 2.7798
# 5 11.4596 -2.4562 6.8930 0.0000 17.4470 0.0000
# 6 0.0000 0.0000 0.0000 2.7798 0.0000 23.5253
#
#
#
# Elastic Compliance Matrix: (Units=1/GPa)
#
#
# Indices 1 2 3 4 5 6 
#
# 1 0.019996 -0.002238 -0.004864 0.000000 -0.011527 0.000000
# 2 -0.002238 0.026005 -0.005855 0.000000 0.007444 0.000000
# 3 -0.004864 -0.005855 0.010816 0.000000 -0.001903 0.000000
# 4 0.000000 0.000000 0.000000 0.035349 0.000000 -0.004177
# 5 -0.011527 0.007444 -0.001903 0.000000 0.066687 0.000000
# 6 0.000000 0.000000 0.000000 -0.004177 0.000000 0.043001
#
#
# Mechanical properties :
#
#
# Convention : Reuss Voigt Hill
#
# Bulk Modulus (GPa) = 32.35930 44.39935 38.37933
# Shear Modulus (GPa) = 21.00241 24.70539 22.85390
#
# Velocity S-wave (km/s) = 3.48099 3.77541 3.63119
# Velocity P-wave (km/s) = 5.90136 6.67990 6.30266
#
# Compressibility (1/GPa) = 0.03090302
#
# Stress axis : x y z
#
# Youngs Moduli (GPa) = 50.01073 38.45441 92.45685
#
# Poissons Ratio (x) = 0.08605 0.44973
# Poissons Ratio (y) = 0.11191 0.54132
# Poissons Ratio (z) = 0.24326 0.22514
#
# Static dielectric constant tensor:
#      x y z
#    x 3.050570 0.000000 0.095170 
#    y 0.000000 3.154960 0.000000 
#    z 0.095170 0.000000 3.483980 
# 
# 
# High freq. dielectric constant tensor:
#      x y z
#    x 1.626950 0.000000 0.011000 
#    y 0.000000 1.671320 0.000000 
#    z 0.011000 0.000000 1.671220 
# 
# From -- ./inp_files/248438.got.cif
#   From: 2010.06.25/outbox.cif.g09.slc.cpg/sg12_125_cif.got.tgz:248438.got - 2010.06.28 00:19:55.
