data_PCOD8080085
_publ_section_title
;
Structure prediction by ZEFSAII (Michael W. Deem and Ramdas Pophale) SiO2 
 PCOD8080085
Probable space group: C 2/M
;
_chemical_formula_sum "Si O2"
_cell_formula_units_Z 64
_cell_length_a 24.549067
_cell_length_b 9.690457
_cell_length_c 15.026282
_cell_angle_alpha 90.000000
_cell_angle_beta 68.422881
_cell_angle_gamma 90.000000
_cell_volume 3324.129782
_symmetry_space_group_name_H-M "C 2/M"
_symmetry_group_IT_number 12
_symmetry_cell_setting 'monoclinic'
loop_
_space_group_symop_operation_xyz
x,y,z
-x,y,-z
-x,-y,-z
x,-y,z
1/2+x,1/2+y,z
1/2-x,1/2+y,-z
1/2-x,1/2-y,-z
1/2+x,1/2-y,z
loop_
_atom_site_type_symbol
_atom_site_label
_atom_site_fract_x
_atom_site_fract_y
_atom_site_fract_z
Si Si1 0.445255 0.161617 0.977120
Si Si2 0.197086 0.157832 0.166453
Si Si3 0.675519 0.164773 0.871508
Si Si4 0.908946 0.663020 0.807120
Si Si5 0.324324 0.345674 0.613025
Si Si6 0.805777 0.338475 0.334713
Si Si7 0.119356 0.343816 0.551167
Si Si8 0.990294 0.343511 0.602704
O O1 0.450254 0.191576 0.868491
O O2 0.444134 0.000000 0.997906
O O3 0.500000 0.226823 0.000000
O O4 0.382719 0.223725 0.046646
O O5 0.264516 0.209198 0.112735
O O6 0.152565 0.258151 0.141160
O O7 0.181158 0.170219 0.279119
O O8 0.188958 0.000000 0.138340
O O9 0.675949 0.226336 0.771190
O O10 0.676984 0.000000 0.866684
O O11 0.896060 0.500000 0.807489
O O12 0.942054 0.721885 0.698722
O O13 0.344265 0.500000 0.576032
O O14 0.262186 0.310442 0.604603
O O15 0.371674 0.239382 0.546039
O O16 0.819615 0.500000 0.322725
O O17 0.844414 0.272480 0.390523
O O18 0.140372 0.500000 0.520877
O O19 0.051412 0.339048 0.618919
O O20 0.969967 0.500000 0.595770
O O21 0.000000 0.269630 0.500000
#
# Coordination Sequence:
#
# PCOD8080085 Si02
#       8
#     8   8   8   8   8   8   8   8
#     4   9  18  30  49  77 106 131 159 204 256 295
#     4   9  18  33  52  71  96 134 169 198 241 301
#     4   8  15  29  48  71 100 130 162 201 246 296
#     4  10  20  33  51  77 103 128 164 211 252 287
#     4   9  17  30  45  66  96 126 160 203 245 284
#     4   8  15  26  43  66  92 125 162 197 239 297
#     4  10  18  27  45  68  91 126 166 200 243 296
#     4   9  18  30  43  65  98 129 157 195 244 290
#
# _framework density 19.253159
#
# number of rings (size 3 to 8) (size 9 to 14) (size 15 to 20)
#    0.000    3.000    0.000    2.625    1.750    2.000 
#    0.000    0.625    0.000    3.375    0.000    0.000 
#    0.000    0.000    0.000    0.000    0.000    0.000 
#
# Total GULP energy -396518.726066 kJ/mol
# GULP energy per Si atom -12391.210190 kJ/mol
# Density = 1.920934 g / cm^3
# Si number density = 19.253159 Si / 1000 Ang^3
#
#
#
# Elastic Constant Matrix: (Units=GPa)
#
#
# Indices 1 2 3 4 5 6 
#
# 1 119.0310 26.2778 41.3896 0.0000 -0.9535 0.0000
# 2 26.2778 32.4443 17.7140 0.0000 -2.6975 0.0000
# 3 41.3896 17.7140 83.4783 0.0000 -10.4402 0.0000
# 4 0.0000 0.0000 0.0000 11.6792 0.0000 0.0545
# 5 -0.9535 -2.6975 -10.4402 0.0000 29.5099 0.0000
# 6 0.0000 0.0000 0.0000 0.0545 0.0000 20.6037
#
#
#
# Elastic Compliance Matrix: (Units=1/GPa)
#
#
# Indices 1 2 3 4 5 6 
#
# 1 0.011479 -0.007032 -0.004429 0.000000 -0.001839 0.000000
# 2 -0.007032 0.039179 -0.004612 0.000000 0.001722 0.000000
# 3 -0.004429 -0.004612 0.015781 0.000000 0.005019 0.000000
# 4 0.000000 0.000000 0.000000 0.085623 0.000000 -0.000226
# 5 -0.001839 0.001722 0.005019 0.000000 0.035760 0.000000
# 6 0.000000 0.000000 0.000000 -0.000226 0.000000 0.048536
#
#
# Mechanical properties :
#
#
# Convention : Reuss Voigt Hill
#
# Bulk Modulus (GPa) = 29.16015 45.07957 37.11986
# Shear Modulus (GPa) = 17.86129 22.33005 20.09567
#
# Velocity S-wave (km/s) = 3.04913 3.40930 3.23423
# Velocity P-wave (km/s) = 5.25117 6.24201 5.76791
#
# Compressibility (1/GPa) = 0.03429338
#
# Stress axis : x y z
#
# Youngs Moduli (GPa) = 87.11593 25.52418 63.36536
#
# Poissons Ratio (x) = 0.17948 0.28066
# Poissons Ratio (y) = 0.61258 0.29222
# Poissons Ratio (z) = 0.38586 0.11771
#
# Static dielectric constant tensor:
#      x y z
#    x 3.782940 0.000000 -0.003930 
#    y 0.000000 2.954360 0.000000 
#    z -0.003930 0.000000 3.581920 
# 
# 
# High freq. dielectric constant tensor:
#      x y z
#    x 1.761590 0.000000 0.002470 
#    y 0.000000 1.676830 0.000000 
#    z 0.002470 0.000000 1.748260 
# 
# From -- ./inp_files/239651.got.cif
#   From: 2010.06.25/outbox.cif.g09.slc.cpg/sg12_120_cif.got.tgz:239651.got - 2010.06.28 00:19:55.
