data_PCOD8080061
_publ_section_title
;
Structure prediction by ZEFSAII (Michael W. Deem and Ramdas Pophale) SiO2 
 PCOD8080061
Probable space group: C 2/M
;
_chemical_formula_sum "Si O2"
_cell_formula_units_Z 56
_cell_length_a 13.325580
_cell_length_b 30.660421
_cell_length_c 15.496639
_cell_angle_alpha 90.000000
_cell_angle_beta 32.413547
_cell_angle_gamma 90.000000
_cell_volume 3393.813251
_symmetry_space_group_name_H-M "C 2/M"
_symmetry_group_IT_number 12
_symmetry_cell_setting 'monoclinic'
loop_
_space_group_symop_operation_xyz
x,y,z
-x,y,-z
-x,-y,-z
x,-y,z
1/2+x,1/2+y,z
1/2-x,1/2+y,-z
1/2-x,1/2-y,-z
1/2+x,1/2-y,z
loop_
_atom_site_type_symbol
_atom_site_label
_atom_site_fract_x
_atom_site_fract_y
_atom_site_fract_z
Si Si1 0.828411 0.452098 0.559932
Si Si2 0.486703 0.128790 0.367781
Si Si3 0.871664 0.894129 0.173976
Si Si4 0.217546 0.769732 0.324461
Si Si5 0.050048 0.306953 0.177654
Si Si6 0.162777 0.818593 0.687709
Si Si7 0.168399 0.217659 0.168263
O O1 0.782069 0.500000 0.554258
O O2 0.876437 0.417933 0.447311
O O3 0.651325 0.435627 0.745719
O O4 0.000000 0.456170 0.500000
O O5 0.669191 0.122841 0.292673
O O6 0.547462 0.146522 0.229516
O O7 0.356973 0.164705 0.507318
O O8 0.952496 0.854240 0.172077
O O9 0.000000 0.907032 0.000000
O O10 0.335003 0.798932 0.306234
O O11 0.294343 0.720817 0.278490
O O12 0.247518 0.787386 0.206537
O O13 0.000000 0.773181 0.500000
O O14 0.140553 0.269221 0.171429
O O15 0.179019 0.307587 0.999747
O O16 0.032516 0.804752 0.702067
#
# Coordination Sequence:
#
# PCOD8080061 Si02
#       7
#     8   8   8   8   8   8   8
#     4   8  16  30  46  65  89 116 144 178 220 266
#     4  10  18  31  47  64  88 117 152 185 218 264
#     4  10  18  27  44  67  91 119 147 179 218 263
#     4  11  20  30  44  61  86 120 156 190 222 257
#     4  10  20  31  44  63  88 119 152 188 226 263
#     4  10  19  30  45  62  85 119 157 187 216 260
#     4  10  20  31  43  62  90 119 151 191 226 256
#
# _framework density 16.500613999999999
#
# number of rings (size 3 to 8) (size 9 to 14) (size 15 to 20)
#    0.000    2.143    0.000    6.000    0.000    4.857 
#    0.000    0.000    0.000    0.000    0.000    0.000 
#    0.000   16.571    0.000    0.000    0.000    3.714 
#
# Total GULP energy -347002.471560 kJ/mol
# GULP energy per Si atom -12392.945413 kJ/mol
# Density = 1.646306 g / cm^3
# Si number density = 16.500614 Si / 1000 Ang^3
#
#
#
# Elastic Constant Matrix: (Units=GPa)
#
#
# Indices 1 2 3 4 5 6 
#
# 1 52.1730 30.1810 9.7076 0.0000 6.4669 0.0000
# 2 30.1810 100.8727 39.1173 0.0000 13.8689 0.0000
# 3 9.7076 39.1173 71.0328 0.0000 9.4151 0.0000
# 4 0.0000 0.0000 0.0000 18.3753 0.0000 5.9394
# 5 6.4669 13.8689 9.4151 0.0000 28.5193 0.0000
# 6 0.0000 0.0000 0.0000 5.9394 0.0000 14.0311
#
#
#
# Elastic Compliance Matrix: (Units=1/GPa)
#
#
# Indices 1 2 3 4 5 6 
#
# 1 0.023342 -0.007068 0.000992 0.000000 -0.002183 0.000000
# 2 -0.007068 0.015201 -0.006942 0.000000 -0.003498 0.000000
# 3 0.000992 -0.006942 0.018141 0.000000 -0.002838 0.000000
# 4 0.000000 0.000000 0.000000 0.063047 0.000000 -0.026688
# 5 -0.002183 -0.003498 -0.002838 0.000000 0.038197 0.000000
# 6 0.000000 0.000000 0.000000 -0.026688 0.000000 0.082568
#
#
# Mechanical properties :
#
#
# Convention : Reuss Voigt Hill
#
# Bulk Modulus (GPa) = 32.62823 42.45447 37.54135
# Shear Modulus (GPa) = 18.06695 21.85664 19.96180
#
# Velocity S-wave (km/s) = 3.31256 3.64345 3.48193
# Velocity P-wave (km/s) = 5.86921 6.59428 6.24228
#
# Compressibility (1/GPa) = 0.03064831
#
# Stress axis : x y z
#
# Youngs Moduli (GPa) = 42.84131 65.78470 55.12279
#
# Poissons Ratio (x) = 0.46499 -0.05468
# Poissons Ratio (y) = 0.30282 0.38264
# Poissons Ratio (z) = -0.04249 0.45665
#
# Static dielectric constant tensor:
#      x y z
#    x 3.057480 0.000000 0.044050 
#    y 0.000000 3.201620 0.000000 
#    z 0.044050 0.000000 3.274790 
# 
# 
# High freq. dielectric constant tensor:
#      x y z
#    x 1.610460 0.000000 -0.002160 
#    y 0.000000 1.605520 0.000000 
#    z -0.002160 0.000000 1.645880 
# 
# From -- ./inp_files/209668.got.cif
#   From: 2010.06.25/outbox.cif.g09.slc.cpg/sg12_105_cif.got.tgz:209668.got - 2010.06.28 00:19:55.
