data_PCOD8080644
_publ_section_title
;
Structure prediction by ZEFSAII (Michael W. Deem and Ramdas Pophale) SiO2 
 PCOD8080644
Probable space group: C 2/M
;
_chemical_formula_sum "Si O2"
_cell_formula_units_Z 48
_cell_length_a 25.796262
_cell_length_b 8.634790
_cell_length_c 18.696061
_cell_angle_alpha 90.000000
_cell_angle_beta 48.373417
_cell_angle_gamma 90.000000
_cell_volume 3112.891958
_symmetry_space_group_name_H-M "C 2/M"
_symmetry_group_IT_number 12
_symmetry_cell_setting 'monoclinic'
loop_
_space_group_symop_operation_xyz
x,y,z
-x,y,-z
-x,-y,-z
x,-y,z
1/2+x,1/2+y,z
1/2-x,1/2+y,-z
1/2-x,1/2-y,-z
1/2+x,1/2-y,z
loop_
_atom_site_type_symbol
_atom_site_label
_atom_site_fract_x
_atom_site_fract_y
_atom_site_fract_z
Si Si1 0.189912 0.181408 0.903648
Si Si2 0.167281 0.325086 0.774643
Si Si3 0.199462 0.181467 0.604756
Si Si4 0.201005 0.183778 0.106199
Si Si5 0.936308 0.324568 0.245479
Si Si6 0.907865 0.316001 0.886372
O O1 0.170973 0.215584 0.839571
O O2 0.266915 0.251146 0.849236
O O3 0.190606 0.000000 0.917472
O O4 0.132395 0.257592 0.007017
O O5 0.189823 0.500000 0.773962
O O6 0.217349 0.258381 0.665781
O O7 0.088429 0.322017 0.815407
O O8 0.250000 0.250000 0.500000
O O9 0.119174 0.223259 0.657905
O O10 0.210092 0.000000 0.599843
O O11 0.124310 0.247623 0.157994
O O12 0.200773 0.000000 0.107312
O O13 0.250000 0.250000 0.000000
O O14 0.934571 0.500000 0.276640
O O15 0.013237 0.255077 0.181446
O O16 0.904020 0.500000 0.888752
#
# Coordination Sequence:
#
# PCOD8080644 Si02
#       6
#     8   8   8   8   8   8
#     4  11  20  30  44  66  93 125 159 193 228 268
#     4   9  18  33  47  67  93 120 154 188 227 274
#     4  10  18  31  50  70  93 118 148 186 227 273
#     4  10  18  29  44  63  86 120 160 196 227 263
#     4   8  18  32  47  67  93 121 153 186 228 275
#     4  10  18  31  47  65  92 126 157 192 229 267
#
# _framework density 15.419745000000001
#
# number of rings (size 3 to 8) (size 9 to 14) (size 15 to 20)
#    1.000    1.333    0.000    7.000    0.000    2.000 
#    0.000    3.333    0.000    0.000    0.000    1.167 
#    0.000    9.333    0.000    0.000    0.000    0.000 
#
# Total GULP energy -297355.313338 kJ/mol
# GULP energy per Si atom -12389.804722 kJ/mol
# Density = 1.538465 g / cm^3
# Si number density = 15.419745 Si / 1000 Ang^3
#
#
#
# Elastic Constant Matrix: (Units=GPa)
#
#
# Indices 1 2 3 4 5 6 
#
# 1 102.9188 35.4931 44.6566 -0.0025 -9.2519 0.0056
# 2 35.4931 101.7585 24.6807 0.0086 -3.9438 -0.0303
# 3 44.6566 24.6807 66.2132 0.0030 -11.9084 0.0000
# 4 -0.0025 0.0086 0.0030 23.7368 0.0050 1.7144
# 5 -9.2519 -3.9438 -11.9084 0.0050 4.1557 0.0067
# 6 0.0056 -0.0303 0.0000 1.7144 0.0067 26.8071
#
#
#
# Elastic Compliance Matrix: (Units=1/GPa)
#
#
# Indices 1 2 3 4 5 6 
#
# 1 0.014685 -0.003042 -0.007035 0.000002 0.009647 -0.000009
# 2 -0.003042 0.011448 -0.003053 -0.000004 -0.004658 0.000015
# 3 -0.007035 -0.003053 0.036415 -0.000021 0.085789 -0.000022
# 4 0.000002 -0.000004 -0.000021 0.042324 -0.000106 -0.002707
# 5 0.009647 -0.004658 0.085789 -0.000106 0.503529 -0.000126
# 6 -0.000009 0.000015 -0.000022 -0.002707 -0.000126 0.037477
#
#
# Mechanical properties :
#
#
# Convention : Reuss Voigt Hill
#
# Bulk Modulus (GPa) = 27.55806 53.39461 40.47634
# Shear Modulus (GPa) = 7.30743 22.01057 14.65900
#
# Velocity S-wave (km/s) = 2.17929 3.78223 3.08663
# Velocity P-wave (km/s) = 4.92373 7.33323 6.24577
#
# Compressibility (1/GPa) = 0.03628702
#
# Stress axis : x y z
#
# Youngs Moduli (GPa) = 68.09488 87.34942 27.46133
#
# Poissons Ratio (x) = 0.26571 0.19320
# Poissons Ratio (y) = 0.20714 0.08385
# Poissons Ratio (z) = 0.47908 0.26671
#
# Static dielectric constant tensor:
#      x y z
#    x 3.334900 -0.000010 -0.043790 
#    y -0.000010 3.022530 0.000000 
#    z -0.043790 0.000000 2.687390 
# 
# 
# High freq. dielectric constant tensor:
#      x y z
#    x 1.588690 0.000000 0.000830 
#    y 0.000000 1.610490 0.000000 
#    z 0.000830 0.000000 1.546110 
# 
# From -- ./inp_files/286981.got.cif
#   From: 2010.06.25/outbox.cif.g09.slc.cpg/sg12_144_cif.got.tgz:286981.got - 2010.06.28 00:19:55.
