data_PCOD8080373
_publ_section_title
;
Structure prediction by ZEFSAII (Michael W. Deem and Ramdas Pophale) SiO2 
 PCOD8080373
Probable space group: C 2/M
;
_chemical_formula_sum "Si O2"
_cell_formula_units_Z 48
_cell_length_a 7.958416
_cell_length_b 18.806157
_cell_length_c 17.395291
_cell_angle_alpha 90.000000
_cell_angle_beta 90.000000
_cell_angle_gamma 90.000000
_cell_volume 2603.504858
_symmetry_space_group_name_H-M "C 2/M"
_symmetry_group_IT_number 12
_symmetry_cell_setting 'monoclinic'
loop_
_space_group_symop_operation_xyz
x,y,z
-x,y,-z
-x,-y,-z
x,-y,z
1/2+x,1/2+y,z
1/2-x,1/2+y,-z
1/2-x,1/2-y,-z
1/2+x,1/2-y,z
loop_
_atom_site_type_symbol
_atom_site_label
_atom_site_fract_x
_atom_site_fract_y
_atom_site_fract_z
Si Si1 0.305001 0.416336 0.307768
Si Si2 0.695350 0.831027 1.000000
Si Si3 0.694198 0.668877 0.838165
Si Si4 0.805802 0.168877 0.838165
Si Si5 0.805001 0.083664 0.692231
Si Si6 1.000000 0.584179 0.414302
O O1 0.292741 0.500000 0.293474
O O2 0.233355 0.378468 0.230916
O O3 0.500000 0.395751 0.328752
O O4 0.173961 0.391023 0.373458
O O5 0.760698 0.866319 0.079031
O O6 0.500000 0.837425 0.000000
O O7 0.750000 0.750000 0.000000
O O8 0.760698 0.866319 0.920969
O O9 0.750000 0.750000 0.831676
O O10 0.500000 0.666546 0.827777
O O11 0.733355 0.121532 0.769084
O O12 0.673961 0.108978 0.626542
O O13 0.792741 0.000000 0.706525
O O14 0.999999 0.500000 0.418200
O O15 0.000000 0.617055 0.500000
#
# Coordination Sequence:
#
# PCOD8080373 Si02
#       6
#     8   8   8   8   8   8
#     4   9  19  34  52  76 103 131 166 207 249 297
#     4  10  18  28  45  68  99 129 168 210 242 284
#     4  10  19  31  50  73  98 133 168 208 247 293
#     4  10  19  31  50  73  98 133 168 208 247 293
#     4   9  19  34  52  76 103 131 166 207 249 297
#     4   9  18  32  54  79 101 129 162 205 254 299
#
# _framework density 18.436685000000001
#
# number of rings (size 3 to 8) (size 9 to 14) (size 15 to 20)
#    0.000    2.500    0.000    4.500    4.667    0.667 
#    0.000    4.167    0.000    6.000    0.000    0.000 
#    0.000    0.000    0.000    0.000    0.000    0.000 
#
# Total GULP energy -297332.134006 kJ/mol
# GULP energy per Si atom -12388.838917 kJ/mol
# Density = 1.839472 g / cm^3
# Si number density = 18.436685 Si / 1000 Ang^3
#
#
#
# Elastic Constant Matrix: (Units=GPa)
#
#
# Indices 1 2 3 4 5 6 
#
# 1 77.4833 18.4677 70.5184 0.0000 0.0002 0.0000
# 2 18.4677 27.9286 38.8123 0.0000 0.0000 0.0000
# 3 70.5184 38.8123 194.6790 0.0000 0.0001 0.0000
# 4 0.0000 0.0000 0.0000 27.7355 0.0000 0.0000
# 5 0.0002 0.0000 0.0001 0.0000 35.3060 0.0000
# 6 0.0000 0.0000 0.0000 0.0000 0.0000 17.0422
#
#
#
# Elastic Compliance Matrix: (Units=1/GPa)
#
#
# Indices 1 2 3 4 5 6 
#
# 1 0.019617 -0.004283 -0.006252 0.000000 0.000000 0.000000
# 2 -0.004283 0.050463 -0.008509 0.000000 0.000000 0.000000
# 3 -0.006252 -0.008509 0.009098 0.000000 0.000000 0.000000
# 4 0.000000 0.000000 0.000000 0.036055 0.000000 0.000000
# 5 0.000000 0.000000 0.000000 0.000000 0.028324 0.000000
# 6 0.000000 0.000000 0.000000 0.000000 0.000000 0.058678
#
#
# Mechanical properties :
#
#
# Convention : Reuss Voigt Hill
#
# Bulk Modulus (GPa) = 24.33746 61.74309 43.04027
# Shear Modulus (GPa) = 19.68357 27.50288 23.59322
#
# Velocity S-wave (km/s) = 3.27101 3.86650 3.58115
# Velocity P-wave (km/s) = 5.24359 7.31403 6.36358
#
# Compressibility (1/GPa) = 0.04108892
#
# Stress axis : x y z
#
# Youngs Moduli (GPa) = 50.97676 19.81651 109.91855
#
# Poissons Ratio (x) = 0.08488 0.68719
# Poissons Ratio (y) = 0.21836 0.93530
# Poissons Ratio (z) = 0.31870 0.16862
#
# Static dielectric constant tensor:
#      x y z
#    x 3.614450 0.000000 0.000000 
#    y 0.000000 2.857160 0.000000 
#    z 0.000000 0.000000 3.884520 
# 
# 
# High freq. dielectric constant tensor:
#      x y z
#    x 1.733780 0.000000 0.000000 
#    y 0.000000 1.663590 0.000000 
#    z 0.000000 0.000000 1.725380 
# 
# From -- ./inp_files/196513.got.cif
#   From: 2010.06.25/outbox.cif.g09.slc.cpg/sg12_99_cif.got.tgz:196513.got - 2010.06.28 00:19:55.
