data_PCOD8080810
_publ_section_title
;
Structure prediction by ZEFSAII (Michael W. Deem and Ramdas Pophale) SiO2 
 PCOD8080810
Probable space group: C 2/M
;
_chemical_formula_sum "Si O2"
_cell_formula_units_Z 48
_cell_length_a 27.585248
_cell_length_b 9.493012
_cell_length_c 11.646892
_cell_angle_alpha 90.000000
_cell_angle_beta 58.092978
_cell_angle_gamma 90.000000
_cell_volume 2589.113227
_symmetry_space_group_name_H-M "C 2/M"
_symmetry_group_IT_number 12
_symmetry_cell_setting 'monoclinic'
loop_
_space_group_symop_operation_xyz
x,y,z
-x,y,-z
-x,-y,-z
x,-y,z
1/2+x,1/2+y,z
1/2-x,1/2+y,-z
1/2-x,1/2-y,-z
1/2+x,1/2-y,z
loop_
_atom_site_type_symbol
_atom_site_label
_atom_site_fract_x
_atom_site_fract_y
_atom_site_fract_z
Si Si1 0.298987 0.341293 0.385245
Si Si2 0.648583 0.665931 0.316471
Si Si3 0.408057 0.666495 0.381544
Si Si4 0.872880 0.834293 0.910139
Si Si5 0.735860 0.660490 0.825829
Si Si6 0.014677 0.168544 0.109506
O O1 0.289938 0.500000 0.441329
O O2 0.250000 0.250000 0.500000
O O3 0.359363 0.282806 0.354265
O O4 0.298642 0.333976 0.249464
O O5 0.660797 0.500000 0.312224
O O6 0.607248 0.720102 0.470666
O O7 0.617332 0.702801 0.235953
O O8 0.709194 0.742014 0.247645
O O9 0.412783 0.500000 0.377355
O O10 0.467716 0.727267 0.259006
O O11 0.924432 0.770778 0.922306
O O12 0.872195 0.000000 0.931892
O O13 0.810086 0.777887 0.025218
O O14 0.754727 0.500000 0.830678
O O15 0.015080 0.000000 0.108261
O O16 0.000000 0.224628 0.000000
#
# Coordination Sequence:
#
# PCOD8080810 Si02
#       6
#     8   8   8   8   8   8
#     4  10  18  29  46  69  96 122 153 193 233 277
#     4  10  19  31  47  70 101 128 155 197 241 283
#     4   9  17  28  44  68  96 124 155 193 239 284
#     4   9  18  30  45  68  96 128 162 194 236 284
#     4  10  19  31  48  70  97 128 163 198 230 279
#     4   9  16  28  46  67  94 126 157 195 241 285
#
# _framework density 18.539166999999999
#
# number of rings (size 3 to 8) (size 9 to 14) (size 15 to 20)
#    0.000    2.500    1.667    1.500    0.000    4.667 
#    0.000    3.333    0.000    0.000    0.000    5.833 
#    0.000    8.000    0.000    0.000    0.000    0.000 
#
# Total GULP energy -297474.548023 kJ/mol
# GULP energy per Si atom -12394.772834 kJ/mol
# Density = 1.849697 g / cm^3
# Si number density = 18.539167 Si / 1000 Ang^3
#
#
#
# Elastic Constant Matrix: (Units=GPa)
#
#
# Indices 1 2 3 4 5 6 
#
# 1 100.9442 12.3325 58.5299 0.0000 3.7758 0.0000
# 2 12.3325 21.8553 17.7599 0.0000 -0.2657 0.0000
# 3 58.5299 17.7599 151.8854 0.0000 -3.9602 0.0000
# 4 0.0000 0.0000 0.0000 16.4284 0.0000 -2.8397
# 5 3.7758 -0.2657 -3.9602 0.0000 34.1695 0.0000
# 6 0.0000 0.0000 0.0000 -2.8397 0.0000 16.4099
#
#
#
# Elastic Compliance Matrix: (Units=1/GPa)
#
#
# Indices 1 2 3 4 5 6 
#
# 1 0.013148 -0.003628 -0.004695 0.000000 -0.002025 0.000000
# 2 -0.003628 0.051564 -0.004624 0.000000 0.000266 0.000000
# 3 -0.004695 -0.004624 0.008974 0.000000 0.001523 0.000000
# 4 0.000000 0.000000 0.000000 0.062747 0.000000 0.010858
# 5 -0.002025 0.000266 0.001523 0.000000 0.029668 0.000000
# 6 0.000000 0.000000 0.000000 0.010858 0.000000 0.062818
#
#
# Mechanical properties :
#
#
# Convention : Reuss Voigt Hill
#
# Bulk Modulus (GPa) = 20.92491 50.21439 35.56965
# Shear Modulus (GPa) = 18.46765 25.80574 22.13669
#
# Velocity S-wave (km/s) = 3.15960 3.73494 3.45925
# Velocity P-wave (km/s) = 4.96207 6.76344 5.93153
#
# Compressibility (1/GPa) = 0.04778992
#
# Stress axis : x y z
#
# Youngs Moduli (GPa) = 76.05802 19.39344 111.43769
#
# Poissons Ratio (x) = 0.07037 0.52322
# Poissons Ratio (y) = 0.27596 0.51531
# Poissons Ratio (z) = 0.35710 0.08968
#
# Static dielectric constant tensor:
#      x y z
#    x 3.075430 0.000000 -0.024550 
#    y 0.000000 2.943020 0.000000 
#    z -0.024550 0.000000 3.767780 
# 
# 
# High freq. dielectric constant tensor:
#      x y z
#    x 1.725940 0.000000 0.006900 
#    y 0.000000 1.649000 0.000000 
#    z 0.006900 0.000000 1.736880 
# 
# From -- ./inp_files/163993.got.cif
#   From: 2010.06.25/outbox.cif.g09.slc.cpg/sg12_82_cif.got.tgz:163993.got - 2010.06.28 00:19:55.
