data_PCOD8080396
_publ_section_title
;
Structure prediction by ZEFSAII (Michael W. Deem and Ramdas Pophale) SiO2 
 PCOD8080396
Probable space group: C 2/M
;
_chemical_formula_sum "Si O2"
_cell_formula_units_Z 64
_cell_length_a 19.212533
_cell_length_b 9.099716
_cell_length_c 21.666441
_cell_angle_alpha 90.000000
_cell_angle_beta 69.458754
_cell_angle_gamma 90.000000
_cell_volume 3547.077274
_symmetry_space_group_name_H-M "C 2/M"
_symmetry_group_IT_number 12
_symmetry_cell_setting 'monoclinic'
loop_
_space_group_symop_operation_xyz
x,y,z
-x,y,-z
-x,-y,-z
x,-y,z
1/2+x,1/2+y,z
1/2-x,1/2+y,-z
1/2-x,1/2-y,-z
1/2+x,1/2-y,z
loop_
_atom_site_type_symbol
_atom_site_label
_atom_site_fract_x
_atom_site_fract_y
_atom_site_fract_z
Si Si1 0.400392 0.828811 0.645185
Si Si2 0.926530 0.328250 0.394377
Si Si3 0.173005 0.831056 0.220557
Si Si4 0.912007 0.833836 0.520319
Si Si5 0.339733 0.831446 0.187499
Si Si6 0.903051 0.828185 0.278272
Si Si7 0.447109 0.669652 0.838295
Si Si8 0.013665 0.672511 0.927507
O O1 0.485777 0.796420 0.634711
O O2 0.349743 0.771463 0.716047
O O3 0.375714 0.745467 0.590612
O O4 0.385882 0.000000 0.639449
O O5 0.908652 0.500000 0.401181
O O6 0.889335 0.254464 0.465961
O O7 0.889081 0.255569 0.346439
O O8 0.260186 0.809088 0.179848
O O9 0.129075 0.785424 0.172286
O O10 0.153838 0.000000 0.243604
O O11 0.000000 0.831770 0.500000
O O12 0.881671 0.000000 0.525457
O O13 0.343816 0.730806 0.247027
O O14 0.402852 0.784063 0.118954
O O15 0.351859 0.000000 0.204152
O O16 0.985639 0.791546 0.228697
O O17 0.890496 0.000000 0.292811
O O18 0.448694 0.500000 0.856211
O O19 0.453381 0.760107 0.899476
O O20 0.000582 0.500000 0.931269
O O21 0.000000 0.737389 0.000000
#
# Coordination Sequence:
#
# PCOD8080396 Si02
#       8
#     8   8   8   8   8   8   8   8
#     4  10  19  29  45  70 100 132 166 208 256 302
#     4  10  18  28  45  70  99 129 167 212 256 301
#     4  10  19  33  51  72 101 134 168 207 251 302
#     4   9  17  28  43  65  96 132 169 210 254 300
#     4   9  19  34  52  73 100 134 169 204 248 300
#     4  10  18  30  49  72  99 129 167 212 254 298
#     4   9  18  31  50  75 100 129 166 206 247 292
#     4   9  18  34  55  77 102 133 168 204 244 293
#
# _framework density 18.043023000000002
#
# number of rings (size 3 to 8) (size 9 to 14) (size 15 to 20)
#    0.000    2.500    1.250    1.500    0.000    4.250 
#    0.000    0.625    0.000    0.750    0.000    0.000 
#    0.000    0.000    0.000    0.000    0.000    0.000 
#
# Total GULP energy -396858.989108 kJ/mol
# GULP energy per Si atom -12401.843410 kJ/mol
# Density = 1.800196 g / cm^3
# Si number density = 18.043023 Si / 1000 Ang^3
#
#
#
# Elastic Constant Matrix: (Units=GPa)
#
#
# Indices 1 2 3 4 5 6 
#
# 1 96.7697 35.9590 48.7838 0.0000 16.2368 0.0000
# 2 35.9590 83.8593 53.6111 0.0000 14.6944 0.0000
# 3 48.7838 53.6111 121.2066 0.0000 29.3523 0.0000
# 4 0.0000 0.0000 0.0000 28.8729 0.0000 8.1098
# 5 16.2368 14.6944 29.3523 0.0000 25.0515 0.0000
# 6 0.0000 0.0000 0.0000 8.1098 0.0000 23.3564
#
#
#
# Elastic Compliance Matrix: (Units=1/GPa)
#
#
# Indices 1 2 3 4 5 6 
#
# 1 0.013737 -0.003197 -0.003369 0.000000 -0.003081 0.000000
# 2 -0.003197 0.017415 -0.006205 0.000000 -0.000873 0.000000
# 3 -0.003369 -0.006205 0.015275 0.000000 -0.012074 0.000000
# 4 0.000000 0.000000 0.000000 0.038377 0.000000 -0.013325
# 5 -0.003081 -0.000873 -0.012074 0.000000 0.056574 0.000000
# 6 0.000000 0.000000 0.000000 -0.013325 0.000000 0.047442
#
#
# Mechanical properties :
#
#
# Convention : Reuss Voigt Hill
#
# Bulk Modulus (GPa) = 47.87905 64.28262 56.08083
# Shear Modulus (GPa) = 22.59142 26.35494 24.47318
#
# Velocity S-wave (km/s) = 3.54232 3.82602 3.68690
# Velocity P-wave (km/s) = 6.58213 7.43120 7.01951
#
# Compressibility (1/GPa) = 0.02088596
#
# Stress axis : x y z
#
# Youngs Moduli (GPa) = 72.79604 57.42069 65.46791
#
# Poissons Ratio (x) = 0.18357 0.22054
# Poissons Ratio (y) = 0.23272 0.40622
# Poissons Ratio (z) = 0.24523 0.35629
#
# Static dielectric constant tensor:
#      x y z
#    x 3.150710 0.000000 0.155470 
#    y 0.000000 3.363300 0.000000 
#    z 0.155470 0.000000 3.269380 
# 
# 
# High freq. dielectric constant tensor:
#      x y z
#    x 1.674520 0.000000 0.018020 
#    y 0.000000 1.704100 0.000000 
#    z 0.018020 0.000000 1.686130 
# 
# From -- ./inp_files/319116.got.cif
#   From: 2010.06.25/outbox.cif.g09.slc.cpg/sg12_160_cif.got.tgz:319116.got - 2010.06.28 00:19:55.
