data_PCOD8080836
_publ_section_title
;
Structure prediction by ZEFSAII (Michael W. Deem and Ramdas Pophale) SiO2 
 PCOD8080836
Probable space group: C 2/M
;
_chemical_formula_sum "Si O2"
_cell_formula_units_Z 48
_cell_length_a 23.890113
_cell_length_b 8.570531
_cell_length_c 13.549049
_cell_angle_alpha 90.000000
_cell_angle_beta 106.311512
_cell_angle_gamma 90.000000
_cell_volume 2662.516830
_symmetry_space_group_name_H-M "C 2/M"
_symmetry_group_IT_number 12
_symmetry_cell_setting 'monoclinic'
loop_
_space_group_symop_operation_xyz
x,y,z
-x,y,-z
-x,-y,-z
x,-y,z
1/2+x,1/2+y,z
1/2-x,1/2+y,-z
1/2-x,1/2-y,-z
1/2+x,1/2-y,z
loop_
_atom_site_type_symbol
_atom_site_label
_atom_site_fract_x
_atom_site_fract_y
_atom_site_fract_z
Si Si1 0.273948 0.816841 0.112627
Si Si2 0.291551 0.180490 0.739907
Si Si3 0.308748 0.181810 0.422837
Si Si4 0.884617 0.317576 0.638779
Si Si5 0.126673 0.819078 0.721766
Si Si6 0.497915 0.320205 0.610387
O O1 0.226544 0.783959 0.175320
O O2 0.336196 0.733087 0.164054
O O3 0.284108 0.000000 0.108847
O O4 0.250000 0.750000 0.000000
O O5 0.248959 0.216515 0.626407
O O6 0.357282 0.219240 0.733890
O O7 0.285938 0.000000 0.767111
O O8 0.339924 0.249566 0.535303
O O9 0.353945 0.207223 0.356639
O O10 0.292269 0.000000 0.421842
O O11 0.889625 0.500000 0.623822
O O12 0.948659 0.249109 0.657091
O O13 0.057662 0.792603 0.700444
O O14 0.140182 0.000000 0.704404
O O15 0.500000 0.246270 0.500000
O O16 0.482919 0.500000 0.589495
#
# Coordination Sequence:
#
# PCOD8080836 Si02
#       6
#     8   8   8   8   8   8
#     4  11  22  38  60  83 103 130 168 216 272 319
#     4  10  20  34  50  74 105 137 173 216 264 313
#     4  10  18  29  46  72 103 140 179 215 255 304
#     4  10  21  32  47  72 106 145 180 214 256 304
#     4  10  19  33  52  77 107 139 177 219 259 304
#     4  10  20  33  50  74 106 147 186 216 252 300
#
# _framework density 18.028054999999998
#
# number of rings (size 3 to 8) (size 9 to 14) (size 15 to 20)
#    0.000    1.833    1.667    5.500    0.000    3.667 
#    0.000    0.000    0.000    1.000    0.000    7.000 
#    0.000    0.000    0.000    0.000    0.000    0.000 
#
# Total GULP energy -297491.239724 kJ/mol
# GULP energy per Si atom -12395.468322 kJ/mol
# Density = 1.798702 g / cm^3
# Si number density = 18.028055 Si / 1000 Ang^3
#
#
#
# Elastic Constant Matrix: (Units=GPa)
#
#
# Indices 1 2 3 4 5 6 
#
# 1 132.7155 26.9995 45.4836 0.0000 2.5904 0.0000
# 2 26.9995 50.9491 21.2538 0.0000 5.2931 0.0000
# 3 45.4836 21.2538 93.3677 0.0000 11.8606 0.0000
# 4 0.0000 0.0000 0.0000 26.0665 0.0000 1.2096
# 5 2.5904 5.2931 11.8606 0.0000 10.0495 0.0000
# 6 0.0000 0.0000 0.0000 1.2096 0.0000 30.5761
#
#
#
# Elastic Compliance Matrix: (Units=1/GPa)
#
#
# Indices 1 2 3 4 5 6 
#
# 1 0.009754 -0.003790 -0.004497 0.000000 0.004790 0.000000
# 2 -0.003790 0.023536 -0.002424 0.000000 -0.008559 0.000000
# 3 -0.004497 -0.002424 0.015461 0.000000 -0.015812 0.000000
# 4 0.000000 0.000000 0.000000 0.038434 0.000000 -0.001520
# 5 0.004790 -0.008559 -0.015812 0.000000 0.121442 0.000000
# 6 0.000000 0.000000 0.000000 -0.001520 0.000000 0.032765
#
#
# Mechanical properties :
#
#
# Convention : Reuss Voigt Hill
#
# Bulk Modulus (GPa) = 36.59171 51.61179 44.10175
# Shear Modulus (GPa) = 18.38739 25.55811 21.97275
#
# Velocity S-wave (km/s) = 3.19710 3.76930 3.49493
# Velocity P-wave (km/s) = 5.82836 6.90176 6.38765
#
# Compressibility (1/GPa) = 0.02732859
#
# Stress axis : x y z
#
# Youngs Moduli (GPa) = 102.52434 42.48723 64.67682
#
# Poissons Ratio (x) = 0.16105 0.29086
# Poissons Ratio (y) = 0.38861 0.15678
# Poissons Ratio (z) = 0.46107 0.10299
#
# Static dielectric constant tensor:
#      x y z
#    x 3.411830 0.000000 0.081700 
#    y 0.000000 3.321060 0.000000 
#    z 0.081700 0.000000 3.195170 
# 
# 
# High freq. dielectric constant tensor:
#      x y z
#    x 1.698900 0.000000 0.001620 
#    y 0.000000 1.703130 0.000000 
#    z 0.001620 0.000000 1.664250 
# 
# From -- ./inp_files/172277.got.cif
#   From: 2010.06.25/outbox.cif.g09.slc.cpg/sg12_87_cif.got.tgz:172277.got - 2010.06.28 00:19:55.
