data_PCOD8080343
_publ_section_title
;
Structure prediction by ZEFSAII (Michael W. Deem and Ramdas Pophale) SiO2 
 PCOD8080343
Probable space group: C 2/M
;
_chemical_formula_sum "Si O2"
_cell_formula_units_Z 56
_cell_length_a 28.712295
_cell_length_b 9.193808
_cell_length_c 13.941200
_cell_angle_alpha 90.000000
_cell_angle_beta 74.273547
_cell_angle_gamma 90.000000
_cell_volume 3542.373355
_symmetry_space_group_name_H-M "C 2/M"
_symmetry_group_IT_number 12
_symmetry_cell_setting 'monoclinic'
loop_
_space_group_symop_operation_xyz
x,y,z
-x,y,-z
-x,-y,-z
x,-y,z
1/2+x,1/2+y,z
1/2-x,1/2+y,-z
1/2-x,1/2-y,-z
1/2+x,1/2-y,z
loop_
_atom_site_type_symbol
_atom_site_label
_atom_site_fract_x
_atom_site_fract_y
_atom_site_fract_z
Si Si1 0.203890 0.669645 0.412788
Si Si2 0.699118 0.831196 0.639095
Si Si3 0.607044 0.329563 0.730180
Si Si4 0.460335 0.834416 0.749631
Si Si5 0.106524 0.328623 0.373076
Si Si6 0.510446 0.329308 0.887696
Si Si7 0.941004 0.334953 0.408495
O O1 0.214622 0.500000 0.389534
O O2 0.250511 0.760897 0.356162
O O3 0.190069 0.696871 0.531379
O O4 0.159841 0.729292 0.371378
O O5 0.656640 0.755698 0.724980
O O6 0.700469 0.000000 0.664151
O O7 0.617963 0.500000 0.722951
O O8 0.565811 0.288356 0.831070
O O9 0.588511 0.279766 0.637415
O O10 0.413248 0.770278 0.718976
O O11 0.471863 0.741928 0.837285
O O12 0.502749 0.826409 0.647343
O O13 0.452183 0.000000 0.787930
O O14 0.109585 0.500000 0.362419
O O15 0.067735 0.288336 0.477072
O O16 0.501903 0.500000 0.884709
O O17 0.500000 0.270735 0.000000
O O18 0.921206 0.500000 0.400612
#
# Coordination Sequence:
#
# PCOD8080343 Si02
#       7
#     8   8   8   8   8   8   8
#     4   9  17  28  42  60  88 124 157 183 210 253
#     4  10  18  29  43  62  88 119 154 188 222 256
#     4  10  18  28  45  66  87 115 151 186 222 263
#     4   9  17  27  45  68  89 114 148 185 217 258
#     4   9  15  26  42  63  90 122 152 177 212 257
#     4   9  19  35  50  65  89 118 146 181 227 275
#     4   9  15  26  41  61  89 121 151 177 210 254
#
# _framework density 15.808611000000001
#
# number of rings (size 3 to 8) (size 9 to 14) (size 15 to 20)
#    0.000    2.714    1.429    1.286    0.000    3.143 
#    0.000    1.429    0.000    3.429    0.000    1.000 
#    0.000    0.000    0.000    0.000    0.000    0.000 
#
# Total GULP energy -347046.422473 kJ/mol
# GULP energy per Si atom -12394.515088 kJ/mol
# Density = 1.577263 g / cm^3
# Si number density = 15.808611 Si / 1000 Ang^3
#
#
#
# Elastic Constant Matrix: (Units=GPa)
#
#
# Indices 1 2 3 4 5 6 
#
# 1 122.1881 44.1369 59.6202 0.0000 7.4954 0.0000
# 2 44.1369 54.1650 33.3515 0.0000 -1.1192 0.0000
# 3 59.6202 33.3515 84.8361 0.0000 8.3681 0.0000
# 4 0.0000 0.0000 0.0000 16.4801 0.0000 -1.0309
# 5 7.4954 -1.1192 8.3681 0.0000 16.6921 0.0000
# 6 0.0000 0.0000 0.0000 -1.0309 0.0000 23.4105
#
#
#
# Elastic Compliance Matrix: (Units=1/GPa)
#
#
# Indices 1 2 3 4 5 6 
#
# 1 0.014515 -0.007707 -0.006814 0.000000 -0.003618 0.000000
# 2 -0.007707 0.029200 -0.006941 0.000000 0.008898 0.000000
# 3 -0.006814 -0.006941 0.020040 0.000000 -0.007452 0.000000
# 4 0.000000 0.000000 0.000000 0.060847 0.000000 0.002680
# 5 -0.003618 0.008898 -0.007452 0.000000 0.065866 0.000000
# 6 0.000000 0.000000 0.000000 0.002680 0.000000 0.042834
#
#
# Mechanical properties :
#
#
# Convention : Reuss Voigt Hill
#
# Bulk Modulus (GPa) = 48.00487 59.48958 53.74723
# Shear Modulus (GPa) = 17.65744 19.58858 18.62301
#
# Velocity S-wave (km/s) = 3.34571 3.52392 3.43597
# Velocity P-wave (km/s) = 6.73478 7.36683 7.05788
#
# Compressibility (1/GPa) = 0.02083122
#
# Stress axis : x y z
#
# Youngs Moduli (GPa) = 68.89636 34.24714 49.90103
#
# Poissons Ratio (x) = 0.26393 0.34001
# Poissons Ratio (y) = 0.53096 0.34636
# Poissons Ratio (z) = 0.46944 0.23771
#
# Static dielectric constant tensor:
#      x y z
#    x 3.241540 0.000000 -0.032200 
#    y 0.000000 2.909010 0.000000 
#    z -0.032200 0.000000 2.794300 
# 
# 
# High freq. dielectric constant tensor:
#      x y z
#    x 1.610320 0.000000 -0.004900 
#    y 0.000000 1.596740 0.000000 
#    z -0.004900 0.000000 1.564420 
# 
# From -- ./inp_files/247752.got.cif
#   From: 2010.06.25/outbox.cif.g09.slc.cpg/sg12_124_cif.got.tgz:247752.got - 2010.06.28 00:19:55.
