data_PCOD8080444
_publ_section_title
;
Structure prediction by ZEFSAII (Michael W. Deem and Ramdas Pophale) SiO2 
 PCOD8080444
Probable space group: C 2/M
;
_chemical_formula_sum "Si O2"
_cell_formula_units_Z 48
_cell_length_a 18.352261
_cell_length_b 9.101676
_cell_length_c 31.748145
_cell_angle_alpha 90.000000
_cell_angle_beta 29.478331
_cell_angle_gamma 90.000000
_cell_volume 2609.622520
_symmetry_space_group_name_H-M "C 2/M"
_symmetry_group_IT_number 12
_symmetry_cell_setting 'monoclinic'
loop_
_space_group_symop_operation_xyz
x,y,z
-x,y,-z
-x,-y,-z
x,-y,z
1/2+x,1/2+y,z
1/2-x,1/2+y,-z
1/2-x,1/2-y,-z
1/2+x,1/2-y,z
loop_
_atom_site_type_symbol
_atom_site_label
_atom_site_fract_x
_atom_site_fract_y
_atom_site_fract_z
Si Si1 0.171713 0.674009 0.164118
Si Si2 0.161682 0.174394 0.838417
Si Si3 0.675488 0.674739 0.997885
Si Si4 0.597449 0.162188 0.492734
Si Si5 0.191959 0.326155 0.320883
Si Si6 0.664669 0.826714 0.672419
O O1 0.184971 0.500000 0.158215
O O2 0.262620 0.740934 0.157759
O O3 0.001947 0.723721 0.253459
O O4 0.241215 0.732407 0.085704
O O5 0.252983 0.230356 0.752009
O O6 0.993491 0.229266 0.920064
O O7 0.166173 0.000000 0.838138
O O8 0.686435 0.500000 0.997386
O O9 0.750000 0.750000 0.000000
O O10 0.500000 0.156793 0.500000
O O11 0.483657 0.213098 0.586811
O O12 0.733520 0.273804 0.418027
O O13 0.661862 0.000000 0.470083
O O14 0.215704 0.500000 0.315164
O O15 0.288222 0.245409 0.307579
O O16 0.680141 0.000000 0.669010
#
# Coordination Sequence:
#
# PCOD8080444 Si02
#       6
#     8   8   8   8   8   8
#     4   9  18  31  47  71  99 124 154 192 231 272
#     4   9  17  31  51  71  92 124 162 191 223 276
#     4  10  19  32  53  76  96 121 154 193 232 273
#     4   8  15  28  45  66  92 121 156 196 232 269
#     4   9  17  30  49  70  91 120 159 199 232 268
#     4  10  18  28  46  70  96 124 153 192 237 277
#
# _framework density 18.393466
#
# number of rings (size 3 to 8) (size 9 to 14) (size 15 to 20)
#    0.000    2.833    0.000    3.000    0.000    5.000 
#    0.000    1.667    0.000    7.000    0.000    0.000 
#    0.000    0.000    0.000    0.000    0.000    0.000 
#
# Total GULP energy -297513.802979 kJ/mol
# GULP energy per Si atom -12396.408457 kJ/mol
# Density = 1.835160 g / cm^3
# Si number density = 18.393466 Si / 1000 Ang^3
#
#
#
# Elastic Constant Matrix: (Units=GPa)
#
#
# Indices 1 2 3 4 5 6 
#
# 1 135.8027 35.0021 90.6351 0.0020 -4.9442 0.0375
# 2 35.0021 38.9307 40.6248 -0.0011 -1.9273 0.0077
# 3 90.6351 40.6248 190.6816 0.0001 -6.8328 -0.0003
# 4 0.0020 -0.0011 0.0001 22.9362 -0.0016 -0.7602
# 5 -4.9442 -1.9273 -6.8328 -0.0016 15.5446 0.0006
# 6 0.0375 0.0077 -0.0003 -0.7602 0.0006 18.8745
#
#
#
# Elastic Compliance Matrix: (Units=1/GPa)
#
#
# Indices 1 2 3 4 5 6 
#
# 1 0.011841 -0.006120 -0.004284 -0.000002 0.001124 -0.000021
# 2 -0.006120 0.036209 -0.004790 0.000002 0.000437 -0.000003
# 3 -0.004284 -0.004790 0.008363 0.000001 0.001719 0.000011
# 4 -0.000002 0.000002 0.000001 0.043658 0.000004 0.001758
# 5 0.001124 0.000437 0.001719 0.000004 0.065499 -0.000004
# 6 -0.000021 -0.000003 0.000011 0.001758 -0.000004 0.053053
#
#
# Mechanical properties :
#
#
# Convention : Reuss Voigt Hill
#
# Bulk Modulus (GPa) = 38.42451 77.54880 57.98665
# Shear Modulus (GPa) = 19.40357 24.74791 22.07574
#
# Velocity S-wave (km/s) = 3.25147 3.67205 3.46814
# Velocity P-wave (km/s) = 5.91876 7.76087 6.90155
#
# Compressibility (1/GPa) = 0.02602506
#
# Stress axis : x y z
#
# Youngs Moduli (GPa) = 84.45038 27.61756 119.57713
#
# Poissons Ratio (x) = 0.16902 0.51230
# Poissons Ratio (y) = 0.51684 0.57274
# Poissons Ratio (z) = 0.36181 0.13228
#
# Static dielectric constant tensor:
#      x y z
#    x 3.312630 -0.000010 0.087220 
#    y -0.000010 3.036460 0.000000 
#    z 0.087220 0.000000 3.951750 
# 
# 
# High freq. dielectric constant tensor:
#      x y z
#    x 1.694850 0.000000 0.001510 
#    y 0.000000 1.673550 0.000000 
#    z 0.001510 0.000000 1.737990 
# 
# From -- ./inp_files/274120.got.cif
#   From: 2010.06.25/outbox.cif.g09.slc.cpg/sg12_138_cif.got.tgz:274120.got - 2010.06.28 00:19:55.
