data_PCOD8080536
_publ_section_title
;
Structure prediction by ZEFSAII (Michael W. Deem and Ramdas Pophale) SiO2 
 PCOD8080536
Probable space group: C 2/M
;
_chemical_formula_sum "Si O2"
_cell_formula_units_Z 48
_cell_length_a 16.439855
_cell_length_b 36.338181
_cell_length_c 7.896377
_cell_angle_alpha 90.000000
_cell_angle_beta 33.848603
_cell_angle_gamma 90.000000
_cell_volume 2627.510679
_symmetry_space_group_name_H-M "C 2/M"
_symmetry_group_IT_number 12
_symmetry_cell_setting 'monoclinic'
loop_
_space_group_symop_operation_xyz
x,y,z
-x,y,-z
-x,-y,-z
x,-y,z
1/2+x,1/2+y,z
1/2-x,1/2+y,-z
1/2-x,1/2-y,-z
1/2+x,1/2-y,z
loop_
_atom_site_type_symbol
_atom_site_label
_atom_site_fract_x
_atom_site_fract_y
_atom_site_fract_z
Si Si1 0.804954 0.388631 0.464327
Si Si2 0.583399 0.091469 0.184680
Si Si3 0.783351 0.147647 0.710817
Si Si4 0.836745 0.540022 0.222463
Si Si5 0.577455 0.343067 0.039921
Si Si6 0.339119 0.286933 0.833684
O O1 0.802632 0.358648 0.316658
O O2 0.755897 0.428972 0.477139
O O3 0.968497 0.390780 0.251402
O O4 0.691802 0.375873 0.804328
O O5 0.500000 0.082161 0.500000
O O6 0.716848 0.120500 0.970460
O O7 0.653441 0.054103 0.988978
O O8 0.763328 0.188672 0.817377
O O9 0.956370 0.140502 0.379014
O O10 0.756192 0.500000 0.369645
O O11 0.000000 0.534431 0.000000
O O12 0.658640 0.308912 0.990941
O O13 0.500000 0.329260 0.000000
O O14 0.500000 0.275557 0.500000
O O15 0.250000 0.250000 0.000000
#
# Coordination Sequence:
#
# PCOD8080536 Si02
#       6
#     8   8   8   8   8   8
#     4   9  17  31  52  74  95 128 171 204 239 290
#     4  10  18  28  47  75  99 128 170 205 239 286
#     4   9  18  33  50  69  97 127 159 201 244 288
#     4   8  15  28  45  69 102 131 159 202 248 288
#     4   9  18  34  53  71  96 128 164 201 245 294
#     4  10  21  36  51  72  99 129 161 199 246 292
#
# _framework density 18.268241
#
# number of rings (size 3 to 8) (size 9 to 14) (size 15 to 20)
#    0.000    2.833    0.000    2.500    0.000    2.333 
#    0.000    9.167    0.000   12.500    0.000    0.000 
#    0.000   87.333    0.000    0.000    0.000    0.000 
#
# Total GULP energy -297323.045820 kJ/mol
# GULP energy per Si atom -12388.460242 kJ/mol
# Density = 1.822666 g / cm^3
# Si number density = 18.268241 Si / 1000 Ang^3
#
#
#
# Elastic Constant Matrix: (Units=GPa)
#
#
# Indices 1 2 3 4 5 6 
#
# 1 62.5034 48.5614 20.1454 0.0000 8.5280 0.0000
# 2 48.5614 162.0012 75.2105 0.0000 4.1541 0.0000
# 3 20.1454 75.2105 101.0058 0.0000 15.0323 0.0000
# 4 0.0000 0.0000 0.0000 24.5794 0.0000 9.0063
# 5 8.5280 4.1541 15.0323 0.0000 22.0533 0.0000
# 6 0.0000 0.0000 0.0000 9.0063 0.0000 -1.6974
#
#
#
# Elastic Compliance Matrix: (Units=1/GPa)
#
#
# Indices 1 2 3 4 5 6 
#
# 1 0.022347 -0.007671 0.002588 0.000000 -0.008961 0.000000
# 2 -0.007671 0.012295 -0.008594 0.000000 0.006508 0.000000
# 3 0.002588 -0.008594 0.017463 0.000000 -0.011285 0.000000
# 4 0.000000 0.000000 0.000000 0.013819 0.000000 0.073320
# 5 -0.008961 0.006508 -0.011285 0.000000 0.055276 0.000000
# 6 0.000000 0.000000 0.000000 0.073320 0.000000 -0.200098
#
#
# Mechanical properties :
#
#
# Convention : Reuss Voigt Hill
#
# Bulk Modulus (GPa) = 40.39976 68.14944 54.27460
# Shear Modulus (GPa) = -115.48594 21.09326 -47.19634
#
# Velocity S-wave (km/s) = -7.95952 3.40169 -5.08835
# Velocity P-wave (km/s) = 7.89362 7.26736 2.17885
#
# Compressibility (1/GPa) = 0.02475262
#
# Stress axis : x y z
#
# Youngs Moduli (GPa) = 44.74846 81.33446 57.26481
#
# Poissons Ratio (x) = 0.62388 -0.14821
# Poissons Ratio (y) = 0.34325 0.49211
# Poissons Ratio (z) = -0.11581 0.69896
#
# Static dielectric constant tensor:
#      x y z
#    x 3.396210 0.000000 0.137680 
#    y 0.000000 3.427290 0.000000 
#    z 0.137680 0.000000 3.526590 
# 
# 
# High freq. dielectric constant tensor:
#      x y z
#    x 1.697020 0.000000 0.012460 
#    y 0.000000 1.687400 0.000000 
#    z 0.012460 0.000000 1.709980 
# 
# From -- ./inp_files/91382.got.cif
#   From: 2010.06.25/outbox.cif.g09.slc.cpg/sg12_46_cif.got.tgz:91382.got - 2010.06.28 00:19:55.
