data_PCOD8080281
_publ_section_title
;
Structure prediction by ZEFSAII (Michael W. Deem and Ramdas Pophale) SiO2 
 PCOD8080281
Probable space group: C 2/M
;
_chemical_formula_sum "Si O2"
_cell_formula_units_Z 56
_cell_length_a 28.429223
_cell_length_b 9.219427
_cell_length_c 13.762538
_cell_angle_alpha 90.000000
_cell_angle_beta 75.487825
_cell_angle_gamma 90.000000
_cell_volume 3492.087889
_symmetry_space_group_name_H-M "C 2/M"
_symmetry_group_IT_number 12
_symmetry_cell_setting 'monoclinic'
loop_
_space_group_symop_operation_xyz
x,y,z
-x,y,-z
-x,-y,-z
x,-y,z
1/2+x,1/2+y,z
1/2-x,1/2+y,-z
1/2-x,1/2-y,-z
1/2+x,1/2-y,z
loop_
_atom_site_type_symbol
_atom_site_label
_atom_site_fract_x
_atom_site_fract_y
_atom_site_fract_z
Si Si1 0.889947 0.163038 0.761078
Si Si2 0.989172 0.170917 0.615198
Si Si3 0.530078 0.833260 0.766287
Si Si4 0.550884 0.664730 0.080513
Si Si5 0.398368 0.165344 0.110501
Si Si6 0.299845 0.831415 0.860362
Si Si7 0.704357 0.166872 0.912634
O O1 0.934328 0.219321 0.670632
O O2 0.905761 0.168823 0.864718
O O3 0.843083 0.264470 0.772996
O O4 0.875532 0.000000 0.738109
O O5 0.000000 0.217504 0.500000
O O6 0.028113 0.250265 0.664442
O O7 0.995256 0.000000 0.629452
O O8 0.492992 0.764230 0.861767
O O9 0.583765 0.820060 0.786800
O O10 0.515750 0.000000 0.756052
O O11 0.532392 0.500000 0.075548
O O12 0.569946 0.725626 0.969516
O O13 0.341501 0.205003 0.131923
O O14 0.406150 0.000000 0.068878
O O15 0.248944 0.763470 0.852519
O O16 0.298173 0.000000 0.838842
O O17 0.309027 0.796694 0.968941
O O18 0.720055 0.000000 0.895200
#
# Coordination Sequence:
#
# PCOD8080281 Si02
#       7
#     8   8   8   8   8   8   8
#     4   9  17  29  46  67  91 121 153 187 229 275
#     4   9  19  36  54  72  94 119 151 192 236 281
#     4  10  20  31  46  67  93 122 155 190 229 279
#     4  10  19  29  43  64  92 126 162 193 223 266
#     4  10  19  31  44  63  92 128 160 189 228 271
#     4  10  18  28  44  65  89 121 159 195 228 265
#     4   9  18  30  43  60  90 127 160 192 226 265
#
# _framework density 16.036252000000001
#
# number of rings (size 3 to 8) (size 9 to 14) (size 15 to 20)
#    0.000    2.429    1.429    2.571    0.000    6.571 
#    0.000    0.000    0.000    0.000    0.000    1.000 
#    0.000    0.000    0.000    0.000    0.000    0.000 
#
# Total GULP energy -347164.640152 kJ/mol
# GULP energy per Si atom -12398.737148 kJ/mol
# Density = 1.599975 g / cm^3
# Si number density = 16.036252 Si / 1000 Ang^3
#
#
#
# Elastic Constant Matrix: (Units=GPa)
#
#
# Indices 1 2 3 4 5 6 
#
# 1 110.5136 52.5309 49.9169 0.0000 3.7404 0.0000
# 2 52.5309 78.0383 39.9209 0.0000 1.5689 0.0000
# 3 49.9169 39.9209 82.8906 0.0000 1.9620 0.0000
# 4 0.0000 0.0000 0.0000 19.6237 0.0000 -1.4754
# 5 3.7404 1.5689 1.9620 0.0000 12.8261 0.0000
# 6 0.0000 0.0000 0.0000 -1.4754 0.0000 24.7515
#
#
#
# Elastic Compliance Matrix: (Units=1/GPa)
#
#
# Indices 1 2 3 4 5 6 
#
# 1 0.015094 -0.007284 -0.005518 0.000000 -0.002666 0.000000
# 2 -0.007284 0.020527 -0.005511 0.000000 0.000456 0.000000
# 3 -0.005518 -0.005511 0.018053 0.000000 -0.000478 0.000000
# 4 0.000000 0.000000 0.000000 0.051188 0.000000 0.003051
# 5 -0.002666 0.000456 -0.000478 0.000000 0.078761 0.000000
# 6 0.000000 0.000000 0.000000 0.003051 0.000000 0.040584
#
#
# Mechanical properties :
#
#
# Convention : Reuss Voigt Hill
#
# Bulk Modulus (GPa) = 58.65818 61.79776 60.22797
# Shear Modulus (GPa) = 18.76078 20.04518 19.40298
#
# Velocity S-wave (km/s) = 3.42409 3.53936 3.48220
# Velocity P-wave (km/s) = 7.23121 7.43792 7.33529
#
# Compressibility (1/GPa) = 0.01704792
#
# Stress axis : x y z
#
# Youngs Moduli (GPa) = 66.25320 48.71665 55.39369
#
# Poissons Ratio (x) = 0.35483 0.30569
# Poissons Ratio (y) = 0.48256 0.30525
# Poissons Ratio (z) = 0.36562 0.26846
#
# Static dielectric constant tensor:
#      x y z
#    x 3.079220 0.000000 0.037960 
#    y 0.000000 3.106460 0.000000 
#    z 0.037960 0.000000 2.718470 
# 
# 
# High freq. dielectric constant tensor:
#      x y z
#    x 1.614520 0.000000 -0.000360 
#    y 0.000000 1.626920 0.000000 
#    z -0.000360 0.000000 1.566970 
# 
# From -- ./inp_files/243009.got.cif
#   From: 2010.06.25/outbox.cif.g09.slc.cpg/sg12_122_cif.got.tgz:243009.got - 2010.06.28 00:19:55.
