data_PCOD8080821
_publ_section_title
;
Structure prediction by ZEFSAII (Michael W. Deem and Ramdas Pophale) SiO2 
 PCOD8080821
Probable space group: C 2/M
;
_chemical_formula_sum "Si O2"
_cell_formula_units_Z 64
_cell_length_a 29.996771
_cell_length_b 9.319141
_cell_length_c 30.828988
_cell_angle_alpha 90.000000
_cell_angle_beta 28.219385
_cell_angle_gamma 90.000000
_cell_volume 4075.041653
_symmetry_space_group_name_H-M "C 2/M"
_symmetry_group_IT_number 12
_symmetry_cell_setting 'monoclinic'
loop_
_space_group_symop_operation_xyz
x,y,z
-x,y,-z
-x,-y,-z
x,-y,z
1/2+x,1/2+y,z
1/2-x,1/2+y,-z
1/2-x,1/2-y,-z
1/2+x,1/2-y,z
loop_
_atom_site_type_symbol
_atom_site_label
_atom_site_fract_x
_atom_site_fract_y
_atom_site_fract_z
Si Si1 0.650143 0.670792 0.812778
Si Si2 0.674725 0.833947 0.879016
Si Si3 0.873075 0.666063 0.924468
Si Si4 0.123664 0.831250 0.256239
Si Si5 0.016695 0.335243 0.085311
Si Si6 0.856281 0.330959 0.614665
Si Si7 0.484028 0.169656 0.583367
Si Si8 0.838033 0.168007 0.873184
O O1 0.642974 0.500000 0.822575
O O2 0.640292 0.736784 0.868922
O O3 0.568424 0.729408 0.852215
O O4 0.748566 0.721929 0.706580
O O5 0.777924 0.785863 0.806019
O O6 0.673188 0.000000 0.865931
O O7 0.604105 0.806139 0.978917
O O8 0.872733 0.500000 0.912452
O O9 0.951632 0.700510 0.893003
O O10 0.897078 0.753435 0.860268
O O11 0.771567 0.712284 0.030320
O O12 0.037325 0.750005 0.353411
O O13 0.123063 0.782448 0.206739
O O14 0.108188 0.000000 0.273540
O O15 0.983264 0.500000 0.109673
O O16 0.861964 0.500000 0.613327
O O17 0.908773 0.272536 0.612483
O O18 0.911762 0.284731 0.523296
O O19 0.476595 0.000000 0.597479
O O20 0.851307 0.000000 0.868236
#
# Coordination Sequence:
#
# PCOD8080821 Si02
#       8
#     8   8   8   8   8   8   8   8
#     4  11  21  32  46  67  92 120 159 200 228 256
#     4  10  19  32  46  62  92 131 161 181 217 270
#     4   9  17  31  48  66  88 119 157 189 219 267
#     4  10  18  29  46  70  96 122 150 185 227 271
#     4  10  20  34  48  63  90 129 162 186 222 271
#     4   8  16  30  46  64  89 120 151 188 233 274
#     4   9  16  30  49  65  87 121 154 184 228 279
#     4   9  17  30  47  67  93 120 147 185 232 271
#
# _framework density 15.705361
#
# number of rings (size 3 to 8) (size 9 to 14) (size 15 to 20)
#    0.000    2.500    2.500    1.500    0.000    3.000 
#    0.000    2.500    0.000    0.000    0.000    0.875 
#    0.000    0.000    0.000    0.000    0.000    0.000 
#
# Total GULP energy -396746.889310 kJ/mol
# GULP energy per Si atom -12398.340291 kJ/mol
# Density = 1.566962 g / cm^3
# Si number density = 15.705361 Si / 1000 Ang^3
#
#
#
# Elastic Constant Matrix: (Units=GPa)
#
#
# Indices 1 2 3 4 5 6 
#
# 1 93.1410 39.5654 37.9960 0.0006 16.5841 -0.0037
# 2 39.5654 45.0700 30.3103 -0.0097 7.5644 0.0159
# 3 37.9960 30.3103 74.6124 -0.0108 15.3681 0.0097
# 4 0.0006 -0.0097 -0.0108 24.4016 -0.0025 3.6836
# 5 16.5841 7.5644 15.3681 -0.0025 23.5609 -0.0026
# 6 -0.0037 0.0159 0.0097 3.6836 -0.0026 25.9714
#
#
#
# Elastic Compliance Matrix: (Units=1/GPa)
#
#
# Indices 1 2 3 4 5 6 
#
# 1 0.018855 -0.013598 -0.002591 -0.000010 -0.007215 0.000013
# 2 -0.013598 0.040415 -0.010157 0.000016 0.003221 -0.000025
# 3 -0.002591 -0.010157 0.020564 0.000005 -0.008328 -0.000003
# 4 -0.000010 0.000016 0.000005 0.041878 0.000002 -0.005940
# 5 -0.007215 0.003221 -0.008328 0.000002 0.051920 0.000005
# 6 0.000013 -0.000025 -0.000003 -0.005940 0.000005 0.039346
#
#
# Mechanical properties :
#
#
# Convention : Reuss Voigt Hill
#
# Bulk Modulus (GPa) = 36.84478 47.61852 42.23165
# Shear Modulus (GPa) = 18.20057 21.78354 19.99206
#
# Velocity S-wave (km/s) = 3.40792 3.72830 3.57171
# Velocity P-wave (km/s) = 6.24469 6.99424 6.63007
#
# Compressibility (1/GPa) = 0.02714088
#
# Stress axis : x y z
#
# Youngs Moduli (GPa) = 53.03746 24.74332 48.62944
#
# Poissons Ratio (x) = 0.33646 0.12602
# Poissons Ratio (y) = 0.72120 0.49392
# Poissons Ratio (z) = 0.13744 0.25131
#
# Static dielectric constant tensor:
#      x y z
#    x 2.934970 -0.000060 0.053930 
#    y -0.000060 2.860660 0.000050 
#    z 0.053930 0.000050 3.096880 
# 
# 
# High freq. dielectric constant tensor:
#      x y z
#    x 1.585990 0.000000 0.011000 
#    y 0.000000 1.593570 0.000000 
#    z 0.011000 0.000000 1.592460 
# 
# From -- ./inp_files/244004.got.cif
#   From: 2010.06.25/outbox.cif.g09.slc.cpg/sg12_123_cif.got.tgz:244004.got - 2010.06.28 00:19:55.
