data_PCOD8080717
_publ_section_title
;
Structure prediction by ZEFSAII (Michael W. Deem and Ramdas Pophale) SiO2 
 PCOD8080717
Probable space group: C 2/M
;
_chemical_formula_sum "Si O2"
_cell_formula_units_Z 56
_cell_length_a 27.672502
_cell_length_b 8.656052
_cell_length_c 14.473451
_cell_angle_alpha 90.000000
_cell_angle_beta 75.824138
_cell_angle_gamma 90.000000
_cell_volume 3361.320831
_symmetry_space_group_name_H-M "C 2/M"
_symmetry_group_IT_number 12
_symmetry_cell_setting 'monoclinic'
loop_
_space_group_symop_operation_xyz
x,y,z
-x,y,-z
-x,-y,-z
x,-y,z
1/2+x,1/2+y,z
1/2-x,1/2+y,-z
1/2-x,1/2-y,-z
1/2+x,1/2-y,z
loop_
_atom_site_type_symbol
_atom_site_label
_atom_site_fract_x
_atom_site_fract_y
_atom_site_fract_z
Si Si1 0.215074 0.321198 0.396545
Si Si2 0.636628 0.681536 0.076038
Si Si3 0.135045 0.180183 0.791471
Si Si4 0.055126 0.182358 0.972457
Si Si5 0.690881 0.820795 0.204668
Si Si6 0.292544 0.820053 0.101612
Si Si7 0.818691 0.321527 0.391739
O O1 0.231845 0.500000 0.394424
O O2 0.184665 0.286776 0.316834
O O3 0.179482 0.279727 0.500086
O O4 0.264477 0.218569 0.376262
O O5 0.633298 0.500000 0.093906
O O6 0.587810 0.743586 0.043818
O O7 0.640974 0.767017 0.173422
O O8 0.685296 0.721209 0.992929
O O9 0.179301 0.276233 0.817522
O O10 0.137814 0.225485 0.681760
O O11 0.145621 0.000000 0.801506
O O12 0.082183 0.225646 0.862857
O O13 0.050549 0.000000 0.983919
O O14 0.000000 0.258375 0.000000
O O15 0.735029 0.720322 0.140759
O O16 0.701786 0.000000 0.182124
O O17 0.298886 0.000000 0.076635
O O18 0.829555 0.500000 0.369682
#
# Coordination Sequence:
#
# PCOD8080717 Si02
#       7
#     8   8   8   8   8   8   8
#     4   9  19  31  44  62  90 127 163 195 225 260
#     4  10  20  32  47  67  91 118 151 189 231 278
#     4  10  18  29  47  70  95 122 152 190 235 279
#     4   8  16  32  52  71  90 115 149 189 234 282
#     4  11  20  31  45  63  92 126 158 189 224 266
#     4  11  20  30  44  64  91 124 160 190 221 265
#     4  10  18  29  45  66  91 123 160 195 228 267
#
# _framework density 16.660115999999999
#
# number of rings (size 3 to 8) (size 9 to 14) (size 15 to 20)
#    0.000    2.143    1.429    4.286    0.000    1.143 
#    0.000    0.000    0.000   15.429    0.000    1.000 
#    0.000    8.000    0.000    0.000    0.000    0.000 
#
# Total GULP energy -347101.699211 kJ/mol
# GULP energy per Si atom -12396.489258 kJ/mol
# Density = 1.662220 g / cm^3
# Si number density = 16.660116 Si / 1000 Ang^3
#
#
#
# Elastic Constant Matrix: (Units=GPa)
#
#
# Indices 1 2 3 4 5 6 
#
# 1 82.8320 18.4123 61.8289 0.0000 1.2984 0.0000
# 2 18.4123 47.2482 25.6115 0.0000 1.9671 0.0000
# 3 61.8289 25.6115 124.1626 0.0000 11.6194 0.0000
# 4 0.0000 0.0000 0.0000 25.5516 0.0000 4.5562
# 5 1.2984 1.9671 11.6194 0.0000 20.9956 0.0000
# 6 0.0000 0.0000 0.0000 4.5562 0.0000 14.1548
#
#
#
# Elastic Compliance Matrix: (Units=1/GPa)
#
#
# Indices 1 2 3 4 5 6 
#
# 1 0.019883 -0.002636 -0.009771 0.000000 0.004425 0.000000
# 2 -0.002636 0.024184 -0.003669 0.000000 -0.000072 0.000000
# 3 -0.009771 -0.003669 0.014330 0.000000 -0.006983 0.000000
# 4 0.000000 0.000000 0.000000 0.041520 0.000000 -0.013365
# 5 0.004425 -0.000072 -0.006983 0.000000 0.051226 0.000000
# 6 0.000000 0.000000 0.000000 -0.013365 0.000000 0.074950
#
#
# Mechanical properties :
#
#
# Convention : Reuss Voigt Hill
#
# Bulk Modulus (GPa) = 38.10380 51.77202 44.93791
# Shear Modulus (GPa) = 18.72706 22.03308 20.38007
#
# Velocity S-wave (km/s) = 3.35635 3.64057 3.50134
# Velocity P-wave (km/s) = 6.15963 6.98674 6.58618
#
# Compressibility (1/GPa) = 0.02624410
#
# Stress axis : x y z
#
# Youngs Moduli (GPa) = 50.29442 41.34981 69.78301
#
# Poissons Ratio (x) = 0.10899 0.68188
# Poissons Ratio (y) = 0.13256 0.25605
# Poissons Ratio (z) = 0.49145 0.15172
#
# Static dielectric constant tensor:
#      x y z
#    x 3.043210 0.000000 0.151350 
#    y 0.000000 3.060790 0.000000 
#    z 0.151350 0.000000 3.416830 
# 
# 
# High freq. dielectric constant tensor:
#      x y z
#    x 1.592180 0.000000 0.015890 
#    y 0.000000 1.641870 0.000000 
#    z 0.015890 0.000000 1.645510 
# 
# From -- ./inp_files/243010.got.cif
#   From: 2010.06.25/outbox.cif.g09.slc.cpg/sg12_122_cif.got.tgz:243010.got - 2010.06.28 00:19:55.
