data_PCOD8080322
_publ_section_title
;
Structure prediction by ZEFSAII (Michael W. Deem and Ramdas Pophale) SiO2 
 PCOD8080322
Probable space group: C 2/M
;
_chemical_formula_sum "Si O2"
_cell_formula_units_Z 64
_cell_length_a 20.280499
_cell_length_b 9.330227
_cell_length_c 21.843627
_cell_angle_alpha 90.000000
_cell_angle_beta 62.056056
_cell_angle_gamma 90.000000
_cell_volume 3651.372839
_symmetry_space_group_name_H-M "C 2/M"
_symmetry_group_IT_number 12
_symmetry_cell_setting 'monoclinic'
loop_
_space_group_symop_operation_xyz
x,y,z
-x,y,-z
-x,-y,-z
x,-y,z
1/2+x,1/2+y,z
1/2-x,1/2+y,-z
1/2-x,1/2-y,-z
1/2+x,1/2-y,z
loop_
_atom_site_type_symbol
_atom_site_label
_atom_site_fract_x
_atom_site_fract_y
_atom_site_fract_z
Si Si1 0.026691 0.831264 0.791757
Si Si2 0.770852 0.332404 0.430069
Si Si3 0.677070 0.335087 0.795799
Si Si4 0.539790 0.837613 0.076569
Si Si5 0.555469 0.832773 0.659947
Si Si6 0.473233 0.167506 0.576009
Si Si7 0.116405 0.339349 0.924465
Si Si8 0.301823 0.833640 0.647132
O O1 0.108274 0.790578 0.782232
O O2 0.017047 0.756621 0.730592
O O3 0.962485 0.769099 0.864621
O O4 0.015229 0.000000 0.789788
O O5 0.753214 0.500000 0.445643
O O6 0.750000 0.250000 0.500000
O O7 0.856742 0.305197 0.377431
O O8 0.721022 0.268431 0.397988
O O9 0.671466 0.500000 0.814891
O O10 0.676266 0.255329 0.861587
O O11 0.753444 0.296291 0.728029
O O12 0.461444 0.831956 0.076493
O O13 0.555685 0.000000 0.091951
O O14 0.603606 0.787061 0.000307
O O15 0.521949 0.771451 0.610966
O O16 0.536278 0.000000 0.677500
O O17 0.500000 0.238107 0.500000
O O18 0.386955 0.200321 0.626457
O O19 0.489584 0.000000 0.565034
O O20 0.147707 0.500000 0.911622
O O21 0.290334 0.000000 0.632804
#
# Coordination Sequence:
#
# PCOD8080322 Si02
#       8
#     8   8   8   8   8   8   8   8
#     4  10  18  28  44  69 100 131 160 198 247 292
#     4  11  22  34  52  75  99 126 160 202 248 299
#     4   9  17  27  42  67  98 129 158 194 244 293
#     4   8  14  25  40  62  93 129 165 198 235 282
#     4  10  20  34  52  74  96 128 168 203 243 292
#     4   9  18  34  55  74  94 125 167 209 245 289
#     4   8  14  24  40  62  92 129 164 198 235 279
#     4  10  19  34  53  73 100 129 162 205 248 294
#
# _framework density 17.527653999999998
#
# number of rings (size 3 to 8) (size 9 to 14) (size 15 to 20)
#    0.000    2.625    1.250    2.250    0.000    4.000 
#    0.000    3.125    0.000    1.500    0.000    0.875 
#    0.000    0.000    0.000    0.000    0.000    0.000 
#
# Total GULP energy -396706.895963 kJ/mol
# GULP energy per Si atom -12397.090499 kJ/mol
# Density = 1.748776 g / cm^3
# Si number density = 17.527654 Si / 1000 Ang^3
#
#
#
# Elastic Constant Matrix: (Units=GPa)
#
#
# Indices 1 2 3 4 5 6 
#
# 1 25.6969 12.6029 14.7457 0.0000 5.4842 -0.0006
# 2 12.6029 66.0525 54.8625 0.0000 5.9233 -0.0017
# 3 14.7457 54.8625 143.6341 0.0000 6.5514 0.0000
# 4 0.0000 0.0000 0.0000 36.0322 0.0000 2.1114
# 5 5.4842 5.9233 6.5514 0.0000 19.8757 0.0000
# 6 -0.0006 -0.0017 0.0000 2.1114 0.0000 12.0422
#
#
#
# Elastic Compliance Matrix: (Units=1/GPa)
#
#
# Indices 1 2 3 4 5 6 
#
# 1 0.045134 -0.006217 -0.001802 0.000000 -0.010007 0.000001
# 2 -0.006217 0.023329 -0.008156 0.000000 -0.002548 0.000003
# 3 -0.001802 -0.008156 0.010284 0.000000 -0.000462 -0.000001
# 4 0.000000 0.000000 0.000000 0.028041 0.000000 -0.004917
# 5 -0.010007 -0.002548 -0.000462 0.000000 0.053985 -0.000001
# 6 0.000001 0.000003 -0.000001 -0.004917 -0.000001 0.083903
#
#
# Mechanical properties :
#
#
# Convention : Reuss Voigt Hill
#
# Bulk Modulus (GPa) = 21.55405 44.42284 32.98845
# Shear Modulus (GPa) = 17.09445 23.80152 20.44798
#
# Velocity S-wave (km/s) = 3.12634 3.68902 3.41928
# Velocity P-wave (km/s) = 5.03546 6.59884 5.86943
#
# Compressibility (1/GPa) = 0.04639498
#
# Stress axis : x y z
#
# Youngs Moduli (GPa) = 22.15608 42.86583 97.24295
#
# Poissons Ratio (x) = 0.26651 0.17527
# Poissons Ratio (y) = 0.13775 0.79312
# Poissons Ratio (z) = 0.03993 0.34962
#
# Static dielectric constant tensor:
#      x y z
#    x 3.456190 0.000000 0.503780 
#    y 0.000000 3.159820 0.000000 
#    z 0.503780 0.000000 4.124240 
# 
# 
# High freq. dielectric constant tensor:
#      x y z
#    x 1.629420 0.000000 0.000480 
#    y 0.000000 1.664310 0.000000 
#    z 0.000480 0.000000 1.697170 
# 
# From -- ./inp_files/319858.got.cif
#   From: 2010.06.25/outbox.cif.g09.slc.cpg/sg12_160_cif.got.tgz:319858.got - 2010.06.28 00:19:55.
