data_PCOD8080610
_publ_section_title
;
Structure prediction by ZEFSAII (Michael W. Deem and Ramdas Pophale) SiO2 
 PCOD8080610
Probable space group: C 2/M
;
_chemical_formula_sum "Si O2"
_cell_formula_units_Z 52
_cell_length_a 20.534806
_cell_length_b 19.714781
_cell_length_c 13.531286
_cell_angle_alpha 90.000000
_cell_angle_beta 145.468929
_cell_angle_gamma 90.000000
_cell_volume 3105.218307
_symmetry_space_group_name_H-M "C 2/M"
_symmetry_group_IT_number 12
_symmetry_cell_setting 'monoclinic'
loop_
_space_group_symop_operation_xyz
x,y,z
-x,y,-z
-x,-y,-z
x,-y,z
1/2+x,1/2+y,z
1/2-x,1/2+y,-z
1/2-x,1/2-y,-z
1/2+x,1/2-y,z
loop_
_atom_site_type_symbol
_atom_site_label
_atom_site_fract_x
_atom_site_fract_y
_atom_site_fract_z
Si Si1 0.720460 0.145858 0.371540
Si Si2 0.306334 0.131869 0.885974
Si Si3 0.463633 0.636134 0.739261
Si Si4 0.572453 0.500000 0.190989
Si Si5 0.418552 0.421329 0.303844
Si Si6 0.544976 0.000000 0.944723
Si Si7 0.500118 0.772228 0.882444
Si Si8 0.306641 0.000000 0.579206
O O1 0.732641 0.157030 0.270309
O O2 0.838020 0.168835 0.568868
O O3 0.617721 0.188385 0.294786
O O4 0.713771 0.065164 0.378512
O O5 0.198221 0.119525 0.821143
O O6 0.377631 0.064114 0.972223
O O7 0.392799 0.189140 0.034587
O O8 0.468596 0.566768 0.805237
O O9 0.523050 0.621233 0.709729
O O10 0.522481 0.695686 0.874963
O O11 0.715570 0.500000 0.371285
O O12 0.500000 0.500000 0.000000
O O13 0.500000 0.419654 0.500000
O O14 0.394987 0.500000 0.244757
O O15 0.444617 0.000000 0.733323
O O16 0.500000 0.000000 0.000000
O O17 0.500000 0.774972 0.000000
#
# Coordination Sequence:
#
# PCOD8080610 Si02
#       8
#     8   8   8   4   8   4   8   4
#     4  10  18  31  51  83 111 139 168 222 275 331
#     4  11  19  31  52  80 114 144 171 219 276 327
#     4  11  21  36  54  76 106 146 185 219 268 327
#     4  10  22  37  55  77 106 142 191 231 265 309
#     4  11  22  34  54  82 111 144 179 221 269 334
#     4  12  16  27  52  84 119 136 170 218 281 335
#     4  10  21  34  52  78 109 141 181 224 276 316
#     4  10  18  28  53  84 110 140 171 213 281 330
#
# _framework density 16.746003999999999
#
# number of rings (size 3 to 8) (size 9 to 14) (size 15 to 20)
#    0.000    1.385    6.154    1.385    0.000    0.615 
#    0.000    0.000    0.000    0.000    0.000    2.154 
#    0.000    0.000    0.000    0.000    0.000    0.000 
#
# Total GULP energy -322092.217413 kJ/mol
# GULP energy per Si atom -12388.162208 kJ/mol
# Density = 1.670789 g / cm^3
# Si number density = 16.746004 Si / 1000 Ang^3
#
#
#
# Elastic Constant Matrix: (Units=GPa)
#
#
# Indices 1 2 3 4 5 6 
#
# 1 75.5311 38.0126 38.7232 0.0000 14.2790 0.0000
# 2 38.0126 116.5354 31.0527 0.0000 10.6571 0.0000
# 3 38.7232 31.0527 88.9836 0.0000 11.8889 0.0000
# 4 0.0000 0.0000 0.0000 19.4077 0.0000 0.0824
# 5 14.2790 10.6571 11.8889 0.0000 21.3544 0.0000
# 6 0.0000 0.0000 0.0000 0.0824 0.0000 16.9886
#
#
#
# Elastic Compliance Matrix: (Units=1/GPa)
#
#
# Indices 1 2 3 4 5 6 
#
# 1 0.019992 -0.004151 -0.006203 0.000000 -0.007843 0.000000
# 2 -0.004151 0.010518 -0.001657 0.000000 -0.001551 0.000000
# 3 -0.006203 -0.001657 0.014964 0.000000 -0.003356 0.000000
# 4 0.000000 0.000000 0.000000 0.051527 0.000000 -0.000250
# 5 -0.007843 -0.001551 -0.003356 0.000000 0.054716 0.000000
# 6 0.000000 0.000000 0.000000 -0.000250 0.000000 0.058864
#
#
# Mechanical properties :
#
#
# Convention : Reuss Voigt Hill
#
# Bulk Modulus (GPa) = 46.61651 55.18081 50.89866
# Shear Modulus (GPa) = 20.68216 23.10091 21.89153
#
# Velocity S-wave (km/s) = 3.51814 3.71818 3.61954
# Velocity P-wave (km/s) = 6.66340 7.17330 6.92305
#
# Compressibility (1/GPa) = 0.02145163
#
# Stress axis : x y z
#
# Youngs Moduli (GPa) = 50.02107 95.07103 66.82588
#
# Poissons Ratio (x) = 0.39462 0.41455
# Poissons Ratio (y) = 0.20763 0.11073
# Poissons Ratio (z) = 0.31030 0.15754
#
# Static dielectric constant tensor:
#      x y z
#    x 3.154360 0.000000 0.351970 
#    y 0.000000 3.180280 0.000000 
#    z 0.351970 0.000000 3.486080 
# 
# 
# High freq. dielectric constant tensor:
#      x y z
#    x 1.611660 0.000000 0.022340 
#    y 0.000000 1.655880 0.000000 
#    z 0.022340 0.000000 1.649120 
# 
# From -- ./inp_files/147013.got.cif
#   From: 2010.06.25/outbox.cif.g09.slc.cpg/sg12_74_cif.got.tgz:147013.got - 2010.06.28 00:19:55.
