data_PCOD8080234
_publ_section_title
;
Structure prediction by ZEFSAII (Michael W. Deem and Ramdas Pophale) SiO2 
 PCOD8080234
Probable space group: C 2/M
;
_chemical_formula_sum "Si O2"
_cell_formula_units_Z 40
_cell_length_a 25.351862
_cell_length_b 8.700987
_cell_length_c 12.317852
_cell_angle_alpha 90.000000
_cell_angle_beta 120.057961
_cell_angle_gamma 90.000000
_cell_volume 2351.744016
_symmetry_space_group_name_H-M "C 2/M"
_symmetry_group_IT_number 12
_symmetry_cell_setting 'monoclinic'
loop_
_space_group_symop_operation_xyz
x,y,z
-x,y,-z
-x,-y,-z
x,-y,z
1/2+x,1/2+y,z
1/2-x,1/2+y,-z
1/2-x,1/2-y,-z
1/2+x,1/2-y,z
loop_
_atom_site_type_symbol
_atom_site_label
_atom_site_fract_x
_atom_site_fract_y
_atom_site_fract_z
Si Si1 0.668281 0.180975 0.326650
Si Si2 0.037395 0.317816 0.139012
Si Si3 0.588492 0.678924 0.602055
Si Si4 0.000403 0.319790 0.662480
Si Si5 0.299745 0.320620 0.415581
O O1 0.606784 0.248520 0.208539
O O2 0.671374 0.232358 0.453904
O O3 0.729396 0.232671 0.324324
O O4 0.662113 0.000000 0.321691
O O5 0.038658 0.500000 0.128338
O O6 0.004136 0.271136 0.216692
O O7 0.000000 0.244485 0.000000
O O8 0.578610 0.500000 0.615628
O O9 0.567581 0.775142 0.686353
O O10 0.548974 0.725362 0.456672
O O11 0.659617 0.715170 0.649084
O O12 0.988305 0.500000 0.633895
O O13 0.301782 0.500000 0.446668
#
# Coordination Sequence:
#
# PCOD8080234 Si02
#       5
#     8   8   8   8   8
#     4   9  16  28  45  65  88 115 147 182 219 259
#     4   9  17  29  46  67  90 115 148 188 221 254
#     4  10  18  28  43  64  93 119 140 177 225 268
#     4  10  18  28  44  66  88 114 150 182 217 261
#     4   9  17  27  43  66  91 116 142 177 224 269
#
# _framework density 17.008654
#
# number of rings (size 3 to 8) (size 9 to 14) (size 15 to 20)
#    0.000    2.600    2.000    2.400    0.000    0.800 
#    0.000    0.000    0.000    6.600    0.000    0.000 
#    0.000    0.000    0.000    0.000    0.000    1.600 
#
# Total GULP energy -247834.671563 kJ/mol
# GULP energy per Si atom -12391.733578 kJ/mol
# Density = 1.696994 g / cm^3
# Si number density = 17.008654 Si / 1000 Ang^3
#
#
#
# Elastic Constant Matrix: (Units=GPa)
#
#
# Indices 1 2 3 4 5 6 
#
# 1 161.1828 13.7607 66.0208 0.0000 5.5215 0.0000
# 2 13.7607 16.2907 7.9677 0.0000 -0.2496 0.0000
# 3 66.0208 7.9677 99.9193 0.0000 5.8460 0.0000
# 4 0.0000 0.0000 0.0000 10.2622 0.0000 0.5450
# 5 5.5215 -0.2496 5.8460 0.0000 25.3083 0.0000
# 6 0.0000 0.0000 0.0000 0.5450 0.0000 18.8150
#
#
#
# Elastic Compliance Matrix: (Units=1/GPa)
#
#
# Indices 1 2 3 4 5 6 
#
# 1 0.008867 -0.004845 -0.005430 0.000000 -0.000728 0.000000
# 2 -0.004845 0.066607 -0.002240 0.000000 0.002231 0.000000
# 3 -0.005430 -0.002240 0.013894 0.000000 -0.002047 0.000000
# 4 0.000000 0.000000 0.000000 0.097596 0.000000 -0.002827
# 5 -0.000728 0.002231 -0.002047 0.000000 0.040166 0.000000
# 6 0.000000 0.000000 0.000000 -0.002827 0.000000 0.053231
#
#
# Mechanical properties :
#
#
# Convention : Reuss Voigt Hill
#
# Bulk Modulus (GPa) = 15.54305 50.32123 32.93214
# Shear Modulus (GPa) = 15.29812 23.51999 19.40906
#
# Velocity S-wave (km/s) = 3.00231 3.72267 3.38172
# Velocity P-wave (km/s) = 4.60181 6.93740 5.88660
#
# Compressibility (1/GPa) = 0.06433743
#
# Stress axis : x y z
#
# Youngs Moduli (GPa) = 112.78124 15.01338 71.97305
#
# Poissons Ratio (x) = 0.07274 0.39079
# Poissons Ratio (y) = 0.54645 0.16125
# Poissons Ratio (z) = 0.61236 0.03364
#
# Static dielectric constant tensor:
#      x y z
#    x 3.876030 0.000000 0.179140 
#    y 0.000000 3.040600 0.000000 
#    z 0.179140 0.000000 3.084580 
# 
# 
# High freq. dielectric constant tensor:
#      x y z
#    x 1.679950 0.000000 0.001100 
#    y 0.000000 1.641790 0.000000 
#    z 0.001100 0.000000 1.603160 
# 
# From -- ./inp_files/162755.got.cif
#   From: 2010.06.25/outbox.cif.g09.slc.cpg/sg12_82_cif.got.tgz:162755.got - 2010.06.28 00:19:55.
