data_PCOD8080620
_publ_section_title
;
Structure prediction by ZEFSAII (Michael W. Deem and Ramdas Pophale) SiO2 
 PCOD8080620
Probable space group: C 2/M
;
_chemical_formula_sum "Si O2"
_cell_formula_units_Z 64
_cell_length_a 5.212641
_cell_length_b 31.344382
_cell_length_c 26.259844
_cell_angle_alpha 90.000000
_cell_angle_beta 73.254209
_cell_angle_gamma 90.000000
_cell_volume 4108.567422
_symmetry_space_group_name_H-M "C 2/M"
_symmetry_group_IT_number 12
_symmetry_cell_setting 'monoclinic'
loop_
_space_group_symop_operation_xyz
x,y,z
-x,y,-z
-x,-y,-z
x,-y,z
1/2+x,1/2+y,z
1/2-x,1/2+y,-z
1/2-x,1/2-y,-z
1/2+x,1/2-y,z
loop_
_atom_site_type_symbol
_atom_site_label
_atom_site_fract_x
_atom_site_fract_y
_atom_site_fract_z
Si Si1 0.032651 0.950042 0.149198
Si Si2 0.260809 0.851285 0.644712
Si Si3 0.436935 0.949167 0.214805
Si Si4 0.063525 0.722708 0.440235
Si Si5 0.794362 0.050941 0.969463
Si Si6 0.322529 0.454082 0.595021
Si Si7 0.621594 0.922067 0.443594
Si Si8 0.701026 0.885799 0.685910
O O1 0.236625 0.936033 0.181328
O O2 0.119072 0.929683 0.090223
O O3 0.733696 0.936402 0.180571
O O4 0.046964 0.000000 0.141278
O O5 0.318060 0.809193 0.608608
O O6 0.313251 0.889856 0.604432
O O7 0.452018 0.855585 0.683549
O O8 0.953955 0.854529 0.682608
O O9 0.366151 0.917931 0.264756
O O10 0.414381 0.000000 0.230265
O O11 0.283984 0.759652 0.434334
O O12 0.000000 0.702183 0.500000
O O13 0.796164 0.000000 0.968433
O O14 0.500000 0.068161 0.000000
O O15 0.000000 0.068204 0.000000
O O16 0.309951 0.500000 0.623993
O O17 0.616393 0.447980 0.554382
O O18 0.271720 0.415775 0.635536
O O19 0.102284 0.454903 0.563321
O O20 0.500000 0.898053 0.500000
#
# Coordination Sequence:
#
# PCOD8080620 Si02
#       8
#     8   8   8   8   8   8   8   8
#     4   9  17  26  38  57  77 103 140 185 231 265
#     4  10  20  34  48  65  87 105 130 159 194 251
#     4  10  18  29  43  58  80 108 147 191 224 253
#     4  10  20  34  54  76  93 109 127 154 199 252
#     4   9  15  23  35  51  74 102 132 171 226 282
#     4  10  20  31  42  57  76  99 134 169 198 239
#     4  10  20  31  44  59  77 103 126 155 198 237
#     4  10  20  32  46  61  80 111 138 168 212 241
#
# _framework density 15.577206
#
# number of rings (size 3 to 8) (size 9 to 14) (size 15 to 20)
#    0.000    2.250    0.000    3.750    0.000    4.500 
#    0.000    7.500    0.000    0.000    0.000    0.000 
#    0.000    0.000    0.000    0.000    0.000    0.000 
#
# Total GULP energy -396503.779662 kJ/mol
# GULP energy per Si atom -12390.743114 kJ/mol
# Density = 1.554175 g / cm^3
# Si number density = 15.577206 Si / 1000 Ang^3
#
#
#
# Elastic Constant Matrix: (Units=GPa)
#
#
# Indices 1 2 3 4 5 6 
#
# 1 140.8463 18.0542 51.3390 0.0000 -6.3892 0.0000
# 2 18.0542 34.5022 17.1972 0.0000 -0.1115 0.0000
# 3 51.3390 17.1972 95.0926 0.0000 -3.8112 0.0000
# 4 0.0000 0.0000 0.0000 4.7561 0.0000 0.8154
# 5 -6.3892 -0.1115 -3.8112 0.0000 21.9434 0.0000
# 6 0.0000 0.0000 0.0000 0.8154 0.0000 5.1564
#
#
#
# Elastic Compliance Matrix: (Units=1/GPa)
#
#
# Indices 1 2 3 4 5 6 
#
# 1 0.009111 -0.002580 -0.004377 0.000000 0.001880 0.000000
# 2 -0.002580 0.032601 -0.004558 0.000000 -0.001377 0.000000
# 3 -0.004377 -0.004558 0.013747 0.000000 0.001090 0.000000
# 4 0.000000 0.000000 0.000000 0.216116 0.000000 -0.034175
# 5 0.001880 -0.001377 0.001090 0.000000 0.046301 0.000000
# 6 0.000000 0.000000 0.000000 -0.034175 0.000000 0.199337
#
#
# Mechanical properties :
#
#
# Convention : Reuss Voigt Hill
#
# Bulk Modulus (GPa) = 30.83635 49.29131 40.06383
# Shear Modulus (GPa) = 9.07352 18.62790 13.85071
#
# Velocity S-wave (km/s) = 2.41609 3.46185 2.98512
# Velocity P-wave (km/s) = 5.25568 6.90588 6.13650
#
# Compressibility (1/GPa) = 0.03242926
#
# Stress axis : x y z
#
# Youngs Moduli (GPa) = 109.75241 30.67374 72.74186
#
# Poissons Ratio (x) = 0.07914 0.31841
# Poissons Ratio (y) = 0.28316 0.33157
# Poissons Ratio (z) = 0.48041 0.13981
#
# Static dielectric constant tensor:
#      x y z
#    x 3.551040 0.000000 -0.000090 
#    y 0.000000 2.273250 0.000000 
#    z -0.000090 0.000000 2.974860 
# 
# 
# High freq. dielectric constant tensor:
#      x y z
#    x 1.628640 0.000000 -0.001200 
#    y 0.000000 1.534530 0.000000 
#    z -0.001200 0.000000 1.582770 
# 
# From -- ./inp_files/331642.got.cif
#   From: 2010.06.25/outbox.cif.g09.slc.cpg/sg12_166_cif.got.tgz:331642.got - 2010.06.28 00:19:55.
