data_PCOD8080637
_publ_section_title
;
Structure prediction by ZEFSAII (Michael W. Deem and Ramdas Pophale) SiO2 
 PCOD8080637
Probable space group: C 2/M
;
_chemical_formula_sum "Si O2"
_cell_formula_units_Z 56
_cell_length_a 36.578133
_cell_length_b 9.629177
_cell_length_c 16.358407
_cell_angle_alpha 90.000000
_cell_angle_beta 141.732695
_cell_angle_gamma 90.000000
_cell_volume 3568.408864
_symmetry_space_group_name_H-M "C 2/M"
_symmetry_group_IT_number 12
_symmetry_cell_setting 'monoclinic'
loop_
_space_group_symop_operation_xyz
x,y,z
-x,y,-z
-x,-y,-z
x,-y,z
1/2+x,1/2+y,z
1/2-x,1/2+y,-z
1/2-x,1/2-y,-z
1/2+x,1/2-y,z
loop_
_atom_site_type_symbol
_atom_site_label
_atom_site_fract_x
_atom_site_fract_y
_atom_site_fract_z
Si Si1 0.752071 0.164319 0.267502
Si Si2 0.543821 0.335258 0.958472
Si Si3 0.332961 0.152778 0.110304
Si Si4 0.292789 0.334653 0.517096
Si Si5 0.418941 0.336448 0.799643
Si Si6 0.374880 0.163998 0.009353
Si Si7 0.299770 0.345815 0.185796
O O1 0.779109 0.211699 0.400727
O O2 0.684787 0.217169 0.140607
O O3 0.793594 0.220186 0.266288
O O4 0.750550 0.000000 0.254652
O O5 0.551021 0.500000 0.956571
O O6 0.576303 0.284133 0.098557
O O7 0.570731 0.251064 0.930345
O O8 0.475139 0.289956 0.844475
O O9 0.342905 0.254115 0.204861
O O10 0.353402 0.000000 0.174091
O O11 0.371176 0.200355 0.099125
O O12 0.264950 0.148071 0.966010
O O13 0.284278 0.500000 0.514875
O O14 0.250000 0.250000 0.500000
O O15 0.358962 0.283523 0.652766
O O16 0.419922 0.500000 0.805740
O O17 0.384776 0.000000 0.012826
O O18 0.327409 0.500000 0.237568
#
# Coordination Sequence:
#
# PCOD8080637 Si02
#       7
#     8   8   8   8   8   8   8
#     4   8  15  26  40  58  82 109 132 159 198 239
#     4   9  16  28  43  58  78 105 137 168 196 229
#     4   8  14  23  35  53  79 105 125 153 195 236
#     4  10  18  29  44  61  82 108 135 162 196 235
#     4   8  16  29  43  58  79 107 135 165 200 232
#     4   9  16  26  39  59  85 107 128 159 201 240
#     4   8  13  23  37  53  75 103 132 157 186 231
#
# _framework density 15.693269000000001
#
# number of rings (size 3 to 8) (size 9 to 14) (size 15 to 20)
#    0.000    3.429    0.000    3.429    0.000    0.571 
#    0.000    5.000    0.000    0.000    0.000    1.000 
#    0.000    8.000    0.000    0.000    0.000    0.000 
#
# Total GULP energy -346979.630215 kJ/mol
# GULP energy per Si atom -12392.129651 kJ/mol
# Density = 1.565755 g / cm^3
# Si number density = 15.693269 Si / 1000 Ang^3
#
#
#
# Elastic Constant Matrix: (Units=GPa)
#
#
# Indices 1 2 3 4 5 6 
#
# 1 151.9333 59.3236 53.9289 0.0000 -5.6545 0.0000
# 2 59.3236 49.1942 24.6533 0.0000 -2.5878 0.0000
# 3 53.9289 24.6533 69.5318 0.0000 -1.3164 0.0000
# 4 0.0000 0.0000 0.0000 11.1566 0.0000 0.8461
# 5 -5.6545 -2.5878 -1.3164 0.0000 20.0752 0.0000
# 6 0.0000 0.0000 0.0000 0.8461 0.0000 31.4071
#
#
#
# Elastic Compliance Matrix: (Units=1/GPa)
#
#
# Indices 1 2 3 4 5 6 
#
# 1 0.014320 -0.014136 -0.006060 0.000000 0.001814 0.000000
# 2 -0.014136 0.038813 -0.002782 0.000000 0.000839 0.000000
# 3 -0.006060 -0.002782 0.020054 0.000000 -0.000750 0.000000
# 4 0.000000 0.000000 0.000000 0.089817 0.000000 -0.002420
# 5 0.001814 0.000839 -0.000750 0.000000 0.050382 0.000000
# 6 0.000000 0.000000 0.000000 -0.002420 0.000000 0.031905
#
#
# Mechanical properties :
#
#
# Convention : Reuss Voigt Hill
#
# Bulk Modulus (GPa) = 36.72279 60.71899 48.72089
# Shear Modulus (GPa) = 16.64872 21.37802 19.01337
#
# Velocity S-wave (km/s) = 3.26065 3.69486 3.48453
# Velocity P-wave (km/s) = 6.13408 7.54836 6.87767
#
# Compressibility (1/GPa) = 0.02723104
#
# Stress axis : x y z
#
# Youngs Moduli (GPa) = 69.83267 25.76487 49.86499
#
# Poissons Ratio (x) = 0.36422 0.30219
# Poissons Ratio (y) = 0.98716 0.13870
# Poissons Ratio (z) = 0.42319 0.07167
#
# Static dielectric constant tensor:
#      x y z
#    x 3.195820 0.000000 -0.094200 
#    y 0.000000 2.857580 0.000000 
#    z -0.094200 0.000000 3.178490 
# 
# 
# High freq. dielectric constant tensor:
#      x y z
#    x 1.611010 0.000000 -0.010690 
#    y 0.000000 1.577520 0.000000 
#    z -0.010690 0.000000 1.562850 
# 
# From -- ./inp_files/231796.got.cif
#   From: 2010.06.25/outbox.cif.g09.slc.cpg/sg12_116_cif.got.tgz:231796.got - 2010.06.28 00:19:55.
