data_PCOD8080421
_publ_section_title
;
Structure prediction by ZEFSAII (Michael W. Deem and Ramdas Pophale) SiO2 
 PCOD8080421
Probable space group: C 2/M
;
_chemical_formula_sum "Si O2"
_cell_formula_units_Z 56
_cell_length_a 26.892643
_cell_length_b 8.994006
_cell_length_c 13.714485
_cell_angle_alpha 90.000000
_cell_angle_beta 60.702586
_cell_angle_gamma 90.000000
_cell_volume 2892.864866
_symmetry_space_group_name_H-M "C 2/M"
_symmetry_group_IT_number 12
_symmetry_cell_setting 'monoclinic'
loop_
_space_group_symop_operation_xyz
x,y,z
-x,y,-z
-x,-y,-z
x,-y,z
1/2+x,1/2+y,z
1/2-x,1/2+y,-z
1/2-x,1/2-y,-z
1/2+x,1/2-y,z
loop_
_atom_site_type_symbol
_atom_site_label
_atom_site_fract_x
_atom_site_fract_y
_atom_site_fract_z
Si Si1 0.119029 0.330894 0.718289
Si Si2 0.278641 0.323764 0.880371
Si Si3 0.091922 0.831905 0.248569
Si Si4 0.987229 0.323581 0.288555
Si Si5 0.181217 0.671258 0.458139
Si Si6 0.778796 0.323147 0.265177
Si Si7 0.577191 0.330661 0.482796
O O1 0.102947 0.500000 0.750926
O O2 0.057311 0.257186 0.750884
O O3 0.162781 0.310941 0.587263
O O4 0.154328 0.275083 0.779998
O O5 0.276791 0.500000 0.892009
O O6 0.343988 0.266262 0.810816
O O7 0.242202 0.272616 0.821174
O O8 0.250000 0.250000 0.000000
O O9 0.061864 0.824573 0.383315
O O10 0.050996 0.741012 0.213491
O O11 0.094202 0.000000 0.208299
O O12 0.990345 0.500000 0.281710
O O13 0.963454 0.277045 0.417003
O O14 0.177427 0.500000 0.428383
O O15 0.244118 0.735532 0.381580
O O16 0.141786 0.773637 0.427682
O O17 0.771547 0.500000 0.287770
O O18 0.572176 0.500000 0.526299
#
# Coordination Sequence:
#
# PCOD8080421 Si02
#       7
#     8   8   8   8   8   8   8
#     4   8  17  31  48  73 107 140 173 208 245 302
#     4  10  22  39  58  80 101 128 174 223 271 314
#     4  10  20  35  52  73 101 137 177 212 254 315
#     4  10  20  32  48  78 110 138 173 211 253 300
#     4  10  18  28  45  76 110 137 172 215 255 299
#     4  10  18  34  55  72  99 140 174 209 260 316
#     4  10  18  31  49  71 104 145 182 209 248 308
#
# _framework density 19.357973999999999
#
# number of rings (size 3 to 8) (size 9 to 14) (size 15 to 20)
#    0.000    2.286    1.429    3.000    0.000    4.000 
#    0.000    3.571    0.000    0.857    0.000    6.000 
#    0.000    0.000    0.000    0.000    0.000    0.000 
#
# Total GULP energy -346906.921881 kJ/mol
# GULP energy per Si atom -12389.532924 kJ/mol
# Density = 1.931391 g / cm^3
# Si number density = 19.357974 Si / 1000 Ang^3
#
#
#
# Elastic Constant Matrix: (Units=GPa)
#
#
# Indices 1 2 3 4 5 6 
#
# 1 204.0305 43.6174 41.6873 0.0000 0.5520 0.0000
# 2 43.6174 48.2574 12.0878 0.0000 3.4930 0.0000
# 3 41.6873 12.0878 38.3834 0.0000 -3.8802 0.0000
# 4 0.0000 0.0000 0.0000 22.6199 0.0000 -4.9605
# 5 0.5520 3.4930 -3.8802 0.0000 9.8095 0.0000
# 6 0.0000 0.0000 0.0000 -4.9605 0.0000 27.5637
#
#
#
# Elastic Compliance Matrix: (Units=1/GPa)
#
#
# Indices 1 2 3 4 5 6 
#
# 1 0.007269 -0.004853 -0.006492 0.000000 -0.001249 0.000000
# 2 -0.004853 0.026999 -0.004350 0.000000 -0.011061 0.000000
# 3 -0.006492 -0.004350 0.036111 0.000000 0.016198 0.000000
# 4 0.000000 0.000000 0.000000 0.046025 0.000000 0.008283
# 5 -0.001249 -0.011061 0.016198 0.000000 0.112358 0.000000
# 6 0.000000 0.000000 0.000000 0.008283 0.000000 0.037770
#
#
# Mechanical properties :
#
#
# Convention : Reuss Voigt Hill
#
# Bulk Modulus (GPa) = 25.64861 53.93957 39.79409
# Shear Modulus (GPa) = 16.08140 24.88388 20.48264
#
# Velocity S-wave (km/s) = 2.88538 3.58922 3.25637
# Velocity P-wave (km/s) = 4.93750 6.71576 5.89408
#
# Compressibility (1/GPa) = 0.03898847
#
# Stress axis : x y z
#
# Youngs Moduli (GPa) = 137.57885 37.03852 27.69224
#
# Poissons Ratio (x) = 0.17975 0.17978
# Poissons Ratio (y) = 0.66768 0.12046
# Poissons Ratio (z) = 0.89318 0.16111
#
# Static dielectric constant tensor:
#      x y z
#    x 4.211210 0.000000 0.007220 
#    y 0.000000 3.385540 0.000000 
#    z 0.007220 0.000000 3.025990 
# 
# 
# High freq. dielectric constant tensor:
#      x y z
#    x 1.783150 0.000000 -0.003910 
#    y 0.000000 1.736320 0.000000 
#    z -0.003910 0.000000 1.692880 
# 
# From -- ./inp_files/187209.got.cif
#   From: 2010.06.25/outbox.cif.g09.slc.cpg/sg12_94_cif.got.tgz:187209.got - 2010.06.28 00:19:55.
