data_PCOD8080773
_publ_section_title
;
Structure prediction by ZEFSAII (Michael W. Deem and Ramdas Pophale) SiO2 
 PCOD8080773
Probable space group: C 2/M
;
_chemical_formula_sum "Si O2"
_cell_formula_units_Z 64
_cell_length_a 22.684964
_cell_length_b 8.944048
_cell_length_c 27.940457
_cell_angle_alpha 90.000000
_cell_angle_beta 42.507449
_cell_angle_gamma 90.000000
_cell_volume 3830.457754
_symmetry_space_group_name_H-M "C 2/M"
_symmetry_group_IT_number 12
_symmetry_cell_setting 'monoclinic'
loop_
_space_group_symop_operation_xyz
x,y,z
-x,y,-z
-x,-y,-z
x,-y,z
1/2+x,1/2+y,z
1/2-x,1/2+y,-z
1/2-x,1/2-y,-z
1/2+x,1/2-y,z
loop_
_atom_site_type_symbol
_atom_site_label
_atom_site_fract_x
_atom_site_fract_y
_atom_site_fract_z
Si Si1 0.137639 0.822545 0.228746
Si Si2 0.669913 0.671631 0.353333
Si Si3 0.534831 0.175243 0.366641
Si Si4 0.085848 0.331556 0.480949
Si Si5 0.795817 0.328270 0.198984
Si Si6 0.868537 0.825382 0.961465
Si Si7 0.985672 0.672618 0.064521
Si Si8 0.175017 0.674737 0.107755
O O1 0.049853 0.764798 0.308248
O O2 0.222753 0.761005 0.206645
O O3 0.137056 0.759028 0.176102
O O4 0.135116 0.000000 0.229064
O O5 0.638942 0.500000 0.367290
O O6 0.609290 0.779231 0.359098
O O7 0.662358 0.724793 0.413415
O O8 0.766490 0.689602 0.272366
O O9 0.441380 0.213035 0.448131
O O10 0.542026 0.000000 0.351965
O O11 0.121711 0.500000 0.458490
O O12 0.000000 0.315306 0.500000
O O13 0.805411 0.500000 0.178670
O O14 0.890993 0.256639 0.134492
O O15 0.876716 0.735224 0.907211
O O16 0.944048 0.773597 0.951316
O O17 0.876828 0.000000 0.945176
O O18 0.777209 0.788171 0.041807
O O19 0.995097 0.500000 0.075333
O O20 0.000000 0.688631 0.000000
O O21 0.157035 0.500000 0.123852
#
# Coordination Sequence:
#
# PCOD8080773 Si02
#       8
#     8   8   8   8   8   8   8   8
#     4  10  18  29  46  67  91 118 151 188 222 260
#     4   9  15  23  36  54  79 112 150 188 221 258
#     4   9  16  25  36  54  83 115 146 180 220 267
#     4   8  14  23  34  50  76 111 147 181 218 262
#     4   8  16  28  41  62  90 119 151 185 223 268
#     4  10  21  35  50  70  92 114 148 190 225 261
#     4  10  19  32  50  68  90 122 154 183 222 270
#     4  10  20  34  51  68  89 118 148 181 226 273
#
# _framework density 16.708186000000001
#
# number of rings (size 3 to 8) (size 9 to 14) (size 15 to 20)
#    0.000    2.750    0.000    4.125    0.000    5.500 
#    0.000    3.750    0.000    0.000    0.000    0.000 
#    0.000    1.000    0.000    3.000    0.000    6.125 
#
# Total GULP energy -396542.575303 kJ/mol
# GULP energy per Si atom -12391.955478 kJ/mol
# Density = 1.667016 g / cm^3
# Si number density = 16.708186 Si / 1000 Ang^3
#
#
#
# Elastic Constant Matrix: (Units=GPa)
#
#
# Indices 1 2 3 4 5 6 
#
# 1 44.0984 20.1264 29.5581 -0.0010 8.2413 0.0068
# 2 20.1264 65.9047 48.3988 -0.0008 11.8339 0.0075
# 3 29.5581 48.3988 133.8391 0.0006 20.5237 -0.0022
# 4 -0.0010 -0.0008 0.0006 28.8130 -0.0004 5.9661
# 5 8.2413 11.8339 20.5237 -0.0004 18.7691 -0.0002
# 6 0.0068 0.0075 -0.0022 5.9661 -0.0002 19.4732
#
#
#
# Elastic Compliance Matrix: (Units=1/GPa)
#
#
# Indices 1 2 3 4 5 6 
#
# 1 0.028411 -0.005055 -0.003631 0.000003 -0.005317 -0.000009
# 2 -0.005055 0.022105 -0.006104 0.000002 -0.005043 -0.000008
# 3 -0.003631 -0.006104 0.011590 -0.000002 -0.007230 0.000005
# 4 0.000003 0.000002 -0.000002 0.037057 0.000000 -0.011353
# 5 -0.005317 -0.005043 -0.007230 0.000000 0.066700 0.000004
# 6 -0.000009 -0.000008 0.000005 -0.011353 0.000004 0.054831
#
#
# Mechanical properties :
#
#
# Convention : Reuss Voigt Hill
#
# Bulk Modulus (GPa) = 30.74475 48.88986 39.81730
# Shear Modulus (GPa) = 19.14855 23.12832 21.13843
#
# Velocity S-wave (km/s) = 3.38902 3.72459 3.56076
# Velocity P-wave (km/s) = 5.80990 6.91529 6.38656
#
# Compressibility (1/GPa) = 0.03252588
#
# Stress axis : x y z
#
# Youngs Moduli (GPa) = 35.19734 45.23805 86.28409
#
# Poissons Ratio (x) = 0.22868 0.31332
# Poissons Ratio (y) = 0.17792 0.52667
# Poissons Ratio (z) = 0.12781 0.27613
#
# Static dielectric constant tensor:
#      x y z
#    x 2.670840 0.000000 0.107780 
#    y 0.000000 3.135190 0.000000 
#    z 0.107780 0.000000 3.775590 
# 
# 
# High freq. dielectric constant tensor:
#      x y z
#    x 1.576120 0.000000 0.017210 
#    y 0.000000 1.644580 0.000000 
#    z 0.017210 0.000000 1.663980 
# 
# From -- ./inp_files/365195.got.cif
#   From: 2010.06.25/outbox.cif.g09.slc.cpg/sg12_183_cif.got.tgz:365195.got - 2010.06.28 00:19:55.
