data_PCOD8080300
_publ_section_title
;
Structure prediction by ZEFSAII (Michael W. Deem and Ramdas Pophale) SiO2 
 PCOD8080300
Probable space group: C 2/M
;
_chemical_formula_sum "Si O2"
_cell_formula_units_Z 64
_cell_length_a 21.460705
_cell_length_b 13.105849
_cell_length_c 17.569089
_cell_angle_alpha 90.000000
_cell_angle_beta 123.080233
_cell_angle_gamma 90.000000
_cell_volume 4140.513864
_symmetry_space_group_name_H-M "C 2/M"
_symmetry_group_IT_number 12
_symmetry_cell_setting 'monoclinic'
loop_
_space_group_symop_operation_xyz
x,y,z
-x,y,-z
-x,-y,-z
x,-y,z
1/2+x,1/2+y,z
1/2-x,1/2+y,-z
1/2-x,1/2-y,-z
1/2+x,1/2-y,z
loop_
_atom_site_type_symbol
_atom_site_label
_atom_site_fract_x
_atom_site_fract_y
_atom_site_fract_z
Si Si1 0.800320 0.772668 0.462655
Si Si2 0.327897 0.119014 0.693630
Si Si3 0.655479 0.706984 0.183621
Si Si4 0.804316 0.382065 0.333537
Si Si5 0.472444 0.618211 0.802215
Si Si6 0.931999 0.737449 0.646453
Si Si7 0.031862 0.381982 0.600783
Si Si8 0.426232 0.387378 0.998862
O O1 0.750000 0.750000 0.500000
O O2 0.759180 0.861775 0.386816
O O3 0.807545 0.670861 0.417657
O O4 0.881888 0.798744 0.550505
O O5 0.345743 0.176968 0.785396
O O6 0.381687 0.161053 0.663362
O O7 0.342002 0.000000 0.716055
O O8 0.738334 0.663004 0.238882
O O9 0.604029 0.638151 0.203649
O O10 0.626940 0.696691 0.077092
O O11 0.791217 0.500000 0.342249
O O12 0.879865 0.363660 0.337144
O O13 0.476114 0.500000 0.784294
O O14 0.474257 0.680296 0.725588
O O15 0.546118 0.650726 0.899700
O O16 0.996067 0.674763 0.647952
O O17 0.010391 0.500000 0.593803
O O18 0.000000 0.338746 0.500000
O O19 0.387419 0.500000 0.977807
O O20 0.500000 0.401577 0.000000
#
# Coordination Sequence:
#
# PCOD8080300 Si02
#       8
#     8   8   8   8   8   8   8   8
#     4   9  18  27  39  62  85 113 143 176 218 261
#     4   9  18  29  42  63  91 121 148 176 220 271
#     4   9  16  27  46  70  93 114 141 182 226 266
#     4  10  18  28  44  67  90 112 147 187 223 258
#     4   9  17  28  46  71  93 116 143 176 226 273
#     4  10  18  30  45  62  89 119 151 187 216 259
#     4  10  19  30  46  64  85 120 156 189 221 250
#     4   8  13  24  44  69  94 114 136 174 224 271
#
# _framework density 15.457019000000001
#
# number of rings (size 3 to 8) (size 9 to 14) (size 15 to 20)
#    0.000    2.750    1.250    3.000    0.000    2.500 
#    0.000    0.000    0.000   14.250    0.000    0.000 
#    0.000    0.000    0.000    0.000    0.000    0.000 
#
# Total GULP energy -396543.948439 kJ/mol
# GULP energy per Si atom -12391.998389 kJ/mol
# Density = 1.542184 g / cm^3
# Si number density = 15.457019 Si / 1000 Ang^3
#
#
#
# Elastic Constant Matrix: (Units=GPa)
#
#
# Indices 1 2 3 4 5 6 
#
# 1 58.7600 35.9407 32.6457 0.0000 3.4264 0.0000
# 2 35.9407 98.9121 64.5413 0.0000 -3.9984 0.0000
# 3 32.6457 64.5413 130.1099 0.0000 3.4387 0.0000
# 4 0.0000 0.0000 0.0000 17.3060 0.0000 -1.1876
# 5 3.4264 -3.9984 3.4387 0.0000 9.9731 0.0000
# 6 0.0000 0.0000 0.0000 -1.1876 0.0000 20.4274
#
#
#
# Elastic Compliance Matrix: (Units=1/GPa)
#
#
# Indices 1 2 3 4 5 6 
#
# 1 0.023354 -0.007794 -0.001714 0.000000 -0.010557 0.000000
# 2 -0.007794 0.018323 -0.007467 0.000000 0.012598 0.000000
# 3 -0.001714 -0.007467 0.011993 0.000000 -0.006540 0.000000
# 4 0.000000 0.000000 0.000000 0.058015 0.000000 0.003373
# 5 -0.010557 0.012598 -0.006540 0.000000 0.111203 0.000000
# 6 0.000000 0.000000 0.000000 0.003373 0.000000 0.049150
#
#
# Mechanical properties :
#
#
# Convention : Reuss Voigt Hill
#
# Bulk Modulus (GPa) = 50.71095 61.55971 56.13533
# Shear Modulus (GPa) = 15.99689 19.85157 17.92423
#
# Velocity S-wave (km/s) = 3.22052 3.58761 3.40901
# Velocity P-wave (km/s) = 6.83432 7.55474 7.20354
#
# Compressibility (1/GPa) = 0.01971961
#
# Stress axis : x y z
#
# Youngs Moduli (GPa) = 42.81989 54.57511 83.38378
#
# Poissons Ratio (x) = 0.42535 0.14296
# Poissons Ratio (y) = 0.33373 0.62261
# Poissons Ratio (z) = 0.07341 0.40750
#
# Static dielectric constant tensor:
#      x y z
#    x 2.716720 0.000000 0.128780 
#    y 0.000000 2.790630 0.000000 
#    z 0.128780 0.000000 3.393150 
# 
# 
# High freq. dielectric constant tensor:
#      x y z
#    x 1.560250 0.000000 0.009720 
#    y 0.000000 1.572960 0.000000 
#    z 0.009720 0.000000 1.599800 
# 
# From -- ./inp_files/324777.got.cif
#   From: 2010.06.25/outbox.cif.g09.slc.cpg/sg12_163_cif.got.tgz:324777.got - 2010.06.28 00:19:55.
