data_PCOD8080690
_publ_section_title
;
Structure prediction by ZEFSAII (Michael W. Deem and Ramdas Pophale) SiO2 
 PCOD8080690
Probable space group: C 2/M
;
_chemical_formula_sum "Si O2"
_cell_formula_units_Z 64
_cell_length_a 27.855437
_cell_length_b 9.063820
_cell_length_c 21.831816
_cell_angle_alpha 90.000000
_cell_angle_beta 132.428993
_cell_angle_gamma 90.000000
_cell_volume 4068.502369
_symmetry_space_group_name_H-M "C 2/M"
_symmetry_group_IT_number 12
_symmetry_cell_setting 'monoclinic'
loop_
_space_group_symop_operation_xyz
x,y,z
-x,y,-z
-x,-y,-z
x,-y,z
1/2+x,1/2+y,z
1/2-x,1/2+y,-z
1/2-x,1/2-y,-z
1/2+x,1/2-y,z
loop_
_atom_site_type_symbol
_atom_site_label
_atom_site_fract_x
_atom_site_fract_y
_atom_site_fract_z
Si Si1 0.658560 0.162983 0.954734
Si Si2 0.959237 0.675428 0.224601
Si Si3 0.621784 0.670628 0.742709
Si Si4 0.274875 0.668122 0.579435
Si Si5 0.355948 0.827111 0.483188
Si Si6 0.236277 0.336109 0.895808
Si Si7 0.074561 0.830759 0.565171
Si Si8 0.092112 0.826089 0.350005
O O1 0.586883 0.217756 0.872820
O O2 0.701719 0.157543 0.931176
O O3 0.654770 0.000000 0.980620
O O4 0.691105 0.269967 0.032992
O O5 0.963073 0.500000 0.236319
O O6 0.931291 0.742802 0.263154
O O7 0.029009 0.743967 0.270159
O O8 0.621381 0.500000 0.762278
O O9 0.694199 0.735128 0.814016
O O10 0.603357 0.692033 0.656842
O O11 0.270320 0.500000 0.556684
O O12 0.250000 0.750000 0.500000
O O13 0.223068 0.701677 0.589213
O O14 0.351648 0.706473 0.653404
O O15 0.385082 0.772661 0.444936
O O16 0.388009 0.738509 0.566871
O O17 0.371241 0.000000 0.505288
O O18 0.242771 0.500000 0.873403
O O19 0.000000 0.779531 0.500000
O O20 0.080525 0.000000 0.548602
O O21 0.078130 0.000000 0.345540
#
# Coordination Sequence:
#
# PCOD8080690 Si02
#       8
#     8   8   8   8   8   8   8   8
#     4   8  15  26  39  57  82 110 137 169 209 250
#     4  10  19  29  42  63  89 113 142 177 210 249
#     4  10  19  30  44  60  83 116 148 178 214 253
#     4   8  16  29  44  63  83 106 137 172 211 253
#     4  10  19  31  47  64  83 109 144 183 216 246
#     4   9  16  26  41  59  80 107 142 179 208 244
#     4  10  21  34  45  60  84 114 148 181 213 250
#     4  10  18  29  45  63  87 115 140 169 210 259
#
# _framework density 15.730604
#
# number of rings (size 3 to 8) (size 9 to 14) (size 15 to 20)
#    0.000    2.625    0.000    3.375    0.000    6.750 
#    0.000    0.000    0.000    0.000    0.000    0.000 
#    0.000    1.000    0.000   11.250    0.000    5.250 
#
# Total GULP energy -396525.333502 kJ/mol
# GULP energy per Si atom -12391.416672 kJ/mol
# Density = 1.569480 g / cm^3
# Si number density = 15.730604 Si / 1000 Ang^3
#
#
#
# Elastic Constant Matrix: (Units=GPa)
#
#
# Indices 1 2 3 4 5 6 
#
# 1 89.5815 47.4313 47.9823 0.0000 24.2819 0.0000
# 2 47.4313 92.6211 50.2436 0.0000 17.6765 0.0001
# 3 47.9823 50.2436 92.7132 0.0000 27.8574 0.0000
# 4 0.0000 0.0000 0.0000 25.7443 0.0000 4.5637
# 5 24.2819 17.6765 27.8574 0.0000 23.0311 0.0000
# 6 0.0000 0.0001 0.0000 4.5637 0.0000 17.8425
#
#
#
# Elastic Compliance Matrix: (Units=1/GPa)
#
#
# Indices 1 2 3 4 5 6 
#
# 1 0.019179 -0.005816 -0.003204 0.000000 -0.011882 0.000000
# 2 -0.005816 0.017163 -0.006559 0.000000 0.000893 0.000000
# 3 -0.003204 -0.006559 0.021162 0.000000 -0.017185 0.000000
# 4 0.000000 0.000000 0.000000 0.040688 0.000000 -0.010407
# 5 -0.011882 0.000893 -0.017185 0.000000 0.076047 0.000000
# 6 0.000000 0.000000 0.000000 -0.010407 0.000000 0.058708
#
#
# Mechanical properties :
#
#
# Convention : Reuss Voigt Hill
#
# Bulk Modulus (GPa) = 37.95721 62.91449 50.43585
# Shear Modulus (GPa) = 18.32253 21.94081 20.13167
#
# Velocity S-wave (km/s) = 3.41658 3.73873 3.58128
# Velocity P-wave (km/s) = 6.30443 7.66285 7.01659
#
# Compressibility (1/GPa) = 0.02634545
#
# Stress axis : x y z
#
# Youngs Moduli (GPa) = 52.13957 58.26545 47.25387
#
# Poissons Ratio (x) = 0.33888 0.15140
# Poissons Ratio (y) = 0.30325 0.30996
# Poissons Ratio (z) = 0.16706 0.38218
#
# Static dielectric constant tensor:
#      x y z
#    x 3.181740 0.000000 0.434770 
#    y 0.000000 3.207640 0.000000 
#    z 0.434770 0.000000 2.999550 
# 
# 
# High freq. dielectric constant tensor:
#      x y z
#    x 1.570890 0.000000 0.033320 
#    y 0.000000 1.621560 0.000000 
#    z 0.033320 0.000000 1.586550 
# 
# From -- ./inp_files/326960.got.cif
#   From: 2010.06.25/outbox.cif.g09.slc.cpg/sg12_164_cif.got.tgz:326960.got - 2010.06.28 00:19:55.
