data_PCOD8080970
_publ_section_title
;
Structure prediction by ZEFSAII (Michael W. Deem and Ramdas Pophale) SiO2 
 PCOD8080970
Probable space group: C 2/M
;
_chemical_formula_sum "Si O2"
_cell_formula_units_Z 56
_cell_length_a 14.003390
_cell_length_b 21.748535
_cell_length_c 12.254480
_cell_angle_alpha 90.000000
_cell_angle_beta 71.996370
_cell_angle_gamma 90.000000
_cell_volume 3549.404241
_symmetry_space_group_name_H-M "C 2/M"
_symmetry_group_IT_number 12
_symmetry_cell_setting 'monoclinic'
loop_
_space_group_symop_operation_xyz
x,y,z
-x,y,-z
-x,-y,-z
x,-y,z
1/2+x,1/2+y,z
1/2-x,1/2+y,-z
1/2-x,1/2-y,-z
1/2+x,1/2-y,z
loop_
_atom_site_type_symbol
_atom_site_label
_atom_site_fract_x
_atom_site_fract_y
_atom_site_fract_z
Si Si1 0.623740 0.747798 0.168529
Si Si2 0.682424 0.183848 0.928384
Si Si3 0.575876 0.175038 0.561396
Si Si4 0.565348 0.072612 0.292374
Si Si5 0.900506 0.756830 0.238790
Si Si6 0.794970 0.333622 0.678936
Si Si7 0.597201 0.934074 0.036169
O O1 0.702455 0.692336 0.147658
O O2 0.513921 0.717483 0.194975
O O3 0.631040 0.789268 0.275324
O O4 0.653198 0.787512 0.053840
O O5 0.611554 0.211967 0.860138
O O6 0.670875 0.111276 0.946242
O O7 0.500000 0.206303 0.500000
O O8 0.525556 0.110224 0.617410
O O9 0.610046 0.217981 0.647731
O O10 0.680179 0.166934 0.458467
O O11 0.675688 0.097166 0.292805
O O12 0.560094 0.088812 0.166901
O O13 0.553977 0.000000 0.321873
O O14 0.820966 0.813446 0.261727
O O15 0.653006 0.000000 0.027970
O O16 0.500000 0.942162 0.000000
#
# Coordination Sequence:
#
# PCOD8080970 Si02
#       7
#     8   8   8   8   8   8   8
#     4  10  18  31  46  70  94 125 160 196 241 287
#     4  10  19  29  48  69  96 123 158 198 241 287
#     4  10  18  31  48  67 100 127 158 197 241 291
#     4  10  19  32  50  72 101 131 162 200 244 294
#     4  11  19  31  49  69  99 128 160 200 238 291
#     4  10  20  31  47  71  97 130 161 195 243 287
#     4  10  18  29  48  71  97 127 158 196 244 292
#
# _framework density 15.777295000000001
#
# number of rings (size 3 to 8) (size 9 to 14) (size 15 to 20)
#    0.000    1.857    4.286    2.571    0.000    2.571 
#    0.000    0.000    0.000    0.857    0.000    2.000 
#    0.000    0.571    0.000    1.143    0.000    0.000 
#
# Total GULP energy -346871.823655 kJ/mol
# GULP energy per Si atom -12388.279416 kJ/mol
# Density = 1.574139 g / cm^3
# Si number density = 15.777295 Si / 1000 Ang^3
#
#
#
# Elastic Constant Matrix: (Units=GPa)
#
#
# Indices 1 2 3 4 5 6 
#
# 1 87.9584 30.1134 23.9229 0.0000 -9.7039 0.0000
# 2 30.1134 67.0041 37.7515 0.0000 -6.6234 0.0000
# 3 23.9229 37.7515 87.5355 0.0000 2.1047 0.0000
# 4 0.0000 0.0000 0.0000 14.8212 0.0000 9.5043
# 5 -9.7039 -6.6234 2.1047 0.0000 25.0483 0.0000
# 6 0.0000 0.0000 0.0000 9.5043 0.0000 26.9946
#
#
#
# Elastic Compliance Matrix: (Units=1/GPa)
#
#
# Indices 1 2 3 4 5 6 
#
# 1 0.013998 -0.004824 -0.001848 0.000000 0.004303 0.000000
# 2 -0.004824 0.022301 -0.008413 0.000000 0.004735 0.000000
# 3 -0.001848 -0.008413 0.015660 0.000000 -0.004257 0.000000
# 4 0.000000 0.000000 0.000000 0.087146 0.000000 -0.030683
# 5 0.004303 0.004735 -0.004257 0.000000 0.043199 0.000000
# 6 0.000000 0.000000 0.000000 -0.030683 0.000000 0.047847
#
#
# Mechanical properties :
#
#
# Convention : Reuss Voigt Hill
#
# Bulk Modulus (GPa) = 45.89904 47.34150 46.62027
# Shear Modulus (GPa) = 18.68559 23.42016 21.05288
#
# Velocity S-wave (km/s) = 3.44515 3.85700 3.65688
# Velocity P-wave (km/s) = 6.70674 7.06445 6.88792
#
# Compressibility (1/GPa) = 0.02178695
#
# Stress axis : x y z
#
# Youngs Moduli (GPa) = 71.43833 44.84152 63.85801
#
# Poissons Ratio (x) = 0.21633 0.11804
# Poissons Ratio (y) = 0.34464 0.53724
# Poissons Ratio (z) = 0.13205 0.37725
#
# Static dielectric constant tensor:
#      x y z
#    x 3.006140 0.000000 0.091010 
#    y 0.000000 3.160920 0.000000 
#    z 0.091010 0.000000 3.251510 
# 
# 
# High freq. dielectric constant tensor:
#      x y z
#    x 1.590940 0.000000 0.012390 
#    y 0.000000 1.576660 0.000000 
#    z 0.012390 0.000000 1.628970 
# 
# From -- ./inp_files/147076.got.cif
#   From: 2010.06.25/outbox.cif.g09.slc.cpg/sg12_74_cif.got.tgz:147076.got - 2010.06.28 00:19:55.
