data_PCOD8080463
_publ_section_title
;
Structure prediction by ZEFSAII (Michael W. Deem and Ramdas Pophale) SiO2 
 PCOD8080463
Probable space group: C 2/M
;
_chemical_formula_sum "Si O2"
_cell_formula_units_Z 64
_cell_length_a 20.872970
_cell_length_b 8.894443
_cell_length_c 24.568900
_cell_angle_alpha 90.000000
_cell_angle_beta 48.028171
_cell_angle_gamma 90.000000
_cell_volume 3391.207363
_symmetry_space_group_name_H-M "C 2/M"
_symmetry_group_IT_number 12
_symmetry_cell_setting 'monoclinic'
loop_
_space_group_symop_operation_xyz
x,y,z
-x,y,-z
-x,-y,-z
x,-y,z
1/2+x,1/2+y,z
1/2-x,1/2+y,-z
1/2-x,1/2-y,-z
1/2+x,1/2-y,z
loop_
_atom_site_type_symbol
_atom_site_label
_atom_site_fract_x
_atom_site_fract_y
_atom_site_fract_z
Si Si1 0.013432 0.824420 0.840925
Si Si2 0.676700 0.820860 0.299706
Si Si3 0.414946 0.165239 0.808718
Si Si4 0.500031 0.169534 0.643372
Si Si5 0.312656 0.321339 0.308293
Si Si6 0.172112 0.178261 0.576411
Si Si7 0.239622 0.825911 0.856862
Si Si8 0.928811 0.830961 0.995341
O O1 0.951292 0.796348 0.825472
O O2 0.107831 0.757021 0.772959
O O3 0.024456 0.000000 0.845246
O O4 0.969800 0.748420 0.919035
O O5 0.575869 0.768008 0.354252
O O6 0.723003 0.770524 0.329904
O O7 0.731924 0.753940 0.217388
O O8 0.674904 0.000000 0.294477
O O9 0.459963 0.170867 0.725374
O O10 0.313976 0.194812 0.859079
O O11 0.430608 0.000000 0.825967
O O12 0.584052 0.274246 0.595985
O O13 0.527675 0.000000 0.610915
O O14 0.317806 0.500000 0.307396
O O15 0.321151 0.259970 0.365173
O O16 0.250000 0.250000 0.500000
O O17 0.179154 0.000000 0.570811
O O18 0.155140 0.747314 0.931562
O O19 0.217916 0.000000 0.857918
O O20 0.901670 0.000000 0.993491
O O21 0.000000 0.833818 0.000000
#
# Coordination Sequence:
#
# PCOD8080463 Si02
#       8
#     8   8   8   8   8   8   8   8
#     4  10  18  28  46  72  98 125 164 210 250 288
#     4   8  14  27  50  75  99 129 168 210 246 286
#     4   9  17  29  46  68  96 130 164 197 240 296
#     4   9  17  32  54  77  99 129 167 203 243 294
#     4   9  17  30  49  75 101 126 163 210 251 286
#     4  11  22  36  55  78 105 133 160 198 247 299
#     4   8  14  25  41  65  97 130 163 201 247 293
#     4   9  16  25  40  65  96 127 161 208 258 291
#
# _framework density 18.872336000000001
#
# number of rings (size 3 to 8) (size 9 to 14) (size 15 to 20)
#    0.000    2.875    1.250    2.625    0.000    3.500 
#    0.000    0.625    0.000    6.375    0.000    3.500 
#    0.000    0.000    0.000    0.000    0.000    0.000 
#
# Total GULP energy -396463.088471 kJ/mol
# GULP energy per Si atom -12389.471515 kJ/mol
# Density = 1.882938 g / cm^3
# Si number density = 18.872336 Si / 1000 Ang^3
#
#
#
# Elastic Constant Matrix: (Units=GPa)
#
#
# Indices 1 2 3 4 5 6 
#
# 1 125.0741 17.4078 59.4155 -0.0004 -19.0779 0.0017
# 2 17.4078 20.9788 19.0566 -0.0008 -5.6668 0.0035
# 3 59.4155 19.0566 98.4533 0.0000 -23.9744 0.0001
# 4 -0.0004 -0.0008 0.0000 -13.8845 -0.0001 10.4311
# 5 -19.0779 -5.6668 -23.9744 -0.0001 29.7045 0.0002
# 6 0.0017 0.0035 0.0001 10.4311 0.0002 17.4508
#
#
#
# Elastic Compliance Matrix: (Units=1/GPa)
#
#
# Indices 1 2 3 4 5 6 
#
# 1 0.011569 -0.003830 -0.005737 0.000000 0.002070 0.000000
# 2 -0.003830 0.059252 -0.008717 -0.000008 0.001808 -0.000007
# 3 -0.005737 -0.008717 0.017430 0.000001 0.008720 0.000001
# 4 0.000000 -0.000008 0.000001 -0.049703 -0.000001 0.029709
# 5 0.002070 0.001808 0.008720 -0.000001 0.042377 -0.000001
# 6 0.000000 -0.000007 0.000001 0.029709 -0.000001 0.039545
#
#
# Mechanical properties :
#
#
# Convention : Reuss Voigt Hill
#
# Bulk Modulus (GPa) = 19.34839 48.47402 33.91120
# Shear Modulus (GPa) = 28.69174 16.56257 22.62715
#
# Velocity S-wave (km/s) = 3.90334 2.96566 3.46636
# Velocity P-wave (km/s) = 5.53076 6.12110 5.83340
#
# Compressibility (1/GPa) = 0.05168389
#
# Stress axis : x y z
#
# Youngs Moduli (GPa) = 86.43725 16.87701 57.37294
#
# Poissons Ratio (x) = 0.06464 0.32912
# Poissons Ratio (y) = 0.33104 0.50014
# Poissons Ratio (z) = 0.49585 0.14712
#
# Static dielectric constant tensor:
#      x y z
#    x 3.893370 0.000000 -0.126770 
#    y 0.000000 3.042250 0.000000 
#    z -0.126770 0.000000 3.608230 
# 
# 
# High freq. dielectric constant tensor:
#      x y z
#    x 1.744600 0.000000 -0.011310 
#    y 0.000000 1.664480 0.000000 
#    z -0.011310 0.000000 1.728390 
# 
# From -- ./inp_files/346652.got.cif
#   From: 2010.06.25/outbox.cif.g09.slc.cpg/sg12_174_cif.got.tgz:346652.got - 2010.06.28 00:19:55.
