data_PCOD8080943
_publ_section_title
;
Structure prediction by ZEFSAII (Michael W. Deem and Ramdas Pophale) SiO2 
 PCOD8080943
Probable space group: C 2/M
;
_chemical_formula_sum "Si O2"
_cell_formula_units_Z 64
_cell_length_a 28.636344
_cell_length_b 8.709780
_cell_length_c 13.201167
_cell_angle_alpha 90.000000
_cell_angle_beta 58.527075
_cell_angle_gamma 90.000000
_cell_volume 2808.203415
_symmetry_space_group_name_H-M "C 2/M"
_symmetry_group_IT_number 12
_symmetry_cell_setting 'monoclinic'
loop_
_space_group_symop_operation_xyz
x,y,z
-x,y,-z
-x,-y,-z
x,-y,z
1/2+x,1/2+y,z
1/2-x,1/2+y,-z
1/2-x,1/2-y,-z
1/2+x,1/2-y,z
loop_
_atom_site_type_symbol
_atom_site_label
_atom_site_fract_x
_atom_site_fract_y
_atom_site_fract_z
Si Si1 0.233048 0.182361 0.200198
Si Si2 0.463791 0.320128 0.637196
Si Si3 0.642246 0.666100 0.460304
Si Si4 0.049254 0.679771 0.672067
Si Si5 0.851860 0.819080 0.045996
Si Si6 0.698749 0.666498 0.601221
Si Si7 0.356398 0.818192 0.826626
Si Si8 0.392252 0.821463 0.189465
O O1 0.193652 0.232304 0.338684
O O2 0.291066 0.264806 0.147167
O O3 0.202025 0.242631 0.135139
O O4 0.242340 0.000000 0.183870
O O5 0.500000 0.270611 0.500000
O O6 0.455967 0.500000 0.654007
O O7 0.492413 0.261856 0.708440
O O8 0.403557 0.243184 0.696397
O O9 0.622650 0.500000 0.435566
O O10 0.591534 0.781901 0.531874
O O11 0.659061 0.631122 0.554658
O O12 0.040204 0.500000 0.682995
O O13 0.067481 0.732793 0.765115
O O14 0.898060 0.773156 0.078042
O O15 0.852554 0.000000 0.028164
O O16 0.870884 0.733408 0.923249
O O17 0.711954 0.500000 0.638455
O O18 0.750000 0.750000 0.500000
O O19 0.670493 0.785850 0.709098
O O20 0.351996 0.000000 0.824133
O O21 0.399736 0.000000 0.158116
#
# Coordination Sequence:
#
# PCOD8080943 Si02
#       8
#     8   8   8   8   8   8   8   8
#     4  11  22  39  62  90 126 166 208 255 310 367
#     4  11  24  43  68  97 129 163 200 248 307 366
#     4   9  19  33  52  80 117 158 197 242 296 355
#     4  10  21  37  61  92 126 163 205 256 310 366
#     4  12  25  42  64  90 121 162 211 257 308 368
#     4  10  18  29  47  75 111 153 200 247 297 353
#     4  12  26  44  65  91 124 160 204 257 309 366
#     4  10  21  38  58  84 120 161 205 254 309 366
#
# _framework density 22.790372000000001
#
# number of rings (size 3 to 8) (size 9 to 14) (size 15 to 20)
#    0.000    1.375    0.000    6.000    0.000    8.000 
#    0.000    0.625    0.000    3.750    0.000    0.000 
#    0.000    0.000    0.000    0.000    0.000    0.000 
#
# Total GULP energy -396624.578239 kJ/mol
# GULP energy per Si atom -12394.518070 kJ/mol
# Density = 2.273850 g / cm^3
# Si number density = 22.790372 Si / 1000 Ang^3
#
#
#
# Elastic Constant Matrix: (Units=GPa)
#
#
# Indices 1 2 3 4 5 6 
#
# 1 88.3300 30.6239 13.6531 0.0000 5.3571 0.0000
# 2 30.6239 95.5811 9.9654 0.0000 1.1904 0.0000
# 3 13.6531 9.9654 57.2638 0.0000 9.3965 0.0000
# 4 0.0000 0.0000 0.0000 34.6106 0.0000 0.3688
# 5 5.3571 1.1904 9.3965 0.0000 32.3204 0.0000
# 6 0.0000 0.0000 0.0000 0.3688 0.0000 31.3643
#
#
#
# Elastic Compliance Matrix: (Units=1/GPa)
#
#
# Indices 1 2 3 4 5 6 
#
# 1 0.013118 -0.003955 -0.002212 0.000000 -0.001386 0.000000
# 2 -0.003955 0.011849 -0.001213 0.000000 0.000572 0.000000
# 3 -0.002212 -0.001213 0.019042 0.000000 -0.005125 0.000000
# 4 0.000000 0.000000 0.000000 0.028896 0.000000 -0.000340
# 5 -0.001386 0.000572 -0.005125 0.000000 0.032639 0.000000
# 6 0.000000 0.000000 0.000000 -0.000340 0.000000 0.031887
#
#
# Mechanical properties :
#
#
# Convention : Reuss Voigt Hill
#
# Bulk Modulus (GPa) = 34.18858 38.85107 36.51982
# Shear Modulus (GPa) = 30.87516 32.12123 31.49819
#
# Velocity S-wave (km/s) = 3.68468 3.75830 3.72167
# Velocity P-wave (km/s) = 5.75642 5.99310 5.87595
#
# Compressibility (1/GPa) = 0.02924954
#
# Stress axis : x y z
#
# Youngs Moduli (GPa) = 76.22883 84.39613 52.51423
#
# Poissons Ratio (x) = 0.33380 0.11617
# Poissons Ratio (y) = 0.30150 0.06369
# Poissons Ratio (z) = 0.16862 0.10236
#
# Static dielectric constant tensor:
#      x y z
#    x 4.526630 0.000000 0.297820 
#    y 0.000000 4.079420 0.000000 
#    z 0.297820 0.000000 4.037940 
# 
# 
# High freq. dielectric constant tensor:
#      x y z
#    x 1.906790 0.000000 0.015950 
#    y 0.000000 1.901490 0.000000 
#    z 0.015950 0.000000 1.885560 
# 
# From -- ./inp_files/249787.got.cif
#   From: 2010.06.25/outbox.cif.g09.slc.cpg/sg12_125_cif.got.tgz:249787.got - 2010.06.28 00:19:55.
