data_PCOD8080489
_publ_section_title
;
Structure prediction by ZEFSAII (Michael W. Deem and Ramdas Pophale) SiO2 
 PCOD8080489
Probable space group: C 2/M
;
_chemical_formula_sum "Si O2"
_cell_formula_units_Z 44
_cell_length_a 14.072538
_cell_length_b 18.813527
_cell_length_c 11.429237
_cell_angle_alpha 90.000000
_cell_angle_beta 44.305705
_cell_angle_gamma 90.000000
_cell_volume 2113.576316
_symmetry_space_group_name_H-M "C 2/M"
_symmetry_group_IT_number 12
_symmetry_cell_setting 'monoclinic'
loop_
_space_group_symop_operation_xyz
x,y,z
-x,y,-z
-x,-y,-z
x,-y,z
1/2+x,1/2+y,z
1/2-x,1/2+y,-z
1/2-x,1/2-y,-z
1/2+x,1/2-y,z
loop_
_atom_site_type_symbol
_atom_site_label
_atom_site_fract_x
_atom_site_fract_y
_atom_site_fract_z
Si Si1 0.029714 0.238698 0.183077
Si Si2 0.939604 0.626900 0.367747
Si Si3 0.237415 0.203703 0.174193
Si Si4 0.636081 0.921333 0.810389
Si Si5 0.500000 0.643113 0.000000
Si Si6 0.206840 0.364078 0.268452
O O1 0.104108 0.188457 0.212702
O O2 0.923591 0.290711 0.341092
O O3 0.135426 0.291846 0.025803
O O4 0.957698 0.190392 0.149807
O O5 0.895622 0.577188 0.299881
O O6 0.837956 0.610961 0.563855
O O7 0.095428 0.610764 0.271371
O O8 0.254290 0.139073 0.251096
O O9 0.218209 0.278567 0.256949
O O10 0.691288 0.000000 0.794717
O O11 0.500000 0.903492 0.000000
O O12 0.643091 0.601415 0.895733
#
# Coordination Sequence:
#
# PCOD8080489 Si02
#       6
#     8   8   8   8   4   8
#     4   9  16  27  50  74 109 140 170 224 279 315
#     4  10  18  35  52  82 115 141 182 231 273 337
#     4   9  17  31  47  76 109 143 176 221 272 331
#     4  11  22  33  52  82 114 153 184 220 273 334
#     4  10  18  28  46  82 106 140 172 212 284 342
#     4   9  20  31  54  83 112 141 177 231 292 315
#
# _framework density 20.817793999999999
#
# number of rings (size 3 to 8) (size 9 to 14) (size 15 to 20)
#    0.000    2.364    1.818    3.273    1.273    2.909 
#    0.000    1.818    0.000    0.000    0.000   27.364 
#    0.000    0.000    0.000    0.000    0.000    0.000 
#
# Total GULP energy -272583.149752 kJ/mol
# GULP energy per Si atom -12390.143171 kJ/mol
# Density = 2.077041 g / cm^3
# Si number density = 20.817794 Si / 1000 Ang^3
#
#
#
# Elastic Constant Matrix: (Units=GPa)
#
#
# Indices 1 2 3 4 5 6 
#
# 1 112.6114 26.7031 27.9385 0.0018 10.0598 -0.0012
# 2 26.7031 56.7735 -3.1723 0.0008 2.1279 -0.0006
# 3 27.9385 -3.1723 64.4263 0.0012 4.0919 -0.0011
# 4 0.0018 0.0008 0.0012 1.5110 -0.0012 1.4987
# 5 10.0598 2.1279 4.0919 -0.0012 38.2385 0.0010
# 6 -0.0012 -0.0006 -0.0011 1.4987 0.0010 17.0287
#
#
#
# Elastic Compliance Matrix: (Units=1/GPa)
#
#
# Indices 1 2 3 4 5 6 
#
# 1 0.011733 -0.005728 -0.005230 -0.000010 -0.002208 0.000001
# 2 -0.005728 0.020504 0.003494 -0.000008 -0.000008 0.000001
# 3 -0.005230 0.003494 0.018009 -0.000013 -0.000746 0.000002
# 4 -0.000010 -0.000008 -0.000013 0.725129 0.000029 -0.063818
# 5 -0.002208 -0.000008 -0.000746 0.000029 0.026813 -0.000004
# 6 0.000001 0.000001 0.000002 -0.063818 -0.000004 0.064341
#
#
# Mechanical properties :
#
#
# Convention : Reuss Voigt Hill
#
# Bulk Modulus (GPa) = 28.31422 37.41663 32.86542
# Shear Modulus (GPa) = 5.59767 23.51177 14.55472
#
# Velocity S-wave (km/s) = 1.64156 3.36431 2.64701
# Velocity P-wave (km/s) = 4.15012 5.75360 5.01634
#
# Compressibility (1/GPa) = 0.03531795
#
# Stress axis : x y z
#
# Youngs Moduli (GPa) = 85.22847 48.77197 55.52784
#
# Poissons Ratio (x) = 0.27937 0.29040
# Poissons Ratio (y) = 0.48820 -0.19402
# Poissons Ratio (z) = 0.44574 -0.17041
#
# Static dielectric constant tensor:
#      x y z
#    x 4.048420 0.000000 0.090640 
#    y 0.000000 3.150700 0.000000 
#    z 0.090640 0.000000 3.664600 
# 
# 
# High freq. dielectric constant tensor:
#      x y z
#    x 1.830850 0.000000 0.019370 
#    y 0.000000 1.751490 0.000000 
#    z 0.019370 0.000000 1.795990 
# 
# From -- ./inp_files/145336.got.cif
#   From: 2010.06.25/outbox.cif.g09.slc.cpg/sg12_73_cif.got.tgz:145336.got - 2010.06.28 00:19:55.
