data_PCOD8080450
_publ_section_title
;
Structure prediction by ZEFSAII (Michael W. Deem and Ramdas Pophale) SiO2 
 PCOD8080450
Probable space group: C 2/M
;
_chemical_formula_sum "Si O2"
_cell_formula_units_Z 48
_cell_length_a 27.845963
_cell_length_b 8.819322
_cell_length_c 26.286259
_cell_angle_alpha 90.000000
_cell_angle_beta 154.392709
_cell_angle_gamma 90.000000
_cell_volume 2790.046838
_symmetry_space_group_name_H-M "C 2/M"
_symmetry_group_IT_number 12
_symmetry_cell_setting 'monoclinic'
loop_
_space_group_symop_operation_xyz
x,y,z
-x,y,-z
-x,-y,-z
x,-y,z
1/2+x,1/2+y,z
1/2-x,1/2+y,-z
1/2-x,1/2-y,-z
1/2+x,1/2-y,z
loop_
_atom_site_type_symbol
_atom_site_label
_atom_site_fract_x
_atom_site_fract_y
_atom_site_fract_z
Si Si1 0.637186 0.321282 0.911489
Si Si2 0.322662 0.174479 0.743907
Si Si3 0.871135 0.828766 0.890408
Si Si4 0.420772 0.825422 0.037927
Si Si5 0.752928 0.824717 0.580322
Si Si6 0.425624 0.825312 0.671434
O O1 0.647566 0.500000 0.919858
O O2 0.612183 0.269373 0.944550
O O3 0.538915 0.269396 0.779759
O O4 0.750000 0.250000 0.000000
O O5 0.302939 0.245937 0.780608
O O6 0.449103 0.195417 0.847314
O O7 0.243720 0.263187 0.628895
O O8 0.287246 0.000000 0.711964
O O9 0.827139 0.000000 0.854309
O O10 0.851249 0.738869 0.923802
O O11 0.000000 0.827055 0.000000
O O12 0.388606 0.000000 0.015187
O O13 0.633462 0.802630 0.439475
O O14 0.845482 0.728315 0.639819
O O15 0.789379 0.000000 0.614569
O O16 0.454128 0.000000 0.709534
#
# Coordination Sequence:
#
# PCOD8080450 Si02
#       6
#     8   8   8   8   8   8
#     4  12  24  37  54  73  98 133 173 212 252 296
#     4  10  18  28  46  71 102 134 165 202 247 299
#     4   9  17  28  44  67  97 130 166 202 244 299
#     4  10  19  32  48  69  99 131 166 207 250 295
#     4  10  19  30  49  73 101 134 166 203 249 300
#     4  10  20  34  49  71 100 131 168 208 250 297
#
# _framework density 17.204011999999999
#
# number of rings (size 3 to 8) (size 9 to 14) (size 15 to 20)
#    0.000    1.833    1.667    4.000    0.000    5.333 
#    0.000    0.000    0.000    0.000    0.000    1.167 
#    0.000    9.333    0.000    0.000    0.000    0.000 
#
# Total GULP energy -297659.137549 kJ/mol
# GULP energy per Si atom -12402.464065 kJ/mol
# Density = 1.716485 g / cm^3
# Si number density = 17.204012 Si / 1000 Ang^3
#
#
#
# Elastic Constant Matrix: (Units=GPa)
#
#
# Indices 1 2 3 4 5 6 
#
# 1 48.4657 45.5457 47.3148 0.0000 -22.5495 0.0000
# 2 45.5457 149.1614 56.4169 0.0000 -15.1875 0.0000
# 3 47.3148 56.4169 88.8178 -0.0002 -22.0731 0.0000
# 4 0.0000 0.0000 -0.0002 28.2475 0.0000 -7.3624
# 5 -22.5495 -15.1875 -22.0731 0.0000 35.9228 0.0000
# 6 0.0000 0.0000 0.0000 -7.3624 0.0000 30.0923
#
#
#
# Elastic Compliance Matrix: (Units=1/GPa)
#
#
# Indices 1 2 3 4 5 6 
#
# 1 0.057380 -0.007637 -0.020733 0.000000 0.020050 0.000000
# 2 -0.007637 0.009844 -0.002764 0.000000 -0.002330 0.000000
# 3 -0.020733 -0.002764 0.024235 0.000000 0.000709 0.000000
# 4 0.000000 0.000000 0.000000 0.037813 0.000000 0.009251
# 5 0.020050 -0.002330 0.000709 0.000000 0.039873 0.000000
# 6 0.000000 0.000000 0.000000 0.009251 0.000000 0.035494
#
#
# Mechanical properties :
#
#
# Convention : Reuss Voigt Hill
#
# Bulk Modulus (GPa) = 34.25683 64.99996 49.62840
# Shear Modulus (GPa) = 18.07413 27.99703 23.03558
#
# Velocity S-wave (km/s) = 3.24478 4.03842 3.66316
# Velocity P-wave (km/s) = 5.83039 7.72069 6.84114
#
# Compressibility (1/GPa) = 0.02919126
#
# Stress axis : x y z
#
# Youngs Moduli (GPa) = 17.42774 101.58313 41.26183
#
# Poissons Ratio (x) = 0.77582 0.85549
# Poissons Ratio (y) = 0.13310 0.11403
# Poissons Ratio (z) = 0.36133 0.28073
#
# Static dielectric constant tensor:
#      x y z
#    x 1.450560 0.000000 -1.924750 
#    y 0.000000 3.453560 0.000000 
#    z -1.924750 0.000000 1.748680 
# 
# 
# High freq. dielectric constant tensor:
#      x y z
#    x 1.636360 0.000000 -0.043180 
#    y 0.000000 1.687730 0.000000 
#    z -0.043180 0.000000 1.641440 
# 
# From -- ./inp_files/179224.got.cif
#   From: 2010.06.25/outbox.cif.g09.slc.cpg/sg12_90_cif.got.tgz:179224.got - 2010.06.28 00:19:55.
