data_PCOD8080520
_publ_section_title
;
Structure prediction by ZEFSAII (Michael W. Deem and Ramdas Pophale) SiO2 
 PCOD8080520
Probable space group: C 2/M
;
_chemical_formula_sum "Si O2"
_cell_formula_units_Z 56
_cell_length_a 28.926622
_cell_length_b 8.623060
_cell_length_c 17.402879
_cell_angle_alpha 90.000000
_cell_angle_beta 50.085131
_cell_angle_gamma 90.000000
_cell_volume 3329.467922
_symmetry_space_group_name_H-M "C 2/M"
_symmetry_group_IT_number 12
_symmetry_cell_setting 'monoclinic'
loop_
_space_group_symop_operation_xyz
x,y,z
-x,y,-z
-x,-y,-z
x,-y,z
1/2+x,1/2+y,z
1/2-x,1/2+y,-z
1/2-x,1/2-y,-z
1/2+x,1/2-y,z
loop_
_atom_site_type_symbol
_atom_site_label
_atom_site_fract_x
_atom_site_fract_y
_atom_site_fract_z
Si Si1 0.968798 0.819738 0.770631
Si Si2 0.795188 0.180492 0.119833
Si Si3 0.515914 0.819168 0.861536
Si Si4 0.657754 0.179979 0.083662
Si Si5 0.596472 0.181355 0.914087
Si Si6 0.041327 0.182423 0.389412
Si Si7 0.824317 0.817949 0.775456
O O1 0.912119 0.716906 0.856046
O O2 0.987756 0.778373 0.662913
O O3 0.021148 0.775791 0.775735
O O4 0.951429 0.000000 0.794629
O O5 0.842638 0.223111 0.135834
O O6 0.727383 0.228643 0.217938
O O7 0.799267 0.000000 0.097178
O O8 0.807312 0.279551 0.030853
O O9 0.573771 0.778998 0.852284
O O10 0.514664 0.000000 0.844212
O O11 0.455247 0.768959 0.970820
O O12 0.683770 0.281921 0.125525
O O13 0.666553 0.000000 0.093773
O O14 0.610274 0.000000 0.908098
O O15 0.109957 0.245429 0.321197
O O16 0.000000 0.259718 0.500000
O O17 0.043875 0.000000 0.399365
O O18 0.818229 0.000000 0.767817
#
# Coordination Sequence:
#
# PCOD8080520 Si02
#       7
#     8   8   8   8   8   8   8
#     4  10  18  28  47  73  97 123 158 194 234 280
#     4  12  22  31  44  66  95 127 160 193 231 272
#     4   9  17  30  47  66  93 127 162 196 232 273
#     4  11  20  31  45  63  93 128 161 194 227 270
#     4   9  18  31  46  65  91 129 166 195 228 270
#     4   8  16  32  52  73  95 119 151 192 234 281
#     4  10  20  33  49  68  91 121 157 193 232 281
#
# _framework density 16.819503000000001
#
# number of rings (size 3 to 8) (size 9 to 14) (size 15 to 20)
#    0.000    2.143    1.429    5.571    0.000    0.571 
#    0.000    1.429    0.000   15.429    0.000    1.000 
#    0.000    0.000    0.000    0.000    0.000    0.000 
#
# Total GULP energy -347125.282530 kJ/mol
# GULP energy per Si atom -12397.331519 kJ/mol
# Density = 1.678122 g / cm^3
# Si number density = 16.819503 Si / 1000 Ang^3
#
#
#
# Elastic Constant Matrix: (Units=GPa)
#
#
# Indices 1 2 3 4 5 6 
#
# 1 125.5766 30.0891 51.1131 0.0000 -1.6882 -0.0001
# 2 30.0891 55.9306 21.3166 0.0003 0.0456 0.0017
# 3 51.1131 21.3166 76.6154 0.0000 3.8978 0.0007
# 4 0.0000 0.0003 0.0000 11.4665 -0.0002 0.0258
# 5 -1.6882 0.0456 3.8978 -0.0002 15.9191 -0.0003
# 6 -0.0001 0.0017 0.0007 0.0258 -0.0003 30.4055
#
#
#
# Elastic Compliance Matrix: (Units=1/GPa)
#
#
# Indices 1 2 3 4 5 6 
#
# 1 0.011704 -0.003653 -0.006942 0.000000 0.002951 0.000000
# 2 -0.003653 0.021168 -0.003473 -0.000001 0.000402 -0.000001
# 3 -0.006942 -0.003473 0.018922 0.000000 -0.005359 0.000000
# 4 0.000000 -0.000001 0.000000 0.087211 0.000001 -0.000074
# 5 0.002951 0.000402 -0.005359 0.000001 0.064442 0.000001
# 6 0.000000 -0.000001 0.000000 -0.000074 0.000001 0.032889
#
#
# Mechanical properties :
#
#
# Convention : Reuss Voigt Hill
#
# Bulk Modulus (GPa) = 42.26828 51.46227 46.86528
# Shear Modulus (GPa) = 18.35828 21.93179 20.14504
#
# Velocity S-wave (km/s) = 3.30735 3.61494 3.46456
# Velocity P-wave (km/s) = 6.30633 6.93448 6.62785
#
# Compressibility (1/GPa) = 0.02365840
#
# Stress axis : x y z
#
# Youngs Moduli (GPa) = 85.44278 47.24159 52.84779
#
# Poissons Ratio (x) = 0.17257 0.36686
# Poissons Ratio (y) = 0.31212 0.18353
# Poissons Ratio (z) = 0.59313 0.16407
#
# Static dielectric constant tensor:
#      x y z
#    x 3.387690 0.000000 -0.050860 
#    y 0.000000 2.988820 0.000000 
#    z -0.050860 0.000000 3.038690 
# 
# 
# High freq. dielectric constant tensor:
#      x y z
#    x 1.655670 0.000000 -0.000810 
#    y 0.000000 1.643570 0.000000 
#    z -0.000810 0.000000 1.595520 
# 
# From -- ./inp_files/291799.got.cif
#   From: 2010.06.25/outbox.cif.g09.slc.cpg/sg12_146_cif.got.tgz:291799.got - 2010.06.28 00:19:55.
