data_PCOD8080783
_publ_section_title
;
Structure prediction by ZEFSAII (Michael W. Deem and Ramdas Pophale) SiO2 
 PCOD8080783
Probable space group: C 2/M
;
_chemical_formula_sum "Si O2"
_cell_formula_units_Z 56
_cell_length_a 20.973073
_cell_length_b 19.626288
_cell_length_c 13.879292
_cell_angle_alpha 90.000000
_cell_angle_beta 35.570596
_cell_angle_gamma 90.000000
_cell_volume 3323.309608
_symmetry_space_group_name_H-M "C 2/M"
_symmetry_group_IT_number 12
_symmetry_cell_setting 'monoclinic'
loop_
_space_group_symop_operation_xyz
x,y,z
-x,y,-z
-x,-y,-z
x,-y,z
1/2+x,1/2+y,z
1/2-x,1/2+y,-z
1/2-x,1/2-y,-z
1/2+x,1/2-y,z
loop_
_atom_site_type_symbol
_atom_site_label
_atom_site_fract_x
_atom_site_fract_y
_atom_site_fract_z
Si Si1 0.894818 0.689251 0.504278
Si Si2 0.176454 0.922856 0.310154
Si Si3 0.073580 0.841487 0.598507
Si Si4 0.731226 0.831013 0.520754
Si Si5 0.142259 0.311585 0.231138
Si Si6 0.881265 0.421783 0.187649
Si Si7 0.333672 0.339769 0.866488
O O1 0.888405 0.768506 0.487466
O O2 0.815922 0.648627 0.526557
O O3 0.848806 0.673651 0.666493
O O4 0.022313 0.666829 0.339455
O O5 0.086692 0.890110 0.490773
O O6 0.297948 0.911924 0.202156
O O7 0.172975 0.895478 0.207118
O O8 0.141465 0.000000 0.346676
O O9 0.150357 0.863393 0.595325
O O10 0.947424 0.844624 0.786676
O O11 0.750000 0.750000 0.500000
O O12 0.643055 0.863447 0.703089
O O13 0.170783 0.232937 0.179841
O O14 0.234160 0.354596 0.062063
O O15 0.873457 0.500000 0.238097
O O16 0.000000 0.406166 0.000000
#
# Coordination Sequence:
#
# PCOD8080783 Si02
#       7
#     8   8   8   8   8   8   8
#     4   9  16  31  48  66  94 127 161 204 249 292
#     4  10  19  30  49  73 100 131 158 195 249 302
#     4   9  17  31  43  67 100 126 155 198 244 300
#     4   9  18  31  49  72 100 131 167 212 254 296
#     4   9  18  29  47  68  91 128 162 201 251 289
#     4   9  19  34  51  75 106 137 169 208 259 313
#     4  10  18  29  46  67  97 126 163 197 240 297
#
# _framework density 16.850671999999999
#
# number of rings (size 3 to 8) (size 9 to 14) (size 15 to 20)
#    0.000    2.714    1.429    0.429    2.000    1.143 
#    0.000    0.714    0.000    0.857    0.000    2.000 
#    0.000    6.571    0.000    0.000    0.000    0.000 
#
# Total GULP energy -346949.928731 kJ/mol
# GULP energy per Si atom -12391.068883 kJ/mol
# Density = 1.681232 g / cm^3
# Si number density = 16.850672 Si / 1000 Ang^3
#
#
#
# Elastic Constant Matrix: (Units=GPa)
#
#
# Indices 1 2 3 4 5 6 
#
# 1 129.5990 25.8127 68.2816 0.0000 9.4390 0.0000
# 2 25.8127 50.5135 37.2919 0.0000 0.9722 0.0000
# 3 68.2816 37.2919 118.7528 0.0000 -6.3773 0.0000
# 4 0.0000 0.0000 0.0000 20.4461 0.0000 1.4212
# 5 9.4390 0.9722 -6.3773 0.0000 21.5115 0.0000
# 6 0.0000 0.0000 0.0000 1.4212 0.0000 17.7673
#
#
#
# Elastic Compliance Matrix: (Units=1/GPa)
#
#
# Indices 1 2 3 4 5 6 
#
# 1 0.012187 -0.000803 -0.007154 0.000000 -0.007432 0.000000
# 2 -0.000803 0.026105 -0.007906 0.000000 -0.003171 0.000000
# 3 -0.007154 -0.007906 0.015451 0.000000 0.008077 0.000000
# 4 0.000000 0.000000 0.000000 0.049183 0.000000 -0.003934
# 5 -0.007432 -0.003171 0.008077 0.000000 0.052286 0.000000
# 6 0.000000 0.000000 0.000000 -0.003934 0.000000 0.056598
#
#
# Mechanical properties :
#
#
# Convention : Reuss Voigt Hill
#
# Bulk Modulus (GPa) = 45.42200 62.40418 53.91309
# Shear Modulus (GPa) = 19.93032 23.11026 21.52029
#
# Velocity S-wave (km/s) = 3.44286 3.70736 3.57756
# Velocity P-wave (km/s) = 6.54359 7.44581 7.00923
#
# Compressibility (1/GPa) = 0.02201576
#
# Stress axis : x y z
#
# Youngs Moduli (GPa) = 82.05740 38.30697 64.72062
#
# Poissons Ratio (x) = 0.03075 0.46302
# Poissons Ratio (y) = 0.06587 0.51171
# Poissons Ratio (z) = 0.58705 0.30287
#
# Static dielectric constant tensor:
#      x y z
#    x 3.638690 0.000000 -0.041450 
#    y 0.000000 2.954990 0.000000 
#    z -0.041450 0.000000 3.268290 
# 
# 
# High freq. dielectric constant tensor:
#      x y z
#    x 1.665460 0.000000 -0.014730 
#    y 0.000000 1.616950 0.000000 
#    z -0.014730 0.000000 1.634400 
# 
# From -- ./inp_files/169383.got.cif
#   From: 2010.06.25/outbox.cif.g09.slc.cpg/sg12_85_cif.got.tgz:169383.got - 2010.06.28 00:19:55.
