data_PCOD8080256
_publ_section_title
;
Structure prediction by ZEFSAII (Michael W. Deem and Ramdas Pophale) SiO2 
 PCOD8080256
Probable space group: C 2/M
;
_chemical_formula_sum "Si O2"
_cell_formula_units_Z 56
_cell_length_a 22.489344
_cell_length_b 8.890358
_cell_length_c 16.682711
_cell_angle_alpha 90.000000
_cell_angle_beta 99.420766
_cell_angle_gamma 90.000000
_cell_volume 3290.526805
_symmetry_space_group_name_H-M "C 2/M"
_symmetry_group_IT_number 12
_symmetry_cell_setting 'monoclinic'
loop_
_space_group_symop_operation_xyz
x,y,z
-x,y,-z
-x,-y,-z
x,-y,z
1/2+x,1/2+y,z
1/2-x,1/2+y,-z
1/2-x,1/2-y,-z
1/2+x,1/2-y,z
loop_
_atom_site_type_symbol
_atom_site_label
_atom_site_fract_x
_atom_site_fract_y
_atom_site_fract_z
Si Si1 0.451428 0.168332 0.596663
Si Si2 0.589258 0.169822 0.574869
Si Si3 0.047274 0.823828 0.078685
Si Si4 0.336824 0.173578 0.963077
Si Si5 0.796399 0.828866 0.109080
Si Si6 0.505027 0.820264 0.232009
Si Si7 0.114497 0.173161 0.734388
O O1 0.521085 0.166971 0.588965
O O2 0.411426 0.243911 0.515967
O O3 0.450140 0.239884 0.685975
O O4 0.426369 0.000000 0.595516
O O5 0.627073 0.267803 0.646747
O O6 0.615261 0.000000 0.579450
O O7 0.113677 0.778223 0.066466
O O8 0.031209 0.734720 0.154775
O O9 0.044598 0.000000 0.096082
O O10 0.000000 0.777138 0.000000
O O11 0.274777 0.203568 0.901685
O O12 0.356879 0.000000 0.963003
O O13 0.328794 0.218023 0.054006
O O14 0.823792 0.802244 0.203072
O O15 0.807900 0.000000 0.082412
O O16 0.437773 0.759865 0.229862
O O17 0.502262 0.000000 0.233349
O O18 0.095538 0.000000 0.725556
#
# Coordination Sequence:
#
# PCOD8080256 Si02
#       7
#     8   8   8   8   8   8   8
#     4   7  12  24  41  60  86 118 149 185 224 260
#     4   8  13  24  41  61  87 119 152 183 219 265
#     4  11  23  36  48  66  95 124 147 181 231 274
#     4  10  20  34  52  70  87 116 158 192 220 263
#     4   9  19  34  49  67  94 122 147 185 233 269
#     4  10  19  31  47  67  91 122 159 190 219 264
#     4  10  18  28  43  67  98 125 148 181 229 272
#
# _framework density 17.018552
#
# number of rings (size 3 to 8) (size 9 to 14) (size 15 to 20)
#    0.000    2.714    0.000    4.286    0.000    6.286 
#    0.000    6.429    0.000    0.000    0.000    1.000 
#    0.000    0.000    0.000    0.000    0.000    0.000 
#
# Total GULP energy -346929.777395 kJ/mol
# GULP energy per Si atom -12390.349193 kJ/mol
# Density = 1.697982 g / cm^3
# Si number density = 17.018552 Si / 1000 Ang^3
#
#
#
# Elastic Constant Matrix: (Units=GPa)
#
#
# Indices 1 2 3 4 5 6 
#
# 1 54.8360 24.4059 44.6992 0.0000 5.8495 0.0000
# 2 24.4059 62.3417 48.0591 0.0000 4.9388 0.0000
# 3 44.6992 48.0591 160.3563 0.0000 13.8567 0.0000
# 4 0.0000 0.0000 0.0000 25.2454 0.0000 -5.0593
# 5 5.8495 4.9388 13.8567 0.0000 17.3489 0.0000
# 6 0.0000 0.0000 0.0000 -5.0593 0.0000 -18.5535
#
#
#
# Elastic Compliance Matrix: (Units=1/GPa)
#
#
# Indices 1 2 3 4 5 6 
#
# 1 0.025224 -0.005747 -0.005065 0.000000 -0.002823 0.000000
# 2 -0.005747 0.022186 -0.005015 0.000000 -0.000373 0.000000
# 3 -0.005065 -0.005015 0.009538 0.000000 -0.004483 0.000000
# 4 0.000000 0.000000 0.000000 0.037559 0.000000 -0.010242
# 5 -0.002823 -0.000373 -0.004483 0.000000 0.062279 0.000000
# 6 0.000000 0.000000 0.000000 -0.010242 0.000000 -0.051105
#
#
# Mechanical properties :
#
#
# Convention : Reuss Voigt Hill
#
# Bulk Modulus (GPa) = 39.53364 56.87361 48.20362
# Shear Modulus (GPa) = 34.30180 15.49947 24.90063
#
# Velocity S-wave (km/s) = 4.49436 3.02112 3.82926
# Velocity P-wave (km/s) = 7.08608 6.75727 6.92363
#
# Compressibility (1/GPa) = 0.02529491
#
# Stress axis : x y z
#
# Youngs Moduli (GPa) = 39.64546 45.07351 104.83974
#
# Poissons Ratio (x) = 0.25902 0.53100
# Poissons Ratio (y) = 0.22782 0.52579
# Poissons Ratio (z) = 0.20080 0.22605
#
# Static dielectric constant tensor:
#      x y z
#    x 2.792750 0.000000 0.117130 
#    y 0.000000 3.181190 0.000000 
#    z 0.117130 0.000000 3.811740 
# 
# 
# High freq. dielectric constant tensor:
#      x y z
#    x 1.603080 0.000000 0.011030 
#    y 0.000000 1.651080 0.000000 
#    z 0.011030 0.000000 1.677680 
# 
# From -- ./inp_files/237838.got.cif
#   From: 2010.06.25/outbox.cif.g09.slc.cpg/sg12_119_cif.got.tgz:237838.got - 2010.06.28 00:19:55.
