data_PCOD8080484
_publ_section_title
;
Structure prediction by ZEFSAII (Michael W. Deem and Ramdas Pophale) SiO2 
 PCOD8080484
Probable space group: C 2/M
;
_chemical_formula_sum "Si O2"
_cell_formula_units_Z 64
_cell_length_a 22.273233
_cell_length_b 13.530751
_cell_length_c 19.798982
_cell_angle_alpha 90.000000
_cell_angle_beta 138.535289
_cell_angle_gamma 90.000000
_cell_volume 3951.027652
_symmetry_space_group_name_H-M "C 2/M"
_symmetry_group_IT_number 12
_symmetry_cell_setting 'monoclinic'
loop_
_space_group_symop_operation_xyz
x,y,z
-x,y,-z
-x,-y,-z
x,-y,z
1/2+x,1/2+y,z
1/2-x,1/2+y,-z
1/2-x,1/2-y,-z
1/2+x,1/2-y,z
loop_
_atom_site_type_symbol
_atom_site_label
_atom_site_fract_x
_atom_site_fract_y
_atom_site_fract_z
Si Si1 0.492776 0.234362 0.571928
Si Si2 0.797282 0.203040 0.940318
Si Si3 0.379593 0.616709 0.708859
Si Si4 0.518216 0.613439 0.936975
Si Si5 0.684283 0.113156 0.581022
Si Si6 0.286730 0.386813 0.072903
Si Si7 0.487240 0.615412 0.294041
Si Si8 0.830932 0.388248 0.274707
O O1 0.500000 0.267818 0.500000
O O2 0.397679 0.183261 0.510117
O O3 0.505440 0.330714 0.628183
O O4 0.569499 0.154787 0.653175
O O5 0.778368 0.319048 0.936270
O O6 0.742907 0.171665 0.828697
O O7 0.902991 0.188128 0.016964
O O8 0.765873 0.137559 0.977496
O O9 0.376260 0.500000 0.702278
O O10 0.430256 0.647160 0.820754
O O11 0.275967 0.655514 0.623213
O O12 0.434346 0.656698 0.689887
O O13 0.545959 0.500000 0.942330
O O14 0.500000 0.624274 0.000000
O O15 0.699182 0.117684 0.673457
O O16 0.663676 0.000000 0.541754
O O17 0.262343 0.500000 0.067963
O O18 0.391452 0.363029 0.177596
O O19 0.499494 0.500000 0.319104
O O20 0.832821 0.500000 0.250253
#
# Coordination Sequence:
#
# PCOD8080484 Si02
#       8
#     8   8   8   8   8   8   8   8
#     4  10  20  33  48  70  95 125 165 203 243 288
#     4  11  19  30  51  75 100 130 161 196 239 297
#     4   9  17  30  47  68  95 128 159 192 240 289
#     4  10  18  28  46  76 108 131 156 195 240 292
#     4   9  18  32  49  70  99 128 155 194 244 296
#     4  10  20  33  49  71 100 131 162 201 243 290
#     4  10  19  34  51  67  95 128 164 207 244 279
#     4  10  18  29  47  73 102 128 153 189 241 297
#
# _framework density 16.198318
#
# number of rings (size 3 to 8) (size 9 to 14) (size 15 to 20)
#    0.000    2.125    2.500    2.250    0.000    4.250 
#    0.000    0.000    0.000    0.375    0.000    0.875 
#    0.000    0.000    0.000    0.000    0.000    0.000 
#
# Total GULP energy -396794.409461 kJ/mol
# GULP energy per Si atom -12399.825296 kJ/mol
# Density = 1.616145 g / cm^3
# Si number density = 16.198318 Si / 1000 Ang^3
#
#
#
# Elastic Constant Matrix: (Units=GPa)
#
#
# Indices 1 2 3 4 5 6 
#
# 1 73.0204 34.9899 12.4346 0.0000 16.6498 0.0000
# 2 34.9899 72.6854 21.5194 0.0000 3.4716 0.0000
# 3 12.4346 21.5194 46.4389 0.0000 4.3907 0.0000
# 4 0.0000 0.0000 0.0000 20.1751 0.0000 3.8828
# 5 16.6498 3.4716 4.3907 0.0000 28.6894 0.0000
# 6 0.0000 0.0000 0.0000 3.8828 0.0000 18.8309
#
#
#
# Elastic Compliance Matrix: (Units=1/GPa)
#
#
# Indices 1 2 3 4 5 6 
#
# 1 0.020700 -0.009399 -0.000161 0.000000 -0.010851 0.000000
# 2 -0.009399 0.020232 -0.007248 0.000000 0.004116 0.000000
# 3 -0.000161 -0.007248 0.025208 0.000000 -0.002887 0.000000
# 4 0.000000 0.000000 0.000000 0.051614 0.000000 -0.010643
# 5 -0.010851 0.004116 -0.002887 0.000000 0.041097 0.000000
# 6 0.000000 0.000000 0.000000 -0.010643 0.000000 0.055299
#
#
# Mechanical properties :
#
#
# Convention : Reuss Voigt Hill
#
# Bulk Modulus (GPa) = 30.74610 36.67028 33.70819
# Shear Modulus (GPa) = 19.33428 21.75246 20.54337
#
# Velocity S-wave (km/s) = 3.45860 3.66851 3.56510
# Velocity P-wave (km/s) = 5.91367 6.37428 6.14829
#
# Compressibility (1/GPa) = 0.03252445
#
# Stress axis : x y z
#
# Youngs Moduli (GPa) = 48.30848 49.42772 39.66940
#
# Poissons Ratio (x) = 0.46456 0.00641
# Poissons Ratio (y) = 0.45404 0.28751
# Poissons Ratio (z) = 0.00780 0.35823
#
# Static dielectric constant tensor:
#      x y z
#    x 3.181180 0.000000 0.076890 
#    y 0.000000 2.893730 0.000000 
#    z 0.076890 0.000000 3.153710 
# 
# 
# High freq. dielectric constant tensor:
#      x y z
#    x 1.621360 0.000000 0.003570 
#    y 0.000000 1.595690 0.000000 
#    z 0.003570 0.000000 1.630520 
# 
# From -- ./inp_files/324964.got.cif
#   From: 2010.06.25/outbox.cif.g09.slc.cpg/sg12_163_cif.got.tgz:324964.got - 2010.06.28 00:19:55.
