data_PCOD8080853
_publ_section_title
;
Structure prediction by ZEFSAII (Michael W. Deem and Ramdas Pophale) SiO2 
 PCOD8080853
Probable space group: C 2/M
;
_chemical_formula_sum "Si O2"
_cell_formula_units_Z 56
_cell_length_a 20.497582
_cell_length_b 9.159024
_cell_length_c 19.100559
_cell_angle_alpha 90.000000
_cell_angle_beta 112.660985
_cell_angle_gamma 90.000000
_cell_volume 3309.068831
_symmetry_space_group_name_H-M "C 2/M"
_symmetry_group_IT_number 12
_symmetry_cell_setting 'monoclinic'
loop_
_space_group_symop_operation_xyz
x,y,z
-x,y,-z
-x,-y,-z
x,-y,z
1/2+x,1/2+y,z
1/2-x,1/2+y,-z
1/2-x,1/2-y,-z
1/2+x,1/2-y,z
loop_
_atom_site_type_symbol
_atom_site_label
_atom_site_fract_x
_atom_site_fract_y
_atom_site_fract_z
Si Si1 0.874563 0.832767 0.854856
Si Si2 0.055247 0.669082 0.320745
Si Si3 0.309378 0.671682 0.687090
Si Si4 0.996439 0.332808 0.154617
Si Si5 0.451109 0.331310 0.543507
Si Si6 0.079946 0.662262 0.004766
Si Si7 0.787632 0.171064 0.451337
O O1 0.811695 0.805642 0.772614
O O2 0.864745 0.757783 0.927004
O O3 0.944039 0.776337 0.845986
O O4 0.884514 0.000000 0.876033
O O5 0.076384 0.500000 0.339538
O O6 0.124070 0.757504 0.324949
O O7 0.026203 0.735126 0.380579
O O8 0.991641 0.684318 0.236788
O O9 0.308180 0.500000 0.667404
O O10 0.239267 0.753161 0.631281
O O11 0.018585 0.500000 0.144736
O O12 0.924386 0.296256 0.080645
O O13 0.500000 0.280123 0.500000
O O14 0.464278 0.500000 0.567550
O O15 0.370665 0.301602 0.489328
O O16 0.108733 0.500000 0.025759
O O17 0.000000 0.680627 0.000000
O O18 0.750000 0.250000 0.500000
O O19 0.768829 0.000000 0.444001
#
# Coordination Sequence:
#
# PCOD8080853 Si02
#       7
#     8   8   8   8   8   8   8
#     4   9  16  23  34  55  83 114 148 186 224 265
#     4  10  18  29  47  68  90 119 158 198 233 276
#     4  10  19  30  44  65  94 124 155 193 235 278
#     4   8  15  25  36  54  81 114 149 184 224 270
#     4  10  22  38  52  68  95 127 155 191 242 290
#     4   8  13  22  34  49  77 115 148 179 220 270
#     4  11  21  33  52  73  94 121 157 198 235 281
#
# _framework density 16.923189000000001
#
# number of rings (size 3 to 8) (size 9 to 14) (size 15 to 20)
#    0.000    2.571    1.429    2.571    0.000    5.714 
#    0.000    0.000    0.000    0.000    0.000    0.000 
#    0.000    1.143    0.000    2.571    0.000    6.571 
#
# Total GULP energy -346886.828344 kJ/mol
# GULP energy per Si atom -12388.815298 kJ/mol
# Density = 1.688467 g / cm^3
# Si number density = 16.923189 Si / 1000 Ang^3
#
#
#
# Elastic Constant Matrix: (Units=GPa)
#
#
# Indices 1 2 3 4 5 6 
#
# 1 47.4452 25.8958 35.7925 0.0000 -5.1840 0.0000
# 2 25.8958 107.1311 83.1779 0.0000 -2.7013 0.0000
# 3 35.7925 83.1779 174.8543 0.0000 -10.6650 0.0000
# 4 0.0000 0.0000 0.0000 32.3050 0.0000 -1.3682
# 5 -5.1840 -2.7013 -10.6650 0.0000 10.7190 0.0000
# 6 0.0000 0.0000 0.0000 -1.3682 0.0000 12.8144
#
#
#
# Elastic Compliance Matrix: (Units=1/GPa)
#
#
# Indices 1 2 3 4 5 6 
#
# 1 0.026416 -0.003775 -0.003077 0.000000 0.008763 0.000000
# 2 -0.003775 0.015464 -0.006874 0.000000 -0.004768 0.000000
# 3 -0.003077 -0.006874 0.010031 0.000000 0.006760 0.000000
# 4 0.000000 0.000000 0.000000 0.031096 0.000000 0.003320
# 5 0.008763 -0.004768 0.006760 0.000000 0.103054 0.000000
# 6 0.000000 0.000000 0.000000 0.003320 0.000000 0.078392
#
#
# Mechanical properties :
#
#
# Convention : Reuss Voigt Hill
#
# Bulk Modulus (GPa) = 40.88579 68.79590 54.84085
# Shear Modulus (GPa) = 16.66338 23.47198 20.06768
#
# Velocity S-wave (km/s) = 3.14131 3.72825 3.44729
# Velocity P-wave (km/s) = 6.11304 7.69891 6.95135
#
# Compressibility (1/GPa) = 0.02445837
#
# Stress axis : x y z
#
# Youngs Moduli (GPa) = 37.85540 64.66674 99.68845
#
# Poissons Ratio (x) = 0.24415 0.30674
# Poissons Ratio (y) = 0.14292 0.68527
# Poissons Ratio (z) = 0.11648 0.44453
#
# Static dielectric constant tensor:
#      x y z
#    x 2.548730 0.000000 -0.009410 
#    y 0.000000 3.301640 0.000000 
#    z -0.009410 0.000000 4.101430 
# 
# 
# High freq. dielectric constant tensor:
#      x y z
#    x 1.560750 0.000000 -0.005100 
#    y 0.000000 1.665620 0.000000 
#    z -0.005100 0.000000 1.686660 
# 
# From -- ./inp_files/319343.got.cif
#   From: 2010.06.25/outbox.cif.g09.slc.cpg/sg12_160_cif.got.tgz:319343.got - 2010.06.28 00:19:55.
