data_PCOD8080265
_publ_section_title
;
Structure prediction by ZEFSAII (Michael W. Deem and Ramdas Pophale) SiO2 
 PCOD8080265
Probable space group: C 2/M
;
_chemical_formula_sum "Si O2"
_cell_formula_units_Z 64
_cell_length_a 32.455368
_cell_length_b 9.381988
_cell_length_c 13.791847
_cell_angle_alpha 90.000000
_cell_angle_beta 84.911352
_cell_angle_gamma 90.000000
_cell_volume 4183.008592
_symmetry_space_group_name_H-M "C 2/M"
_symmetry_group_IT_number 12
_symmetry_cell_setting 'monoclinic'
loop_
_space_group_symop_operation_xyz
x,y,z
-x,y,-z
-x,-y,-z
x,-y,z
1/2+x,1/2+y,z
1/2-x,1/2+y,-z
1/2-x,1/2-y,-z
1/2+x,1/2-y,z
loop_
_atom_site_type_symbol
_atom_site_label
_atom_site_fract_x
_atom_site_fract_y
_atom_site_fract_z
Si Si1 0.963367 0.666280 0.577158
Si Si2 0.954126 0.161454 0.968207
Si Si3 0.633435 0.667975 0.697913
Si Si4 0.114261 0.831993 0.483170
Si Si5 0.203672 0.843032 0.415598
Si Si6 0.275714 0.343574 0.364079
Si Si7 0.015680 0.336416 0.207554
Si Si8 0.425041 0.833011 0.148721
O O1 0.954709 0.500000 0.562869
O O2 0.922094 0.750443 0.562152
O O3 0.976610 0.702269 0.683113
O O4 0.000000 0.719881 0.500000
O O5 0.954705 0.236324 0.863049
O O6 0.937038 0.000000 0.962373
O O7 0.925174 0.253877 0.045046
O O8 0.000000 0.160758 0.000000
O O9 0.627876 0.500000 0.721128
O O10 0.614443 0.705065 0.596985
O O11 0.681737 0.713128 0.691939
O O12 0.611340 0.764159 0.781699
O O13 0.157159 0.779804 0.424277
O O14 0.108878 0.000000 0.469605
O O15 0.235932 0.751675 0.345178
O O16 0.218756 0.851532 0.522358
O O17 0.203548 0.000000 0.369398
O O18 0.266163 0.500000 0.324818
O O19 0.026718 0.500000 0.181448
O O20 0.967744 0.306544 0.196100
O O21 0.416509 0.000000 0.134287
#
# Coordination Sequence:
#
# PCOD8080265 Si02
#       8
#     8   8   8   8   8   8   8   8
#     4  10  20  32  44  60  84 113 146 181 211 240
#     4   9  17  29  45  63  81 103 134 171 211 254
#     4   9  17  28  40  58  87 115 139 171 208 247
#     4   9  18  30  42  58  82 113 146 178 211 245
#     4   8  14  25  39  55  77 104 136 173 207 241
#     4   8  14  24  38  56  78 106 136 166 204 246
#     4   9  18  31  44  59  82 110 141 178 212 242
#     4  10  18  28  44  63  83 109 139 170 209 254
#
# _framework density 15.299992
#
# number of rings (size 3 to 8) (size 9 to 14) (size 15 to 20)
#    0.000    3.000    0.000    3.000    0.000    5.250 
#    0.000    2.500    0.000    0.000    0.000    0.000 
#    0.000    1.000    0.000    3.250    0.000    4.750 
#
# Total GULP energy -396674.103754 kJ/mol
# GULP energy per Si atom -12396.065742 kJ/mol
# Density = 1.526517 g / cm^3
# Si number density = 15.299992 Si / 1000 Ang^3
#
#
#
# Elastic Constant Matrix: (Units=GPa)
#
#
# Indices 1 2 3 4 5 6 
#
# 1 87.0257 49.5837 45.7325 0.0000 -17.9111 0.0000
# 2 49.5837 83.6087 54.8958 0.0000 -17.5643 0.0000
# 3 45.7325 54.8958 92.2229 0.0000 -16.8965 0.0000
# 4 0.0000 0.0000 0.0000 25.3334 0.0000 -5.2497
# 5 -17.9111 -17.5643 -16.8965 0.0000 19.2448 0.0000
# 6 0.0000 0.0000 0.0000 -5.2497 0.0000 26.8756
#
#
#
# Elastic Compliance Matrix: (Units=1/GPa)
#
#
# Indices 1 2 3 4 5 6 
#
# 1 0.019251 -0.007276 -0.003753 0.000000 0.007981 0.000000
# 2 -0.007276 0.023828 -0.009333 0.000000 0.006781 0.000000
# 3 -0.003753 -0.009333 0.019138 0.000000 0.004791 0.000000
# 4 0.000000 0.000000 0.000000 0.041139 0.000000 0.008036
# 5 0.007981 0.006781 0.004791 0.000000 0.069786 0.000000
# 6 0.000000 0.000000 0.000000 0.008036 0.000000 0.038778
#
#
# Mechanical properties :
#
#
# Convention : Reuss Voigt Hill
#
# Bulk Modulus (GPa) = 46.52763 62.58681 54.55722
# Shear Modulus (GPa) = 19.24486 21.80043 20.52265
#
# Velocity S-wave (km/s) = 3.55044 3.77883 3.66642
# Velocity P-wave (km/s) = 6.87632 7.74821 7.32525
#
# Compressibility (1/GPa) = 0.02149261
#
# Stress axis : x y z
#
# Youngs Moduli (GPa) = 51.94409 41.96756 52.25222
#
# Poissons Ratio (x) = 0.30535 0.19612
# Poissons Ratio (y) = 0.37794 0.48768
# Poissons Ratio (z) = 0.19496 0.39169
#
# Static dielectric constant tensor:
#      x y z
#    x 2.842060 0.000000 -0.198400 
#    y 0.000000 3.117370 0.000000 
#    z -0.198400 0.000000 2.761010 
# 
# 
# High freq. dielectric constant tensor:
#      x y z
#    x 1.566260 0.000000 -0.023970 
#    y 0.000000 1.592770 0.000000 
#    z -0.023970 0.000000 1.558180 
# 
# From -- ./inp_files/248247.got.cif
#   From: 2010.06.25/outbox.cif.g09.slc.cpg/sg12_125_cif.got.tgz:248247.got - 2010.06.28 00:19:55.
