data_PCOD8080459
_publ_section_title
;
Structure prediction by ZEFSAII (Michael W. Deem and Ramdas Pophale) SiO2 
 PCOD8080459
Probable space group: C 2/M
;
_chemical_formula_sum "Si O2"
_cell_formula_units_Z 56
_cell_length_a 10.175958
_cell_length_b 18.100585
_cell_length_c 16.214668
_cell_angle_alpha 90.000000
_cell_angle_beta 98.802688
_cell_angle_gamma 90.000000
_cell_volume 2951.414086
_symmetry_space_group_name_H-M "C 2/M"
_symmetry_group_IT_number 12
_symmetry_cell_setting 'monoclinic'
loop_
_space_group_symop_operation_xyz
x,y,z
-x,y,-z
-x,-y,-z
x,-y,z
1/2+x,1/2+y,z
1/2-x,1/2+y,-z
1/2-x,1/2-y,-z
1/2+x,1/2-y,z
loop_
_atom_site_type_symbol
_atom_site_label
_atom_site_fract_x
_atom_site_fract_y
_atom_site_fract_z
Si Si1 0.343627 0.178985 0.501391
Si Si2 0.578986 0.830658 0.785375
Si Si3 0.624830 0.916172 0.953491
Si Si4 0.899826 0.086610 0.058770
Si Si5 0.189913 0.338756 0.322234
Si Si6 0.066571 0.844056 0.761197
Si Si7 0.214691 0.836635 0.327272
O O1 0.500000 0.199486 0.500000
O O2 0.250000 0.250000 0.500000
O O3 0.328114 0.132419 0.584988
O O4 0.283533 0.133261 0.418167
O O5 0.607417 0.857461 0.879667
O O6 0.438463 0.862889 0.742021
O O7 0.577017 0.742575 0.779985
O O8 0.695015 0.863690 0.739628
O O9 0.641834 0.000000 0.920858
O O10 0.500000 0.910649 0.000000
O O11 0.751252 0.891523 0.018958
O O12 0.932300 0.117715 0.150961
O O13 0.920064 0.000000 0.066301
O O14 0.000000 0.120265 0.000000
O O15 0.315948 0.373403 0.287028
O O16 0.207874 0.251415 0.328501
O O17 0.933209 0.867527 0.699750
#
# Coordination Sequence:
#
# PCOD8080459 Si02
#       7
#     8   8   8   8   8   8   8
#     4  10  18  28  46  72 107 143 170 201 248 298
#     4  10  18  32  49  72 102 131 163 207 253 297
#     4  10  21  35  52  73  97 129 170 209 249 301
#     4  10  21  37  54  73  99 129 168 213 252 304
#     4   9  18  29  46  71 105 135 164 204 246 293
#     4  10  20  32  49  76 102 131 167 206 257 299
#     4   9  18  29  46  71 103 133 167 202 244 298
#
# _framework density 18.973955
#
# number of rings (size 3 to 8) (size 9 to 14) (size 15 to 20)
#    0.000    2.286    1.429    1.714    6.000    1.143 
#    0.000    0.000    0.000    0.000    0.000    6.000 
#    0.000    0.000    0.000    0.000    0.000    0.000 
#
# Total GULP energy -347061.709233 kJ/mol
# GULP energy per Si atom -12395.061044 kJ/mol
# Density = 1.893077 g / cm^3
# Si number density = 18.973955 Si / 1000 Ang^3
#
#
#
# Elastic Constant Matrix: (Units=GPa)
#
#
# Indices 1 2 3 4 5 6 
#
# 1 171.4390 16.7520 68.7094 0.0000 -0.6689 0.0000
# 2 16.7520 14.2858 20.5679 0.0000 3.1420 0.0000
# 3 68.7094 20.5679 150.0057 0.0000 1.7772 0.0000
# 4 0.0000 0.0000 0.0000 -2.4219 0.0000 -4.8449
# 5 -0.6689 3.1420 1.7772 0.0000 37.3753 0.0000
# 6 0.0000 0.0000 0.0000 -4.8449 0.0000 25.4591
#
#
#
# Elastic Compliance Matrix: (Units=1/GPa)
#
#
# Indices 1 2 3 4 5 6 
#
# 1 0.007409 -0.004908 -0.002729 0.000000 0.000675 0.000000
# 2 -0.004908 0.092213 -0.010309 0.000000 -0.007350 0.000000
# 3 -0.002729 -0.010309 0.009325 0.000000 0.000374 0.000000
# 4 0.000000 0.000000 0.000000 -0.299052 0.000000 -0.056910
# 5 0.000675 -0.007350 0.000374 0.000000 0.027368 0.000000
# 6 0.000000 0.000000 0.000000 -0.056910 0.000000 0.028449
#
#
# Mechanical properties :
#
#
# Convention : Reuss Voigt Hill
#
# Bulk Modulus (GPa) = 13.68797 60.86545 37.27671
# Shear Modulus (GPa) = -67.52510 27.39592 -20.06459
#
# Velocity S-wave (km/s) = -5.97207 3.80395 -3.25542
# Velocity P-wave (km/s) = 6.35015 7.17227 2.35766
#
# Compressibility (1/GPa) = 0.07305684
#
# Stress axis : x y z
#
# Youngs Moduli (GPa) = 134.97581 10.84449 107.23544
#
# Poissons Ratio (x) = 0.05322 0.29261
# Poissons Ratio (y) = 0.66241 1.10546
# Poissons Ratio (z) = 0.36830 0.11179
#
# Static dielectric constant tensor:
#      x y z
#    x 3.870190 0.000000 -0.015660 
#    y 0.000000 2.886250 0.000000 
#    z -0.015660 0.000000 3.856400 
# 
# 
# High freq. dielectric constant tensor:
#      x y z
#    x 1.763970 0.000000 -0.000370 
#    y 0.000000 1.666520 0.000000 
#    z -0.000370 0.000000 1.757330 
# 
# From -- ./inp_files/197549.got.cif
#   From: 2010.06.25/outbox.cif.g09.slc.cpg/sg12_99_cif.got.tgz:197549.got - 2010.06.28 00:19:55.
