data_PCOD8080165
_publ_section_title
;
Structure prediction by ZEFSAII (Michael W. Deem and Ramdas Pophale) SiO2 
 PCOD8080165
Probable space group: C 2/M
;
_chemical_formula_sum "Si O2"
_cell_formula_units_Z 64
_cell_length_a 27.620639
_cell_length_b 8.960586
_cell_length_c 20.868934
_cell_angle_alpha 90.000000
_cell_angle_beta 52.391768
_cell_angle_gamma 90.000000
_cell_volume 4091.723882
_symmetry_space_group_name_H-M "C 2/M"
_symmetry_group_IT_number 12
_symmetry_cell_setting 'monoclinic'
loop_
_space_group_symop_operation_xyz
x,y,z
-x,y,-z
-x,-y,-z
x,-y,z
1/2+x,1/2+y,z
1/2-x,1/2+y,-z
1/2-x,1/2-y,-z
1/2+x,1/2-y,z
loop_
_atom_site_type_symbol
_atom_site_label
_atom_site_fract_x
_atom_site_fract_y
_atom_site_fract_z
Si Si1 0.506345 0.177011 0.567043
Si Si2 0.826158 0.328236 0.905089
Si Si3 0.215909 0.329446 0.930952
Si Si4 0.125336 0.829788 0.520274
Si Si5 0.111111 0.327421 0.268112
Si Si6 0.302468 0.327555 0.418067
Si Si7 0.760488 0.323902 0.778268
Si Si8 0.250356 0.824453 0.348035
O O1 0.500000 0.237736 0.500000
O O2 0.569746 0.226036 0.546178
O O3 0.449896 0.247523 0.653491
O O4 0.505403 0.000000 0.569180
O O5 0.803337 0.500000 0.911535
O O6 0.776631 0.209202 0.921635
O O7 0.885751 0.301044 0.811749
O O8 0.838611 0.305401 0.971653
O O9 0.217990 0.500000 0.905777
O O10 0.210608 0.224867 0.872611
O O11 0.136489 0.810717 0.587962
O O12 0.184887 0.781363 0.431396
O O13 0.108827 0.000000 0.517336
O O14 0.107471 0.500000 0.288242
O O15 0.172777 0.266383 0.252382
O O16 0.286117 0.500000 0.420766
O O17 0.250000 0.250000 0.500000
O O18 0.305208 0.246049 0.346884
O O19 0.757475 0.500000 0.771161
O O20 0.743287 0.243504 0.727017
O O21 0.260132 0.000000 0.337383
#
# Coordination Sequence:
#
# PCOD8080165 Si02
#       8
#     8   8   8   8   8   8   8   8
#     4  10  19  29  42  60  82 111 148 181 204 234
#     4   8  14  25  39  53  75 108 141 173 208 244
#     4   9  15  23  37  57  79 104 136 172 208 247
#     4   9  19  32  44  60  83 109 137 172 210 244
#     4   8  15  27  40  56  79 110 148 180 204 236
#     4   9  17  30  46  63  82 105 135 170 209 251
#     4  10  18  28  42  59  84 114 139 168 208 251
#     4  10  19  30  44  63  85 108 137 171 207 250
#
# _framework density 15.641329000000001
#
# number of rings (size 3 to 8) (size 9 to 14) (size 15 to 20)
#    0.000    2.875    0.000    3.750    0.000    4.750 
#    0.000    3.125    0.000    0.000    0.000    0.000 
#    0.000    1.000    0.000   11.500    0.000    3.125 
#
# Total GULP energy -396429.346669 kJ/mol
# GULP energy per Si atom -12388.417083 kJ/mol
# Density = 1.560573 g / cm^3
# Si number density = 15.641329 Si / 1000 Ang^3
#
#
#
# Elastic Constant Matrix: (Units=GPa)
#
#
# Indices 1 2 3 4 5 6 
#
# 1 69.6002 29.9729 47.3937 -0.0002 20.1693 0.0003
# 2 29.9729 58.2473 34.3723 0.0062 11.4905 0.0009
# 3 47.3937 34.3723 121.4637 -0.0018 24.1432 0.0008
# 4 -0.0002 0.0062 -0.0018 20.4589 0.0000 5.7730
# 5 20.1693 11.4905 24.1432 0.0000 22.3915 0.0003
# 6 0.0003 0.0009 0.0008 5.7730 0.0003 22.3758
#
#
#
# Elastic Compliance Matrix: (Units=1/GPa)
#
#
# Indices 1 2 3 4 5 6 
#
# 1 0.024653 -0.007150 -0.004978 0.000002 -0.013170 0.000000
# 2 -0.007150 0.023221 -0.003427 -0.000008 -0.001780 0.000001
# 3 -0.004978 -0.003427 0.012606 0.000002 -0.007349 -0.000001
# 4 0.000002 -0.000008 0.000002 0.052716 0.000000 -0.013601
# 5 -0.013170 -0.001780 -0.007349 0.000000 0.065360 0.000000
# 6 0.000000 0.000001 -0.000001 -0.013601 0.000000 0.048200
#
#
# Mechanical properties :
#
#
# Convention : Reuss Voigt Hill
#
# Bulk Modulus (GPa) = 34.05008 52.53209 43.29109
# Shear Modulus (GPa) = 18.68049 22.21674 20.44862
#
# Velocity S-wave (km/s) = 3.45962 3.77289 3.61965
# Velocity P-wave (km/s) = 6.14615 7.25520 6.72358
#
# Compressibility (1/GPa) = 0.02936851
#
# Stress axis : x y z
#
# Youngs Moduli (GPa) = 40.56246 43.06380 79.32678
#
# Poissons Ratio (x) = 0.30792 0.39491
# Poissons Ratio (y) = 0.29004 0.27189
# Poissons Ratio (z) = 0.20193 0.14760
#
# Static dielectric constant tensor:
#      x y z
#    x 2.842020 0.000000 0.266680 
#    y 0.000000 2.990280 0.000000 
#    z 0.266680 0.000000 3.348840 
# 
# 
# High freq. dielectric constant tensor:
#      x y z
#    x 1.554520 0.000000 0.032080 
#    y 0.000000 1.601700 0.000000 
#    z 0.032080 0.000000 1.597640 
# 
# From -- ./inp_files/323656.got.cif
#   From: 2010.06.25/outbox.cif.g09.slc.cpg/sg12_162_cif.got.tgz:323656.got - 2010.06.28 00:19:55.
