data_PCOD8080157
_publ_section_title
;
Structure prediction by ZEFSAII (Michael W. Deem and Ramdas Pophale) SiO2 
 PCOD8080157
Probable space group: C 2/M
;
_chemical_formula_sum "Si O2"
_cell_formula_units_Z 56
_cell_length_a 28.706666
_cell_length_b 8.815254
_cell_length_c 14.162709
_cell_angle_alpha 90.000000
_cell_angle_beta 60.010577
_cell_angle_gamma 90.000000
_cell_volume 3104.136625
_symmetry_space_group_name_H-M "C 2/M"
_symmetry_group_IT_number 12
_symmetry_cell_setting 'monoclinic'
loop_
_space_group_symop_operation_xyz
x,y,z
-x,y,-z
-x,-y,-z
x,-y,z
1/2+x,1/2+y,z
1/2-x,1/2+y,-z
1/2-x,1/2-y,-z
1/2+x,1/2-y,z
loop_
_atom_site_type_symbol
_atom_site_label
_atom_site_fract_x
_atom_site_fract_y
_atom_site_fract_z
Si Si1 0.372476 0.821598 0.385628
Si Si2 0.679564 0.323510 0.984008
Si Si3 0.965218 0.322139 0.164460
Si Si4 0.709290 0.326000 0.157740
Si Si5 0.719888 0.319157 0.619357
Si Si6 0.686521 0.675289 0.384069
Si Si7 0.078059 0.320650 0.988930
O O1 0.434346 0.784803 0.294355
O O2 0.339931 0.747033 0.330620
O O3 0.357791 0.752374 0.502832
O O4 0.360433 0.000000 0.402044
O O5 0.673440 0.500000 0.972766
O O6 0.674981 0.279948 0.100000
O O7 0.632706 0.246334 0.973022
O O8 0.737457 0.274193 0.886773
O O9 0.966924 0.500000 0.145824
O O10 0.027016 0.264937 0.104990
O O11 0.933119 0.258004 0.105625
O O12 0.728360 0.500000 0.129716
O O13 0.671214 0.304958 0.289083
O O14 0.719302 0.500000 0.622075
O O15 0.750000 0.250000 0.500000
O O16 0.754225 0.253366 0.671466
O O17 0.690546 0.500000 0.410305
O O18 0.084643 0.500000 0.984910
#
# Coordination Sequence:
#
# PCOD8080157 Si02
#       7
#     8   8   8   8   8   8   8
#     4  10  18  30  47  70  98 129 161 201 242 283
#     4  10  20  34  52  77 101 123 159 209 253 288
#     4   8  17  32  52  74  98 130 168 197 232 296
#     4   9  20  36  52  70  98 134 167 196 241 301
#     4  10  18  28  41  63  94 128 160 194 234 282
#     4  10  19  32  48  67  93 130 167 199 236 288
#     4   9  17  34  55  74  96 130 167 198 239 294
#
# _framework density 18.040443
#
# number of rings (size 3 to 8) (size 9 to 14) (size 15 to 20)
#    0.000    2.571    0.000    5.143    2.000    1.714 
#    0.000    3.571    0.000    0.857    0.000    6.000 
#    0.000    0.000    0.000    0.000    0.000    0.000 
#
# Total GULP energy -346873.899332 kJ/mol
# GULP energy per Si atom -12388.353548 kJ/mol
# Density = 1.799938 g / cm^3
# Si number density = 18.040443 Si / 1000 Ang^3
#
#
#
# Elastic Constant Matrix: (Units=GPa)
#
#
# Indices 1 2 3 4 5 6 
#
# 1 62.5283 16.4208 19.2330 0.0000 1.0600 0.0000
# 2 16.4208 80.9565 27.5290 0.0000 -2.4694 0.0000
# 3 19.2330 27.5290 98.7475 0.0000 0.2202 0.0000
# 4 0.0000 0.0000 0.0000 21.2435 0.0000 2.3727
# 5 1.0600 -2.4694 0.2202 0.0000 22.1678 0.0000
# 6 0.0000 0.0000 0.0000 2.3727 0.0000 16.3465
#
#
#
# Elastic Compliance Matrix: (Units=1/GPa)
#
#
# Indices 1 2 3 4 5 6 
#
# 1 0.017536 -0.002685 -0.002665 0.000000 -0.001111 0.000000
# 2 -0.002685 0.014111 -0.003415 0.000000 0.001734 0.000000
# 3 -0.002665 -0.003415 0.011599 0.000000 -0.000368 0.000000
# 4 0.000000 0.000000 0.000000 0.047849 0.000000 -0.006945
# 5 -0.001111 0.001734 -0.000368 0.000000 0.045361 0.000000
# 6 0.000000 0.000000 0.000000 -0.006945 0.000000 0.062183
#
#
# Mechanical properties :
#
#
# Convention : Reuss Voigt Hill
#
# Bulk Modulus (GPa) = 38.88407 40.95532 39.91970
# Shear Modulus (GPa) = 22.24799 23.88819 23.06809
#
# Velocity S-wave (km/s) = 3.51555 3.64283 3.57975
# Velocity P-wave (km/s) = 6.17085 6.35963 6.26595
#
# Compressibility (1/GPa) = 0.02571747
#
# Stress axis : x y z
#
# Youngs Moduli (GPa) = 57.02476 70.86679 86.21706
#
# Poissons Ratio (x) = 0.19026 0.22973
# Poissons Ratio (y) = 0.15310 0.29442
# Poissons Ratio (z) = 0.15195 0.24200
#
# Static dielectric constant tensor:
#      x y z
#    x 4.165670 0.000000 0.022520 
#    y 0.000000 3.280760 0.000000 
#    z 0.022520 0.000000 3.438790 
# 
# 
# High freq. dielectric constant tensor:
#      x y z
#    x 1.666650 0.000000 -0.000840 
#    y 0.000000 1.694810 0.000000 
#    z -0.000840 0.000000 1.702460 
# 
# From -- ./inp_files/242980.got.cif
#   From: 2010.06.25/outbox.cif.g09.slc.cpg/sg12_122_cif.got.tgz:242980.got - 2010.06.28 00:19:55.
