data_PCOD8080431
_publ_section_title
;
Structure prediction by ZEFSAII (Michael W. Deem and Ramdas Pophale) SiO2 
 PCOD8080431
Probable space group: C 2/M
;
_chemical_formula_sum "Si O2"
_cell_formula_units_Z 56
_cell_length_a 18.602310
_cell_length_b 9.129160
_cell_length_c 18.143519
_cell_angle_alpha 90.000000
_cell_angle_beta 87.189666
_cell_angle_gamma 90.000000
_cell_volume 3077.489531
_symmetry_space_group_name_H-M "C 2/M"
_symmetry_group_IT_number 12
_symmetry_cell_setting 'monoclinic'
loop_
_space_group_symop_operation_xyz
x,y,z
-x,y,-z
-x,-y,-z
x,-y,z
1/2+x,1/2+y,z
1/2-x,1/2+y,-z
1/2-x,1/2-y,-z
1/2+x,1/2-y,z
loop_
_atom_site_type_symbol
_atom_site_label
_atom_site_fract_x
_atom_site_fract_y
_atom_site_fract_z
Si Si1 0.686478 0.826353 0.377247
Si Si2 0.170507 0.661813 0.216212
Si Si3 0.166463 0.164157 0.077686
Si Si4 0.920937 0.671677 0.493363
Si Si5 0.338170 0.834617 0.064578
Si Si6 0.664075 0.827586 0.647158
Si Si7 0.158212 0.164892 0.793549
O O1 0.648996 0.790481 0.300180
O O2 0.633948 0.764674 0.443041
O O3 0.760792 0.740557 0.382391
O O4 0.702655 0.000000 0.382526
O O5 0.140585 0.500000 0.199804
O O6 0.138218 0.771410 0.156929
O O7 0.256265 0.660255 0.208258
O O8 0.252295 0.166619 0.071908
O O9 0.136848 0.000000 0.071497
O O10 0.134963 0.259012 0.012035
O O11 0.925362 0.500000 0.507963
O O12 0.893941 0.706683 0.412925
O O13 0.000000 0.742532 0.500000
O O14 0.371061 0.746355 0.132085
O O15 0.367639 0.000000 0.065105
O O16 0.633194 0.754155 0.722845
O O17 0.674620 0.000000 0.659993
O O18 0.126822 0.000000 0.792585
#
# Coordination Sequence:
#
# PCOD8080431 Si02
#       7
#     8   8   8   8   8   8   8
#     4   9  17  30  48  67  89 119 153 189 228 270
#     4   8  14  23  35  53  77 107 143 180 217 257
#     4   9  15  21  31  49  76 111 145 176 215 260
#     4   9  18  32  49  69  92 118 150 188 229 273
#     4   9  15  22  33  51  78 111 146 181 217 259
#     4  10  18  28  46  69  91 117 151 190 229 270
#     4   9  16  26  39  56  82 114 148 184 221 264
#
# _framework density 18.196650000000002
#
# number of rings (size 3 to 8) (size 9 to 14) (size 15 to 20)
#    0.000    3.000    0.000    3.000    0.000    6.857 
#    0.000    0.714    0.000    3.857    0.000    0.000 
#    0.000    1.143    0.000   13.429    0.000   14.000 
#
# Total GULP energy -347095.446063 kJ/mol
# GULP energy per Si atom -12396.265931 kJ/mol
# Density = 1.815523 g / cm^3
# Si number density = 18.196650 Si / 1000 Ang^3
#
#
#
# Elastic Constant Matrix: (Units=GPa)
#
#
# Indices 1 2 3 4 5 6 
#
# 1 36.5981 24.6738 31.7340 0.0000 9.7326 0.0000
# 2 24.6738 121.9012 73.2372 0.0000 5.5795 0.0000
# 3 31.7340 73.2372 146.4078 0.0000 10.4584 0.0000
# 4 0.0000 0.0000 0.0000 31.7521 0.0000 0.2253
# 5 9.7326 5.5795 10.4584 0.0000 4.8286 0.0000
# 6 0.0000 0.0000 0.0000 0.2253 0.0000 7.1696
#
#
#
# Elastic Compliance Matrix: (Units=1/GPa)
#
#
# Indices 1 2 3 4 5 6 
#
# 1 0.065435 -0.006267 -0.002537 0.000000 -0.119156 0.000000
# 2 -0.006267 0.012332 -0.005554 0.000000 0.010412 0.000000
# 3 -0.002537 -0.005554 0.011043 0.000000 -0.012388 0.000000
# 4 0.000000 0.000000 0.000000 0.031501 0.000000 -0.000990
# 5 -0.119156 0.010412 -0.012388 0.000000 0.462068 0.000000
# 6 0.000000 0.000000 0.000000 -0.000990 0.000000 0.139508
#
#
# Mechanical properties :
#
#
# Convention : Reuss Voigt Hill
#
# Bulk Modulus (GPa) = 16.64017 62.68857 39.66437
# Shear Modulus (GPa) = 6.48814 20.43423 13.46119
#
# Velocity S-wave (km/s) = 1.89032 3.35470 2.72281
# Velocity P-wave (km/s) = 3.73214 7.03781 5.63293
#
# Compressibility (1/GPa) = 0.06009553
#
# Stress axis : x y z
#
# Youngs Moduli (GPa) = 15.28223 81.08807 90.55169
#
# Poissons Ratio (x) = 0.50817 0.22969
# Poissons Ratio (y) = 0.09577 0.50295
# Poissons Ratio (z) = 0.03876 0.45039
#
# Static dielectric constant tensor:
#      x y z
#    x 2.739320 0.000000 -0.099320 
#    y 0.000000 3.417650 0.000000 
#    z -0.099320 0.000000 3.686190 
# 
# 
# High freq. dielectric constant tensor:
#      x y z
#    x 1.624910 0.000000 -0.004350 
#    y 0.000000 1.701650 0.000000 
#    z -0.004350 0.000000 1.727600 
# 
# From -- ./inp_files/280390.got.cif
#   From: 2010.06.25/outbox.cif.g09.slc.cpg/sg12_141_cif.got.tgz:280390.got - 2010.06.28 00:19:55.
