data_PCOD8080142
_publ_section_title
;
Structure prediction by ZEFSAII (Michael W. Deem and Ramdas Pophale) SiO2 
 PCOD8080142
Probable space group: C 2/M
;
_chemical_formula_sum "Si O2"
_cell_formula_units_Z 64
_cell_length_a 29.009499
_cell_length_b 9.200678
_cell_length_c 20.418952
_cell_angle_alpha 90.000000
_cell_angle_beta 128.126731
_cell_angle_gamma 90.000000
_cell_volume 4287.196934
_symmetry_space_group_name_H-M "C 2/M"
_symmetry_group_IT_number 12
_symmetry_cell_setting 'monoclinic'
loop_
_space_group_symop_operation_xyz
x,y,z
-x,y,-z
-x,-y,-z
x,-y,z
1/2+x,1/2+y,z
1/2-x,1/2+y,-z
1/2-x,1/2-y,-z
1/2+x,1/2-y,z
loop_
_atom_site_type_symbol
_atom_site_label
_atom_site_fract_x
_atom_site_fract_y
_atom_site_fract_z
Si Si1 0.694861 0.836096 0.030287
Si Si2 0.728829 0.669792 0.326434
Si Si3 0.776593 0.167602 0.822126
Si Si4 0.932573 0.830251 0.435777
Si Si5 0.192667 0.167773 0.429468
Si Si6 0.345536 0.668691 0.469899
Si Si7 0.669113 0.335325 0.885445
Si Si8 0.642509 0.169557 0.736610
O O1 0.687007 0.763862 0.094669
O O2 0.762485 0.834622 0.070301
O O3 0.670443 0.000000 0.011043
O O4 0.657959 0.744638 0.944839
O O5 0.743752 0.500000 0.336801
O O6 0.702928 0.715259 0.232960
O O7 0.680663 0.706672 0.341945
O O8 0.790119 0.747274 0.393083
O O9 0.707326 0.197496 0.765898
O O10 0.790527 0.000000 0.849917
O O11 0.903306 0.789207 0.479954
O O12 0.904040 0.736189 0.353789
O O13 0.000000 0.786419 0.500000
O O14 0.924404 0.000000 0.411832
O O15 0.250000 0.250000 0.500000
O O16 0.143680 0.204658 0.442283
O O17 0.208409 0.000000 0.447086
O O18 0.331085 0.500000 0.447891
O O19 0.645322 0.500000 0.868887
O O20 0.634137 0.248738 0.798927
O O21 0.629661 0.000000 0.735070
#
# Coordination Sequence:
#
# PCOD8080142 Si02
#       8
#     8   8   8   8   8   8   8   8
#     4   9  16  24  35  53  74  98 127 156 182 214
#     4   9  15  24  37  54  75  98 124 154 190 228
#     4   9  16  24  35  52  75 101 125 152 187 225
#     4  10  20  31  41  54  74 100 131 167 204 236
#     4   8  14  23  36  53  71  92 120 154 189 227
#     4   9  16  26  39  53  70  94 126 161 195 230
#     4   9  16  26  39  53  72  97 125 156 189 225
#     4  10  18  28  41  55  71  95 128 163 196 230
#
# _framework density 14.928169
#
# number of rings (size 3 to 8) (size 9 to 14) (size 15 to 20)
#    0.000    2.875    1.250    1.125    0.000    4.250 
#    0.000    0.000    0.000    0.000    0.000    0.000 
#    0.000    0.000    0.000    1.125    0.000   26.500 
#
# Total GULP energy -396454.652272 kJ/mol
# GULP energy per Si atom -12389.207883 kJ/mol
# Density = 1.489419 g / cm^3
# Si number density = 14.928169 Si / 1000 Ang^3
#
#
#
# Elastic Constant Matrix: (Units=GPa)
#
#
# Indices 1 2 3 4 5 6 
#
# 1 80.7509 34.6863 57.8236 0.0000 -32.3437 0.0000
# 2 34.6863 76.8375 50.9830 0.0000 -20.0234 0.0000
# 3 57.8236 50.9830 89.0266 0.0000 -38.1221 0.0000
# 4 0.0000 0.0000 0.0000 24.7110 0.0000 -6.2340
# 5 -32.3437 -20.0234 -38.1221 0.0000 30.7102 0.0000
# 6 0.0000 0.0000 0.0000 -6.2340 0.0000 11.2666
#
#
#
# Elastic Compliance Matrix: (Units=1/GPa)
#
#
# Indices 1 2 3 4 5 6 
#
# 1 0.025600 -0.001364 -0.009995 0.000000 0.013666 0.000000
# 2 -0.001364 0.021164 -0.012681 0.000000 -0.003379 0.000000
# 3 -0.009995 -0.012681 0.036159 0.000000 0.026091 0.000000
# 4 0.000000 0.000000 0.000000 0.047033 0.000000 0.026024
# 5 0.013666 -0.003379 0.026091 0.000000 0.077140 0.000000
# 6 0.000000 0.000000 0.000000 0.026024 0.000000 0.103158
#
#
# Mechanical properties :
#
#
# Convention : Reuss Voigt Hill
#
# Bulk Modulus (GPa) = 28.69942 59.28897 43.99419
# Shear Modulus (GPa) = 13.51544 20.21236 16.86390
#
# Velocity S-wave (km/s) = 3.01219 3.68363 3.36470
# Velocity P-wave (km/s) = 5.60040 7.60885 6.68053
#
# Compressibility (1/GPa) = 0.03484391
#
# Stress axis : x y z
#
# Youngs Moduli (GPa) = 39.06229 47.25102 27.65582
#
# Poissons Ratio (x) = 0.06443 0.27642
# Poissons Ratio (y) = 0.05326 0.35070
# Poissons Ratio (z) = 0.39042 0.59918
#
# Static dielectric constant tensor:
#      x y z
#    x 2.986720 0.000000 -0.593810 
#    y 0.000000 3.154190 0.000000 
#    z -0.593810 0.000000 2.780540 
# 
# 
# High freq. dielectric constant tensor:
#      x y z
#    x 1.535050 0.000000 -0.054390 
#    y 0.000000 1.582350 0.000000 
#    z -0.054390 0.000000 1.544550 
# 
# From -- ./inp_files/326920.got.cif
#   From: 2010.06.25/outbox.cif.g09.slc.cpg/sg12_164_cif.got.tgz:326920.got - 2010.06.28 00:19:55.
