data_PCOD8080267
_publ_section_title
;
Structure prediction by ZEFSAII (Michael W. Deem and Ramdas Pophale) SiO2 
 PCOD8080267
Probable space group: C 2/M
;
_chemical_formula_sum "Si O2"
_cell_formula_units_Z 56
_cell_length_a 26.897148
_cell_length_b 9.238858
_cell_length_c 24.620619
_cell_angle_alpha 90.000000
_cell_angle_beta 144.140448
_cell_angle_gamma 90.000000
_cell_volume 3584.042306
_symmetry_space_group_name_H-M "C 2/M"
_symmetry_group_IT_number 12
_symmetry_cell_setting 'monoclinic'
loop_
_space_group_symop_operation_xyz
x,y,z
-x,y,-z
-x,-y,-z
x,-y,z
1/2+x,1/2+y,z
1/2-x,1/2+y,-z
1/2-x,1/2-y,-z
1/2+x,1/2-y,z
loop_
_atom_site_type_symbol
_atom_site_label
_atom_site_fract_x
_atom_site_fract_y
_atom_site_fract_z
Si Si1 0.848712 0.168923 0.531215
Si Si2 0.455006 0.833375 0.543371
Si Si3 0.869479 0.332765 0.355066
Si Si4 0.087398 0.167490 0.182236
Si Si5 0.199339 0.671115 0.194574
Si Si6 0.181277 0.165335 0.373365
Si Si7 0.947586 0.659252 0.008799
O O1 0.928928 0.236439 0.571408
O O2 0.858850 0.205418 0.603928
O O3 0.761876 0.235784 0.431158
O O4 0.846612 0.000000 0.517579
O O5 0.397211 0.792728 0.440564
O O6 0.553128 0.802716 0.617256
O O7 0.441371 0.000000 0.546582
O O8 0.841174 0.500000 0.327168
O O9 0.793522 0.229993 0.269275
O O10 0.156693 0.251705 0.208274
O O11 0.109106 0.190481 0.264587
O O12 0.089506 0.000000 0.167163
O O13 0.991874 0.227841 0.088840
O O14 0.200238 0.500000 0.206695
O O15 0.147527 0.706257 0.092988
O O16 0.213547 0.000000 0.401649
O O17 0.947119 0.500000 0.035798
O O18 0.000000 0.652936 0.000000
#
# Coordination Sequence:
#
# PCOD8080267 Si02
#       7
#     8   8   8   8   8   8   8
#     4  10  19  30  45  64  86 114 146 177 210 250
#     4   9  18  32  46  62  87 115 142 176 214 247
#     4   9  18  31  46  63  85 115 146 173 207 253
#     4  10  18  28  44  63  85 115 147 176 207 249
#     4  10  19  29  42  63  91 116 139 174 215 251
#     4   9  19  32  43  61  89 116 143 176 213 249
#     4   8  16  29  41  58  87 115 137 170 215 255
#
# _framework density 15.624815
#
# number of rings (size 3 to 8) (size 9 to 14) (size 15 to 20)
#    0.000    2.714    0.000    3.857    0.000    9.429 
#    0.000    1.429    0.000    0.000    0.000    1.000 
#    0.000    0.000    0.000    0.000    0.000    0.000 
#
# Total GULP energy -347161.140548 kJ/mol
# GULP energy per Si atom -12398.612162 kJ/mol
# Density = 1.558925 g / cm^3
# Si number density = 15.624815 Si / 1000 Ang^3
#
#
#
# Elastic Constant Matrix: (Units=GPa)
#
#
# Indices 1 2 3 4 5 6 
#
# 1 71.9524 44.4056 38.0064 0.0000 2.5965 0.0000
# 2 44.4056 90.9404 59.5009 0.0000 2.7586 0.0000
# 3 38.0064 59.5009 113.9278 0.0000 6.1923 0.0000
# 4 0.0000 0.0000 0.0000 28.1406 0.0000 2.9790
# 5 2.5965 2.7586 6.1923 0.0000 18.7663 0.0000
# 6 0.0000 0.0000 0.0000 2.9790 0.0000 25.2273
#
#
#
# Elastic Compliance Matrix: (Units=1/GPa)
#
#
# Indices 1 2 3 4 5 6 
#
# 1 0.020337 -0.008348 -0.002381 0.000000 -0.000801 0.000000
# 2 -0.008348 0.020135 -0.007772 0.000000 0.000760 0.000000
# 3 -0.002381 -0.007772 0.013798 0.000000 -0.003081 0.000000
# 4 0.000000 0.000000 0.000000 0.035986 0.000000 -0.004249
# 5 -0.000801 0.000760 -0.003081 0.000000 0.054303 0.000000
# 6 0.000000 0.000000 0.000000 -0.004249 0.000000 0.040141
#
#
# Mechanical properties :
#
#
# Convention : Reuss Voigt Hill
#
# Bulk Modulus (GPa) = 57.91216 62.29404 60.10310
# Shear Modulus (GPa) = 21.98212 23.42068 22.70140
#
# Velocity S-wave (km/s) = 3.75490 3.87582 3.81584
# Velocity P-wave (km/s) = 7.47955 7.74496 7.61341
#
# Compressibility (1/GPa) = 0.01726753
#
# Stress axis : x y z
#
# Youngs Moduli (GPa) = 49.17217 49.66547 72.47289
#
# Poissons Ratio (x) = 0.41462 0.17254
# Poissons Ratio (y) = 0.41050 0.56326
# Poissons Ratio (z) = 0.11707 0.38600
#
# Static dielectric constant tensor:
#      x y z
#    x 2.744650 0.000000 0.018210 
#    y 0.000000 3.061550 0.000000 
#    z 0.018210 0.000000 3.138500 
# 
# 
# High freq. dielectric constant tensor:
#      x y z
#    x 1.566370 0.000000 0.001980 
#    y 0.000000 1.609890 0.000000 
#    z 0.001980 0.000000 1.595210 
# 
# From -- ./inp_files/243054.got.cif
#   From: 2010.06.25/outbox.cif.g09.slc.cpg/sg12_122_cif.got.tgz:243054.got - 2010.06.28 00:19:55.
