data_PCOD8080181
_publ_section_title
;
Structure prediction by ZEFSAII (Michael W. Deem and Ramdas Pophale) SiO2 
 PCOD8080181
Probable space group: C 2/M
;
_chemical_formula_sum "Si O2"
_cell_formula_units_Z 56
_cell_length_a 20.408989
_cell_length_b 9.537869
_cell_length_c 22.421260
_cell_angle_alpha 90.000000
_cell_angle_beta 51.408992
_cell_angle_gamma 90.000000
_cell_volume 3411.360528
_symmetry_space_group_name_H-M "C 2/M"
_symmetry_group_IT_number 12
_symmetry_cell_setting 'monoclinic'
loop_
_space_group_symop_operation_xyz
x,y,z
-x,y,-z
-x,-y,-z
x,-y,z
1/2+x,1/2+y,z
1/2-x,1/2+y,-z
1/2-x,1/2-y,-z
1/2+x,1/2-y,z
loop_
_atom_site_type_symbol
_atom_site_label
_atom_site_fract_x
_atom_site_fract_y
_atom_site_fract_z
Si Si1 0.682328 0.657993 0.828867
Si Si2 0.096553 0.338754 0.456849
Si Si3 0.076200 0.166311 0.993132
Si Si4 0.514819 0.343030 0.845560
Si Si5 0.396093 0.160665 0.293415
Si Si6 0.833749 0.337981 0.454922
Si Si7 0.231080 0.164552 0.312777
O O1 0.719742 0.500000 0.805680
O O2 0.595664 0.661369 0.842065
O O3 0.748150 0.766543 0.763188
O O4 0.662846 0.704719 0.909125
O O5 0.120614 0.500000 0.429065
O O6 0.114358 0.302363 0.515525
O O7 0.148033 0.236427 0.385008
O O8 0.000000 0.309001 0.500000
O O9 0.065480 0.211748 0.069093
O O10 0.065252 0.000000 0.997834
O O11 0.000000 0.237174 0.000000
O O12 0.498882 0.500000 0.831076
O O13 0.528962 0.247299 0.779653
O O14 0.392508 0.199951 0.365198
O O15 0.305879 0.196623 0.316312
O O16 0.418832 0.000000 0.269843
O O17 0.806959 0.500000 0.466887
O O18 0.750000 0.250000 0.500000
O O19 0.215327 0.000000 0.312977
#
# Coordination Sequence:
#
# PCOD8080181 Si02
#       7
#     8   8   8   8   8   8   8
#     4   8  13  22  37  55  78 111 147 180 212 252
#     4  10  21  35  50  67  87 115 152 191 227 264
#     4   7  10  18  32  51  76 107 143 177 209 247
#     4   8  13  21  35  55  79 110 145 178 211 251
#     4   9  17  27  39  60  87 113 141 176 218 262
#     4  10  19  32  49  67  89 115 148 187 224 266
#     4  10  18  28  42  62  88 115 145 181 222 268
#
# _framework density 16.415738000000001
#
# number of rings (size 3 to 8) (size 9 to 14) (size 15 to 20)
#    0.000    3.143    1.429    2.143    0.000    1.429 
#    0.000    0.714    0.000    4.286    0.000    0.000 
#    0.000    1.143    0.000    2.286    0.000    3.143 
#
# Total GULP energy -346914.186810 kJ/mol
# GULP energy per Si atom -12389.792386 kJ/mol
# Density = 1.637837 g / cm^3
# Si number density = 16.415738 Si / 1000 Ang^3
#
#
#
# Elastic Constant Matrix: (Units=GPa)
#
#
# Indices 1 2 3 4 5 6 
#
# 1 46.1972 27.0445 40.8424 0.0000 4.7016 0.0000
# 2 27.0445 78.7718 78.8955 0.0001 3.1294 -0.0002
# 3 40.8424 78.8955 175.7624 0.0000 14.9842 0.0000
# 4 0.0000 0.0001 0.0000 29.3016 0.0000 1.6524
# 5 4.7016 3.1294 14.9842 0.0000 9.4890 0.0000
# 6 0.0000 -0.0002 0.0000 1.6524 0.0000 10.1736
#
#
#
# Elastic Compliance Matrix: (Units=1/GPa)
#
#
# Indices 1 2 3 4 5 6 
#
# 1 0.029003 -0.006418 -0.003252 0.000000 -0.007119 0.000000
# 2 -0.006418 0.025354 -0.010917 0.000000 0.012058 0.000000
# 3 -0.003252 -0.010917 0.012597 0.000000 -0.014681 0.000000
# 4 0.000000 0.000000 0.000000 0.034443 0.000000 -0.005594
# 5 -0.007119 0.012058 -0.014681 0.000000 0.128119 0.000000
# 6 0.000000 0.000000 0.000000 -0.005594 0.000000 0.099203
#
#
# Mechanical properties :
#
#
# Convention : Reuss Voigt Hill
#
# Bulk Modulus (GPa) = 38.78983 66.03291 52.41137
# Shear Modulus (GPa) = 13.21056 20.05610 16.63333
#
# Velocity S-wave (km/s) = 2.83989 3.49916 3.18662
# Velocity P-wave (km/s) = 5.86807 7.52584 6.74805
#
# Compressibility (1/GPa) = 0.02577996
#
# Stress axis : x y z
#
# Youngs Moduli (GPa) = 34.47955 39.44187 79.38234
#
# Poissons Ratio (x) = 0.25313 0.25813
# Poissons Ratio (y) = 0.22128 0.86665
# Poissons Ratio (z) = 0.11212 0.43060
#
# Static dielectric constant tensor:
#      x y z
#    x 3.225500 0.000000 0.700680 
#    y 0.000000 3.024500 0.000000 
#    z 0.700680 0.000000 3.921650 
# 
# 
# High freq. dielectric constant tensor:
#      x y z
#    x 1.557450 0.000000 0.016290 
#    y 0.000000 1.619400 0.000000 
#    z 0.016290 0.000000 1.655440 
# 
# From -- ./inp_files/345461.got.cif
#   From: 2010.06.25/outbox.cif.g09.slc.cpg/sg12_173_cif.got.tgz:345461.got - 2010.06.28 00:19:55.
