data_PCOD8080859
_publ_section_title
;
Structure prediction by ZEFSAII (Michael W. Deem and Ramdas Pophale) SiO2 
 PCOD8080859
Probable space group: C 2/M
;
_chemical_formula_sum "Si O2"
_cell_formula_units_Z 56
_cell_length_a 9.328953
_cell_length_b 28.212181
_cell_length_c 15.597410
_cell_angle_alpha 90.000000
_cell_angle_beta 129.497250
_cell_angle_gamma 90.000000
_cell_volume 3167.709102
_symmetry_space_group_name_H-M "C 2/M"
_symmetry_group_IT_number 12
_symmetry_cell_setting 'monoclinic'
loop_
_space_group_symop_operation_xyz
x,y,z
-x,y,-z
-x,-y,-z
x,-y,z
1/2+x,1/2+y,z
1/2-x,1/2+y,-z
1/2-x,1/2-y,-z
1/2+x,1/2-y,z
loop_
_atom_site_type_symbol
_atom_site_label
_atom_site_fract_x
_atom_site_fract_y
_atom_site_fract_z
Si Si1 0.846785 0.944212 0.512651
Si Si2 0.338978 0.816548 0.993549
Si Si3 0.097426 0.945629 0.269348
Si Si4 0.279366 0.811484 0.255821
Si Si5 0.031162 0.598246 0.609229
Si Si6 0.458147 0.748823 0.185538
Si Si7 0.467525 0.618625 0.078518
O O1 0.912319 0.929505 0.634095
O O2 0.658654 0.916091 0.413753
O O3 0.000000 0.930269 0.500000
O O4 0.803693 0.000000 0.494499
O O5 0.194213 0.792716 0.872265
O O6 0.232881 0.856441 0.007166
O O7 0.500000 0.841696 0.000000
O O8 0.438933 0.777172 0.089575
O O9 0.297178 0.935908 0.300217
O O10 0.955678 0.915366 0.157103
O O11 0.041936 0.000000 0.239827
O O12 0.411573 0.846881 0.359226
O O13 0.423265 0.783499 0.251215
O O14 0.164659 0.774390 0.271774
O O15 0.127003 0.841179 0.144884
O O16 0.000000 0.585972 0.500000
O O17 0.500000 0.591373 0.000000
#
# Coordination Sequence:
#
# PCOD8080859 Si02
#       7
#     8   8   8   8   8   8   8
#     4   9  17  33  57  81 101 125 162 207 251 298
#     4  10  18  29  47  68  94 128 168 209 247 284
#     4   9  18  33  53  76 102 133 165 201 248 299
#     4  10  19  32  48  72  98 128 169 210 249 290
#     4   9  18  34  53  74  99 129 163 207 249 298
#     4  10  18  29  47  69  93 128 167 209 247 286
#     4  10  19  31  48  73 104 132 167 208 245 293
#
# _framework density 17.678391000000001
#
# number of rings (size 3 to 8) (size 9 to 14) (size 15 to 20)
#    0.000    2.429    2.857    0.429    0.000    2.000 
#    2.571    2.143    0.000    0.429    0.000    0.000 
#    0.000    0.000    0.000    0.000    0.000    0.000 
#
# Total GULP energy -346969.336393 kJ/mol
# GULP energy per Si atom -12391.762014 kJ/mol
# Density = 1.763815 g / cm^3
# Si number density = 17.678391 Si / 1000 Ang^3
#
#
#
# Elastic Constant Matrix: (Units=GPa)
#
#
# Indices 1 2 3 4 5 6 
#
# 1 114.0295 37.7629 29.4381 0.0000 3.3311 0.0000
# 2 37.7629 70.5850 24.3820 0.0000 2.1706 0.0000
# 3 29.4381 24.3820 38.6149 0.0000 0.9199 0.0000
# 4 0.0000 0.0000 0.0000 25.9747 0.0000 -2.2669
# 5 3.3311 2.1706 0.9199 0.0000 21.6933 0.0000
# 6 0.0000 0.0000 0.0000 -2.2669 0.0000 26.4193
#
#
#
# Elastic Compliance Matrix: (Units=1/GPa)
#
#
# Indices 1 2 3 4 5 6 
#
# 1 0.011803 -0.004068 -0.006402 0.000000 -0.001134 0.000000
# 2 -0.004068 0.019560 -0.009227 0.000000 -0.000941 0.000000
# 3 -0.006402 -0.009227 0.036595 0.000000 0.000354 0.000000
# 4 0.000000 0.000000 0.000000 0.038789 0.000000 0.003328
# 5 -0.001134 -0.000941 0.000354 0.000000 0.046350 0.000000
# 6 0.000000 0.000000 0.000000 0.003328 0.000000 0.038137
#
#
# Mechanical properties :
#
#
# Convention : Reuss Voigt Hill
#
# Bulk Modulus (GPa) = 35.00958 45.15505 40.08232
# Shear Modulus (GPa) = 20.82043 23.59391 22.20717
#
# Velocity S-wave (km/s) = 3.43554 3.65721 3.54810
# Velocity P-wave (km/s) = 5.96522 6.59026 6.28551
#
# Compressibility (1/GPa) = 0.02856361
#
# Stress axis : x y z
#
# Youngs Moduli (GPa) = 84.72548 51.12526 27.32634
#
# Poissons Ratio (x) = 0.20799 0.17495
# Poissons Ratio (y) = 0.34468 0.25213
# Poissons Ratio (z) = 0.54243 0.47171
#
# Static dielectric constant tensor:
#      x y z
#    x 3.375860 0.000000 0.106460 
#    y 0.000000 3.150220 0.000000 
#    z 0.106460 0.000000 3.121780 
# 
# 
# High freq. dielectric constant tensor:
#      x y z
#    x 1.685580 0.000000 0.001410 
#    y 0.000000 1.665900 0.000000 
#    z 0.001410 0.000000 1.653100 
# 
# From -- ./inp_files/200827.got.cif
#   From: 2010.06.25/outbox.cif.g09.slc.cpg/sg12_101_cif.got.tgz:200827.got - 2010.06.28 00:19:55.
