data_PCOD8080493
_publ_section_title
;
Structure prediction by ZEFSAII (Michael W. Deem and Ramdas Pophale) SiO2 
 PCOD8080493
Probable space group: C 2/M
;
_chemical_formula_sum "Si O2"
_cell_formula_units_Z 64
_cell_length_a 31.738829
_cell_length_b 9.170180
_cell_length_c 15.736118
_cell_angle_alpha 90.000000
_cell_angle_beta 125.211715
_cell_angle_gamma 90.000000
_cell_volume 3741.991385
_symmetry_space_group_name_H-M "C 2/M"
_symmetry_group_IT_number 12
_symmetry_cell_setting 'monoclinic'
loop_
_space_group_symop_operation_xyz
x,y,z
-x,y,-z
-x,-y,-z
x,-y,z
1/2+x,1/2+y,z
1/2-x,1/2+y,-z
1/2-x,1/2-y,-z
1/2+x,1/2-y,z
loop_
_atom_site_type_symbol
_atom_site_label
_atom_site_fract_x
_atom_site_fract_y
_atom_site_fract_z
Si Si1 0.441496 0.669174 0.827030
Si Si2 0.321268 0.171432 0.422341
Si Si3 0.660682 0.334074 0.385916
Si Si4 0.707302 0.330254 0.260964
Si Si5 0.035933 0.331866 0.857395
Si Si6 0.025454 0.672916 0.656045
Si Si7 0.077858 0.326531 0.550496
Si Si8 0.385350 0.832080 0.910594
O O1 0.449312 0.500000 0.858589
O O2 0.399787 0.689137 0.703649
O O3 0.494892 0.736910 0.860077
O O4 0.422987 0.749435 0.890119
O O5 0.321990 0.233332 0.517504
O O6 0.267056 0.209170 0.313799
O O7 0.367678 0.237713 0.419288
O O8 0.327588 0.000000 0.440038
O O9 0.672371 0.500000 0.424866
O O10 0.693477 0.288263 0.341560
O O11 0.695404 0.500000 0.231336
O O12 0.671786 0.237776 0.155443
O O13 0.017243 0.500000 0.835139
O O14 0.041367 0.270201 0.767720
O O15 0.091199 0.316958 0.967550
O O16 0.026771 0.500000 0.655005
O O17 0.065823 0.731824 0.631913
O O18 0.967702 0.726568 0.565577
O O19 0.080351 0.500000 0.554211
O O20 0.381572 0.000000 0.878172
#
# Coordination Sequence:
#
# PCOD8080493 Si02
#       8
#     8   8   8   8   8   8   8   8
#     4  10  20  32  46  67  96 126 152 181 222 271
#     4  10  18  28  47  71  90 115 155 194 227 267
#     4   9  18  30  42  62  93 123 149 179 222 274
#     4   9  19  33  45  62  91 123 155 191 228 268
#     4  10  19  30  47  70  92 117 153 193 227 263
#     4   8  14  26  44  68  97 119 139 178 228 272
#     4   8  14  25  44  70  94 116 143 178 225 275
#     4  10  20  32  46  65  89 120 158 193 225 264
#
# _framework density 17.103193000000001
#
# number of rings (size 3 to 8) (size 9 to 14) (size 15 to 20)
#    0.000    2.750    0.000    3.750    0.000    6.500 
#    0.000    0.000    0.000    1.500    0.000    3.500 
#    0.000    0.000    0.000    0.000    0.000    0.125 
#
# Total GULP energy -396705.988524 kJ/mol
# GULP energy per Si atom -12397.062141 kJ/mol
# Density = 1.706426 g / cm^3
# Si number density = 17.103193 Si / 1000 Ang^3
#
#
#
# Elastic Constant Matrix: (Units=GPa)
#
#
# Indices 1 2 3 4 5 6 
#
# 1 108.6652 31.4551 60.9994 0.0000 14.4019 0.0000
# 2 31.4551 53.3489 41.5300 0.0000 5.6305 0.0000
# 3 60.9994 41.5300 116.2412 0.0000 1.8772 0.0000
# 4 0.0000 0.0000 0.0000 17.7469 0.0000 7.8132
# 5 14.4019 5.6305 1.8772 0.0000 20.4006 0.0000
# 6 0.0000 0.0000 0.0000 7.8132 0.0000 14.2295
#
#
#
# Elastic Compliance Matrix: (Units=1/GPa)
#
#
# Indices 1 2 3 4 5 6 
#
# 1 0.014988 -0.002569 -0.006798 0.000000 -0.009246 0.000000
# 2 -0.002569 0.027247 -0.008307 0.000000 -0.004942 0.000000
# 3 -0.006798 -0.008307 0.015046 0.000000 0.005707 0.000000
# 4 0.000000 0.000000 0.000000 0.074312 0.000000 -0.040803
# 5 -0.009246 -0.004942 0.005707 0.000000 0.056384 0.000000
# 6 0.000000 0.000000 0.000000 -0.040803 0.000000 0.092681
#
#
# Mechanical properties :
#
#
# Convention : Reuss Voigt Hill
#
# Bulk Modulus (GPa) = 45.59289 60.69159 53.14224
# Shear Modulus (GPa) = 15.46474 20.09345 17.77909
#
# Velocity S-wave (km/s) = 3.01026 3.43131 3.22766
# Velocity P-wave (km/s) = 6.22877 7.15968 6.71039
#
# Compressibility (1/GPa) = 0.02193324
#
# Stress axis : x y z
#
# Youngs Moduli (GPa) = 66.72167 36.70062 66.46438
#
# Poissons Ratio (x) = 0.09429 0.45181
# Poissons Ratio (y) = 0.17143 0.55210
# Poissons Ratio (z) = 0.45356 0.30486
#
# Static dielectric constant tensor:
#      x y z
#    x 3.374170 0.000000 0.054040 
#    y 0.000000 2.980570 0.000000 
#    z 0.054040 0.000000 3.292390 
# 
# 
# High freq. dielectric constant tensor:
#      x y z
#    x 1.646530 0.000000 0.011000 
#    y 0.000000 1.637150 0.000000 
#    z 0.011000 0.000000 1.654730 
# 
# From -- ./inp_files/249042.got.cif
#   From: 2010.06.25/outbox.cif.g09.slc.cpg/sg12_125_cif.got.tgz:249042.got - 2010.06.28 00:19:55.
