data_PCOD8080757
_publ_section_title
;
Structure prediction by ZEFSAII (Michael W. Deem and Ramdas Pophale) SiO2 
 PCOD8080757
Probable space group: C 2/M
;
_chemical_formula_sum "Si O2"
_cell_formula_units_Z 64
_cell_length_a 17.620359
_cell_length_b 26.018005
_cell_length_c 17.575631
_cell_angle_alpha 90.000000
_cell_angle_beta 147.059069
_cell_angle_gamma 90.000000
_cell_volume 4381.453483
_symmetry_space_group_name_H-M "C 2/M"
_symmetry_group_IT_number 12
_symmetry_cell_setting 'monoclinic'
loop_
_space_group_symop_operation_xyz
x,y,z
-x,y,-z
-x,-y,-z
x,-y,z
1/2+x,1/2+y,z
1/2-x,1/2+y,-z
1/2-x,1/2-y,-z
1/2+x,1/2-y,z
loop_
_atom_site_type_symbol
_atom_site_label
_atom_site_fract_x
_atom_site_fract_y
_atom_site_fract_z
Si Si1 0.132841 0.210867 0.927470
Si Si2 0.601066 0.347462 0.456916
Si Si3 0.848539 0.441358 0.897241
Si Si4 0.324465 0.710842 0.617608
Si Si5 0.703790 0.353675 0.855679
Si Si6 0.849836 0.253212 0.400601
Si Si7 0.851335 0.942808 0.411430
Si Si8 0.149358 0.741148 0.091728
O O1 0.164137 0.156028 0.911794
O O2 0.978392 0.230367 0.772336
O O3 0.250000 0.250000 0.000000
O O4 0.140537 0.209692 0.026137
O O5 0.660046 0.340237 0.420744
O O6 0.433405 0.351389 0.312903
O O7 0.640928 0.301785 0.548987
O O8 0.671585 0.400480 0.542845
O O9 0.852344 0.500000 0.929989
O O10 0.781985 0.407969 0.909786
O O11 0.761394 0.435093 0.747909
O O12 0.000000 0.421370 0.000000
O O13 0.250000 0.750000 0.500000
O O14 0.223855 0.704577 0.606263
O O15 0.809142 0.309318 0.919558
O O16 0.759886 0.251203 0.249513
O O17 0.000000 0.273419 0.500000
O O18 0.000000 0.933098 0.500000
O O19 0.841240 0.000000 0.438987
O O20 0.000000 0.729815 0.000000
#
# Coordination Sequence:
#
# PCOD8080757 Si02
#       8
#     8   8   8   8   8   8   8   8
#     4   9  19  31  42  61  88 113 145 184 217 254
#     4  10  18  30  45  63  88 115 149 178 216 259
#     4  10  20  32  44  64  91 115 144 181 214 250
#     4   9  19  31  43  60  86 117 145 180 219 256
#     4  10  18  30  45  62  86 119 147 178 217 258
#     4  11  19  30  45  62  86 119 149 180 218 256
#     4  10  18  29  46  65  86 113 146 179 209 249
#     4  11  19  29  43  62  87 113 151 185 210 257
#
# _framework density 14.607023999999999
#
# number of rings (size 3 to 8) (size 9 to 14) (size 15 to 20)
#    0.000    2.000    3.750    1.500    1.750    0.000 
#    2.250    0.000    0.000    0.000    0.000    0.000 
#    0.000    2.000    0.000    0.125    0.000    0.125 
#
# Total GULP energy -396477.447787 kJ/mol
# GULP energy per Si atom -12389.920243 kJ/mol
# Density = 1.457378 g / cm^3
# Si number density = 14.607024 Si / 1000 Ang^3
#
#
#
# Elastic Constant Matrix: (Units=GPa)
#
#
# Indices 1 2 3 4 5 6 
#
# 1 95.0074 43.6459 40.7822 0.0000 4.3482 0.0000
# 2 43.6459 66.5955 23.2670 0.0000 -3.2295 0.0000
# 3 40.7822 23.2670 91.4525 0.0000 6.1248 0.0000
# 4 0.0000 0.0000 0.0000 17.7808 0.0000 -2.2116
# 5 4.3482 -3.2295 6.1248 0.0000 26.6100 0.0000
# 6 0.0000 0.0000 0.0000 -2.2116 0.0000 24.3085
#
#
#
# Elastic Compliance Matrix: (Units=1/GPa)
#
#
# Indices 1 2 3 4 5 6 
#
# 1 0.017277 -0.009697 -0.005047 0.000000 -0.002838 0.000000
# 2 -0.009697 0.022165 -0.001626 0.000000 0.004649 0.000000
# 3 -0.005047 -0.001626 0.013769 0.000000 -0.002542 0.000000
# 4 0.000000 0.000000 0.000000 0.056884 0.000000 0.005175
# 5 -0.002838 0.004649 -0.002542 0.000000 0.039193 0.000000
# 6 0.000000 0.000000 0.000000 0.005175 0.000000 0.041609
#
#
# Mechanical properties :
#
#
# Convention : Reuss Voigt Hill
#
# Bulk Modulus (GPa) = 48.85179 52.04951 50.45065
# Shear Modulus (GPa) = 21.69560 23.43055 22.56307
#
# Velocity S-wave (km/s) = 3.85812 4.00942 3.93450
# Velocity P-wave (km/s) = 7.30503 7.55940 7.43330
#
# Compressibility (1/GPa) = 0.02047008
#
# Stress axis : x y z
#
# Youngs Moduli (GPa) = 57.88123 45.11606 72.62534
#
# Poissons Ratio (x) = 0.43750 0.36655
# Poissons Ratio (y) = 0.56129 0.11810
# Poissons Ratio (z) = 0.29213 0.07336
#
# Static dielectric constant tensor:
#      x y z
#    x 3.380510 0.000000 -0.119410 
#    y 0.000000 2.792320 0.000000 
#    z -0.119410 0.000000 3.002220 
# 
# 
# High freq. dielectric constant tensor:
#      x y z
#    x 1.553630 0.000000 0.008360 
#    y 0.000000 1.516090 0.000000 
#    z 0.008360 0.000000 1.579200 
# 
# From -- ./inp_files/78815.got.cif
#   From: 2010.06.25/outbox.cif.g09.slc.cpg/sg12_40_cif.got.tgz:78815.got - 2010.06.28 00:19:55.
