data_PCOD8080515
_publ_section_title
;
Structure prediction by ZEFSAII (Michael W. Deem and Ramdas Pophale) SiO2 
 PCOD8080515
Probable space group: C 2/M
;
_chemical_formula_sum "Si O2"
_cell_formula_units_Z 64
_cell_length_a 20.869094
_cell_length_b 9.017995
_cell_length_c 18.757064
_cell_angle_alpha 90.000000
_cell_angle_beta 87.836612
_cell_angle_gamma 90.000000
_cell_volume 3527.514345
_symmetry_space_group_name_H-M "C 2/M"
_symmetry_group_IT_number 12
_symmetry_cell_setting 'monoclinic'
loop_
_space_group_symop_operation_xyz
x,y,z
-x,y,-z
-x,-y,-z
x,-y,z
1/2+x,1/2+y,z
1/2-x,1/2+y,-z
1/2-x,1/2-y,-z
1/2+x,1/2-y,z
loop_
_atom_site_type_symbol
_atom_site_label
_atom_site_fract_x
_atom_site_fract_y
_atom_site_fract_z
Si Si1 0.877343 0.674165 0.330992
Si Si2 0.111177 0.323121 0.320458
Si Si3 0.004027 0.324875 0.579274
Si Si4 0.760776 0.161843 0.163719
Si Si5 0.986433 0.825663 0.920004
Si Si6 0.876889 0.322359 0.840261
Si Si7 0.250714 0.336607 0.332755
Si Si8 0.395857 0.677558 0.181714
O O1 0.874299 0.500000 0.316799
O O2 0.926996 0.715866 0.391190
O O3 0.807089 0.729723 0.358820
O O4 0.903732 0.751949 0.258921
O O5 0.110993 0.500000 0.319587
O O6 0.102177 0.266638 0.239391
O O7 0.179486 0.270642 0.351731
O O8 0.053267 0.256858 0.370039
O O9 0.994219 0.500000 0.576922
O O10 0.000000 0.257045 0.500000
O O11 0.695413 0.240645 0.139232
O O12 0.755599 0.146237 0.248438
O O13 0.829915 0.239335 0.146463
O O14 0.762877 0.000000 0.127717
O O15 0.922691 0.743485 0.897940
O O16 0.045376 0.771048 0.869224
O O17 0.975518 0.000000 0.913484
O O18 0.000000 0.777832 0.000000
O O19 0.877168 0.500000 0.843422
O O20 0.259211 0.500000 0.367457
O O21 0.391904 0.500000 0.190043
#
# Coordination Sequence:
#
# PCOD8080515 Si02
#       8
#     8   8   8   8   8   8   8   8
#     4  10  18  28  47  73  95 114 146 195 236 264
#     4   8  14  27  48  69  88 119 160 191 219 268
#     4   9  17  28  42  64  95 127 157 190 228 268
#     4   7  12  25  46  68  85 109 147 184 217 259
#     4  10  21  34  46  65  95 126 152 181 223 274
#     4   9  16  29  50  71  89 112 151 197 229 259
#     4   8  14  27  47  68  91 119 150 183 224 277
#     4   9  17  32  52  68  88 122 156 182 218 274
#
# _framework density 18.143087999999999
#
# number of rings (size 3 to 8) (size 9 to 14) (size 15 to 20)
#    0.000    3.250    0.000    3.375    0.000    1.750 
#    0.000    6.875    0.000    3.000    0.000    0.000 
#    0.000    0.000    0.000    0.000    0.000    0.000 
#
# Total GULP energy -396449.236160 kJ/mol
# GULP energy per Si atom -12389.038630 kJ/mol
# Density = 1.810179 g / cm^3
# Si number density = 18.143088 Si / 1000 Ang^3
#
#
#
# Elastic Constant Matrix: (Units=GPa)
#
#
# Indices 1 2 3 4 5 6 
#
# 1 144.2056 30.2449 50.1274 0.0000 29.8803 0.0000
# 2 30.2449 29.3358 21.1559 0.0000 7.9196 0.0000
# 3 50.1274 21.1559 78.6269 0.0000 21.8861 0.0000
# 4 0.0000 0.0000 0.0000 14.5303 0.0000 4.5066
# 5 29.8803 7.9196 21.8861 0.0000 16.4357 0.0000
# 6 0.0000 0.0000 0.0000 4.5066 0.0000 23.7187
#
#
#
# Elastic Compliance Matrix: (Units=1/GPa)
#
#
# Indices 1 2 3 4 5 6 
#
# 1 0.012542 -0.007355 -0.001043 0.000000 -0.017869 0.000000
# 2 -0.007355 0.047333 -0.008612 0.000000 0.002032 0.000000
# 3 -0.001043 -0.008612 0.022274 0.000000 -0.023613 0.000000
# 4 0.000000 0.000000 0.000000 0.073131 0.000000 -0.013895
# 5 -0.017869 0.002032 -0.023613 0.000000 0.123794 0.000000
# 6 0.000000 0.000000 0.000000 -0.013895 0.000000 0.044801
#
#
# Mechanical properties :
#
#
# Convention : Reuss Voigt Hill
#
# Bulk Modulus (GPa) = 20.77789 50.58053 35.67921
# Shear Modulus (GPa) = 13.37119 20.97961 17.17540
#
# Velocity S-wave (km/s) = 2.71769 3.40419 3.08013
# Velocity P-wave (km/s) = 4.61789 6.58715 5.68839
#
# Compressibility (1/GPa) = 0.04812808
#
# Stress axis : x y z
#
# Youngs Moduli (GPa) = 79.73037 21.12692 44.89602
#
# Poissons Ratio (x) = 0.15538 0.04685
# Poissons Ratio (y) = 0.58638 0.38666
# Poissons Ratio (z) = 0.08320 0.18195
#
# Static dielectric constant tensor:
#      x y z
#    x 3.985580 0.000000 -0.096910 
#    y 0.000000 2.926850 0.000000 
#    z -0.096910 0.000000 3.130830 
# 
# 
# High freq. dielectric constant tensor:
#      x y z
#    x 1.730740 0.000000 0.003100 
#    y 0.000000 1.655620 0.000000 
#    z 0.003100 0.000000 1.666690 
# 
# From -- ./inp_files/319161.got.cif
#   From: 2010.06.25/outbox.cif.g09.slc.cpg/sg12_160_cif.got.tgz:319161.got - 2010.06.28 00:19:55.
