data_PCOD8080086
_publ_section_title
;
Structure prediction by ZEFSAII (Michael W. Deem and Ramdas Pophale) SiO2 
 PCOD8080086
Probable space group: C 2/M
;
_chemical_formula_sum "Si O2"
_cell_formula_units_Z 56
_cell_length_a 25.431675
_cell_length_b 9.202494
_cell_length_c 22.145711
_cell_angle_alpha 90.000000
_cell_angle_beta 41.081579
_cell_angle_gamma 90.000000
_cell_volume 3405.833170
_symmetry_space_group_name_H-M "C 2/M"
_symmetry_group_IT_number 12
_symmetry_cell_setting 'monoclinic'
loop_
_space_group_symop_operation_xyz
x,y,z
-x,y,-z
-x,-y,-z
x,-y,z
1/2+x,1/2+y,z
1/2-x,1/2+y,-z
1/2-x,1/2-y,-z
1/2+x,1/2-y,z
loop_
_atom_site_type_symbol
_atom_site_label
_atom_site_fract_x
_atom_site_fract_y
_atom_site_fract_z
Si Si1 0.455991 0.326822 0.097656
Si Si2 0.515333 0.671507 0.394693
Si Si3 0.397529 0.327474 0.797666
Si Si4 0.871951 0.171940 0.596226
Si Si5 0.241994 0.828808 0.887216
Si Si6 0.777377 0.829251 0.235372
Si Si7 0.078497 0.172133 0.088801
O O1 0.456390 0.500000 0.094554
O O2 0.364864 0.270918 0.178644
O O3 0.503112 0.267780 0.115795
O O4 0.500000 0.265638 0.000000
O O5 0.517738 0.500000 0.397202
O O6 0.537086 0.725057 0.308500
O O7 0.426156 0.721251 0.491684
O O8 0.582260 0.728821 0.383456
O O9 0.385156 0.500000 0.806052
O O10 0.313035 0.254557 0.858325
O O11 0.429408 0.275269 0.835214
O O12 0.786640 0.250543 0.666136
O O13 0.857842 0.000000 0.609469
O O14 0.238907 0.787203 0.819737
O O15 0.253840 0.000000 0.886260
O O16 0.160849 0.771457 0.988430
O O17 0.770228 0.000000 0.251935
O O18 0.078316 0.000000 0.085100
#
# Coordination Sequence:
#
# PCOD8080086 Si02
#       7
#     8   8   8   8   8   8   8
#     4   9  15  27  45  64  88 118 148 180 213 247
#     4   8  15  27  44  64  85 114 147 179 214 258
#     4  10  18  29  46  67  89 114 148 183 214 255
#     4   9  16  29  46  62  86 117 146 178 221 261
#     4  10  18  28  42  66  95 119 141 170 219 270
#     4  10  18  27  45  69  91 113 144 182 218 256
#     4   9  17  28  44  65  88 118 152 179 208 255
#
# _framework density 16.44238
#
# number of rings (size 3 to 8) (size 9 to 14) (size 15 to 20)
#    0.000    2.714    2.857    1.286    0.000    0.000 
#    0.000    2.143    0.000    3.000    0.000    0.000 
#    0.000    0.000    0.000    0.000    0.000    0.000 
#
# Total GULP energy -347064.797389 kJ/mol
# GULP energy per Si atom -12395.171335 kJ/mol
# Density = 1.640496 g / cm^3
# Si number density = 16.442380 Si / 1000 Ang^3
#
#
#
# Elastic Constant Matrix: (Units=GPa)
#
#
# Indices 1 2 3 4 5 6 
#
# 1 126.3001 21.2967 72.6357 -0.0039 -9.0898 0.0025
# 2 21.2967 16.8645 23.5036 -0.0050 -3.8003 0.0038
# 3 72.6357 23.5036 150.9438 -0.0060 -12.6354 0.0051
# 4 -0.0039 -0.0050 -0.0060 20.6977 0.0017 -4.0550
# 5 -9.0898 -3.8003 -12.6354 0.0017 25.1813 -0.0021
# 6 0.0025 0.0038 0.0051 -4.0550 -0.0021 13.9602
#
#
#
# Elastic Compliance Matrix: (Units=1/GPa)
#
#
# Indices 1 2 3 4 5 6 
#
# 1 0.011950 -0.008925 -0.004293 -0.000001 0.000813 0.000002
# 2 -0.008925 0.083203 -0.008225 0.000013 0.005208 -0.000013
# 3 -0.004293 -0.008225 0.010165 0.000000 0.002310 0.000000
# 4 -0.000001 0.000013 0.000000 0.051230 -0.000001 0.014881
# 5 0.000813 0.005208 0.002310 -0.000001 0.041950 0.000004
# 6 0.000002 -0.000013 0.000000 0.014881 0.000004 0.075955
#
#
# Mechanical properties :
#
#
# Convention : Reuss Voigt Hill
#
# Bulk Modulus (GPa) = 16.01723 58.77560 37.39641
# Shear Modulus (GPa) = 14.78645 23.74601 19.26623
#
# Velocity S-wave (km/s) = 3.00207 3.80438 3.42679
# Velocity P-wave (km/s) = 4.66681 7.42440 6.20084
#
# Compressibility (1/GPa) = 0.06243276
#
# Stress axis : x y z
#
# Youngs Moduli (GPa) = 83.68398 12.01882 98.37963
#
# Poissons Ratio (x) = 0.10726 0.42231
# Poissons Ratio (y) = 0.74685 0.80918
# Poissons Ratio (z) = 0.35922 0.09886
#
# Static dielectric constant tensor:
#      x y z
#    x 3.200150 0.000000 0.077570 
#    y 0.000000 2.651680 0.000000 
#    z 0.077570 0.000000 3.392960 
# 
# 
# High freq. dielectric constant tensor:
#      x y z
#    x 1.617410 0.000000 -0.000850 
#    y 0.000000 1.587560 0.000000 
#    z -0.000850 0.000000 1.642530 
# 
# From -- ./inp_files/231797.got.cif
#   From: 2010.06.25/outbox.cif.g09.slc.cpg/sg12_116_cif.got.tgz:231797.got - 2010.06.28 00:19:55.
