data_PCOD8080417
_publ_section_title
;
Structure prediction by ZEFSAII (Michael W. Deem and Ramdas Pophale) SiO2 
 PCOD8080417
Probable space group: C 2/M
;
_chemical_formula_sum "Si O2"
_cell_formula_units_Z 64
_cell_length_a 18.910044
_cell_length_b 19.825734
_cell_length_c 11.763102
_cell_angle_alpha 90.000000
_cell_angle_beta 50.665564
_cell_angle_gamma 90.000000
_cell_volume 3410.995889
_symmetry_space_group_name_H-M "C 2/M"
_symmetry_group_IT_number 12
_symmetry_cell_setting 'monoclinic'
loop_
_space_group_symop_operation_xyz
x,y,z
-x,y,-z
-x,-y,-z
x,-y,z
1/2+x,1/2+y,z
1/2-x,1/2+y,-z
1/2-x,1/2-y,-z
1/2+x,1/2-y,z
loop_
_atom_site_type_symbol
_atom_site_label
_atom_site_fract_x
_atom_site_fract_y
_atom_site_fract_z
Si Si1 0.515687 0.244545 0.355632
Si Si2 0.829832 0.298278 0.960759
Si Si3 0.159235 0.923861 0.468663
Si Si4 0.566722 0.573425 0.037636
Si Si5 0.736483 0.573631 0.156107
Si Si6 0.606769 0.294594 0.910720
Si Si7 0.462383 0.394741 0.688250
Si Si8 0.159745 0.790894 0.603570
O O1 0.500000 0.216170 0.500000
O O2 0.587794 0.196682 0.215569
O O3 0.562586 0.317770 0.316798
O O4 0.421460 0.252922 0.381581
O O5 0.750000 0.250000 0.000000
O O6 0.791754 0.373041 0.024339
O O7 0.867739 0.269460 0.039866
O O8 0.232007 0.907639 0.294557
O O9 0.173513 0.867988 0.550175
O O10 0.053985 0.918134 0.525908
O O11 0.174579 0.000000 0.500154
O O12 0.615299 0.500000 0.005265
O O13 0.637775 0.634947 0.941390
O O14 0.500000 0.567100 0.000000
O O15 0.508324 0.595291 0.208744
O O16 0.782829 0.500000 0.091697
O O17 0.630388 0.563800 0.229454
O O18 0.652653 0.289625 0.744370
O O19 0.500000 0.295994 0.000000
O O20 0.250000 0.750000 0.500000
#
# Coordination Sequence:
#
# PCOD8080417 Si02
#       8
#     8   8   8   8   8   8   8   8
#     4  11  22  38  59  87 118 150 193 240 294 351
#     4  12  23  38  61  88 117 156 195 245 291 346
#     4  10  20  34  54  83 122 157 186 230 294 360
#     4  10  18  28  45  73 109 148 183 217 269 345
#     4  11  22  35  55  84 117 151 193 242 291 346
#     4  11  20  37  55  81 114 154 194 237 287 341
#     4  11  18  32  52  81 118 151 182 226 287 358
#     4  11  23  37  58  85 117 153 195 245 290 345
#
# _framework density 18.762848999999999
#
# number of rings (size 3 to 8) (size 9 to 14) (size 15 to 20)
#    0.000    1.125    3.750    6.000    1.750    2.500 
#    0.000    0.000    0.000    1.500    0.000    0.000 
#    0.000    0.000    0.000    0.000    0.000    0.000 
#
# Total GULP energy -396508.614792 kJ/mol
# GULP energy per Si atom -12390.894212 kJ/mol
# Density = 1.872014 g / cm^3
# Si number density = 18.762849 Si / 1000 Ang^3
#
#
#
# Elastic Constant Matrix: (Units=GPa)
#
#
# Indices 1 2 3 4 5 6 
#
# 1 47.3286 29.4743 31.1612 0.0000 -2.4631 0.0000
# 2 29.4743 112.1833 76.4766 0.0000 -6.1105 0.0000
# 3 31.1612 76.4766 136.7739 0.0000 1.2015 0.0000
# 4 0.0000 0.0000 0.0000 31.9096 0.0000 0.7927
# 5 -2.4631 -6.1105 1.2015 0.0000 24.7630 0.0000
# 6 0.0000 0.0000 0.0000 0.7927 0.0000 17.8376
#
#
#
# Elastic Compliance Matrix: (Units=1/GPa)
#
#
# Indices 1 2 3 4 5 6 
#
# 1 0.026291 -0.004397 -0.003546 0.000000 0.001702 0.000000
# 2 -0.004397 0.015536 -0.007718 0.000000 0.003771 0.000000
# 3 -0.003546 -0.007718 0.012460 0.000000 -0.002862 0.000000
# 4 0.000000 0.000000 0.000000 0.031373 0.000000 -0.001394
# 5 0.001702 0.003771 -0.002862 0.000000 0.041621 0.000000
# 6 0.000000 0.000000 0.000000 -0.001394 0.000000 0.056123
#
#
# Mechanical properties :
#
#
# Convention : Reuss Voigt Hill
#
# Bulk Modulus (GPa) = 43.54712 63.38999 53.46855
# Shear Modulus (GPa) = 22.48373 25.51364 23.99869
#
# Velocity S-wave (km/s) = 3.46542 3.69154 3.58027
# Velocity P-wave (km/s) = 6.26672 7.21305 6.75648
#
# Compressibility (1/GPa) = 0.02296363
#
# Stress axis : x y z
#
# Youngs Moduli (GPa) = 38.03633 64.36486 80.25638
#
# Poissons Ratio (x) = 0.28304 0.28459
# Poissons Ratio (y) = 0.16726 0.61945
# Poissons Ratio (z) = 0.13488 0.49679
#
# Static dielectric constant tensor:
#      x y z
#    x 3.267290 0.000000 0.282930 
#    y 0.000000 3.902290 0.000000 
#    z 0.282930 0.000000 3.437230 
# 
# 
# High freq. dielectric constant tensor:
#      x y z
#    x 1.702660 0.000000 0.028670 
#    y 0.000000 1.718840 0.000000 
#    z 0.028670 0.000000 1.737550 
# 
# From -- ./inp_files/168754.got.cif
#   From: 2010.06.25/outbox.cif.g09.slc.cpg/sg12_85_cif.got.tgz:168754.got - 2010.06.28 00:19:55.
