data_PCOD8080963
_publ_section_title
;
Structure prediction by ZEFSAII (Michael W. Deem and Ramdas Pophale) SiO2 
 PCOD8080963
Probable space group: C 2/M
;
_chemical_formula_sum "Si O2"
_cell_formula_units_Z 56
_cell_length_a 29.476326
_cell_length_b 8.978239
_cell_length_c 19.035355
_cell_angle_alpha 90.000000
_cell_angle_beta 141.932394
_cell_angle_gamma 90.000000
_cell_volume 3106.151075
_symmetry_space_group_name_H-M "C 2/M"
_symmetry_group_IT_number 12
_symmetry_cell_setting 'monoclinic'
loop_
_space_group_symop_operation_xyz
x,y,z
-x,y,-z
-x,-y,-z
x,-y,z
1/2+x,1/2+y,z
1/2-x,1/2+y,-z
1/2-x,1/2-y,-z
1/2+x,1/2-y,z
loop_
_atom_site_type_symbol
_atom_site_label
_atom_site_fract_x
_atom_site_fract_y
_atom_site_fract_z
Si Si1 0.814615 0.325540 0.906772
Si Si2 0.343240 0.672937 0.339192
Si Si3 0.033725 0.328248 0.971459
Si Si4 0.925579 0.331627 0.554021
Si Si5 0.636454 0.325309 0.901900
Si Si6 0.906671 0.672482 0.284589
Si Si7 0.506945 0.829736 0.226385
O O1 0.823815 0.500000 0.933293
O O2 0.742889 0.289687 0.773453
O O3 0.886134 0.262751 0.951961
O O4 0.806412 0.243929 0.972178
O O5 0.358891 0.500000 0.347008
O O6 0.368065 0.721016 0.447449
O O7 0.392097 0.763046 0.343622
O O8 0.046242 0.500000 0.005035
O O9 0.975954 0.308278 0.835778
O O10 0.000000 0.248505 0.000000
O O11 0.902374 0.500000 0.507361
O O12 0.923617 0.304340 0.636763
O O13 0.008135 0.299018 0.628663
O O14 0.649381 0.500000 0.911970
O O15 0.646178 0.254160 0.836402
O O16 0.555077 0.288349 0.829702
O O17 0.886436 0.500000 0.259147
O O18 0.477319 0.000000 0.202939
#
# Coordination Sequence:
#
# PCOD8080963 Si02
#       7
#     8   8   8   8   8   8   8
#     4   9  19  34  47  66  98 127 152 188 238 287
#     4  11  22  32  45  66  93 126 161 199 237 273
#     4   8  13  26  53  80  94 112 150 194 229 272
#     4   9  18  32  48  65  90 126 162 194 231 273
#     4  10  18  29  48  71  93 121 158 196 233 277
#     4  10  20  34  50  67  91 124 161 201 239 272
#     4   8  15  29  48  71  98 124 151 189 235 276
#
# _framework density 18.028742999999999
#
# number of rings (size 3 to 8) (size 9 to 14) (size 15 to 20)
#    0.000    2.714    0.000    4.286    0.000    6.286 
#    0.000    0.000    0.000    7.714    0.000    0.000 
#    0.000    0.000    0.000    0.000    0.000    1.286 
#
# Total GULP energy -347006.385131 kJ/mol
# GULP energy per Si atom -12393.085183 kJ/mol
# Density = 1.798771 g / cm^3
# Si number density = 18.028743 Si / 1000 Ang^3
#
#
#
# Elastic Constant Matrix: (Units=GPa)
#
#
# Indices 1 2 3 4 5 6 
#
# 1 46.3858 18.4348 47.5783 0.0000 -19.9568 0.0000
# 2 18.4348 78.2461 52.1046 0.0000 -4.2062 0.0000
# 3 47.5783 52.1046 144.1105 0.0000 -21.8270 0.0000
# 4 0.0000 0.0000 0.0000 30.3998 0.0000 -2.4562
# 5 -19.9568 -4.2062 -21.8270 0.0000 24.2753 0.0000
# 6 0.0000 0.0000 0.0000 -2.4562 0.0000 9.3664
#
#
#
# Elastic Compliance Matrix: (Units=1/GPa)
#
#
# Indices 1 2 3 4 5 6 
#
# 1 0.044015 -0.002602 -0.009468 0.000000 0.027221 0.000000
# 2 -0.002602 0.017172 -0.006047 0.000000 -0.004600 0.000000
# 3 -0.009468 -0.006047 0.012634 0.000000 0.002528 0.000000
# 4 0.000000 0.000000 0.000000 0.033607 0.000000 0.008813
# 5 0.027221 -0.004600 0.002528 0.000000 0.065049 0.000000
# 6 0.000000 0.000000 0.000000 0.008813 0.000000 0.109076
#
#
# Mechanical properties :
#
#
# Convention : Reuss Voigt Hill
#
# Bulk Modulus (GPa) = 26.60365 56.10864 41.35615
# Shear Modulus (GPa) = 15.13699 22.84995 18.99347
#
# Velocity S-wave (km/s) = 2.90073 3.56394 3.24930
# Velocity P-wave (km/s) = 5.09973 6.93721 6.08819
#
# Compressibility (1/GPa) = 0.03758883
#
# Stress axis : x y z
#
# Youngs Moduli (GPa) = 22.71933 58.23317 79.15031
#
# Poissons Ratio (x) = 0.15152 0.74940
# Poissons Ratio (y) = 0.05911 0.47859
# Poissons Ratio (z) = 0.21511 0.35211
#
# Static dielectric constant tensor:
#      x y z
#    x 3.230660 0.000000 -0.338430 
#    y 0.000000 3.142170 0.000000 
#    z -0.338430 0.000000 3.574210 
# 
# 
# High freq. dielectric constant tensor:
#      x y z
#    x 1.655590 0.000000 -0.026270 
#    y 0.000000 1.682380 0.000000 
#    z -0.026270 0.000000 1.705640 
# 
# From -- ./inp_files/280964.got.cif
#   From: 2010.06.25/outbox.cif.g09.slc.cpg/sg12_141_cif.got.tgz:280964.got - 2010.06.28 00:19:55.
