data_PCOD8080356
_publ_section_title
;
Structure prediction by ZEFSAII (Michael W. Deem and Ramdas Pophale) SiO2 
 PCOD8080356
Probable space group: C 2/M
;
_chemical_formula_sum "Si O2"
_cell_formula_units_Z 56
_cell_length_a 23.050854
_cell_length_b 9.015225
_cell_length_c 21.396188
_cell_angle_alpha 90.000000
_cell_angle_beta 131.441716
_cell_angle_gamma 90.000000
_cell_volume 3333.086587
_symmetry_space_group_name_H-M "C 2/M"
_symmetry_group_IT_number 12
_symmetry_cell_setting 'monoclinic'
loop_
_space_group_symop_operation_xyz
x,y,z
-x,y,-z
-x,-y,-z
x,-y,z
1/2+x,1/2+y,z
1/2-x,1/2+y,-z
1/2-x,1/2-y,-z
1/2+x,1/2-y,z
loop_
_atom_site_type_symbol
_atom_site_label
_atom_site_fract_x
_atom_site_fract_y
_atom_site_fract_z
Si Si1 0.647181 0.328239 0.873875
Si Si2 0.415269 0.675534 0.925935
Si Si3 0.300199 0.327672 0.949998
Si Si4 0.751289 0.664565 0.596170
Si Si5 0.877083 0.175542 0.759040
Si Si6 0.511176 0.823855 0.257922
Si Si7 0.636286 0.836244 0.441157
O O1 0.635278 0.500000 0.848879
O O2 0.722666 0.268729 0.892389
O O3 0.575299 0.234701 0.797279
O O4 0.654401 0.303279 0.953035
O O5 0.420018 0.500000 0.935351
O O6 0.354809 0.734843 0.934131
O O7 0.386680 0.724084 0.837472
O O8 0.500000 0.744152 0.000000
O O9 0.278306 0.500000 0.925452
O O10 0.739678 0.500000 0.615671
O O11 0.793241 0.767007 0.677238
O O12 0.666795 0.729755 0.518081
O O13 0.802579 0.658209 0.571126
O O14 0.947195 0.247912 0.771047
O O15 0.881340 0.000000 0.752733
O O16 0.555228 0.780401 0.353901
O O17 0.513323 0.000000 0.249120
O O18 0.626651 0.000000 0.463271
#
# Coordination Sequence:
#
# PCOD8080356 Si02
#       7
#     8   8   8   8   8   8   8
#     4  10  19  31  49  70  91 118 153 192 231 271
#     4   9  17  30  48  69  92 121 156 189 222 263
#     4   9  18  33  50  67  91 122 155 190 226 266
#     4   9  16  26  40  60  89 121 150 183 225 271
#     4  10  18  28  45  67  92 123 157 190 224 268
#     4  10  19  30  45  67  95 123 151 187 231 274
#     4   8  15  26  40  60  86 117 151 184 220 267
#
# _framework density 16.801242999999999
#
# number of rings (size 3 to 8) (size 9 to 14) (size 15 to 20)
#    0.000    2.714    0.000    3.429    0.000    6.857 
#    0.000    1.429    0.000    3.000    0.000    1.000 
#    0.000    8.000    0.000    0.000    0.000    0.000 
#
# Total GULP energy -347151.117315 kJ/mol
# GULP energy per Si atom -12398.254190 kJ/mol
# Density = 1.676300 g / cm^3
# Si number density = 16.801243 Si / 1000 Ang^3
#
#
#
# Elastic Constant Matrix: (Units=GPa)
#
#
# Indices 1 2 3 4 5 6 
#
# 1 82.8436 34.6431 59.1349 0.0000 7.0440 0.0000
# 2 34.6431 81.3692 54.9933 0.0000 9.8436 0.0000
# 3 59.1349 54.9933 127.1174 0.0000 19.5023 0.0000
# 4 0.0000 0.0000 0.0000 25.0696 0.0000 5.6100
# 5 7.0440 9.8436 19.5023 0.0000 21.0319 0.0000
# 6 0.0000 0.0000 0.0000 5.6100 0.0000 19.5150
#
#
#
# Elastic Compliance Matrix: (Units=1/GPa)
#
#
# Indices 1 2 3 4 5 6 
#
# 1 0.018647 -0.002991 -0.007738 0.000000 0.002330 0.000000
# 2 -0.002991 0.017881 -0.006079 0.000000 -0.001730 0.000000
# 3 -0.007738 -0.006079 0.015462 0.000000 -0.008901 0.000000
# 4 0.000000 0.000000 0.000000 0.042631 0.000000 -0.012255
# 5 0.002330 -0.001730 -0.008901 0.000000 0.055830 0.000000
# 6 0.000000 0.000000 0.000000 -0.012255 0.000000 0.054766
#
#
# Mechanical properties :
#
#
# Convention : Reuss Voigt Hill
#
# Bulk Modulus (GPa) = 54.42472 65.43031 59.92752
# Shear Modulus (GPa) = 20.41179 22.62723 21.51951
#
# Velocity S-wave (km/s) = 3.48932 3.67380 3.58275
# Velocity P-wave (km/s) = 6.97835 7.55143 7.27054
#
# Compressibility (1/GPa) = 0.01837400
#
# Stress axis : x y z
#
# Youngs Moduli (GPa) = 53.62727 55.92631 64.67591
#
# Poissons Ratio (x) = 0.16729 0.50047
# Poissons Ratio (y) = 0.16041 0.39313
# Poissons Ratio (z) = 0.41497 0.33995
#
# Static dielectric constant tensor:
#      x y z
#    x 2.868150 0.000000 0.155030 
#    y 0.000000 3.191940 0.000000 
#    z 0.155030 0.000000 3.323130 
# 
# 
# High freq. dielectric constant tensor:
#      x y z
#    x 1.604110 0.000000 0.018350 
#    y 0.000000 1.647130 0.000000 
#    z 0.018350 0.000000 1.653710 
# 
# From -- ./inp_files/319715.got.cif
#   From: 2010.06.25/outbox.cif.g09.slc.cpg/sg12_160_cif.got.tgz:319715.got - 2010.06.28 00:19:55.
