data_PCOD8080298
_publ_section_title
;
Structure prediction by ZEFSAII (Michael W. Deem and Ramdas Pophale) SiO2 
 PCOD8080298
Probable space group: C 2/M
;
_chemical_formula_sum "Si O2"
_cell_formula_units_Z 60
_cell_length_a 25.021402
_cell_length_b 14.067971
_cell_length_c 11.794322
_cell_angle_alpha 90.000000
_cell_angle_beta 61.629066
_cell_angle_gamma 90.000000
_cell_volume 3652.955150
_symmetry_space_group_name_H-M "C 2/M"
_symmetry_group_IT_number 12
_symmetry_cell_setting 'monoclinic'
loop_
_space_group_symop_operation_xyz
x,y,z
-x,y,-z
-x,-y,-z
x,-y,z
1/2+x,1/2+y,z
1/2-x,1/2+y,-z
1/2-x,1/2-y,-z
1/2+x,1/2-y,z
loop_
_atom_site_type_symbol
_atom_site_label
_atom_site_fract_x
_atom_site_fract_y
_atom_site_fract_z
Si Si1 0.663645 0.708410 0.021078
Si Si2 0.659048 0.613310 0.552217
Si Si3 0.268677 0.891895 0.046024
Si Si4 0.870249 0.231190 0.196026
Si Si5 0.776749 0.391642 0.297394
Si Si6 0.042798 0.891739 0.550463
Si Si7 0.550259 0.604556 0.165546
Si Si8 0.000000 0.812919 0.000000
O O1 0.714380 0.638393 0.018939
O O2 0.601000 0.682163 0.147412
O O3 0.675768 0.819599 0.034552
O O4 0.657811 0.689064 0.892251
O O5 0.652310 0.500000 0.572646
O O6 0.646551 0.658824 0.686943
O O7 0.724923 0.642280 0.437764
O O8 0.609655 0.651025 0.508150
O O9 0.250034 0.881258 0.196810
O O10 0.288678 0.000000 0.998106
O O11 0.837928 0.331518 0.255240
O O12 0.943587 0.248969 0.109230
O O13 0.795104 0.500000 0.303282
O O14 0.000000 0.838719 0.500000
O O15 0.009617 0.881580 0.702463
O O16 0.051361 0.000000 0.500209
O O17 0.578748 0.500000 0.154254
O O18 0.529612 0.615915 0.058379
#
# Coordination Sequence:
#
# PCOD8080298 Si02
#       8
#     8   8   8   8   8   8   8   4
#     4   9  19  29  45  71  92 122 160 188 227 286
#     4  10  19  31  48  71  97 125 154 187 234 286
#     4   9  17  32  48  66  94 124 154 196 235 269
#     4  10  19  33  48  69  98 124 156 195 233 279
#     4   9  19  33  51  69  91 124 161 199 236 273
#     4   9  18  29  42  66  95 121 150 182 224 282
#     4  10  18  28  44  66  95 124 147 184 231 279
#     4  10  19  30  45  66  96 128 153 184 231 292
#
# _framework density 16.425058
#
# number of rings (size 3 to 8) (size 9 to 14) (size 15 to 20)
#    0.000    2.533    1.333    1.000    1.867    2.667 
#    0.000    0.333    0.000    0.800    0.000    0.000 
#    0.000    1.067    0.000    0.000    0.000    0.000 
#
# Total GULP energy -371686.983080 kJ/mol
# GULP energy per Si atom -12389.566103 kJ/mol
# Density = 1.638767 g / cm^3
# Si number density = 16.425058 Si / 1000 Ang^3
#
#
#
# Elastic Constant Matrix: (Units=GPa)
#
#
# Indices 1 2 3 4 5 6 
#
# 1 81.3811 41.0955 39.5042 0.0000 -11.3400 0.0000
# 2 41.0955 77.8124 37.9062 0.0000 -12.8202 0.0000
# 3 39.5042 37.9062 63.9306 0.0000 -17.8765 0.0000
# 4 0.0000 0.0000 0.0000 22.3088 0.0000 -3.1698
# 5 -11.3400 -12.8202 -17.8765 0.0000 28.9817 0.0000
# 6 0.0000 0.0000 0.0000 -3.1698 0.0000 19.9057
#
#
#
# Elastic Compliance Matrix: (Units=1/GPa)
#
#
# Indices 1 2 3 4 5 6 
#
# 1 0.019486 -0.006237 -0.008438 0.000000 -0.000339 0.000000
# 2 -0.006237 0.020135 -0.007585 0.000000 0.001788 0.000000
# 3 -0.008438 -0.007585 0.028388 0.000000 0.010854 0.000000
# 4 0.000000 0.000000 0.000000 0.045863 0.000000 0.007303
# 5 -0.000339 0.001788 0.010854 0.000000 0.041857 0.000000
# 6 0.000000 0.000000 0.000000 0.007303 0.000000 0.051400
#
#
# Mechanical properties :
#
#
# Convention : Reuss Voigt Hill
#
# Bulk Modulus (GPa) = 42.57042 51.12619 46.84831
# Shear Modulus (GPa) = 19.26957 21.21380 20.24169
#
# Velocity S-wave (km/s) = 3.42889 3.59771 3.51432
# Velocity P-wave (km/s) = 6.45373 6.96079 6.71205
#
# Compressibility (1/GPa) = 0.02349049
#
# Stress axis : x y z
#
# Youngs Moduli (GPa) = 51.31947 49.66559 35.22638
#
# Poissons Ratio (x) = 0.30974 0.29723
# Poissons Ratio (y) = 0.32006 0.26718
# Poissons Ratio (z) = 0.43301 0.37670
#
# Static dielectric constant tensor:
#      x y z
#    x 3.313790 0.000000 -0.057330 
#    y 0.000000 2.964050 0.000000 
#    z -0.057330 0.000000 3.168400 
# 
# 
# High freq. dielectric constant tensor:
#      x y z
#    x 1.641780 0.000000 0.003340 
#    y 0.000000 1.599060 0.000000 
#    z 0.003340 0.000000 1.630240 
# 
# From -- ./inp_files/176088.got.cif
#   From: 2010.06.25/outbox.cif.g09.slc.cpg/sg12_89_cif.got.tgz:176088.got - 2010.06.28 00:19:55.
