data_PCOD8080209
_publ_section_title
;
Structure prediction by ZEFSAII (Michael W. Deem and Ramdas Pophale) SiO2 
 PCOD8080209
Probable space group: C 2/M
;
_chemical_formula_sum "Si O2"
_cell_formula_units_Z 64
_cell_length_a 22.707619
_cell_length_b 9.013904
_cell_length_c 27.791528
_cell_angle_alpha 90.000000
_cell_angle_beta 43.165343
_cell_angle_gamma 90.000000
_cell_volume 3891.529969
_symmetry_space_group_name_H-M "C 2/M"
_symmetry_group_IT_number 12
_symmetry_cell_setting 'monoclinic'
loop_
_space_group_symop_operation_xyz
x,y,z
-x,y,-z
-x,-y,-z
x,-y,z
1/2+x,1/2+y,z
1/2-x,1/2+y,-z
1/2-x,1/2-y,-z
1/2+x,1/2-y,z
loop_
_atom_site_type_symbol
_atom_site_label
_atom_site_fract_x
_atom_site_fract_y
_atom_site_fract_z
Si Si1 0.133694 0.823839 0.230696
Si Si2 0.668086 0.671101 0.355043
Si Si3 0.534578 0.174251 0.366652
Si Si4 0.085009 0.333252 0.481637
Si Si5 0.791073 0.328661 0.202101
Si Si6 0.859391 0.672537 0.973754
Si Si7 0.976136 0.676411 0.066909
Si Si8 0.190479 0.672720 0.103667
O O1 0.047842 0.762020 0.308664
O O2 0.218141 0.765528 0.209352
O O3 0.135192 0.758358 0.176417
O O4 0.127959 0.000000 0.232391
O O5 0.639101 0.500000 0.368426
O O6 0.607094 0.774432 0.360284
O O7 0.660063 0.725746 0.415437
O O8 0.763154 0.691790 0.274952
O O9 0.441779 0.209013 0.447325
O O10 0.544510 0.000000 0.351364
O O11 0.121085 0.500000 0.458503
O O12 0.000000 0.317744 0.500000
O O13 0.800084 0.500000 0.183830
O O14 0.884109 0.253292 0.137723
O O15 0.842721 0.500000 0.995394
O O16 0.857107 0.703367 0.918346
O O17 0.951522 0.727528 0.938249
O O18 0.787055 0.764934 0.044739
O O19 0.970918 0.500000 0.069505
O O20 0.000000 0.737572 0.000000
O O21 0.194100 0.500000 0.114101
#
# Coordination Sequence:
#
# PCOD8080209 Si02
#       8
#     8   8   8   8   8   8   8   8
#     4  10  18  28  43  62  83 109 141 170 202 247
#     4   9  15  22  34  53  78 108 141 173 203 241
#     4   9  16  25  36  53  79 108 137 170 207 244
#     4   8  14  23  34  49  73 107 141 169 201 242
#     4   8  15  25  38  60  84 105 136 176 209 239
#     4   9  18  31  47  65  81 105 141 172 202 244
#     4   9  15  25  44  65  83 105 136 174 208 237
#     4  10  19  30  44  62  85 109 134 169 209 245
#
# _framework density 16.445974
#
# number of rings (size 3 to 8) (size 9 to 14) (size 15 to 20)
#    0.000    3.000    0.000    3.750    0.000    5.250 
#    0.000    0.000    0.000    7.125    0.000    0.000 
#    0.000    1.000    0.000    2.000    0.000    3.625 
#
# Total GULP energy -396492.600341 kJ/mol
# GULP energy per Si atom -12390.393761 kJ/mol
# Density = 1.640854 g / cm^3
# Si number density = 16.445974 Si / 1000 Ang^3
#
#
#
# Elastic Constant Matrix: (Units=GPa)
#
#
# Indices 1 2 3 4 5 6 
#
# 1 47.4897 16.6347 35.9017 -0.0036 3.9923 0.0219
# 2 16.6347 59.8681 49.4559 -0.0034 11.1217 0.0286
# 3 35.9017 49.4559 150.6729 0.0008 18.3995 -0.0033
# 4 -0.0036 -0.0034 0.0008 29.3807 -0.0012 6.2874
# 5 3.9923 11.1217 18.3995 -0.0012 17.1745 0.0014
# 6 0.0219 0.0286 -0.0033 6.2874 0.0014 10.8661
#
#
#
# Elastic Compliance Matrix: (Units=1/GPa)
#
#
# Indices 1 2 3 4 5 6 
#
# 1 0.026088 -0.003103 -0.005410 0.000015 0.001741 -0.000055
# 2 -0.003103 0.024233 -0.006197 0.000017 -0.008332 -0.000068
# 3 -0.005410 -0.006197 0.010719 -0.000010 -0.006213 0.000037
# 4 0.000015 0.000017 -0.000010 0.038846 0.000001 -0.022477
# 5 0.001741 -0.008332 -0.006213 0.000001 0.069872 0.000007
# 6 -0.000055 -0.000068 0.000037 -0.022477 0.000007 0.105036
#
#
# Mechanical properties :
#
#
# Convention : Reuss Voigt Hill
#
# Bulk Modulus (GPa) = 31.62670 51.33503 41.48087
# Shear Modulus (GPa) = 15.88542 21.88681 18.88612
#
# Velocity S-wave (km/s) = 3.11129 3.65201 3.39244
# Velocity P-wave (km/s) = 5.67268 7.00464 6.37355
#
# Compressibility (1/GPa) = 0.03161885
#
# Stress axis : x y z
#
# Youngs Moduli (GPa) = 38.33204 41.26642 93.29380
#
# Poissons Ratio (x) = 0.12804 0.50475
# Poissons Ratio (y) = 0.11893 0.57816
# Poissons Ratio (z) = 0.20739 0.25574
#
# Static dielectric constant tensor:
#      x y z
#    x 2.716130 0.000000 0.106540 
#    y 0.000000 2.995930 0.000000 
#    z 0.106540 0.000000 3.800920 
# 
# 
# High freq. dielectric constant tensor:
#      x y z
#    x 1.565770 0.000000 0.016500 
#    y 0.000000 1.620540 0.000000 
#    z 0.016500 0.000000 1.654650 
# 
# From -- ./inp_files/365196.got.cif
#   From: 2010.06.25/outbox.cif.g09.slc.cpg/sg12_183_cif.got.tgz:365196.got - 2010.06.28 00:19:55.
