data_PCOD8080694
_publ_section_title
;
Structure prediction by ZEFSAII (Michael W. Deem and Ramdas Pophale) SiO2 
 PCOD8080694
Probable space group: C 2/M
;
_chemical_formula_sum "Si O2"
_cell_formula_units_Z 48
_cell_length_a 24.574241
_cell_length_b 9.003878
_cell_length_c 14.433206
_cell_angle_alpha 90.000000
_cell_angle_beta 111.935108
_cell_angle_gamma 90.000000
_cell_volume 2962.352881
_symmetry_space_group_name_H-M "C 2/M"
_symmetry_group_IT_number 12
_symmetry_cell_setting 'monoclinic'
loop_
_space_group_symop_operation_xyz
x,y,z
-x,y,-z
-x,-y,-z
x,-y,z
1/2+x,1/2+y,z
1/2-x,1/2+y,-z
1/2-x,1/2-y,-z
1/2+x,1/2-y,z
loop_
_atom_site_type_symbol
_atom_site_label
_atom_site_fract_x
_atom_site_fract_y
_atom_site_fract_z
Si Si1 0.980061 0.175059 0.774011
Si Si2 0.621039 0.175253 0.173842
Si Si3 0.459932 0.676106 0.555904
Si Si4 0.282138 0.672339 0.657050
Si Si5 0.672105 0.672792 0.517648
Si Si6 0.439864 0.335706 0.018043
O O1 0.926698 0.263197 0.785312
O O2 0.986433 0.225929 0.671715
O O3 0.041727 0.211663 0.865449
O O4 0.964947 0.000000 0.772880
O O5 0.684284 0.241400 0.240083
O O6 0.623134 0.000000 0.181585
O O7 0.605532 0.222171 0.058129
O O8 0.500000 0.745881 0.500000
O O9 0.460355 0.500000 0.549902
O O10 0.393175 0.731537 0.501967
O O11 0.279954 0.500000 0.680803
O O12 0.315813 0.702507 0.582576
O O13 0.216132 0.733986 0.609527
O O14 0.680118 0.500000 0.546428
O O15 0.411333 0.500000 0.999436
O O16 0.500000 0.338131 0.000000
#
# Coordination Sequence:
#
# PCOD8080694 Si02
#       6
#     8   8   8   8   8   8
#     4   9  16  29  44  62  89 121 152 181 217 263
#     4  11  19  26  41  65  91 117 148 183 225 269
#     4   9  16  28  48  70  91 118 152 186 217 255
#     4  10  18  29  45  63  89 121 149 180 223 270
#     4   9  17  29  44  65  90 116 150 185 217 260
#     4   8  15  26  41  59  86 119 148 178 217 268
#
# _framework density 16.203334999999999
#
# number of rings (size 3 to 8) (size 9 to 14) (size 15 to 20)
#    0.000    2.667    1.667    3.000    0.000    3.667 
#    0.000    0.000    0.000    2.000    0.000    1.167 
#    0.000    0.000    0.000    0.000    0.000    0.000 
#
# Total GULP energy -297503.611221 kJ/mol
# GULP energy per Si atom -12395.983801 kJ/mol
# Density = 1.616646 g / cm^3
# Si number density = 16.203335 Si / 1000 Ang^3
#
#
#
# Elastic Constant Matrix: (Units=GPa)
#
#
# Indices 1 2 3 4 5 6 
#
# 1 80.2851 27.7004 59.0150 0.0000 10.1480 0.0000
# 2 27.7004 78.8914 56.2388 0.0000 16.6110 0.0000
# 3 59.0150 56.2388 142.6211 0.0000 23.2773 0.0000
# 4 0.0000 0.0000 0.0000 21.1183 0.0000 9.8293
# 5 10.1480 16.6110 23.2773 0.0000 23.2266 0.0000
# 6 0.0000 0.0000 0.0000 9.8293 0.0000 15.9316
#
#
#
# Elastic Compliance Matrix: (Units=1/GPa)
#
#
# Indices 1 2 3 4 5 6 
#
# 1 0.018012 -0.001415 -0.006905 0.000000 0.000063 0.000000
# 2 -0.001415 0.018674 -0.005618 0.000000 -0.007106 0.000000
# 3 -0.006905 -0.005618 0.013075 0.000000 -0.006068 0.000000
# 4 0.000000 0.000000 0.000000 0.066428 0.000000 -0.040984
# 5 0.000063 -0.007106 -0.006068 0.000000 0.054190 0.000000
# 6 0.000000 0.000000 0.000000 -0.040984 0.000000 0.088054
#
#
# Mechanical properties :
#
#
# Convention : Reuss Voigt Hill
#
# Bulk Modulus (GPa) = 45.69699 65.30066 55.49883
# Shear Modulus (GPa) = 17.02976 22.64485 19.83731
#
# Velocity S-wave (km/s) = 3.24544 3.74243 3.50276
# Velocity P-wave (km/s) = 6.50440 7.68522 7.11933
#
# Compressibility (1/GPa) = 0.02188328
#
# Stress axis : x y z
#
# Youngs Moduli (GPa) = 55.51917 53.55111 76.48334
#
# Poissons Ratio (x) = 0.07577 0.52815
# Poissons Ratio (y) = 0.07856 0.42970
# Poissons Ratio (z) = 0.38338 0.30086
#
# Static dielectric constant tensor:
#      x y z
#    x 2.827590 0.000000 0.165120 
#    y 0.000000 2.902090 0.000000 
#    z 0.165120 0.000000 3.481010 
# 
# 
# High freq. dielectric constant tensor:
#      x y z
#    x 1.572790 0.000000 0.029350 
#    y 0.000000 1.608170 0.000000 
#    z 0.029350 0.000000 1.630670 
# 
# From -- ./inp_files/236848.got.cif
#   From: 2010.06.25/outbox.cif.g09.slc.cpg/sg12_119_cif.got.tgz:236848.got - 2010.06.28 00:19:55.
