data_PCOD8080050
_publ_section_title
;
Structure prediction by ZEFSAII (Michael W. Deem and Ramdas Pophale) SiO2 
 PCOD8080050
Probable space group: C 2/M
;
_chemical_formula_sum "Si O2"
_cell_formula_units_Z 48
_cell_length_a 23.946714
_cell_length_b 27.028180
_cell_length_c 10.912203
_cell_angle_alpha 90.000000
_cell_angle_beta 157.376470
_cell_angle_gamma 90.000000
_cell_volume 2716.867671
_symmetry_space_group_name_H-M "C 2/M"
_symmetry_group_IT_number 12
_symmetry_cell_setting 'monoclinic'
loop_
_space_group_symop_operation_xyz
x,y,z
-x,y,-z
-x,-y,-z
x,-y,z
1/2+x,1/2+y,z
1/2-x,1/2+y,-z
1/2-x,1/2-y,-z
1/2+x,1/2-y,z
loop_
_atom_site_type_symbol
_atom_site_label
_atom_site_fract_x
_atom_site_fract_y
_atom_site_fract_z
Si Si1 0.897254 0.227400 0.452514
Si Si2 0.641241 0.603417 0.042402
Si Si3 0.695913 0.690242 0.982241
Si Si4 0.596252 0.666982 0.305225
Si Si5 0.334283 0.102733 0.663338
Si Si6 0.223255 0.000000 0.501026
Si Si7 0.047146 0.000000 0.893007
O O1 0.819771 0.190489 0.196843
O O2 0.856957 0.210427 0.507763
O O3 0.070027 0.224919 0.784815
O O4 0.845858 0.283898 0.327808
O O5 0.778299 0.602029 0.410455
O O6 0.685717 0.634326 0.011618
O O7 0.500967 0.625967 0.824509
O O8 0.595212 0.547848 0.911359
O O9 0.742904 0.642244 0.555161
O O10 0.500000 0.689880 0.000000
O O11 0.323088 0.048778 0.703499
O O12 0.500000 0.120259 0.000000
O O13 0.124428 0.000000 0.423717
O O14 0.125048 0.000000 0.181685
#
# Coordination Sequence:
#
# PCOD8080050 Si02
#       7
#     8   8   8   8   8   4   4
#     4   9  18  33  52  70  94 127 163 203 242 283
#     4   9  17  30  48  70  97 130 163 196 240 287
#     4   9  18  33  52  72  94 126 166 208 234 284
#     4   9  17  31  48  69  97 131 159 194 240 293
#     4  10  18  27  43  71 101 127 160 204 242 285
#     4   9  15  26  44  69  95 130 168 195 236 289
#     4   9  14  26  50  70  92 132 167 194 234 293
#
# _framework density 17.667404999999999
#
# number of rings (size 3 to 8) (size 9 to 14) (size 15 to 20)
#    0.000    2.833    1.667    0.250    0.000    1.333 
#    0.000    8.333    0.000    9.000    0.000    0.000 
#    0.000   16.000    0.000    0.000    0.000    0.000 
#
# Total GULP energy -297526.147667 kJ/mol
# GULP energy per Si atom -12396.922819 kJ/mol
# Density = 1.762719 g / cm^3
# Si number density = 17.667405 Si / 1000 Ang^3
#
#
#
# Elastic Constant Matrix: (Units=GPa)
#
#
# Indices 1 2 3 4 5 6 
#
# 1 77.3287 42.3307 27.2702 0.0000 -10.7224 0.0000
# 2 42.3307 82.3870 21.9657 0.0000 -8.9240 0.0000
# 3 27.2702 21.9657 73.1991 0.0000 8.0944 0.0000
# 4 0.0000 0.0000 0.0000 17.3464 0.0000 -0.9179
# 5 -10.7224 -8.9240 8.0944 0.0000 22.9041 0.0000
# 6 0.0000 0.0000 0.0000 -0.9179 0.0000 26.2573
#
#
#
# Elastic Compliance Matrix: (Units=1/GPa)
#
#
# Indices 1 2 3 4 5 6 
#
# 1 0.020780 -0.008040 -0.006305 0.000000 0.008823 0.000000
# 2 -0.008040 0.017409 -0.002667 0.000000 0.003962 0.000000
# 3 -0.006305 -0.002667 0.017953 0.000000 -0.010335 0.000000
# 4 0.000000 0.000000 0.000000 0.057756 0.000000 0.002019
# 5 0.008823 0.003962 -0.010335 0.000000 0.052987 0.000000
# 6 0.000000 0.000000 0.000000 0.002019 0.000000 0.038155
#
#
# Mechanical properties :
#
#
# Convention : Reuss Voigt Hill
#
# Bulk Modulus (GPa) = 45.20971 46.22755 45.71863
# Shear Modulus (GPa) = 20.28925 22.72477 21.50701
#
# Velocity S-wave (km/s) = 3.39248 3.59033 3.49281
# Velocity P-wave (km/s) = 6.40235 6.58859 6.49614
#
# Compressibility (1/GPa) = 0.02211914
#
# Stress axis : x y z
#
# Youngs Moduli (GPa) = 48.12355 57.44152 55.70023
#
# Poissons Ratio (x) = 0.46184 0.35116
# Poissons Ratio (y) = 0.38692 0.14854
# Poissons Ratio (z) = 0.30340 0.15319
#
# Static dielectric constant tensor:
#      x y z
#    x 3.186470 0.000000 -0.019580 
#    y 0.000000 3.226480 0.000000 
#    z -0.019580 0.000000 3.154670 
# 
# 
# High freq. dielectric constant tensor:
#      x y z
#    x 1.661950 0.000000 0.006540 
#    y 0.000000 1.668540 0.000000 
#    z 0.006540 0.000000 1.672060 
# 
# From -- ./inp_files/178621.got.cif
#   From: 2010.06.25/outbox.cif.g09.slc.cpg/sg12_90_cif.got.tgz:178621.got - 2010.06.28 00:19:55.
