data_PCOD8080787
_publ_section_title
;
Structure prediction by ZEFSAII (Michael W. Deem and Ramdas Pophale) SiO2 
 PCOD8080787
Probable space group: C 2/M
;
_chemical_formula_sum "Si O2"
_cell_formula_units_Z 64
_cell_length_a 28.570338
_cell_length_b 9.203373
_cell_length_c 20.976943
_cell_angle_alpha 90.000000
_cell_angle_beta 132.834497
_cell_angle_gamma 90.000000
_cell_volume 4044.813618
_symmetry_space_group_name_H-M "C 2/M"
_symmetry_group_IT_number 12
_symmetry_cell_setting 'monoclinic'
loop_
_space_group_symop_operation_xyz
x,y,z
-x,y,-z
-x,-y,-z
x,-y,z
1/2+x,1/2+y,z
1/2-x,1/2+y,-z
1/2-x,1/2-y,-z
1/2+x,1/2-y,z
loop_
_atom_site_type_symbol
_atom_site_label
_atom_site_fract_x
_atom_site_fract_y
_atom_site_fract_z
Si Si1 0.782536 0.171745 0.175954
Si Si2 0.746170 0.667728 0.401962
Si Si3 0.792749 0.167958 0.989245
Si Si4 0.894538 0.835065 0.181969
Si Si5 0.653841 0.829777 0.399369
Si Si6 0.979373 0.672170 0.671497
Si Si7 0.189081 0.330023 0.668355
Si Si8 0.050432 0.672659 0.496096
O O1 0.718943 0.250627 0.088808
O O2 0.843870 0.213048 0.189462
O O3 0.791432 0.231286 0.254723
O O4 0.770828 0.000000 0.166087
O O5 0.731903 0.500000 0.400319
O O6 0.682733 0.754006 0.363508
O O7 0.806563 0.716272 0.500896
O O8 0.760666 0.699150 0.341585
O O9 0.771872 0.000000 0.964133
O O10 0.750000 0.250000 0.000000
O O11 0.864801 0.179350 0.083125
O O12 0.956128 0.734486 0.239701
O O13 0.915470 0.000000 0.214574
O O14 0.580670 0.779964 0.340736
O O15 0.657916 0.000000 0.392075
O O16 0.985494 0.500000 0.675083
O O17 0.968262 0.735022 0.590262
O O18 0.187579 0.500000 0.686264
O O19 0.120372 0.275304 0.580904
O O20 0.048829 0.500000 0.492245
O O21 0.000000 0.735324 0.500000
#
# Coordination Sequence:
#
# PCOD8080787 Si02
#       8
#     8   8   8   8   8   8   8   8
#     4  10  20  32  46  68  97 125 157 194 232 277
#     4   9  17  30  47  66  89 118 155 197 237 276
#     4   9  17  31  49  68  92 122 156 194 234 273
#     4   9  19  32  45  66  96 124 152 190 230 273
#     4   9  17  30  46  66  91 117 153 199 237 272
#     4  10  18  29  46  68  91 121 160 195 226 270
#     4  10  18  30  47  67  91 122 160 196 229 272
#     4   9  16  26  41  62  89 122 158 190 219 258
#
# _framework density 15.822730999999999
#
# number of rings (size 3 to 8) (size 9 to 14) (size 15 to 20)
#    0.000    2.625    1.250    2.250    0.000    5.000 
#    0.000    0.625    0.000    2.250    0.000    0.875 
#    0.000    7.000    0.000    0.000    0.000    0.000 
#
# Total GULP energy -396691.110953 kJ/mol
# GULP energy per Si atom -12396.597217 kJ/mol
# Density = 1.578672 g / cm^3
# Si number density = 15.822731 Si / 1000 Ang^3
#
#
#
# Elastic Constant Matrix: (Units=GPa)
#
#
# Indices 1 2 3 4 5 6 
#
# 1 101.1183 42.1922 48.9431 0.0000 6.6156 0.0000
# 2 42.1922 60.8971 45.0387 0.0000 2.7393 0.0000
# 3 48.9431 45.0387 101.9335 0.0000 4.1222 0.0000
# 4 0.0000 0.0000 0.0000 27.4168 0.0000 -0.0946
# 5 6.6156 2.7393 4.1222 0.0000 8.9671 0.0000
# 6 0.0000 0.0000 0.0000 -0.0946 0.0000 24.9964
#
#
#
# Elastic Compliance Matrix: (Units=1/GPa)
#
#
# Indices 1 2 3 4 5 6 
#
# 1 0.015311 -0.007518 -0.003735 0.000000 -0.007282 0.000000
# 2 -0.007518 0.028140 -0.008866 0.000000 0.001025 0.000000
# 3 -0.003735 -0.008866 0.015590 0.000000 -0.001703 0.000000
# 4 0.000000 0.000000 0.000000 0.036474 0.000000 0.000138
# 5 -0.007282 0.001025 -0.001703 0.000000 0.117361 0.000000
# 6 0.000000 0.000000 0.000000 0.000138 0.000000 0.040006
#
#
# Mechanical properties :
#
#
# Convention : Reuss Voigt Hill
#
# Bulk Modulus (GPa) = 53.18048 59.58854 56.38451
# Shear Modulus (GPa) = 16.70078 20.79439 18.74758
#
# Velocity S-wave (km/s) = 3.25236 3.62914 3.44590
# Velocity P-wave (km/s) = 6.91281 7.43658 7.17947
#
# Compressibility (1/GPa) = 0.01880389
#
# Stress axis : x y z
#
# Youngs Moduli (GPa) = 65.31443 35.53599 64.14465
#
# Poissons Ratio (x) = 0.26715 0.23959
# Poissons Ratio (y) = 0.49102 0.56868
# Poissons Ratio (z) = 0.24396 0.31505
#
# Static dielectric constant tensor:
#      x y z
#    x 2.996040 0.000000 -0.293910 
#    y 0.000000 2.939300 0.000000 
#    z -0.293910 0.000000 4.568340 
# 
# 
# High freq. dielectric constant tensor:
#      x y z
#    x 1.587560 0.000000 -0.001490 
#    y 0.000000 1.600030 0.000000 
#    z -0.001490 0.000000 1.598670 
# 
# From -- ./inp_files/326834.got.cif
#   From: 2010.06.25/outbox.cif.g09.slc.cpg/sg12_164_cif.got.tgz:326834.got - 2010.06.28 00:19:55.
