data_PCOD8080049
_publ_section_title
;
Structure prediction by ZEFSAII (Michael W. Deem and Ramdas Pophale) SiO2 
 PCOD8080049
Probable space group: C 2/M
;
_chemical_formula_sum "Si O2"
_cell_formula_units_Z 64
_cell_length_a 24.890641
_cell_length_b 9.409175
_cell_length_c 17.621935
_cell_angle_alpha 90.000000
_cell_angle_beta 76.457571
_cell_angle_gamma 90.000000
_cell_volume 4012.318506
_symmetry_space_group_name_H-M "C 2/M"
_symmetry_group_IT_number 12
_symmetry_cell_setting 'monoclinic'
loop_
_space_group_symop_operation_xyz
x,y,z
-x,y,-z
-x,-y,-z
x,-y,z
1/2+x,1/2+y,z
1/2-x,1/2+y,-z
1/2-x,1/2-y,-z
1/2+x,1/2-y,z
loop_
_atom_site_type_symbol
_atom_site_label
_atom_site_fract_x
_atom_site_fract_y
_atom_site_fract_z
Si Si1 0.302442 0.839342 0.501532
Si Si2 0.795389 0.835648 0.809088
Si Si3 0.669309 0.835411 0.667263
Si Si4 0.010198 0.166674 0.082735
Si Si5 0.865152 0.835476 0.931206
Si Si6 0.279759 0.833140 0.670326
Si Si7 0.912028 0.665221 0.176879
Si Si8 0.178391 0.333967 0.917124
O O1 0.250000 0.750000 0.500000
O O2 0.345868 0.812729 0.417901
O O3 0.320054 0.806620 0.582977
O O4 0.281824 0.000000 0.505278
O O5 0.842970 0.805802 0.854475
O O6 0.809750 0.740458 0.731293
O O7 0.736314 0.788282 0.861504
O O8 0.794119 0.000000 0.785156
O O9 0.720013 0.737396 0.676379
O O10 0.615236 0.795365 0.733238
O O11 0.685497 0.000000 0.678925
O O12 0.071368 0.213368 0.086982
O O13 0.968011 0.246202 0.151992
O O14 0.000309 0.000000 0.095466
O O15 0.000000 0.216077 0.000000
O O16 0.859353 0.000000 0.955565
O O17 0.828395 0.748384 0.002236
O O18 0.271647 0.000000 0.689266
O O19 0.926903 0.500000 0.166590
O O20 0.870162 0.709911 0.124081
O O21 0.177836 0.500000 0.935754
#
# Coordination Sequence:
#
# PCOD8080049 Si02
#       8
#     8   8   8   8   8   8   8   8
#     4   8  15  26  42  64  92 124 151 181 219 269
#     4  10  20  34  48  65  93 127 158 187 225 278
#     4   9  16  30  47  65  95 127 154 183 224 275
#     4  10  20  34  49  66  89 118 153 195 238 271
#     4  10  21  35  50  66  87 122 162 193 230 276
#     4  10  18  27  43  70  97 122 154 186 225 269
#     4  10  19  30  48  71  91 120 155 185 225 275
#     4  10  19  31  47  68  93 119 153 191 228 270
#
# _framework density 15.950877999999999
#
# number of rings (size 3 to 8) (size 9 to 14) (size 15 to 20)
#    0.000    2.375    2.500    0.750    0.000    2.750 
#    0.000    0.000    0.000    0.000    0.000    0.875 
#    0.000    7.000    0.000    0.000    0.000    0.000 
#
# Total GULP energy -396629.471523 kJ/mol
# GULP energy per Si atom -12394.670985 kJ/mol
# Density = 1.591457 g / cm^3
# Si number density = 15.950878 Si / 1000 Ang^3
#
#
#
# Elastic Constant Matrix: (Units=GPa)
#
#
# Indices 1 2 3 4 5 6 
#
# 1 66.6357 25.2215 44.2697 0.0000 6.0502 0.0000
# 2 25.2215 50.6287 52.5421 0.0000 2.0445 0.0000
# 3 44.2697 52.5421 140.4864 0.0000 0.9503 0.0000
# 4 0.0000 0.0000 0.0000 26.5418 0.0000 -0.3172
# 5 6.0502 2.0445 0.9503 0.0000 16.7677 0.0000
# 6 0.0000 0.0000 0.0000 -0.3172 0.0000 18.7853
#
#
#
# Elastic Compliance Matrix: (Units=1/GPa)
#
#
# Indices 1 2 3 4 5 6 
#
# 1 0.020580 -0.005401 -0.004421 0.000000 -0.006517 0.000000
# 2 -0.005401 0.033877 -0.010957 0.000000 -0.001561 0.000000
# 3 -0.004421 -0.010957 0.012594 0.000000 0.002218 0.000000
# 4 0.000000 0.000000 0.000000 0.037684 0.000000 0.000636
# 5 -0.006517 -0.001561 0.002218 0.000000 0.062055 0.000000
# 6 0.000000 0.000000 0.000000 0.000636 0.000000 0.053244
#
#
# Mechanical properties :
#
#
# Convention : Reuss Voigt Hill
#
# Bulk Modulus (GPa) = 39.22762 55.75749 47.49255
# Shear Modulus (GPa) = 18.51232 21.46678 19.98955
#
# Velocity S-wave (km/s) = 3.41043 3.67250 3.54389
# Velocity P-wave (km/s) = 6.33673 7.28112 6.82528
#
# Compressibility (1/GPa) = 0.02549225
#
# Stress axis : x y z
#
# Youngs Moduli (GPa) = 48.59063 29.51867 79.40028
#
# Poissons Ratio (x) = 0.15943 0.35104
# Poissons Ratio (y) = 0.26244 0.87003
# Poissons Ratio (z) = 0.21482 0.32345
#
# Static dielectric constant tensor:
#      x y z
#    x 2.721740 0.000000 0.001640 
#    y 0.000000 3.015460 0.000000 
#    z 0.001640 0.000000 3.492710 
# 
# 
# High freq. dielectric constant tensor:
#      x y z
#    x 1.571190 0.000000 -0.000590 
#    y 0.000000 1.616610 0.000000 
#    z -0.000590 0.000000 1.624480 
# 
# From -- ./inp_files/287520.got.cif
#   From: 2010.06.25/outbox.cif.g09.slc.cpg/sg12_144_cif.got.tgz:287520.got - 2010.06.28 00:19:55.
