data_PCOD8080333
_publ_section_title
;
Structure prediction by ZEFSAII (Michael W. Deem and Ramdas Pophale) SiO2 
 PCOD8080333
Probable space group: C 2/M
;
_chemical_formula_sum "Si O2"
_cell_formula_units_Z 52
_cell_length_a 12.286872
_cell_length_b 22.367096
_cell_length_c 15.717714
_cell_angle_alpha 90.000000
_cell_angle_beta 44.757579
_cell_angle_gamma 90.000000
_cell_volume 3041.445257
_symmetry_space_group_name_H-M "C 2/M"
_symmetry_group_IT_number 12
_symmetry_cell_setting 'monoclinic'
loop_
_space_group_symop_operation_xyz
x,y,z
-x,y,-z
-x,-y,-z
x,-y,z
1/2+x,1/2+y,z
1/2-x,1/2+y,-z
1/2-x,1/2-y,-z
1/2+x,1/2-y,z
loop_
_atom_site_type_symbol
_atom_site_label
_atom_site_fract_x
_atom_site_fract_y
_atom_site_fract_z
Si Si1 0.000000 0.211694 0.500000
Si Si2 0.267516 0.679984 0.501190
Si Si3 0.573687 0.817652 0.336460
Si Si4 0.800191 0.331643 0.914504
Si Si5 0.016029 0.248178 0.090521
Si Si6 0.576718 0.430911 0.048537
Si Si7 0.847815 0.851063 0.275507
O O1 0.864149 0.169199 0.535375
O O2 0.940535 0.253006 0.610450
O O3 0.250000 0.750000 0.500000
O O4 0.362327 0.652430 0.369278
O O5 0.092580 0.653585 0.597709
O O6 0.675348 0.811445 0.195521
O O7 0.667748 0.862366 0.348111
O O8 0.952007 0.313513 0.885105
O O9 0.656966 0.295761 0.032865
O O10 0.748274 0.401027 0.952926
O O11 0.876054 0.214289 0.215490
O O12 0.000000 0.257841 0.000000
O O13 0.599826 0.500000 0.056659
O O14 0.461637 0.403338 0.182437
O O15 0.500000 0.419029 0.000000
#
# Coordination Sequence:
#
# PCOD8080333 Si02
#       7
#     4   8   8   8   8   8   8
#     4  10  20  30  42  70 104 142 164 176 234 316
#     4  10  19  29  44  70 100 137 156 190 238 294
#     4  11  17  27  44  67 102 130 157 195 243 287
#     4  10  19  29  46  72 100 129 161 203 245 291
#     4  10  18  28  44  70 103 131 156 194 246 304
#     4  10  20  35  53  70  93 131 172 207 246 289
#     4  11  17  32  48  73 103 132 165 198 247 298
#
# _framework density 17.097135000000002
#
# number of rings (size 3 to 8) (size 9 to 14) (size 15 to 20)
#    0.000    1.692    6.154    2.769    0.000    0.000 
#    0.000    0.000    0.000    3.231    0.000    0.538 
#    0.000    0.000    0.000    0.000    0.000    0.000 
#
# Total GULP energy -322096.483984 kJ/mol
# GULP energy per Si atom -12388.326307 kJ/mol
# Density = 1.705822 g / cm^3
# Si number density = 17.097135 Si / 1000 Ang^3
#
#
#
# Elastic Constant Matrix: (Units=GPa)
#
#
# Indices 1 2 3 4 5 6 
#
# 1 113.9849 33.1373 29.3156 -0.0001 3.8556 0.0000
# 2 33.1373 79.2694 29.5617 0.0001 -1.8271 -0.0001
# 3 29.3156 29.5617 76.2718 0.0014 0.0020 -0.0009
# 4 -0.0001 0.0001 0.0014 18.6591 0.0000 -0.2262
# 5 3.8556 -1.8271 0.0020 0.0000 22.0841 0.0000
# 6 0.0000 -0.0001 -0.0009 -0.2262 0.0000 15.3894
#
#
#
# Elastic Compliance Matrix: (Units=1/GPa)
#
#
# Indices 1 2 3 4 5 6 
#
# 1 0.010545 -0.003443 -0.002718 0.000000 -0.002126 0.000000
# 2 -0.003443 0.015904 -0.004841 0.000000 0.001917 0.000000
# 3 -0.002718 -0.004841 0.016032 -0.000001 0.000073 0.000001
# 4 0.000000 0.000000 -0.000001 0.053603 0.000000 0.000788
# 5 -0.002126 0.001917 0.000073 0.000000 0.045811 0.000000
# 6 0.000000 0.000000 0.000001 0.000788 0.000000 0.064991
#
#
# Mechanical properties :
#
#
# Convention : Reuss Voigt Hill
#
# Bulk Modulus (GPa) = 48.83734 50.39504 49.61619
# Shear Modulus (GPa) = 21.21185 23.06062 22.13624
#
# Velocity S-wave (km/s) = 3.52613 3.67659 3.60214
# Velocity P-wave (km/s) = 6.72345 6.89658 6.81056
#
# Compressibility (1/GPa) = 0.02047614
#
# Stress axis : x y z
#
# Youngs Moduli (GPa) = 94.82972 62.87683 62.37511
#
# Poissons Ratio (x) = 0.21651 0.16956
# Poissons Ratio (y) = 0.32654 0.30194
# Poissons Ratio (z) = 0.25779 0.30437
#
# Static dielectric constant tensor:
#      x y z
#    x 3.925460 0.000000 -0.260790 
#    y 0.000000 2.802840 0.000000 
#    z -0.260790 0.000000 3.328850 
# 
# 
# High freq. dielectric constant tensor:
#      x y z
#    x 1.665870 0.000000 -0.002890 
#    y 0.000000 1.582160 0.000000 
#    z -0.002890 0.000000 1.673260 
# 
# From -- ./inp_files/208362.got.cif
#   From: 2010.06.25/outbox.cif.g09.slc.cpg/sg12_105_cif.got.tgz:208362.got - 2010.06.28 00:19:55.
