data_PCOD8080861
_publ_section_title
;
Structure prediction by ZEFSAII (Michael W. Deem and Ramdas Pophale) SiO2 
 PCOD8080861
Probable space group: C 2/M
;
_chemical_formula_sum "Si O2"
_cell_formula_units_Z 64
_cell_length_a 31.975900
_cell_length_b 12.946869
_cell_length_c 11.126451
_cell_angle_alpha 90.000000
_cell_angle_beta 120.156726
_cell_angle_gamma 90.000000
_cell_volume 3982.784268
_symmetry_space_group_name_H-M "C 2/M"
_symmetry_group_IT_number 12
_symmetry_cell_setting 'monoclinic'
loop_
_space_group_symop_operation_xyz
x,y,z
-x,y,-z
-x,-y,-z
x,-y,z
1/2+x,1/2+y,z
1/2-x,1/2+y,-z
1/2-x,1/2-y,-z
1/2+x,1/2-y,z
loop_
_atom_site_type_symbol
_atom_site_label
_atom_site_fract_x
_atom_site_fract_y
_atom_site_fract_z
Si Si1 0.766771 0.120631 0.665805
Si Si2 0.492022 0.122627 0.122255
Si Si3 0.605635 0.880023 0.907917
Si Si4 0.682393 0.197890 0.385973
Si Si5 0.200889 0.614481 0.166693
Si Si6 0.591530 0.120128 0.375698
Si Si7 0.364078 0.117893 0.308836
Si Si8 0.264180 0.226247 0.157121
O O1 0.714685 0.163097 0.546101
O O2 0.807006 0.186800 0.650597
O O3 0.767079 0.140252 0.811649
O O4 0.774930 0.000000 0.650593
O O5 0.442549 0.171147 0.104690
O O6 0.537057 0.156280 0.270061
O O7 0.487731 0.000000 0.114302
O O8 0.500000 0.166229 0.000000
O O9 0.603655 0.863423 0.762321
O O10 0.606382 0.000000 0.944303
O O11 0.654829 0.830648 0.034157
O O12 0.692660 0.114776 0.296949
O O13 0.626884 0.190673 0.346350
O O14 0.206542 0.500000 0.124786
O O15 0.251801 0.668802 0.210290
O O16 0.600826 0.139675 0.529388
O O17 0.599637 0.000000 0.353006
O O18 0.320150 0.198029 0.244266
O O19 0.343740 0.000000 0.282514
O O20 0.250000 0.250000 0.000000
#
# Coordination Sequence:
#
# PCOD8080861 Si02
#       8
#     8   8   8   8   8   8   8   8
#     4  10  20  33  48  67  96 129 162 204 243 282
#     4   9  17  28  44  67  92 121 160 200 238 288
#     4   9  17  29  43  62  92 126 160 198 240 288
#     4  10  19  30  47  69  93 126 163 193 236 292
#     4  10  19  29  44  66  94 127 159 198 243 283
#     4  10  18  29  47  68  96 131 163 197 239 289
#     4  10  19  31  46  64  94 132 163 197 243 289
#     4  11  20  30  46  67  90 127 170 202 233 289
#
# _framework density 16.06916
#
# number of rings (size 3 to 8) (size 9 to 14) (size 15 to 20)
#    0.000    2.125    2.500    2.250    0.000    3.000 
#    0.000    2.500    0.000    0.000    0.000    0.000 
#    0.000   14.500    0.000    2.250    0.000    0.250 
#
# Total GULP energy -396557.566651 kJ/mol
# GULP energy per Si atom -12392.423958 kJ/mol
# Density = 1.603259 g / cm^3
# Si number density = 16.069160 Si / 1000 Ang^3
#
#
#
# Elastic Constant Matrix: (Units=GPa)
#
#
# Indices 1 2 3 4 5 6 
#
# 1 108.4812 35.9395 44.2310 0.0000 0.9283 0.0000
# 2 35.9395 61.1164 25.7711 0.0000 2.4925 0.0000
# 3 44.2310 25.7711 105.7333 0.0000 -4.1492 0.0000
# 4 0.0000 0.0000 0.0000 14.7232 0.0000 -0.3096
# 5 0.9283 2.4925 -4.1492 0.0000 29.1460 0.0000
# 6 0.0000 0.0000 0.0000 -0.3096 0.0000 18.9979
#
#
#
# Elastic Compliance Matrix: (Units=1/GPa)
#
#
# Indices 1 2 3 4 5 6 
#
# 1 0.012756 -0.005822 -0.003935 0.000000 -0.000469 0.000000
# 2 -0.005822 0.021036 -0.002770 0.000000 -0.002008 0.000000
# 3 -0.003935 -0.002770 0.011860 0.000000 0.002051 0.000000
# 4 0.000000 0.000000 0.000000 0.067943 0.000000 0.001107
# 5 -0.000469 -0.002008 0.002051 0.000000 0.034789 0.000000
# 6 0.000000 0.000000 0.000000 0.001107 0.000000 0.052655
#
#
# Mechanical properties :
#
#
# Convention : Reuss Voigt Hill
#
# Bulk Modulus (GPa) = 48.55473 54.13489 51.34481
# Shear Modulus (GPa) = 21.46287 23.86604 22.66446
#
# Velocity S-wave (km/s) = 3.65863 3.85802 3.75965
# Velocity P-wave (km/s) = 6.93751 7.32172 7.13220
#
# Compressibility (1/GPa) = 0.02059532
#
# Stress axis : x y z
#
# Youngs Moduli (GPa) = 78.39636 47.53704 84.31909
#
# Poissons Ratio (x) = 0.27678 0.33182
# Poissons Ratio (y) = 0.45646 0.23360
# Poissons Ratio (z) = 0.30851 0.13170
#
# Static dielectric constant tensor:
#      x y z
#    x 3.153920 0.000000 -0.094620 
#    y 0.000000 2.749710 0.000000 
#    z -0.094620 0.000000 3.255450 
# 
# 
# High freq. dielectric constant tensor:
#      x y z
#    x 1.615190 0.000000 -0.016140 
#    y 0.000000 1.562920 0.000000 
#    z -0.016140 0.000000 1.632000 
# 
# From -- ./inp_files/188371.got.cif
#   From: 2010.06.25/outbox.cif.g09.slc.cpg/sg12_95_cif.got.tgz:188371.got - 2010.06.28 00:19:55.
