data_PCOD8080673
_publ_section_title
;
Structure prediction by ZEFSAII (Michael W. Deem and Ramdas Pophale) SiO2 
 PCOD8080673
Probable space group: C 2/M
;
_chemical_formula_sum "Si O2"
_cell_formula_units_Z 64
_cell_length_a 23.725155
_cell_length_b 9.198429
_cell_length_c 21.426350
_cell_angle_alpha 90.000000
_cell_angle_beta 53.042690
_cell_angle_gamma 90.000000
_cell_volume 3736.484455
_symmetry_space_group_name_H-M "C 2/M"
_symmetry_group_IT_number 12
_symmetry_cell_setting 'monoclinic'
loop_
_space_group_symop_operation_xyz
x,y,z
-x,y,-z
-x,-y,-z
x,-y,z
1/2+x,1/2+y,z
1/2-x,1/2+y,-z
1/2-x,1/2-y,-z
1/2+x,1/2-y,z
loop_
_atom_site_type_symbol
_atom_site_label
_atom_site_fract_x
_atom_site_fract_y
_atom_site_fract_z
Si Si1 0.426426 0.326818 0.771272
Si Si2 0.077585 0.172288 0.706477
Si Si3 0.778536 0.172960 0.920281
Si Si4 0.622101 0.338080 0.326832
Si Si5 0.168430 0.668548 0.408140
Si Si6 0.678560 0.673076 0.527520
Si Si7 0.278756 0.840069 0.170502
Si Si8 0.823899 0.832634 0.251844
O O1 0.425233 0.500000 0.771392
O O2 0.497848 0.265691 0.755379
O O3 0.358496 0.270931 0.854898
O O4 0.424059 0.276210 0.700237
O O5 0.119505 0.217404 0.616754
O O6 0.116236 0.235126 0.742476
O O7 0.076751 0.000000 0.712309
O O8 0.728610 0.220046 0.895298
O O9 0.777071 0.000000 0.929663
O O10 0.750000 0.250000 0.000000
O O11 0.596835 0.500000 0.364060
O O12 0.616621 0.227077 0.388270
O O13 0.701765 0.348537 0.250819
O O14 0.151783 0.500000 0.432048
O O15 0.152181 0.764521 0.479422
O O16 0.249509 0.691411 0.335300
O O17 0.690234 0.500000 0.515835
O O18 0.750000 0.750000 0.500000
O O19 0.328290 0.741171 0.180942
O O20 0.312967 0.000000 0.146495
O O21 0.838340 0.000000 0.229606
#
# Coordination Sequence:
#
# PCOD8080673 Si02
#       8
#     8   8   8   8   8   8   8   8
#     4   8  15  30  51  71  94 122 156 193 230 276
#     4   9  17  30  47  68  93 122 157 199 237 273
#     4   9  17  30  51  77  99 120 148 185 229 275
#     4   8  14  27  47  68  86 115 156 195 234 274
#     4  10  18  29  44  66  93 121 155 199 243 278
#     4  11  20  31  46  66  93 123 159 201 242 280
#     4   8  15  27  43  67  95 118 147 186 226 269
#     4   9  16  27  44  67  91 117 155 196 233 267
#
# _framework density 17.128399000000002
#
# number of rings (size 3 to 8) (size 9 to 14) (size 15 to 20)
#    0.000    3.000    1.250    2.250    0.000    1.000 
#    0.000    2.500    0.000    9.000    0.000    5.250 
#    0.000    0.000    0.000    0.000    0.000    0.000 
#
# Total GULP energy -396592.768547 kJ/mol
# GULP energy per Si atom -12393.524017 kJ/mol
# Density = 1.708941 g / cm^3
# Si number density = 17.128399 Si / 1000 Ang^3
#
#
#
# Elastic Constant Matrix: (Units=GPa)
#
#
# Indices 1 2 3 4 5 6 
#
# 1 136.8145 42.6725 66.6838 -0.0002 21.8185 0.0001
# 2 42.6725 58.9547 40.2234 -0.0005 13.7875 0.0004
# 3 66.6838 40.2234 95.4238 -0.0001 23.6102 0.0001
# 4 -0.0002 -0.0005 -0.0001 24.7123 0.0002 9.5226
# 5 21.8185 13.7875 23.6102 0.0002 28.8272 -0.0002
# 6 0.0001 0.0004 0.0001 9.5226 -0.0002 22.0312
#
#
#
# Elastic Compliance Matrix: (Units=1/GPa)
#
#
# Indices 1 2 3 4 5 6 
#
# 1 0.011840 -0.003915 -0.006107 0.000000 -0.002087 0.000000
# 2 -0.003915 0.025473 -0.007174 0.000001 -0.003344 -0.000001
# 3 -0.006107 -0.007174 0.019789 0.000000 -0.008154 0.000000
# 4 0.000000 0.000001 0.000000 0.048552 -0.000001 -0.020986
# 5 -0.002087 -0.003344 -0.008154 -0.000001 0.044547 0.000001
# 6 0.000000 -0.000001 0.000000 -0.020986 0.000001 0.054461
#
#
# Mechanical properties :
#
#
# Convention : Reuss Voigt Hill
#
# Bulk Modulus (GPa) = 44.03564 65.59472 54.81518
# Shear Modulus (GPa) = 20.27381 24.55501 22.41441
#
# Velocity S-wave (km/s) = 3.44414 3.79038 3.62140
# Velocity P-wave (km/s) = 6.44834 7.58518 7.03975
#
# Compressibility (1/GPa) = 0.02270888
#
# Stress axis : x y z
#
# Youngs Moduli (GPa) = 84.46154 39.25767 50.53324
#
# Poissons Ratio (x) = 0.15369 0.30862
# Poissons Ratio (y) = 0.33067 0.36253
# Poissons Ratio (z) = 0.51583 0.28164
#
# Static dielectric constant tensor:
#      x y z
#    x 3.573270 0.000000 0.242510 
#    y 0.000000 3.079440 0.000000 
#    z 0.242510 0.000000 3.075000 
# 
# 
# High freq. dielectric constant tensor:
#      x y z
#    x 1.662780 0.000000 0.026380 
#    y 0.000000 1.637470 0.000000 
#    z 0.026380 0.000000 1.631650 
# 
# From -- ./inp_files/326865.got.cif
#   From: 2010.06.25/outbox.cif.g09.slc.cpg/sg12_164_cif.got.tgz:326865.got - 2010.06.28 00:19:55.
