data_PCOD8080731
_publ_section_title
;
Structure prediction by ZEFSAII (Michael W. Deem and Ramdas Pophale) SiO2 
 PCOD8080731
Probable space group: C 2/M
;
_chemical_formula_sum "Si O2"
_cell_formula_units_Z 56
_cell_length_a 23.923794
_cell_length_b 9.460652
_cell_length_c 30.328748
_cell_angle_alpha 90.000000
_cell_angle_beta 154.118290
_cell_angle_gamma 90.000000
_cell_volume 2996.431729
_symmetry_space_group_name_H-M "C 2/M"
_symmetry_group_IT_number 12
_symmetry_cell_setting 'monoclinic'
loop_
_space_group_symop_operation_xyz
x,y,z
-x,y,-z
-x,-y,-z
x,-y,z
1/2+x,1/2+y,z
1/2-x,1/2+y,-z
1/2-x,1/2-y,-z
1/2+x,1/2-y,z
loop_
_atom_site_type_symbol
_atom_site_label
_atom_site_fract_x
_atom_site_fract_y
_atom_site_fract_z
Si Si1 0.465750 0.162252 0.355458
Si Si2 0.949784 0.832662 0.010953
Si Si3 0.003071 0.166506 0.226711
Si Si4 0.248764 0.839439 0.455693
Si Si5 0.381131 0.830941 0.387507
Si Si6 0.598345 0.667975 0.201033
Si Si7 0.158112 0.332531 0.820886
O O1 0.615742 0.180493 0.472402
O O2 0.391761 0.227528 0.344809
O O3 0.423752 0.228871 0.278747
O O4 0.424993 0.000000 0.322248
O O5 0.803709 0.789012 0.915217
O O6 0.964411 0.000000 0.020302
O O7 0.000000 0.769578 0.000000
O O8 0.033966 0.770084 0.110979
O O9 0.137851 0.209725 0.344270
O O10 0.014547 0.214463 0.183864
O O11 0.889087 0.253482 0.168575
O O12 0.975079 0.000000 0.211221
O O13 0.250000 0.750000 0.500000
O O14 0.227948 0.000000 0.455590
O O15 0.500000 0.769019 0.500000
O O16 0.244908 0.777209 0.309598
O O17 0.389475 0.000000 0.393435
O O18 0.601650 0.500000 0.201236
O O19 0.141208 0.500000 0.816241
#
# Coordination Sequence:
#
# PCOD8080731 Si02
#       7
#     8   8   8   8   8   8   8
#     4   9  16  26  42  66  94 120 154 199 238 277
#     4   9  17  30  49  72  96 123 159 203 249 289
#     4  10  20  32  47  70 101 132 161 195 240 291
#     4  10  18  29  45  67  97 129 159 193 237 284
#     4   9  15  24  41  65  93 124 155 192 242 291
#     4   9  17  29  44  66  98 130 158 196 244 288
#     4  10  19  31  49  72  96 126 163 200 238 285
#
# _framework density 18.688894999999999
#
# number of rings (size 3 to 8) (size 9 to 14) (size 15 to 20)
#    0.000    2.571    1.429    1.714    0.000    7.429 
#    0.000    0.000    0.000    0.429    0.000    4.000 
#    0.000    5.143    0.000    0.000    0.000    0.000 
#
# Total GULP energy -347070.525704 kJ/mol
# GULP energy per Si atom -12395.375918 kJ/mol
# Density = 1.864636 g / cm^3
# Si number density = 18.688895 Si / 1000 Ang^3
#
#
#
# Elastic Constant Matrix: (Units=GPa)
#
#
# Indices 1 2 3 4 5 6 
#
# 1 175.9872 29.2391 68.4232 0.0005 -1.6048 -0.0001
# 2 29.2391 18.2785 17.8314 -0.0028 2.9764 -0.0004
# 3 68.4232 17.8314 120.6757 -0.0080 -0.7088 -0.0003
# 4 0.0005 -0.0028 -0.0080 11.6597 -0.0026 0.5917
# 5 -1.6048 2.9764 -0.7088 -0.0026 33.1678 0.0002
# 6 -0.0001 -0.0004 -0.0003 0.5917 0.0002 19.9094
#
#
#
# Elastic Compliance Matrix: (Units=1/GPa)
#
#
# Indices 1 2 3 4 5 6 
#
# 1 0.008846 -0.011083 -0.003370 -0.000005 0.001351 0.000000
# 2 -0.011083 0.079000 -0.005435 0.000014 -0.007742 0.000001
# 3 -0.003370 -0.005435 0.011004 0.000007 0.000560 0.000000
# 4 -0.000005 0.000014 0.000007 0.085895 0.000005 -0.002553
# 5 0.001351 -0.007742 0.000560 0.000005 0.030922 -0.000001
# 6 0.000000 0.000001 0.000000 -0.002553 -0.000001 0.050303
#
#
# Mechanical properties :
#
#
# Convention : Reuss Voigt Hill
#
# Bulk Modulus (GPa) = 16.92771 60.65876 38.79324
# Shear Modulus (GPa) = 15.36389 26.24389 20.80389
#
# Velocity S-wave (km/s) = 2.87032 3.75140 3.34004
# Velocity P-wave (km/s) = 4.47909 7.16181 5.97301
#
# Compressibility (1/GPa) = 0.05907472
#
# Stress axis : x y z
#
# Youngs Moduli (GPa) = 113.04225 12.65815 90.87657
#
# Poissons Ratio (x) = 0.14029 0.30628
# Poissons Ratio (y) = 1.25285 0.49389
# Poissons Ratio (z) = 0.38098 0.06879
#
# Static dielectric constant tensor:
#      x y z
#    x 3.895800 -0.000080 0.194910 
#    y -0.000080 2.768920 0.000050 
#    z 0.194910 0.000050 3.328330 
# 
# 
# High freq. dielectric constant tensor:
#      x y z
#    x 1.742970 0.000000 -0.000120 
#    y 0.000000 1.642290 0.000000 
#    z -0.000120 0.000000 1.734990 
# 
# From -- ./inp_files/174007.got.cif
#   From: 2010.06.25/outbox.cif.g09.slc.cpg/sg12_88_cif.got.tgz:174007.got - 2010.06.28 00:19:55.
