data_PCOD8080728
_publ_section_title
;
Structure prediction by ZEFSAII (Michael W. Deem and Ramdas Pophale) SiO2 
 PCOD8080728
Probable space group: C 2/M
;
_chemical_formula_sum "Si O2"
_cell_formula_units_Z 64
_cell_length_a 24.703081
_cell_length_b 19.320692
_cell_length_c 21.850885
_cell_angle_alpha 90.000000
_cell_angle_beta 157.408208
_cell_angle_gamma 90.000000
_cell_volume 4006.438090
_symmetry_space_group_name_H-M "C 2/M"
_symmetry_group_IT_number 12
_symmetry_cell_setting 'monoclinic'
loop_
_space_group_symop_operation_xyz
x,y,z
-x,y,-z
-x,-y,-z
x,-y,z
1/2+x,1/2+y,z
1/2-x,1/2+y,-z
1/2-x,1/2-y,-z
1/2+x,1/2-y,z
loop_
_atom_site_type_symbol
_atom_site_label
_atom_site_fract_x
_atom_site_fract_y
_atom_site_fract_z
Si Si1 0.692755 0.076007 0.074878
Si Si2 0.858963 0.425406 0.728014
Si Si3 0.831761 0.641214 0.074403
Si Si4 0.697344 0.295975 0.387697
Si Si5 0.832369 0.286423 0.893466
Si Si6 0.126322 0.420302 0.396832
Si Si7 0.872628 0.785974 0.053481
Si Si8 0.332080 0.789937 0.758000
O O1 0.742253 0.139242 0.170025
O O2 0.757588 0.000000 0.159470
O O3 0.526142 0.072004 0.908207
O O4 0.735309 0.094461 0.049444
O O5 0.795286 0.500000 0.680111
O O6 0.827016 0.407985 0.624352
O O7 0.785892 0.369205 0.695873
O O8 0.881631 0.714812 0.100363
O O9 0.965068 0.601161 0.241429
O O10 0.716706 0.653965 0.007007
O O11 0.750000 0.250000 0.500000
O O12 0.773011 0.369821 0.460106
O O13 0.531796 0.312523 0.215998
O O14 0.736610 0.257738 0.365343
O O15 0.780314 0.265112 0.771188
O O16 0.797300 0.229165 0.908851
O O17 0.000190 0.291582 0.070957
O O18 0.147380 0.500000 0.438885
#
# Coordination Sequence:
#
# PCOD8080728 Si02
#       8
#     8   8   8   8   8   8   8   8
#     4   8  13  22  37  59  89 119 146 178 217 266
#     4   8  13  21  35  59  90 119 147 178 214 263
#     4   9  15  27  44  67  88 120 154 190 226 265
#     4  11  17  29  46  70  95 120 150 192 235 274
#     4   8  15  25  37  61  91 117 153 188 222 266
#     4  10  18  29  45  67  95 123 148 184 237 287
#     4   9  17  27  45  68  91 115 155 197 230 259
#     4   9  15  24  40  61  89 124 153 182 225 270
#
# _framework density 15.974289000000001
#
# number of rings (size 3 to 8) (size 9 to 14) (size 15 to 20)
#    0.000    3.000    2.500    2.625    0.000    0.500 
#    0.000    3.750    0.000    0.750    0.000    9.625 
#    0.000    1.000    0.000    0.000    0.000    0.000 
#
# Total GULP energy -396433.537962 kJ/mol
# GULP energy per Si atom -12388.548061 kJ/mol
# Density = 1.593793 g / cm^3
# Si number density = 15.974289 Si / 1000 Ang^3
#
#
#
# Elastic Constant Matrix: (Units=GPa)
#
#
# Indices 1 2 3 4 5 6 
#
# 1 89.6083 38.0540 33.5984 0.0073 -13.7946 0.0021
# 2 38.0540 81.6985 33.6752 0.0090 -7.0159 0.0038
# 3 33.5984 33.6752 38.3845 0.0162 -10.3229 0.0088
# 4 0.0073 0.0090 0.0162 19.4818 0.0079 1.3608
# 5 -13.7946 -7.0159 -10.3229 0.0079 18.5571 0.0032
# 6 0.0021 0.0038 0.0088 1.3608 0.0032 20.2026
#
#
#
# Elastic Compliance Matrix: (Units=1/GPa)
#
#
# Indices 1 2 3 4 5 6 
#
# 1 0.017502 -0.003101 -0.011072 0.000002 0.005679 0.000003
# 2 -0.003101 0.019821 -0.015615 0.000006 -0.003498 0.000004
# 3 -0.011072 -0.015615 0.053672 -0.000038 0.015722 -0.000019
# 4 0.000002 0.000006 -0.000038 0.051573 -0.000039 -0.003474
# 5 0.005679 -0.003498 0.015722 -0.000039 0.065532 -0.000015
# 6 0.000003 0.000004 -0.000019 -0.003474 -0.000015 0.049733
#
#
# Mechanical properties :
#
#
# Convention : Reuss Voigt Hill
#
# Bulk Modulus (GPa) = 31.82939 46.70518 39.26728
# Shear Modulus (GPa) = 15.24940 18.60588 16.92764
#
# Velocity S-wave (km/s) = 3.09305 3.41653 3.25880
# Velocity P-wave (km/s) = 5.72054 6.69812 6.22854
#
# Compressibility (1/GPa) = 0.03141750
#
# Stress axis : x y z
#
# Youngs Moduli (GPa) = 57.13556 50.45281 18.63177
#
# Poissons Ratio (x) = 0.15644 0.20630
# Poissons Ratio (y) = 0.17716 0.29094
# Poissons Ratio (z) = 0.63263 0.78784
#
# Static dielectric constant tensor:
#      x y z
#    x 3.114300 -0.000010 -0.158540 
#    y -0.000010 3.164340 -0.000020 
#    z -0.158540 -0.000020 2.638680 
# 
# 
# High freq. dielectric constant tensor:
#      x y z
#    x 1.595230 0.000000 -0.011340 
#    y 0.000000 1.607360 0.000000 
#    z -0.011340 0.000000 1.565990 
# 
# From -- ./inp_files/98875.got.cif
#   From: 2010.06.25/outbox.cif.g09.slc.cpg/sg12_50_cif.got.tgz:98875.got - 2010.06.28 00:19:55.
