data_PCOD8080110
_publ_section_title
;
Structure prediction by ZEFSAII (Michael W. Deem and Ramdas Pophale) SiO2 
 PCOD8080110
Probable space group: C 2/M
;
_chemical_formula_sum "Si O2"
_cell_formula_units_Z 56
_cell_length_a 19.497405
_cell_length_b 8.763857
_cell_length_c 31.595507
_cell_angle_alpha 90.000000
_cell_angle_beta 145.177584
_cell_angle_gamma 90.000000
_cell_volume 3082.903909
_symmetry_space_group_name_H-M "C 2/M"
_symmetry_group_IT_number 12
_symmetry_cell_setting 'monoclinic'
loop_
_space_group_symop_operation_xyz
x,y,z
-x,y,-z
-x,-y,-z
x,-y,z
1/2+x,1/2+y,z
1/2-x,1/2+y,-z
1/2-x,1/2-y,-z
1/2+x,1/2-y,z
loop_
_atom_site_type_symbol
_atom_site_label
_atom_site_fract_x
_atom_site_fract_y
_atom_site_fract_z
Si Si1 0.838298 0.824716 0.689143
Si Si2 0.643657 0.318299 0.919074
Si Si3 0.890934 0.319612 0.802313
Si Si4 0.739868 0.675129 0.562095
Si Si5 0.427879 0.322970 0.596438
Si Si6 0.109742 0.176387 0.809036
Si Si7 0.682519 0.319097 0.756751
O O1 0.829652 0.724092 0.726910
O O2 0.738339 0.772156 0.604688
O O3 0.967320 0.799365 0.732480
O O4 0.818386 0.000000 0.691708
O O5 0.647032 0.500000 0.922164
O O6 0.516967 0.264039 0.873818
O O7 0.656284 0.254371 0.877234
O O8 0.750000 0.250000 0.000000
O O9 0.910857 0.500000 0.814151
O O10 0.802713 0.260517 0.794848
O O11 0.755316 0.500000 0.582741
O O12 0.615182 0.703559 0.473785
O O13 0.850180 0.720336 0.588219
O O14 0.410022 0.500000 0.600575
O O15 0.566225 0.271261 0.670250
O O16 0.173111 0.250985 0.799770
O O17 0.142260 0.000000 0.826518
O O18 0.685415 0.500000 0.761442
#
# Coordination Sequence:
#
# PCOD8080110 Si02
#       7
#     8   8   8   8   8   8   8
#     4  10  18  32  52  70  99 140 178 215 256 309
#     4  10  20  36  58  81 106 136 169 205 249 304
#     4  10  20  33  54  80 105 130 166 215 260 306
#     4  10  18  27  45  75 102 129 175 227 266 301
#     4   9  17  30  48  70 101 138 173 214 266 315
#     4   8  15  29  53  77  94 127 175 208 241 296
#     4   9  16  31  53  76 101 134 173 212 256 311
#
# _framework density 18.164691000000001
#
# number of rings (size 3 to 8) (size 9 to 14) (size 15 to 20)
#    0.000    2.571    1.429    2.571    0.000    0.571 
#    0.000    2.857    0.000    8.571    0.000    0.000 
#    0.000    0.000    0.000    0.000    0.000    0.000 
#
# Total GULP energy -347071.002196 kJ/mol
# GULP energy per Si atom -12395.392936 kJ/mol
# Density = 1.812335 g / cm^3
# Si number density = 18.164691 Si / 1000 Ang^3
#
#
#
# Elastic Constant Matrix: (Units=GPa)
#
#
# Indices 1 2 3 4 5 6 
#
# 1 120.3867 25.0702 64.1258 -0.0001 0.9435 -0.0001
# 2 25.0702 51.7396 30.9640 -0.0002 -1.5116 -0.0003
# 3 64.1258 30.9640 140.2420 0.0000 -8.1199 0.0000
# 4 -0.0001 -0.0002 0.0000 27.1493 0.0000 -2.5825
# 5 0.9435 -1.5116 -8.1199 0.0000 20.0659 0.0000
# 6 -0.0001 -0.0003 0.0000 -2.5825 0.0000 20.8360
#
#
#
# Elastic Compliance Matrix: (Units=1/GPa)
#
#
# Indices 1 2 3 4 5 6 
#
# 1 0.011450 -0.002766 -0.004780 0.000000 -0.002681 0.000000
# 2 -0.002766 0.022940 -0.003781 0.000000 0.000328 0.000000
# 3 -0.004780 -0.003781 0.010391 0.000000 0.004145 0.000000
# 4 0.000000 0.000000 0.000000 0.037273 0.000000 0.004620
# 5 -0.002681 0.000328 0.004145 0.000000 0.051664 0.000000
# 6 0.000000 0.000000 0.000000 0.004620 0.000000 0.048566
#
#
# Mechanical properties :
#
#
# Convention : Reuss Voigt Hill
#
# Bulk Modulus (GPa) = 45.19374 61.40981 53.30177
# Shear Modulus (GPa) = 23.55009 26.42413 24.98711
#
# Velocity S-wave (km/s) = 3.60457 3.81819 3.71291
# Velocity P-wave (km/s) = 6.50061 7.30197 6.91291
#
# Compressibility (1/GPa) = 0.02212696
#
# Stress axis : x y z
#
# Youngs Moduli (GPa) = 87.33911 43.59164 96.23668
#
# Poissons Ratio (x) = 0.12056 0.46001
# Poissons Ratio (y) = 0.24154 0.36391
# Poissons Ratio (z) = 0.41748 0.16484
#
# Static dielectric constant tensor:
#      x y z
#    x 3.515340 0.000000 -0.271680 
#    y 0.000000 3.176510 0.000000 
#    z -0.271680 0.000000 3.549460 
# 
# 
# High freq. dielectric constant tensor:
#      x y z
#    x 1.687250 0.000000 -0.017290 
#    y 0.000000 1.685750 0.000000 
#    z -0.017290 0.000000 1.700960 
# 
# From -- ./inp_files/377637.got.cif
#   From: 2010.06.25/outbox.cif.g09.slc.cpg/sg12_189_cif.got.tgz:377637.got - 2010.06.28 00:19:55.
