data_PCOD8080960
_publ_section_title
;
Structure prediction by ZEFSAII (Michael W. Deem and Ramdas Pophale) SiO2 
 PCOD8080960
Probable space group: C 2/M
;
_chemical_formula_sum "Si O2"
_cell_formula_units_Z 56
_cell_length_a 28.967151
_cell_length_b 8.638022
_cell_length_c 13.661731
_cell_angle_alpha 90.000000
_cell_angle_beta 76.273869
_cell_angle_gamma 90.000000
_cell_volume 3320.796400
_symmetry_space_group_name_H-M "C 2/M"
_symmetry_group_IT_number 12
_symmetry_cell_setting 'monoclinic'
loop_
_space_group_symop_operation_xyz
x,y,z
-x,y,-z
-x,-y,-z
x,-y,z
1/2+x,1/2+y,z
1/2-x,1/2+y,-z
1/2-x,1/2-y,-z
1/2+x,1/2-y,z
loop_
_atom_site_type_symbol
_atom_site_label
_atom_site_fract_x
_atom_site_fract_y
_atom_site_fract_z
Si Si1 0.295839 0.820460 0.589993
Si Si2 0.513934 0.320052 0.889637
Si Si3 0.197495 0.319931 0.638571
Si Si4 0.055062 0.320379 0.572225
Si Si5 0.968981 0.819269 0.714603
Si Si6 0.104242 0.820871 0.728866
Si Si7 0.886378 0.822999 0.625207
O O1 0.249709 0.727286 0.649185
O O2 0.309048 0.772924 0.472263
O O3 0.339600 0.782225 0.639718
O O4 0.283551 0.000000 0.602216
O O5 0.502640 0.500000 0.904370
O O6 0.480794 0.255508 0.817724
O O7 0.569875 0.290603 0.839317
O O8 0.500000 0.238711 0.000000
O O9 0.189998 0.500000 0.659827
O O10 0.158641 0.227411 0.723162
O O11 0.058929 0.500000 0.541332
O O12 0.086971 0.289211 0.650891
O O13 0.074811 0.215641 0.475678
O O14 0.000603 0.274996 0.620412
O O15 0.913305 0.794820 0.715826
O O16 0.983407 0.000000 0.699940
O O17 0.101196 0.000000 0.698914
O O18 0.870123 0.000000 0.622416
#
# Coordination Sequence:
#
# PCOD8080960 Si02
#       7
#     8   8   8   8   8   8   8
#     4  10  20  31  45  65  92 126 162 194 226 267
#     4   8  15  30  51  73  94 117 151 193 233 277
#     4  10  19  31  46  66  93 125 159 194 230 269
#     4  11  20  29  42  63  91 125 160 192 225 266
#     4   9  19  32  46  66  90 121 156 190 231 278
#     4  10  18  29  48  70  94 124 156 192 233 276
#     4  11  20  30  44  63  92 126 158 190 227 271
#
# _framework density 16.863423999999998
#
# number of rings (size 3 to 8) (size 9 to 14) (size 15 to 20)
#    0.000    2.143    1.429    4.286    0.000    4.000 
#    0.000    0.000    0.000   10.714    0.000    1.000 
#    0.000    0.000    0.000    0.000    0.000    0.000 
#
# Total GULP energy -347115.580967 kJ/mol
# GULP energy per Si atom -12396.985035 kJ/mol
# Density = 1.682504 g / cm^3
# Si number density = 16.863424 Si / 1000 Ang^3
#
#
#
# Elastic Constant Matrix: (Units=GPa)
#
#
# Indices 1 2 3 4 5 6 
#
# 1 120.1513 21.3410 40.5777 0.0000 -8.4025 0.0000
# 2 21.3410 45.5284 11.5491 0.0000 -5.5028 0.0000
# 3 40.5777 11.5491 62.5168 0.0000 -6.2909 0.0000
# 4 0.0000 0.0000 0.0000 8.5081 0.0000 -4.2432
# 5 -8.4025 -5.5028 -6.2909 0.0000 15.8268 0.0000
# 6 0.0000 0.0000 0.0000 -4.2432 0.0000 28.8992
#
#
#
# Elastic Compliance Matrix: (Units=1/GPa)
#
#
# Indices 1 2 3 4 5 6 
#
# 1 0.011260 -0.003368 -0.006461 0.000000 0.002239 0.000000
# 2 -0.003368 0.024730 -0.001768 0.000000 0.006107 0.000000
# 3 -0.006461 -0.001768 0.020947 0.000000 0.004281 0.000000
# 4 0.000000 0.000000 0.000000 0.126822 0.000000 0.018621
# 5 0.002239 0.006107 0.004281 0.000000 0.068197 0.000000
# 6 0.000000 0.000000 0.000000 0.018621 0.000000 0.037337
#
#
# Mechanical properties :
#
#
# Convention : Reuss Voigt Hill
#
# Bulk Modulus (GPa) = 29.63628 41.68134 35.65881
# Shear Modulus (GPa) = 15.44483 20.96208 18.20345
#
# Velocity S-wave (km/s) = 3.02963 3.52952 3.28908
# Velocity P-wave (km/s) = 5.46358 6.43278 5.96788
#
# Compressibility (1/GPa) = 0.03374243
#
# Stress axis : x y z
#
# Youngs Moduli (GPa) = 88.81313 40.43716 47.74062
#
# Poissons Ratio (x) = 0.13621 0.30844
# Poissons Ratio (y) = 0.29915 0.08439
# Poissons Ratio (z) = 0.57380 0.07148
#
# Static dielectric constant tensor:
#      x y z
#    x 3.279320 0.000000 -0.001800 
#    y 0.000000 3.039950 0.000000 
#    z -0.001800 0.000000 3.044000 
# 
# 
# High freq. dielectric constant tensor:
#      x y z
#    x 1.655520 0.000000 -0.007690 
#    y 0.000000 1.647850 0.000000 
#    z -0.007690 0.000000 1.595980 
# 
# From -- ./inp_files/243042.got.cif
#   From: 2010.06.25/outbox.cif.g09.slc.cpg/sg12_122_cif.got.tgz:243042.got - 2010.06.28 00:19:55.
