data_PCOD8080621
_publ_section_title
;
Structure prediction by ZEFSAII (Michael W. Deem and Ramdas Pophale) SiO2 
 PCOD8080621
Probable space group: C 2/M
;
_chemical_formula_sum "Si O2"
_cell_formula_units_Z 48
_cell_length_a 27.040254
_cell_length_b 14.102481
_cell_length_c 15.122880
_cell_angle_alpha 90.000000
_cell_angle_beta 34.444542
_cell_angle_gamma 90.000000
_cell_volume 3261.794187
_symmetry_space_group_name_H-M "C 2/M"
_symmetry_group_IT_number 12
_symmetry_cell_setting 'monoclinic'
loop_
_space_group_symop_operation_xyz
x,y,z
-x,y,-z
-x,-y,-z
x,-y,z
1/2+x,1/2+y,z
1/2-x,1/2+y,-z
1/2-x,1/2-y,-z
1/2+x,1/2-y,z
loop_
_atom_site_type_symbol
_atom_site_label
_atom_site_fract_x
_atom_site_fract_y
_atom_site_fract_z
Si Si1 0.261308 0.889088 0.814618
Si Si2 0.935090 0.108723 0.411670
Si Si3 0.134687 0.107245 0.161987
Si Si4 0.376035 0.612425 0.122457
Si Si5 0.399451 0.266330 0.626480
Si Si6 0.061590 0.112376 0.786664
O O1 0.207548 0.850278 0.808614
O O2 0.352605 0.834137 0.683592
O O3 0.283054 0.000000 0.774570
O O4 0.205780 0.866517 0.983838
O O5 0.888990 0.173010 0.552736
O O6 0.904704 0.146138 0.359354
O O7 0.039470 0.118654 0.259994
O O8 0.906945 0.000000 0.470119
O O9 0.147364 0.175933 0.226378
O O10 0.147729 0.000000 0.176732
O O11 0.378478 0.500000 0.108827
O O12 0.371260 0.642121 0.233643
O O13 0.465487 0.654804 0.949436
O O14 0.500000 0.246266 0.500000
O O15 0.052004 0.000000 0.797821
#
# Coordination Sequence:
#
# PCOD8080621 Si02
#       6
#     8   8   8   8   8   8
#     4  10  18  29  43  58  80 109 140 169 193 225
#     4   9  15  26  43  63  85 105 125 159 208 250
#     4   9  16  28  45  62  78 101 134 170 206 238
#     4   8  13  22  39  62  81 100 127 162 200 237
#     4  10  20  29  39  58  84 112 137 163 196 237
#     4   8  12  21  40  63  83  99 122 158 204 249
#
# _framework density 14.715828
#
# number of rings (size 3 to 8) (size 9 to 14) (size 15 to 20)
#    0.000    3.000    1.667    2.000    0.000    2.333 
#    0.000    0.833    0.000    0.000    0.000    0.000 
#    0.000    0.000    0.000    5.833    0.000    0.833 
#
# Total GULP energy -297422.632458 kJ/mol
# GULP energy per Si atom -12392.609686 kJ/mol
# Density = 1.468233 g / cm^3
# Si number density = 14.715828 Si / 1000 Ang^3
#
#
#
# Elastic Constant Matrix: (Units=GPa)
#
#
# Indices 1 2 3 4 5 6 
#
# 1 114.8496 43.3421 47.4930 0.0000 21.4475 0.0000
# 2 43.3421 53.3128 38.1356 0.0000 4.3612 0.0000
# 3 47.4930 38.1356 59.6801 0.0000 11.9796 0.0000
# 4 0.0000 0.0000 0.0000 16.7622 0.0000 -5.2947
# 5 21.4475 4.3612 11.9796 0.0000 22.1008 0.0000
# 6 0.0000 0.0000 0.0000 -5.2947 0.0000 7.1047
#
#
#
# Elastic Compliance Matrix: (Units=1/GPa)
#
#
# Indices 1 2 3 4 5 6 
#
# 1 0.016145 -0.008522 -0.005156 0.000000 -0.011191 0.000000
# 2 -0.008522 0.039718 -0.020966 0.000000 0.011797 0.000000
# 3 -0.005156 -0.020966 0.036380 0.000000 -0.010578 0.000000
# 4 0.000000 0.000000 0.000000 0.078026 0.000000 0.058148
# 5 -0.011191 0.011797 -0.010578 0.000000 0.059514 0.000000
# 6 0.000000 0.000000 0.000000 0.058148 0.000000 0.184086
#
#
# Mechanical properties :
#
#
# Convention : Reuss Voigt Hill
#
# Bulk Modulus (GPa) = 43.56422 53.97600 48.77011
# Shear Modulus (GPa) = 10.18729 15.78499 12.98614
#
# Velocity S-wave (km/s) = 2.63395 3.27869 2.97385
# Velocity P-wave (km/s) = 6.23844 7.14784 6.70857
#
# Compressibility (1/GPa) = 0.02295462
#
# Stress axis : x y z
#
# Youngs Moduli (GPa) = 61.93799 25.17781 27.48753
#
# Poissons Ratio (x) = 0.21456 0.14174
# Poissons Ratio (y) = 0.52782 0.57630
# Poissons Ratio (z) = 0.31938 0.52788
#
# Static dielectric constant tensor:
#      x y z
#    x 3.138270 0.000000 0.244000 
#    y 0.000000 2.474730 0.000000 
#    z 0.244000 0.000000 2.675950 
# 
# 
# High freq. dielectric constant tensor:
#      x y z
#    x 1.572550 0.000000 0.020940 
#    y 0.000000 1.518810 0.000000 
#    z 0.020940 0.000000 1.543480 
# 
# From -- ./inp_files/144778.got.cif
#   From: 2010.06.25/outbox.cif.g09.slc.cpg/sg12_73_cif.got.tgz:144778.got - 2010.06.28 00:19:55.
