data_PCOD8080559
_publ_section_title
;
Structure prediction by ZEFSAII (Michael W. Deem and Ramdas Pophale) SiO2 
 PCOD8080559
Probable space group: C 2/M
;
_chemical_formula_sum "Si O2"
_cell_formula_units_Z 64
_cell_length_a 20.255340
_cell_length_b 9.149936
_cell_length_c 20.305339
_cell_angle_alpha 90.000000
_cell_angle_beta 97.182064
_cell_angle_gamma 90.000000
_cell_volume 3733.764109
_symmetry_space_group_name_H-M "C 2/M"
_symmetry_group_IT_number 12
_symmetry_cell_setting 'monoclinic'
loop_
_space_group_symop_operation_xyz
x,y,z
-x,y,-z
-x,-y,-z
x,-y,z
1/2+x,1/2+y,z
1/2-x,1/2+y,-z
1/2-x,1/2-y,-z
1/2+x,1/2-y,z
loop_
_atom_site_type_symbol
_atom_site_label
_atom_site_fract_x
_atom_site_fract_y
_atom_site_fract_z
Si Si1 0.977274 0.661286 0.698756
Si Si2 0.061825 0.166255 0.962934
Si Si3 0.695018 0.175447 0.448696
Si Si4 0.044950 0.325887 0.446642
Si Si5 0.189018 0.328946 0.025559
Si Si6 0.349905 0.826763 0.835611
Si Si7 0.679804 0.159655 0.304784
Si Si8 0.483589 0.667038 0.825007
O O1 0.010076 0.500000 0.708985
O O2 0.987799 0.727624 0.626580
O O3 0.899109 0.646666 0.699334
O O4 0.008219 0.765635 0.758546
O O5 0.044043 0.179541 0.883732
O O6 0.082709 0.000000 0.983126
O O7 0.121501 0.275395 0.984044
O O8 0.000000 0.214685 0.000000
O O9 0.750000 0.250000 0.500000
O O10 0.621703 0.225510 0.463999
O O11 0.706715 0.236622 0.374864
O O12 0.701283 0.000000 0.451708
O O13 0.043777 0.500000 0.446542
O O14 0.000000 0.260708 0.500000
O O15 0.195423 0.500000 0.014064
O O16 0.190662 0.291018 0.103524
O O17 0.250000 0.250000 0.000000
O O18 0.308090 0.766513 0.765916
O O19 0.421182 0.750157 0.848806
O O20 0.362419 0.000000 0.829275
O O21 0.712950 0.000000 0.307587
O O22 0.462735 0.500000 0.810452
#
# Coordination Sequence:
#
# PCOD8080559 Si02
#       8
#     8   8   8   8   8   8   8   8
#     4   8  14  26  45  69  95 122 158 202 239 283
#     4  10  20  35  53  75 103 132 164 204 250 297
#     4   9  16  27  46  70  95 121 152 192 236 280
#     4   8  14  27  49  72  92 125 166 199 234 282
#     4  11  23  36  54  76 101 133 168 206 248 300
#     4   9  17  31  51  73  94 124 166 203 238 289
#     4   7  12  25  44  65  89 118 155 192 228 276
#     4  10  18  28  48  75 101 127 156 203 254 289
#
# _framework density 17.140879000000002
#
# number of rings (size 3 to 8) (size 9 to 14) (size 15 to 20)
#    0.000    3.000    1.250    3.000    0.000    1.750 
#    0.000    5.625    2.750    1.500    0.000    0.000 
#    0.000    0.000    0.000    0.000    0.000    0.000 
#
# Total GULP energy -396438.725133 kJ/mol
# GULP energy per Si atom -12388.710160 kJ/mol
# Density = 1.710187 g / cm^3
# Si number density = 17.140879 Si / 1000 Ang^3
#
#
#
# Elastic Constant Matrix: (Units=GPa)
#
#
# Indices 1 2 3 4 5 6 
#
# 1 76.0171 34.5848 64.2400 0.0000 -7.1960 0.0000
# 2 34.5848 56.4360 50.0785 0.0000 -3.1119 0.0000
# 3 64.2400 50.0785 168.9783 0.0000 -7.5712 0.0000
# 4 0.0000 0.0000 0.0000 25.7867 0.0000 4.3011
# 5 -7.1960 -3.1119 -7.5712 0.0000 25.4290 0.0000
# 6 0.0000 0.0000 0.0000 4.3011 0.0000 21.4848
#
#
#
# Elastic Compliance Matrix: (Units=1/GPa)
#
#
# Indices 1 2 3 4 5 6 
#
# 1 0.022149 -0.008205 -0.005831 0.000000 0.003528 0.000000
# 2 -0.008205 0.027098 -0.004933 0.000000 -0.000474 0.000000
# 3 -0.005831 -0.004933 0.009624 0.000000 0.000612 0.000000
# 4 0.000000 0.000000 0.000000 0.040119 0.000000 -0.008032
# 5 0.003528 -0.000474 0.000612 0.000000 0.040448 0.000000
# 6 0.000000 0.000000 0.000000 -0.008032 0.000000 0.048152
#
#
# Mechanical properties :
#
#
# Convention : Reuss Voigt Hill
#
# Bulk Modulus (GPa) = 47.76845 66.58201 57.17523
# Shear Modulus (GPa) = 21.50484 24.70865 23.10675
#
# Velocity S-wave (km/s) = 3.54587 3.80083 3.67556
# Velocity P-wave (km/s) = 6.68527 7.62824 7.17227
#
# Compressibility (1/GPa) = 0.02093432
#
# Stress axis : x y z
#
# Youngs Moduli (GPa) = 45.14835 36.90268 103.90819
#
# Poissons Ratio (x) = 0.30278 0.60586
# Poissons Ratio (y) = 0.37044 0.51256
# Poissons Ratio (z) = 0.26325 0.18204
#
# Static dielectric constant tensor:
#      x y z
#    x 2.430110 0.000000 -0.165290 
#    y 0.000000 3.024050 0.000000 
#    z -0.165290 0.000000 3.919290 
# 
# 
# High freq. dielectric constant tensor:
#      x y z
#    x 1.612890 0.000000 -0.003940 
#    y 0.000000 1.636330 0.000000 
#    z -0.003940 0.000000 1.687980 
# 
# From -- ./inp_files/319135.got.cif
#   From: 2010.06.25/outbox.cif.g09.slc.cpg/sg12_160_cif.got.tgz:319135.got - 2010.06.28 00:19:55.
