data_PCOD8080036
_publ_section_title
;
Structure prediction by ZEFSAII (Michael W. Deem and Ramdas Pophale) SiO2 
 PCOD8080036
Probable space group: C 2/M
;
_chemical_formula_sum "Si O2"
_cell_formula_units_Z 52
_cell_length_a 25.452923
_cell_length_b 23.443615
_cell_length_c 10.607334
_cell_angle_alpha 90.000000
_cell_angle_beta 148.013600
_cell_angle_gamma 90.000000
_cell_volume 3352.842710
_symmetry_space_group_name_H-M "C 2/M"
_symmetry_group_IT_number 12
_symmetry_cell_setting 'monoclinic'
loop_
_space_group_symop_operation_xyz
x,y,z
-x,y,-z
-x,-y,-z
x,-y,z
1/2+x,1/2+y,z
1/2-x,1/2+y,-z
1/2-x,1/2-y,-z
1/2+x,1/2-y,z
loop_
_atom_site_type_symbol
_atom_site_label
_atom_site_fract_x
_atom_site_fract_y
_atom_site_fract_z
Si Si1 0.421612 0.436736 0.160302
Si Si2 0.855881 0.935992 0.306609
Si Si3 0.630953 0.674669 0.060366
Si Si4 0.000000 0.766410 0.000000
Si Si5 0.275233 0.680982 0.197032
Si Si6 0.898314 0.245418 0.237851
Si Si7 0.691081 0.758849 0.507167
O O1 0.405323 0.500000 0.072517
O O2 0.362692 0.429827 0.170519
O O3 0.537404 0.424812 0.415310
O O4 0.377669 0.393265 0.968511
O O5 0.781179 0.887900 0.207892
O O6 0.818014 0.000000 0.264309
O O7 0.580283 0.704060 0.836324
O O8 0.572002 0.693916 0.064314
O O9 0.749332 0.689857 0.302446
O O10 0.925344 0.727825 0.761558
O O11 0.348737 0.708031 0.245446
O O12 0.303536 0.702655 0.394340
O O13 0.164322 0.699915 0.934397
O O14 0.000000 0.270276 0.500000
O O15 0.750000 0.750000 0.500000
#
# Coordination Sequence:
#
# PCOD8080036 Si02
#       7
#     8   8   8   4   8   8   8
#     4   9  16  26  42  63  90 118 144 178 218 260
#     4   9  16  26  42  65  90 119 148 174 215 265
#     4  10  18  29  43  63  91 118 146 179 218 263
#     4  10  18  30  45  60  87 120 148 180 220 262
#     4  10  18  28  45  67  90 117 147 179 223 265
#     4  10  18  27  43  67  93 115 142 184 223 265
#     4   9  19  30  43  63  87 116 146 178 219 262
#
# _framework density 15.509226999999999
#
# number of rings (size 3 to 8) (size 9 to 14) (size 15 to 20)
#    0.000    2.462    1.538    3.692    0.000    0.000 
#    0.000    0.385    0.000    4.154    0.000    0.538 
#    0.000    0.000    0.000    1.846    0.000    0.000 
#
# Total GULP energy -322226.636506 kJ/mol
# GULP energy per Si atom -12393.332173 kJ/mol
# Density = 1.547393 g / cm^3
# Si number density = 15.509227 Si / 1000 Ang^3
#
#
#
# Elastic Constant Matrix: (Units=GPa)
#
#
# Indices 1 2 3 4 5 6 
#
# 1 57.9846 28.4449 17.5817 0.0000 -6.3404 0.0000
# 2 28.4449 112.3101 45.6982 0.0000 4.0264 0.0000
# 3 17.5817 45.6982 115.6428 0.0000 6.7236 0.0000
# 4 0.0000 0.0000 0.0000 18.7975 0.0000 2.0604
# 5 -6.3404 4.0264 6.7236 0.0000 19.9159 0.0000
# 6 0.0000 0.0000 0.0000 2.0604 0.0000 18.4436
#
#
#
# Elastic Compliance Matrix: (Units=1/GPa)
#
#
# Indices 1 2 3 4 5 6 
#
# 1 0.021102 -0.004934 -0.001741 0.000000 0.008303 0.000000
# 2 -0.004934 0.011774 -0.003747 0.000000 -0.002686 0.000000
# 3 -0.001741 -0.003747 0.010589 0.000000 -0.003372 0.000000
# 4 0.000000 0.000000 0.000000 0.053858 0.000000 -0.006017
# 5 0.008303 -0.002686 -0.003372 0.000000 0.054536 0.000000
# 6 0.000000 0.000000 0.000000 -0.006017 0.000000 0.054892
#
#
# Mechanical properties :
#
#
# Convention : Reuss Voigt Hill
#
# Bulk Modulus (GPa) = 44.20514 52.15412 48.17963
# Shear Modulus (GPa) = 21.26444 24.37891 22.82168
#
# Velocity S-wave (km/s) = 3.70683 3.96902 3.84016
# Velocity P-wave (km/s) = 6.84727 7.39628 7.12706
#
# Compressibility (1/GPa) = 0.02262180
#
# Stress axis : x y z
#
# Youngs Moduli (GPa) = 47.38848 84.93135 94.44123
#
# Poissons Ratio (x) = 0.41902 0.16446
# Poissons Ratio (y) = 0.23380 0.35382
# Poissons Ratio (z) = 0.08252 0.31820
#
# Static dielectric constant tensor:
#      x y z
#    x 2.908820 0.000000 -0.049670 
#    y 0.000000 2.914500 0.000000 
#    z -0.049670 0.000000 3.292140 
# 
# 
# High freq. dielectric constant tensor:
#      x y z
#    x 1.585780 0.000000 -0.010700 
#    y 0.000000 1.569530 0.000000 
#    z -0.010700 0.000000 1.592730 
# 
# From -- ./inp_files/190320.got.cif
#   From: 2010.06.25/outbox.cif.g09.slc.cpg/sg12_96_cif.got.tgz:190320.got - 2010.06.28 00:19:55.
