data_PCOD8080056
_publ_section_title
;
Structure prediction by ZEFSAII (Michael W. Deem and Ramdas Pophale) SiO2 
 PCOD8080056
Probable space group: C 2/M
;
_chemical_formula_sum "Si O2"
_cell_formula_units_Z 64
_cell_length_a 24.265316
_cell_length_b 9.231243
_cell_length_c 18.778919
_cell_angle_alpha 90.000000
_cell_angle_beta 77.699826
_cell_angle_gamma 90.000000
_cell_volume 4109.900026
_symmetry_space_group_name_H-M "C 2/M"
_symmetry_group_IT_number 12
_symmetry_cell_setting 'monoclinic'
loop_
_space_group_symop_operation_xyz
x,y,z
-x,y,-z
-x,-y,-z
x,-y,z
1/2+x,1/2+y,z
1/2-x,1/2+y,-z
1/2-x,1/2-y,-z
1/2+x,1/2-y,z
loop_
_atom_site_type_symbol
_atom_site_label
_atom_site_fract_x
_atom_site_fract_y
_atom_site_fract_z
Si Si1 0.656710 0.836381 0.728820
Si Si2 0.062877 0.838334 0.013590
Si Si3 0.964121 0.670291 0.304280
Si Si4 0.764089 0.168303 0.387871
Si Si5 0.170848 0.832778 0.486556
Si Si6 0.495190 0.329765 0.833794
Si Si7 0.544382 0.667257 0.549484
Si Si8 0.594967 0.166162 0.881917
O O1 0.598430 0.791693 0.706242
O O2 0.707280 0.732914 0.690651
O O3 0.650477 0.823385 0.816598
O O4 0.672283 0.000000 0.702713
O O5 0.059078 0.802247 0.099508
O O6 0.086866 0.000000 0.996017
O O7 0.104174 0.726766 0.959955
O O8 0.000000 0.826670 0.000000
O O9 0.975676 0.500000 0.300796
O O10 0.010472 0.746597 0.239917
O O11 0.972872 0.732331 0.380287
O O12 0.805339 0.204052 0.442032
O O13 0.703203 0.239919 0.418025
O O14 0.754522 0.000000 0.378471
O O15 0.105556 0.788434 0.502689
O O16 0.180216 0.000000 0.465197
O O17 0.503799 0.500000 0.817724
O O18 0.549336 0.268166 0.858615
O O19 0.500000 0.696195 0.500000
O O20 0.544805 0.500000 0.574306
O O21 0.573795 0.000000 0.890898
#
# Coordination Sequence:
#
# PCOD8080056 Si02
#       8
#     8   8   8   8   8   8   8   8
#     4   9  17  27  38  56  82 110 137 171 210 247
#     4   8  14  23  33  48  70 101 136 169 203 240
#     4  10  19  29  42  60  81 105 138 176 215 252
#     4  10  18  27  44  64  81 107 139 173 212 249
#     4   9  18  31  44  62  84 106 134 171 213 252
#     4   9  16  25  37  51  72 102 137 173 207 243
#     4  10  20  34  50  65  83 110 142 174 212 258
#     4   9  16  23  33  52  76 104 136 169 206 245
#
# _framework density 15.572155
#
# number of rings (size 3 to 8) (size 9 to 14) (size 15 to 20)
#    0.000    2.750    1.250    3.000    0.000    6.500 
#    0.000    0.000    0.000    0.000    0.000    0.000 
#    0.000    0.000    0.000    1.125    0.000   13.375 
#
# Total GULP energy -396599.207492 kJ/mol
# GULP energy per Si atom -12393.725234 kJ/mol
# Density = 1.553671 g / cm^3
# Si number density = 15.572155 Si / 1000 Ang^3
#
#
#
# Elastic Constant Matrix: (Units=GPa)
#
#
# Indices 1 2 3 4 5 6 
#
# 1 49.0587 29.9991 39.8972 0.0000 -9.6305 0.0000
# 2 29.9991 97.3696 70.8682 0.0000 -19.1920 0.0000
# 3 39.8972 70.8682 111.4787 0.0000 -29.9666 0.0000
# 4 0.0000 0.0000 0.0000 30.5337 0.0000 -8.4905
# 5 -9.6305 -19.1920 -29.9666 0.0000 17.8614 0.0000
# 6 0.0000 0.0000 0.0000 -8.4905 0.0000 14.8095
#
#
#
# Elastic Compliance Matrix: (Units=1/GPa)
#
#
# Indices 1 2 3 4 5 6 
#
# 1 0.029202 -0.002597 -0.009687 0.000000 -0.003296 0.000000
# 2 -0.002597 0.019346 -0.011216 0.000000 0.000570 0.000000
# 3 -0.009687 -0.011216 0.027183 0.000000 0.028331 0.000000
# 4 0.000000 0.000000 0.000000 0.038962 0.000000 0.022338
# 5 -0.003296 0.000570 0.028331 0.000000 0.102354 0.000000
# 6 0.000000 0.000000 0.000000 0.022338 0.000000 0.080331
#
#
# Mechanical properties :
#
#
# Convention : Reuss Voigt Hill
#
# Bulk Modulus (GPa) = 34.80357 59.93731 47.37044
# Shear Modulus (GPa) = 14.12619 20.45041 17.28830
#
# Velocity S-wave (km/s) = 3.01515 3.62784 3.33559
# Velocity P-wave (km/s) = 5.87536 7.49145 6.73208
#
# Compressibility (1/GPa) = 0.02873269
#
# Stress axis : x y z
#
# Youngs Moduli (GPa) = 34.24412 51.69147 36.78804
#
# Poissons Ratio (x) = 0.13422 0.35635
# Poissons Ratio (y) = 0.08892 0.41260
# Poissons Ratio (z) = 0.33171 0.57976
#
# Static dielectric constant tensor:
#      x y z
#    x 2.537550 0.000000 -0.412720 
#    y 0.000000 3.073000 0.000000 
#    z -0.412720 0.000000 3.383110 
# 
# 
# High freq. dielectric constant tensor:
#      x y z
#    x 1.527480 0.000000 -0.040400 
#    y 0.000000 1.610820 0.000000 
#    z -0.040400 0.000000 1.598480 
# 
# From -- ./inp_files/291582.got.cif
#   From: 2010.06.25/outbox.cif.g09.slc.cpg/sg12_146_cif.got.tgz:291582.got - 2010.06.28 00:19:55.
