data_PCOD8080318
_publ_section_title
;
Structure prediction by ZEFSAII (Michael W. Deem and Ramdas Pophale) SiO2 
 PCOD8080318
Probable space group: C 2/M
;
_chemical_formula_sum "Si O2"
_cell_formula_units_Z 64
_cell_length_a 26.119874
_cell_length_b 21.556182
_cell_length_c 12.023211
_cell_angle_alpha 90.000000
_cell_angle_beta 32.287508
_cell_angle_gamma 90.000000
_cell_volume 3616.107177
_symmetry_space_group_name_H-M "C 2/M"
_symmetry_group_IT_number 12
_symmetry_cell_setting 'monoclinic'
loop_
_space_group_symop_operation_xyz
x,y,z
-x,y,-z
-x,-y,-z
x,-y,z
1/2+x,1/2+y,z
1/2-x,1/2+y,-z
1/2-x,1/2-y,-z
1/2+x,1/2-y,z
loop_
_atom_site_type_symbol
_atom_site_label
_atom_site_fract_x
_atom_site_fract_y
_atom_site_fract_z
Si Si1 0.702219 0.069448 0.170719
Si Si2 0.933013 0.254433 0.896122
Si Si3 0.923230 0.653815 0.738121
Si Si4 0.545237 0.933150 0.646438
Si Si5 0.181046 0.678677 0.718374
Si Si6 0.152363 0.261456 0.533019
Si Si7 0.291716 0.645271 0.184493
Si Si8 0.794831 0.428282 0.472232
O O1 0.669768 0.114723 0.129665
O O2 0.613905 0.061272 0.414691
O O3 0.788657 0.102678 0.079343
O O4 0.732977 0.000000 0.072377
O O5 0.897492 0.279198 0.839410
O O6 0.046749 0.243823 0.687213
O O7 0.904965 0.305669 0.040024
O O8 0.885787 0.187910 0.009575
O O9 0.000000 0.663024 0.500000
O O10 0.967197 0.618782 0.765015
O O11 0.605518 0.917486 0.645484
O O12 0.494035 0.000000 0.755552
O O13 0.155524 0.712634 0.651075
O O14 0.280684 0.700675 0.591055
O O15 0.192948 0.605382 0.669659
O O16 0.196116 0.311516 0.365544
O O17 0.291676 0.602054 0.295611
O O18 0.771266 0.500000 0.495375
#
# Coordination Sequence:
#
# PCOD8080318 Si02
#       8
#     8   8   8   8   8   8   8   8
#     4   9  16  28  45  63  89 120 149 188 231 273
#     4  11  20  30  48  70  96 125 156 197 234 278
#     4  10  18  28  44  68  96 124 154 190 240 286
#     4   8  14  25  43  65  88 118 151 180 223 283
#     4   9  18  30  47  70  92 125 162 186 230 286
#     4   9  17  31  48  68  98 125 151 192 234 276
#     4   9  18  31  49  72  92 121 159 189 234 286
#     4   9  16  30  49  67  96 128 153 193 234 270
#
# _framework density 17.698589999999999
#
# number of rings (size 3 to 8) (size 9 to 14) (size 15 to 20)
#    0.000    2.750    0.000    5.625    0.000    2.000 
#    0.000    1.250    0.000   12.000    0.000    0.000 
#    0.000    6.000    0.000    0.000    0.000    0.000 
#
# Total GULP energy -396521.588853 kJ/mol
# GULP energy per Si atom -12391.299652 kJ/mol
# Density = 1.765831 g / cm^3
# Si number density = 17.698590 Si / 1000 Ang^3
#
#
#
# Elastic Constant Matrix: (Units=GPa)
#
#
# Indices 1 2 3 4 5 6 
#
# 1 55.0715 31.1962 14.1572 0.0000 -0.6201 0.0000
# 2 31.1962 93.3236 13.4839 0.0000 -1.7703 0.0000
# 3 14.1572 13.4839 35.8313 0.0000 -10.1825 0.0000
# 4 0.0000 0.0000 0.0000 19.2792 0.0000 4.2625
# 5 -0.6201 -1.7703 -10.1825 0.0000 19.2349 0.0000
# 6 0.0000 0.0000 0.0000 4.2625 0.0000 20.4617
#
#
#
# Elastic Compliance Matrix: (Units=1/GPa)
#
#
# Indices 1 2 3 4 5 6 
#
# 1 0.024146 -0.006981 -0.008092 0.000000 -0.004148 0.000000
# 2 -0.006981 0.013383 -0.002345 0.000000 -0.000235 0.000000
# 3 -0.008092 -0.002345 0.037493 0.000000 0.019371 0.000000
# 4 0.000000 0.000000 0.000000 0.054374 0.000000 -0.011327
# 5 -0.004148 -0.000235 0.019371 0.000000 0.062088 0.000000
# 6 0.000000 0.000000 0.000000 -0.011327 0.000000 0.051231
#
#
# Mechanical properties :
#
#
# Convention : Reuss Voigt Hill
#
# Bulk Modulus (GPa) = 24.88366 33.54456 29.21411
# Shear Modulus (GPa) = 17.18524 20.15443 18.66983
#
# Velocity S-wave (km/s) = 3.11946 3.37821 3.25141
# Velocity P-wave (km/s) = 5.20239 5.84900 5.53515
#
# Compressibility (1/GPa) = 0.04018701
#
# Stress axis : x y z
#
# Youngs Moduli (GPa) = 41.41417 74.71953 26.67161
#
# Poissons Ratio (x) = 0.52163 0.21583
# Poissons Ratio (y) = 0.28912 0.06254
# Poissons Ratio (z) = 0.33512 0.17520
#
# Static dielectric constant tensor:
#      x y z
#    x 3.211230 0.000000 0.105230 
#    y 0.000000 3.538180 0.000000 
#    z 0.105230 0.000000 2.925480 
# 
# 
# High freq. dielectric constant tensor:
#      x y z
#    x 1.667370 0.000000 0.010740 
#    y 0.000000 1.687750 0.000000 
#    z 0.010740 0.000000 1.637720 
# 
# From -- ./inp_files/184676.got.cif
#   From: 2010.06.25/outbox.cif.g09.slc.cpg/sg12_93_cif.got.tgz:184676.got - 2010.06.28 00:19:55.
