data_PCOD8080352
_publ_section_title
;
Structure prediction by ZEFSAII (Michael W. Deem and Ramdas Pophale) SiO2 
 PCOD8080352
Probable space group: C 2/M
;
_chemical_formula_sum "Si O2"
_cell_formula_units_Z 64
_cell_length_a 22.556587
_cell_length_b 9.086858
_cell_length_c 20.727003
_cell_angle_alpha 90.000000
_cell_angle_beta 115.253127
_cell_angle_gamma 90.000000
_cell_volume 3842.372752
_symmetry_space_group_name_H-M "C 2/M"
_symmetry_group_IT_number 12
_symmetry_cell_setting 'monoclinic'
loop_
_space_group_symop_operation_xyz
x,y,z
-x,y,-z
-x,-y,-z
x,-y,z
1/2+x,1/2+y,z
1/2-x,1/2+y,-z
1/2-x,1/2-y,-z
1/2+x,1/2-y,z
loop_
_atom_site_type_symbol
_atom_site_label
_atom_site_fract_x
_atom_site_fract_y
_atom_site_fract_z
Si Si1 0.600096 0.170477 0.711090
Si Si2 0.732591 0.827425 0.393426
Si Si3 0.150330 0.827767 0.458320
Si Si4 0.182426 0.327755 0.984052
Si Si5 0.257755 0.171835 0.272971
Si Si6 0.780453 0.336498 0.863334
Si Si7 0.980048 0.670128 0.563145
Si Si8 0.133844 0.165837 0.848292
O O1 0.667041 0.215653 0.705957
O O2 0.541018 0.209457 0.636552
O O3 0.589509 0.259857 0.772355
O O4 0.602549 0.000000 0.730795
O O5 0.800787 0.789807 0.460383
O O6 0.672534 0.756307 0.404357
O O7 0.733273 0.759611 0.323150
O O8 0.720095 0.000000 0.382712
O O9 0.078943 0.774316 0.444516
O O10 0.149306 0.000000 0.442828
O O11 0.188013 0.500000 0.970188
O O12 0.126579 0.254256 0.912817
O O13 0.250000 0.250000 0.000000
O O14 0.168225 0.303809 0.054254
O O15 0.212576 0.219318 0.191099
O O16 0.248961 0.000000 0.281568
O O17 0.792743 0.500000 0.840955
O O18 0.708525 0.328076 0.860399
O O19 0.958904 0.500000 0.560021
O O20 0.000000 0.707993 0.500000
O O21 0.109153 0.000000 0.847717
#
# Coordination Sequence:
#
# PCOD8080352 Si02
#       8
#     8   8   8   8   8   8   8   8
#     4   9  18  30  44  64  91 123 155 187 225 271
#     4  10  20  34  51  68  90 119 149 186 231 276
#     4  10  21  35  51  71  91 115 151 191 229 270
#     4   9  15  23  36  54  79 112 149 186 223 266
#     4  10  18  28  45  67  91 120 154 190 225 265
#     4   8  15  25  36  55  84 116 148 182 222 268
#     4  10  20  34  51  70  94 123 153 186 227 273
#     4   9  16  25  38  56  81 115 152 188 224 264
#
# _framework density 16.656376000000002
#
# number of rings (size 3 to 8) (size 9 to 14) (size 15 to 20)
#    0.000    2.625    0.000    3.375    0.000    7.250 
#    0.000    0.000    0.000    0.000    0.000    0.000 
#    0.000    1.000    0.000   10.500    0.000    7.500 
#
# Total GULP energy -396720.121823 kJ/mol
# GULP energy per Si atom -12397.503807 kJ/mol
# Density = 1.661846 g / cm^3
# Si number density = 16.656376 Si / 1000 Ang^3
#
#
#
# Elastic Constant Matrix: (Units=GPa)
#
#
# Indices 1 2 3 4 5 6 
#
# 1 51.6257 35.1554 39.8553 0.0000 -9.5615 0.0000
# 2 35.1554 97.5302 63.6701 0.0000 -12.1944 0.0000
# 3 39.8553 63.6701 135.5127 0.0000 -15.6230 0.0000
# 4 0.0000 0.0000 0.0000 31.2355 0.0000 -4.3307
# 5 -9.5615 -12.1944 -15.6230 0.0000 15.8272 0.0000
# 6 0.0000 0.0000 0.0000 -4.3307 0.0000 22.8684
#
#
#
# Elastic Compliance Matrix: (Units=1/GPa)
#
#
# Indices 1 2 3 4 5 6 
#
# 1 0.028684 -0.006400 -0.004514 0.000000 0.007942 0.000000
# 2 -0.006400 0.016594 -0.005514 0.000000 0.003477 0.000000
# 3 -0.004514 -0.005514 0.011841 0.000000 0.004713 0.000000
# 4 0.000000 0.000000 0.000000 0.032878 0.000000 0.006226
# 5 0.007942 0.003477 0.004713 0.000000 0.075312 0.000000
# 6 0.000000 0.000000 0.000000 0.006226 0.000000 0.044908
#
#
# Mechanical properties :
#
#
# Convention : Reuss Voigt Hill
#
# Bulk Modulus (GPa) = 41.21193 62.44781 51.82987
# Shear Modulus (GPa) = 19.90778 23.71873 21.81326
#
# Velocity S-wave (km/s) = 3.46092 3.77769 3.62277
# Velocity P-wave (km/s) = 6.38489 7.52337 6.97739
#
# Compressibility (1/GPa) = 0.02426482
#
# Stress axis : x y z
#
# Youngs Moduli (GPa) = 34.86312 60.26206 84.45349
#
# Poissons Ratio (x) = 0.38565 0.38119
# Poissons Ratio (y) = 0.22311 0.46565
# Poissons Ratio (z) = 0.15736 0.33227
#
# Static dielectric constant tensor:
#      x y z
#    x 2.661640 0.000000 -0.134750 
#    y 0.000000 3.250730 0.000000 
#    z -0.134750 0.000000 3.590400 
# 
# 
# High freq. dielectric constant tensor:
#      x y z
#    x 1.578740 0.000000 -0.016470 
#    y 0.000000 1.654990 0.000000 
#    z -0.016470 0.000000 1.655640 
# 
# From -- ./inp_files/323795.got.cif
#   From: 2010.06.25/outbox.cif.g09.slc.cpg/sg12_162_cif.got.tgz:323795.got - 2010.06.28 00:19:55.
