data_PCOD8080317
_publ_section_title
;
Structure prediction by ZEFSAII (Michael W. Deem and Ramdas Pophale) SiO2 
 PCOD8080317
Probable space group: C 2/M
;
_chemical_formula_sum "Si O2"
_cell_formula_units_Z 48
_cell_length_a 19.454068
_cell_length_b 9.020615
_cell_length_c 16.042434
_cell_angle_alpha 90.000000
_cell_angle_beta 76.048656
_cell_angle_gamma 90.000000
_cell_volume 2732.201618
_symmetry_space_group_name_H-M "C 2/M"
_symmetry_group_IT_number 12
_symmetry_cell_setting 'monoclinic'
loop_
_space_group_symop_operation_xyz
x,y,z
-x,y,-z
-x,-y,-z
x,-y,z
1/2+x,1/2+y,z
1/2-x,1/2+y,-z
1/2-x,1/2-y,-z
1/2+x,1/2-y,z
loop_
_atom_site_type_symbol
_atom_site_label
_atom_site_fract_x
_atom_site_fract_y
_atom_site_fract_z
Si Si1 0.091279 0.829999 0.645652
Si Si2 0.653884 0.825867 0.781774
Si Si3 0.552080 0.327169 0.234086
Si Si4 0.971768 0.823743 0.096980
Si Si5 0.812390 0.824745 0.715803
Si Si6 0.312604 0.671885 0.529740
O O1 0.136572 0.726070 0.693330
O O2 0.114739 0.803045 0.543453
O O3 0.007912 0.793995 0.678717
O O4 0.105406 0.000000 0.669022
O O5 0.605810 0.744051 0.864384
O O6 0.735814 0.784988 0.776367
O O7 0.640492 0.000000 0.791895
O O8 0.564504 0.500000 0.218484
O O9 0.525820 0.263910 0.152438
O O10 0.626074 0.254360 0.243236
O O11 0.964369 0.000000 0.102071
O O12 0.000000 0.767544 0.000000
O O13 0.821252 0.759817 0.619590
O O14 0.823302 0.000000 0.707511
O O15 0.292613 0.500000 0.541873
O O16 0.250000 0.750000 0.500000
#
# Coordination Sequence:
#
# PCOD8080317 Si02
#       6
#     8   8   8   8   8   8
#     4   9  17  29  47  68  91 126 166 200 227 264
#     4  10  18  29  48  71  96 124 153 189 233 283
#     4   8  15  29  47  68  94 121 154 195 235 273
#     4   9  18  34  55  74  91 117 154 193 232 279
#     4   9  17  28  44  69  98 126 155 193 236 271
#     4  10  18  28  44  68  95 125 164 199 228 266
#
# _framework density 17.568249999999999
#
# number of rings (size 3 to 8) (size 9 to 14) (size 15 to 20)
#    0.000    2.833    1.667    1.500    0.000    1.000 
#    0.000    4.167    0.000   12.000    0.000    5.833 
#    0.000    0.000    0.000    0.000    0.000    0.000 
#
# Total GULP energy -297461.327322 kJ/mol
# GULP energy per Si atom -12394.221972 kJ/mol
# Density = 1.752826 g / cm^3
# Si number density = 17.568250 Si / 1000 Ang^3
#
#
#
# Elastic Constant Matrix: (Units=GPa)
#
#
# Indices 1 2 3 4 5 6 
#
# 1 152.7975 25.3974 74.6838 0.0000 -3.2312 0.0000
# 2 25.3974 27.4800 22.4611 0.0000 -4.6212 0.0000
# 3 74.6838 22.4611 143.7614 0.0000 -10.8943 0.0000
# 4 0.0000 0.0000 0.0000 18.9728 0.0000 -3.8583
# 5 -3.2312 -4.6212 -10.8943 0.0000 20.7587 0.0000
# 6 0.0000 0.0000 0.0000 -3.8583 0.0000 19.4726
#
#
#
# Elastic Compliance Matrix: (Units=1/GPa)
#
#
# Indices 1 2 3 4 5 6 
#
# 1 0.009499 -0.005683 -0.004197 0.000000 -0.001989 0.000000
# 2 -0.005683 0.045875 -0.003654 0.000000 0.007410 0.000000
# 3 -0.004197 -0.003654 0.009994 0.000000 0.003778 0.000000
# 4 0.000000 0.000000 0.000000 0.054920 0.000000 0.010882
# 5 -0.001989 0.007410 0.003778 0.000000 0.051495 0.000000
# 6 0.000000 0.000000 0.000000 0.010882 0.000000 0.053510
#
#
# Mechanical properties :
#
#
# Convention : Reuss Voigt Hill
#
# Bulk Modulus (GPa) = 26.11004 63.23598 44.67301
# Shear Modulus (GPa) = 18.85891 25.27392 22.06642
#
# Velocity S-wave (km/s) = 3.27993 3.79702 3.54791
# Velocity P-wave (km/s) = 5.40724 7.43611 6.50131
#
# Compressibility (1/GPa) = 0.03829944
#
# Stress axis : x y z
#
# Youngs Moduli (GPa) = 105.27763 21.79858 100.06286
#
# Poissons Ratio (x) = 0.12387 0.42001
# Poissons Ratio (y) = 0.59824 0.36561
# Poissons Ratio (z) = 0.44190 0.07965
#
# Static dielectric constant tensor:
#      x y z
#    x 3.508960 0.000000 -0.044110 
#    y 0.000000 2.954180 0.000000 
#    z -0.044110 0.000000 3.452190 
# 
# 
# High freq. dielectric constant tensor:
#      x y z
#    x 1.676770 0.000000 -0.013000 
#    y 0.000000 1.642450 0.000000 
#    z -0.013000 0.000000 1.674050 
# 
# From -- ./inp_files/229947.got.cif
#   From: 2010.06.25/outbox.cif.g09.slc.cpg/sg12_115_cif.got.tgz:229947.got - 2010.06.28 00:19:55.
