data_PCOD8080078
_publ_section_title
;
Structure prediction by ZEFSAII (Michael W. Deem and Ramdas Pophale) SiO2 
 PCOD8080078
Probable space group: C 2/M
;
_chemical_formula_sum "Si O2"
_cell_formula_units_Z 64
_cell_length_a 27.943737
_cell_length_b 9.132344
_cell_length_c 19.734262
_cell_angle_alpha 90.000000
_cell_angle_beta 133.073032
_cell_angle_gamma 90.000000
_cell_volume 3678.732641
_symmetry_space_group_name_H-M "C 2/M"
_symmetry_group_IT_number 12
_symmetry_cell_setting 'monoclinic'
loop_
_space_group_symop_operation_xyz
x,y,z
-x,y,-z
-x,-y,-z
x,-y,z
1/2+x,1/2+y,z
1/2-x,1/2+y,-z
1/2-x,1/2-y,-z
1/2+x,1/2-y,z
loop_
_atom_site_type_symbol
_atom_site_label
_atom_site_fract_x
_atom_site_fract_y
_atom_site_fract_z
Si Si1 0.793961 0.672222 0.598226
Si Si2 0.949393 0.164481 0.387945
Si Si3 0.680698 0.827026 0.744761
Si Si4 0.414269 0.662102 0.521425
Si Si5 0.729617 0.335568 0.673151
Si Si6 0.447601 0.337574 0.224763
Si Si7 0.802864 0.825010 0.098272
Si Si8 0.070003 0.670162 0.329295
O O1 0.781229 0.500000 0.577616
O O2 0.750000 0.750000 0.500000
O O3 0.773491 0.724191 0.653534
O O4 0.870109 0.713762 0.662056
O O5 0.893265 0.283182 0.350216
O O6 0.960572 0.170393 0.317499
O O7 0.029025 0.195636 0.483225
O O8 0.926055 0.000000 0.386405
O O9 0.734146 0.777058 0.740145
O O10 0.702919 0.741557 0.832835
O O11 0.684159 0.000000 0.759362
O O12 0.428491 0.500000 0.566173
O O13 0.345811 0.662178 0.419180
O O14 0.412189 0.782091 0.577622
O O15 0.752174 0.500000 0.715639
O O16 0.455774 0.500000 0.204358
O O17 0.374198 0.282980 0.137255
O O18 0.502093 0.241779 0.238320
O O19 0.793403 0.000000 0.093119
O O20 0.750000 0.750000 0.000000
O O21 0.058019 0.500000 0.318282
#
# Coordination Sequence:
#
# PCOD8080078 Si02
#       8
#     8   8   8   8   8   8   8   8
#     4  10  20  32  48  69  94 129 174 220 260 294
#     4   8  15  29  46  64  89 125 168 203 237 288
#     4  11  22  34  48  70  99 129 161 201 247 292
#     4   9  17  29  46  64  86 127 172 205 244 294
#     4  10  20  34  48  63  91 132 173 210 250 295
#     4   8  16  30  48  71  99 131 161 189 232 294
#     4  10  20  36  58  82 105 129 158 191 235 295
#     4  10  18  27  44  71  99 126 164 215 256 285
#
# _framework density 17.397295
#
# number of rings (size 3 to 8) (size 9 to 14) (size 15 to 20)
#    0.000    2.500    1.250    3.375    0.000    7.000 
#    0.000    2.500    0.000    0.000    0.000    0.875 
#    0.000    7.000    0.000    0.000    0.000    0.000 
#
# Total GULP energy -396638.051330 kJ/mol
# GULP energy per Si atom -12394.939104 kJ/mol
# Density = 1.735770 g / cm^3
# Si number density = 17.397295 Si / 1000 Ang^3
#
#
#
# Elastic Constant Matrix: (Units=GPa)
#
#
# Indices 1 2 3 4 5 6 
#
# 1 146.9607 62.9185 47.0366 0.0000 6.0217 0.0000
# 2 62.9185 87.9174 41.1710 0.0000 6.2902 0.0000
# 3 47.0366 41.1710 71.5338 0.0000 9.3285 0.0000
# 4 0.0000 0.0000 0.0000 26.1190 0.0000 0.9197
# 5 6.0217 6.2902 9.3285 0.0000 15.7873 0.0000
# 6 0.0000 0.0000 0.0000 0.9197 0.0000 26.9907
#
#
#
# Elastic Compliance Matrix: (Units=1/GPa)
#
#
# Indices 1 2 3 4 5 6 
#
# 1 0.010417 -0.005821 -0.003558 0.000000 0.000448 0.000000
# 2 -0.005821 0.018838 -0.006853 0.000000 -0.001236 0.000000
# 3 -0.003558 -0.006853 0.021377 0.000000 -0.008544 0.000000
# 4 0.000000 0.000000 0.000000 0.038332 0.000000 -0.001306
# 5 0.000448 -0.001236 -0.008544 0.000000 0.068712 0.000000
# 6 0.000000 0.000000 0.000000 -0.001306 0.000000 0.037094
#
#
# Mechanical properties :
#
#
# Convention : Reuss Voigt Hill
#
# Bulk Modulus (GPa) = 55.04187 67.62936 61.33561
# Shear Modulus (GPa) = 21.43241 24.13179 22.78210
#
# Velocity S-wave (km/s) = 3.51371 3.72842 3.62265
# Velocity P-wave (km/s) = 6.94034 7.58239 7.26846
#
# Compressibility (1/GPa) = 0.01816799
#
# Stress axis : x y z
#
# Youngs Moduli (GPa) = 95.99642 53.08436 46.77817
#
# Poissons Ratio (x) = 0.30900 0.16643
# Poissons Ratio (y) = 0.55879 0.32059
# Poissons Ratio (z) = 0.34154 0.36381
#
# Static dielectric constant tensor:
#      x y z
#    x 3.625600 0.000000 0.118910 
#    y 0.000000 3.272980 0.000000 
#    z 0.118910 0.000000 3.122070 
# 
# 
# High freq. dielectric constant tensor:
#      x y z
#    x 1.681260 0.000000 0.008730 
#    y 0.000000 1.668430 0.000000 
#    z 0.008730 0.000000 1.635530 
# 
# From -- ./inp_files/326973.got.cif
#   From: 2010.06.25/outbox.cif.g09.slc.cpg/sg12_164_cif.got.tgz:326973.got - 2010.06.28 00:19:55.
