data_PCOD8080361
_publ_section_title
;
Structure prediction by ZEFSAII (Michael W. Deem and Ramdas Pophale) SiO2 
 PCOD8080361
Probable space group: C 2/M
;
_chemical_formula_sum "Si O2"
_cell_formula_units_Z 56
_cell_length_a 28.511407
_cell_length_b 12.859115
_cell_length_c 9.427411
_cell_angle_alpha 90.000000
_cell_angle_beta 88.862699
_cell_angle_gamma 90.000000
_cell_volume 3455.704572
_symmetry_space_group_name_H-M "C 2/M"
_symmetry_group_IT_number 12
_symmetry_cell_setting 'monoclinic'
loop_
_space_group_symop_operation_xyz
x,y,z
-x,y,-z
-x,-y,-z
x,-y,z
1/2+x,1/2+y,z
1/2-x,1/2+y,-z
1/2-x,1/2-y,-z
1/2+x,1/2-y,z
loop_
_atom_site_type_symbol
_atom_site_label
_atom_site_fract_x
_atom_site_fract_y
_atom_site_fract_z
Si Si1 0.310946 0.665899 0.516916
Si Si2 0.785505 0.618296 0.590481
Si Si3 0.267217 0.115811 0.917355
Si Si4 0.947307 0.875983 0.503477
Si Si5 0.170071 0.794601 0.989483
Si Si6 0.876989 0.119035 0.269843
Si Si7 0.877706 0.114953 0.743935
O O1 0.256742 0.634393 0.517733
O O2 0.321405 0.790261 0.541881
O O3 0.331164 0.624714 0.368765
O O4 0.333513 0.601986 0.643113
O O5 0.805862 0.500000 0.576105
O O6 0.768991 0.644052 0.751146
O O7 0.213456 0.124800 0.975091
O O8 0.284362 0.000000 0.943426
O O9 0.304506 0.183024 0.005123
O O10 0.921308 0.839662 0.360110
O O11 0.920622 0.836557 0.647603
O O12 0.000000 0.831174 0.500000
O O13 0.946402 0.000000 0.506925
O O14 0.133354 0.805549 0.862098
O O15 0.136855 0.810511 0.127401
O O16 0.884761 0.000000 0.217503
O O17 0.890764 0.000000 0.801849
#
# Coordination Sequence:
#
# PCOD8080361 Si02
#       7
#     8   8   8   8   8   8   8
#     4  10  18  29  43  63  84 120 160 194 222 267
#     4  10  18  29  44  61  87 121 160 200 231 261
#     4  10  20  32  45  62  96 133 159 195 234 260
#     4   8  16  31  49  69  93 121 147 182 236 286
#     4  11  20  31  45  68  92 128 165 192 220 269
#     4  10  18  30  49  66  93 126 151 184 231 279
#     4  10  18  28  45  68  92 118 156 192 220 272
#
# _framework density 16.205088
#
# number of rings (size 3 to 8) (size 9 to 14) (size 15 to 20)
#    0.000    2.143    2.857    3.429    0.000    0.000 
#    0.000    2.857    0.000    3.429    0.000    0.000 
#    0.000   21.714    0.000    0.000    0.000    0.000 
#
# Total GULP energy -346937.778372 kJ/mol
# GULP energy per Si atom -12390.634942 kJ/mol
# Density = 1.616820 g / cm^3
# Si number density = 16.205088 Si / 1000 Ang^3
#
#
#
# Elastic Constant Matrix: (Units=GPa)
#
#
# Indices 1 2 3 4 5 6 
#
# 1 87.8301 18.2828 38.9564 0.0000 3.0168 0.0000
# 2 18.2828 63.2256 14.6127 0.0000 4.2816 0.0000
# 3 38.9564 14.6127 91.8179 0.0000 3.5064 0.0000
# 4 0.0000 0.0000 0.0000 23.6019 0.0000 2.4804
# 5 3.0168 4.2816 3.5064 0.0000 13.2622 0.0000
# 6 0.0000 0.0000 0.0000 2.4804 0.0000 14.1244
#
#
#
# Elastic Compliance Matrix: (Units=1/GPa)
#
#
# Indices 1 2 3 4 5 6 
#
# 1 0.014523 -0.002827 -0.005678 0.000000 -0.000890 0.000000
# 2 -0.002827 0.017260 -0.001373 0.000000 -0.004566 0.000000
# 3 -0.005678 -0.001373 0.013590 0.000000 -0.001858 0.000000
# 4 0.000000 0.000000 0.000000 0.043166 0.000000 -0.007580
# 5 -0.000890 -0.004566 -0.001858 0.000000 0.077570 0.000000
# 6 0.000000 0.000000 0.000000 -0.007580 0.000000 0.072131
#
#
# Mechanical properties :
#
#
# Convention : Reuss Voigt Hill
#
# Bulk Modulus (GPa) = 39.03671 42.95303 40.99487
# Shear Modulus (GPa) = 18.75926 21.59915 20.17920
#
# Velocity S-wave (km/s) = 3.40607 3.65480 3.53262
# Velocity P-wave (km/s) = 6.29364 6.66134 6.48010
#
# Compressibility (1/GPa) = 0.02561691
#
# Stress axis : x y z
#
# Youngs Moduli (GPa) = 68.85598 57.93588 73.58545
#
# Poissons Ratio (x) = 0.16379 0.41781
# Poissons Ratio (y) = 0.19466 0.10104
# Poissons Ratio (z) = 0.39096 0.07955
#
# Static dielectric constant tensor:
#      x y z
#    x 2.966390 0.000000 0.042450 
#    y 0.000000 2.973420 0.000000 
#    z 0.042450 0.000000 3.327230 
# 
# 
# High freq. dielectric constant tensor:
#      x y z
#    x 1.587410 0.000000 0.008260 
#    y 0.000000 1.598680 0.000000 
#    z 0.008260 0.000000 1.626430 
# 
# From -- ./inp_files/103985.got.cif
#   From: 2010.06.25/outbox.cif.g09.slc.cpg/sg12_52_cif.got.tgz:103985.got - 2010.06.28 00:19:55.
