data_PCOD8080568
_publ_section_title
;
Structure prediction by ZEFSAII (Michael W. Deem and Ramdas Pophale) SiO2 
 PCOD8080568
Probable space group: C 2/M
;
_chemical_formula_sum "Si O2"
_cell_formula_units_Z 64
_cell_length_a 24.375804
_cell_length_b 9.094133
_cell_length_c 16.488285
_cell_angle_alpha 90.000000
_cell_angle_beta 94.436457
_cell_angle_gamma 90.000000
_cell_volume 3644.118754
_symmetry_space_group_name_H-M "C 2/M"
_symmetry_group_IT_number 12
_symmetry_cell_setting 'monoclinic'
loop_
_space_group_symop_operation_xyz
x,y,z
-x,y,-z
-x,-y,-z
x,-y,z
1/2+x,1/2+y,z
1/2-x,1/2+y,-z
1/2-x,1/2-y,-z
1/2+x,1/2-y,z
loop_
_atom_site_type_symbol
_atom_site_label
_atom_site_fract_x
_atom_site_fract_y
_atom_site_fract_z
Si Si1 0.410926 0.672635 0.635586
Si Si2 0.905374 0.830341 0.448923
Si Si3 0.307639 0.671171 0.321148
Si Si4 0.220042 0.168248 0.106183
Si Si5 0.327392 0.669434 0.065600
Si Si6 0.198533 0.829375 0.286453
Si Si7 0.521384 0.827616 0.668916
Si Si8 0.882025 0.327831 0.202672
O O1 0.421047 0.500000 0.645829
O O2 0.402875 0.719301 0.541477
O O3 0.357652 0.724410 0.678918
O O4 0.462677 0.756124 0.679799
O O5 0.845341 0.801008 0.404237
O O6 0.952175 0.736800 0.409802
O O7 0.922494 0.000000 0.441698
O O8 0.303767 0.500000 0.299137
O O9 0.247506 0.735770 0.332259
O O10 0.332444 0.756651 0.247620
O O11 0.270233 0.277776 0.098177
O O12 0.192788 0.200412 0.189814
O O13 0.241669 0.000000 0.102887
O O14 0.173765 0.195682 0.031556
O O15 0.335763 0.500000 0.088444
O O16 0.378051 0.760121 0.111548
O O17 0.209752 0.000000 0.306755
O O18 0.559480 0.789131 0.750678
O O19 0.514872 0.000000 0.655922
O O20 0.871536 0.500000 0.198569
#
# Coordination Sequence:
#
# PCOD8080568 Si02
#       8
#     8   8   8   8   8   8   8   8
#     4  10  21  36  53  72  97 135 173 203 246 299
#     4   9  19  35  53  74 101 129 163 210 254 294
#     4  10  19  31  49  74 101 131 166 203 246 294
#     4   9  18  31  47  71 105 136 161 199 244 292
#     4  10  18  28  48  77 102 128 165 202 244 295
#     4  10  20  34  51  71 102 139 168 197 242 300
#     4  10  21  35  53  76  99 126 166 214 257 294
#     4  10  19  32  50  73 102 131 160 204 257 299
#
# _framework density 17.562545
#
# number of rings (size 3 to 8) (size 9 to 14) (size 15 to 20)
#    0.000    2.250    1.250    1.875    0.000    5.500 
#    0.000    0.000    0.000    0.750    0.000    5.250 
#    0.000    0.000    0.000    0.000    0.000    0.000 
#
# Total GULP energy -396848.692885 kJ/mol
# GULP energy per Si atom -12401.521653 kJ/mol
# Density = 1.752257 g / cm^3
# Si number density = 17.562545 Si / 1000 Ang^3
#
#
#
# Elastic Constant Matrix: (Units=GPa)
#
#
# Indices 1 2 3 4 5 6 
#
# 1 117.4764 47.7743 43.1471 0.0000 7.8933 0.0000
# 2 47.7743 73.0949 29.0789 0.0000 10.0321 0.0000
# 3 43.1471 29.0789 68.5395 0.0000 17.5211 0.0000
# 4 0.0000 0.0000 0.0000 21.6679 0.0000 5.5650
# 5 7.8933 10.0321 17.5211 0.0000 21.8485 0.0000
# 6 0.0000 0.0000 0.0000 5.5650 0.0000 31.1512
#
#
#
# Elastic Compliance Matrix: (Units=1/GPa)
#
#
# Indices 1 2 3 4 5 6 
#
# 1 0.013351 -0.006621 -0.006465 0.000000 0.003401 0.000000
# 2 -0.006621 0.019848 -0.003188 0.000000 -0.004165 0.000000
# 3 -0.006465 -0.003188 0.023952 0.000000 -0.015408 0.000000
# 4 0.000000 0.000000 0.000000 0.048371 0.000000 -0.008641
# 5 0.003401 -0.004165 -0.015408 0.000000 0.058810 0.000000
# 6 0.000000 0.000000 0.000000 -0.008641 0.000000 0.033645
#
#
# Mechanical properties :
#
#
# Convention : Reuss Voigt Hill
#
# Bulk Modulus (GPa) = 40.64693 55.45681 48.05187
# Shear Modulus (GPa) = 20.94461 24.20755 22.57608
#
# Velocity S-wave (km/s) = 3.45711 3.71666 3.58923
# Velocity P-wave (km/s) = 6.25538 7.07555 6.67807
#
# Compressibility (1/GPa) = 0.02460211
#
# Stress axis : x y z
#
# Youngs Moduli (GPa) = 74.90153 50.38256 41.75102
#
# Poissons Ratio (x) = 0.33358 0.26993
# Poissons Ratio (y) = 0.49591 0.13311
# Poissons Ratio (z) = 0.48425 0.16063
#
# Static dielectric constant tensor:
#      x y z
#    x 3.138860 0.000000 0.257870 
#    y 0.000000 3.298690 0.000000 
#    z 0.257870 0.000000 3.440630 
# 
# 
# High freq. dielectric constant tensor:
#      x y z
#    x 1.656820 0.000000 0.025690 
#    y 0.000000 1.685110 0.000000 
#    z 0.025690 0.000000 1.678030 
# 
# From -- ./inp_files/281383.got.cif
#   From: 2010.06.25/outbox.cif.g09.slc.cpg/sg12_141_cif.got.tgz:281383.got - 2010.06.28 00:19:55.
