data_PCOD8080412
_publ_section_title
;
Structure prediction by ZEFSAII (Michael W. Deem and Ramdas Pophale) SiO2 
 PCOD8080412
Probable space group: C 2/M
;
_chemical_formula_sum "Si O2"
_cell_formula_units_Z 56
_cell_length_a 13.913709
_cell_length_b 20.051446
_cell_length_c 16.174238
_cell_angle_alpha 90.000000
_cell_angle_beta 39.643611
_cell_angle_gamma 90.000000
_cell_volume 2878.989775
_symmetry_space_group_name_H-M "C 2/M"
_symmetry_group_IT_number 12
_symmetry_cell_setting 'monoclinic'
loop_
_space_group_symop_operation_xyz
x,y,z
-x,y,-z
-x,-y,-z
x,-y,z
1/2+x,1/2+y,z
1/2-x,1/2+y,-z
1/2-x,1/2-y,-z
1/2+x,1/2-y,z
loop_
_atom_site_type_symbol
_atom_site_label
_atom_site_fract_x
_atom_site_fract_y
_atom_site_fract_z
Si Si1 0.185376 0.425630 0.518889
Si Si2 0.186983 0.426563 0.702927
Si Si3 0.329360 0.072955 0.941852
Si Si4 0.175575 0.706258 0.978203
Si Si5 0.827727 0.426058 0.759017
Si Si6 0.681157 0.792440 0.788321
Si Si7 0.320699 0.831804 0.621203
O O1 0.237740 0.500000 0.456042
O O2 0.245796 0.410740 0.571146
O O3 0.245315 0.368517 0.416688
O O4 0.006475 0.423343 0.636151
O O5 0.247873 0.500000 0.691354
O O6 0.240231 0.367280 0.728316
O O7 0.008224 0.429809 0.820195
O O8 0.273879 0.129340 0.041848
O O9 0.269895 0.091279 0.889407
O O10 0.268020 0.000000 0.010295
O O11 0.997068 0.712634 0.104553
O O12 0.250000 0.750000 0.000000
O O13 0.229972 0.725802 0.850005
O O14 0.772382 0.500000 0.770781
O O15 0.759252 0.373337 0.740454
O O16 0.755203 0.742349 0.673345
O O17 0.500000 0.827707 0.500000
#
# Coordination Sequence:
#
# PCOD8080412 Si02
#       7
#     8   8   8   8   8   8   8
#     4   8  14  25  43  67  95 127 157 192 241 283
#     4   8  15  29  46  67  95 120 154 205 246 281
#     4   8  14  26  47  71  91 118 158 203 247 283
#     4  10  20  35  52  70 100 132 160 201 244 286
#     4   8  13  23  42  69  98 125 155 194 240 284
#     4  10  21  33  50  76  97 128 168 195 241 295
#     4  10  18  28  45  72 104 129 157 197 236 288
#
# _framework density 19.451266
#
# number of rings (size 3 to 8) (size 9 to 14) (size 15 to 20)
#    0.000    3.143    0.000    3.000    0.000    4.000 
#    0.000    2.857    0.000    2.143    0.000    7.000 
#    0.000    0.000    0.000    0.000    0.000    0.000 
#
# Total GULP energy -346934.279230 kJ/mol
# GULP energy per Si atom -12390.509973 kJ/mol
# Density = 1.940699 g / cm^3
# Si number density = 19.451266 Si / 1000 Ang^3
#
#
#
# Elastic Constant Matrix: (Units=GPa)
#
#
# Indices 1 2 3 4 5 6 
#
# 1 52.1756 38.8231 23.5965 -0.0006 24.4840 -0.0018
# 2 38.8231 139.4651 49.5852 0.0010 24.2520 -0.0021
# 3 23.5965 49.5852 57.4038 -0.0045 23.0291 0.0010
# 4 -0.0006 0.0010 -0.0045 34.3272 0.0045 10.5860
# 5 24.4840 24.2520 23.0291 0.0045 20.5035 -0.0012
# 6 -0.0018 -0.0021 0.0010 10.5860 -0.0012 25.1364
#
#
#
# Elastic Compliance Matrix: (Units=1/GPa)
#
#
# Indices 1 2 3 4 5 6 
#
# 1 0.048134 -0.006402 0.010493 0.000012 -0.061691 -0.000006
# 2 -0.006402 0.011384 -0.008858 -0.000003 0.004129 0.000002
# 3 0.010493 -0.008858 0.039283 0.000015 -0.046175 -0.000010
# 4 0.000012 -0.000003 0.000015 0.033480 -0.000036 -0.014100
# 5 -0.061691 0.004129 -0.046175 -0.000036 0.169418 0.000021
# 6 -0.000006 0.000002 -0.000010 -0.014100 0.000021 0.045721
#
#
# Mechanical properties :
#
#
# Convention : Reuss Voigt Hill
#
# Bulk Modulus (GPa) = 11.20241 52.56157 31.88199
# Shear Modulus (GPa) = 12.92966 25.12941 19.02953
#
# Velocity S-wave (km/s) = 2.58101 3.59822 3.13120
# Velocity P-wave (km/s) = 3.82804 6.65911 5.43128
#
# Compressibility (1/GPa) = 0.08926648
#
# Stress axis : x y z
#
# Youngs Moduli (GPa) = 20.77555 87.84413 25.45633
#
# Poissons Ratio (x) = 0.56239 -0.26713
# Poissons Ratio (y) = 0.13301 0.22550
# Poissons Ratio (z) = -0.21801 0.77815
#
# Static dielectric constant tensor:
#      x y z
#    x 3.213550 0.000000 0.497500 
#    y 0.000000 3.944540 0.000010 
#    z 0.497500 0.000010 3.384340 
# 
# 
# High freq. dielectric constant tensor:
#      x y z
#    x 1.712160 0.000000 0.041120 
#    y 0.000000 1.772530 0.000000 
#    z 0.041120 0.000000 1.726080 
# 
# From -- ./inp_files/216299.got.cif
#   From: 2010.06.25/outbox.cif.g09.slc.cpg/sg12_109_cif.got.tgz:216299.got - 2010.06.28 00:19:55.
