data_PCOD8080386
_publ_section_title
;
Structure prediction by ZEFSAII (Michael W. Deem and Ramdas Pophale) SiO2 
 PCOD8080386
Probable space group: C 2/M
;
_chemical_formula_sum "Si O2"
_cell_formula_units_Z 48
_cell_length_a 27.868475
_cell_length_b 8.972949
_cell_length_c 12.189531
_cell_angle_alpha 90.000000
_cell_angle_beta 110.199213
_cell_angle_gamma 90.000000
_cell_volume 2860.675804
_symmetry_space_group_name_H-M "C 2/M"
_symmetry_group_IT_number 12
_symmetry_cell_setting 'monoclinic'
loop_
_space_group_symop_operation_xyz
x,y,z
-x,y,-z
-x,-y,-z
x,-y,z
1/2+x,1/2+y,z
1/2-x,1/2+y,-z
1/2-x,1/2-y,-z
1/2+x,1/2-y,z
loop_
_atom_site_type_symbol
_atom_site_label
_atom_site_fract_x
_atom_site_fract_y
_atom_site_fract_z
Si Si1 0.522802 0.165200 0.896800
Si Si2 0.112980 0.171495 0.053351
Si Si3 0.915318 0.676126 0.745430
Si Si4 0.249086 0.173082 0.671871
Si Si5 0.327900 0.672463 0.574492
Si Si6 0.770989 0.172970 0.909160
O O1 0.475615 0.218150 0.782026
O O2 0.541486 0.000000 0.877240
O O3 0.500000 0.160236 0.000000
O O4 0.570855 0.276975 0.929685
O O5 0.108381 0.268823 0.158728
O O6 0.168297 0.197651 0.045339
O O7 0.103250 0.000000 0.075695
O O8 0.907813 0.500000 0.733209
O O9 0.884623 0.755888 0.622150
O O10 0.294703 0.246008 0.640200
O O11 0.195784 0.195322 0.564681
O O12 0.243156 0.252490 0.783488
O O13 0.261839 0.000000 0.698500
O O14 0.330368 0.500000 0.609361
O O15 0.756553 0.000000 0.898776
O O16 0.750000 0.250000 0.000000
#
# Coordination Sequence:
#
# PCOD8080386 Si02
#       6
#     8   8   8   8   8   8
#     4   8  16  28  42  64  93 125 159 190 232 290
#     4  10  19  30  45  67  94 124 160 201 240 283
#     4  10  18  28  45  69  97 130 160 190 236 290
#     4  10  20  33  49  69  96 129 162 199 243 287
#     4  10  19  30  47  72  99 128 161 196 239 291
#     4  11  23  36  51  71  96 128 168 205 240 286
#
# _framework density 16.779250999999999
#
# number of rings (size 3 to 8) (size 9 to 14) (size 15 to 20)
#    0.000    2.167    1.667    3.500    0.000    7.667 
#    0.000    0.000    0.000    0.000    0.000    1.167 
#    0.000    9.333    0.000    0.000    0.000    0.000 
#
# Total GULP energy -297549.746237 kJ/mol
# GULP energy per Si atom -12397.906093 kJ/mol
# Density = 1.674106 g / cm^3
# Si number density = 16.779251 Si / 1000 Ang^3
#
#
#
# Elastic Constant Matrix: (Units=GPa)
#
#
# Indices 1 2 3 4 5 6 
#
# 1 67.9655 52.4032 50.4210 0.0000 24.0819 0.0000
# 2 52.4032 122.1349 63.0886 0.0000 15.8882 0.0000
# 3 50.4210 63.0886 102.0727 0.0000 18.4798 0.0000
# 4 0.0000 0.0000 0.0000 29.1176 0.0000 7.0009
# 5 24.0819 15.8882 18.4798 0.0000 33.8139 0.0000
# 6 0.0000 0.0000 0.0000 7.0009 0.0000 28.2359
#
#
#
# Elastic Compliance Matrix: (Units=1/GPa)
#
#
# Indices 1 2 3 4 5 6 
#
# 1 0.031927 -0.007372 -0.008573 0.000000 -0.014589 0.000000
# 2 -0.007372 0.013826 -0.005192 0.000000 0.001592 0.000000
# 3 -0.008573 -0.005192 0.017417 0.000000 -0.000974 0.000000
# 4 0.000000 0.000000 0.000000 0.036521 0.000000 -0.009055
# 5 -0.014589 0.001592 -0.000974 0.000000 0.039748 0.000000
# 6 0.000000 0.000000 0.000000 -0.009055 0.000000 0.037661
#
#
# Mechanical properties :
#
#
# Convention : Reuss Voigt Hill
#
# Bulk Modulus (GPa) = 47.85818 69.33320 58.59569
# Shear Modulus (GPa) = 22.09091 26.65084 24.37088
#
# Velocity S-wave (km/s) = 3.63238 3.98970 3.81523
# Velocity P-wave (km/s) = 6.79532 7.91417 7.37599
#
# Compressibility (1/GPa) = 0.02089507
#
# Stress axis : x y z
#
# Youngs Moduli (GPa) = 31.32176 72.33006 57.41547
#
# Poissons Ratio (x) = 0.53324 0.49223
# Poissons Ratio (y) = 0.23091 0.29808
# Poissons Ratio (z) = 0.26852 0.37551
#
# Static dielectric constant tensor:
#      x y z
#    x 3.108790 0.000000 0.753230 
#    y 0.000000 3.355920 0.000000 
#    z 0.753230 0.000000 3.007910 
# 
# 
# High freq. dielectric constant tensor:
#      x y z
#    x 1.622520 0.000000 0.046720 
#    y 0.000000 1.665360 0.000000 
#    z 0.046720 0.000000 1.621580 
# 
# From -- ./inp_files/172405.got.cif
#   From: 2010.06.25/outbox.cif.g09.slc.cpg/sg12_87_cif.got.tgz:172405.got - 2010.06.28 00:19:55.
