data_PCOD8080233
_publ_section_title
;
Structure prediction by ZEFSAII (Michael W. Deem and Ramdas Pophale) SiO2 
 PCOD8080233
Probable space group: C 2/M
;
_chemical_formula_sum "Si O2"
_cell_formula_units_Z 64
_cell_length_a 26.878934
_cell_length_b 8.886794
_cell_length_c 16.953779
_cell_angle_alpha 90.000000
_cell_angle_beta 101.088340
_cell_angle_gamma 90.000000
_cell_volume 3974.106983
_symmetry_space_group_name_H-M "C 2/M"
_symmetry_group_IT_number 12
_symmetry_cell_setting 'monoclinic'
loop_
_space_group_symop_operation_xyz
x,y,z
-x,y,-z
-x,-y,-z
x,-y,z
1/2+x,1/2+y,z
1/2-x,1/2+y,-z
1/2-x,1/2-y,-z
1/2+x,1/2-y,z
loop_
_atom_site_type_symbol
_atom_site_label
_atom_site_fract_x
_atom_site_fract_y
_atom_site_fract_z
Si Si1 0.576182 0.177691 0.664201
Si Si2 0.803449 0.322397 0.034221
Si Si3 0.456813 0.329289 0.083106
Si Si4 0.890899 0.675542 0.940881
Si Si5 0.130161 0.172851 0.819198
Si Si6 0.059209 0.169374 0.501595
Si Si7 0.039167 0.322400 0.339032
Si Si8 0.435736 0.676408 0.813937
O O1 0.619382 0.248799 0.732547
O O2 0.586763 0.240306 0.579950
O O3 0.520083 0.225082 0.677175
O O4 0.582365 0.000000 0.665478
O O5 0.798404 0.500000 0.041916
O O6 0.823933 0.255883 0.122616
O O7 0.750000 0.250000 0.000000
O O8 0.840571 0.278556 0.973508
O O9 0.455855 0.500000 0.050570
O O10 0.420857 0.310695 0.146787
O O11 0.512112 0.280325 0.127251
O O12 0.439882 0.221782 0.007122
O O13 0.893145 0.500000 0.924036
O O14 0.890995 0.763290 0.857375
O O15 0.145470 0.000000 0.810377
O O16 0.069307 0.252841 0.422215
O O17 0.000000 0.167985 0.500000
O O18 0.080857 0.000000 0.504189
O O19 0.044970 0.500000 0.344126
O O20 0.066622 0.259564 0.270094
O O21 0.429913 0.500000 0.797391
#
# Coordination Sequence:
#
# PCOD8080233 Si02
#       8
#     8   8   8   8   8   8   8   8
#     4  10  18  28  43  64  91 121 157 197 233 271
#     4  10  21  37  54  71  92 118 150 191 239 286
#     4   9  18  30  43  61  88 121 155 189 224 265
#     4  10  21  33  46  66  89 115 150 190 232 275
#     4  10  18  30  48  69  93 122 156 192 232 276
#     4   9  17  28  42  59  84 120 160 196 231 272
#     4  10  19  29  42  61  89 124 160 196 234 269
#     4  11  20  30  44  63  90 123 159 192 224 269
#
# _framework density 16.104247000000001
#
# number of rings (size 3 to 8) (size 9 to 14) (size 15 to 20)
#    0.000    2.125    1.250    3.000    0.000    7.000 
#    0.000    0.000    0.000    0.000    0.000    0.000 
#    0.000    1.000    0.000    3.750    0.000    5.750 
#
# Total GULP energy -396848.597075 kJ/mol
# GULP energy per Si atom -12401.518659 kJ/mol
# Density = 1.606759 g / cm^3
# Si number density = 16.104247 Si / 1000 Ang^3
#
#
#
# Elastic Constant Matrix: (Units=GPa)
#
#
# Indices 1 2 3 4 5 6 
#
# 1 44.7337 28.1146 48.7367 0.0000 7.3138 0.0000
# 2 28.1146 89.3621 63.4952 0.0000 2.7685 0.0000
# 3 48.7367 63.4952 134.9165 0.0000 -0.4438 0.0000
# 4 0.0000 0.0000 0.0000 36.2300 0.0000 0.7865
# 5 7.3138 2.7685 -0.4438 0.0000 17.1150 0.0000
# 6 0.0000 0.0000 0.0000 0.7865 0.0000 17.2118
#
#
#
# Elastic Compliance Matrix: (Units=1/GPa)
#
#
# Indices 1 2 3 4 5 6 
#
# 1 0.042357 -0.002786 -0.014049 0.000000 -0.018014 0.000000
# 2 -0.002786 0.017143 -0.007068 0.000000 -0.001766 0.000000
# 3 -0.014049 -0.007068 0.015838 0.000000 0.007557 0.000000
# 4 0.000000 0.000000 0.000000 0.027629 0.000000 -0.001263
# 5 -0.018014 -0.001766 0.007557 0.000000 0.066608 0.000000
# 6 0.000000 0.000000 0.000000 -0.001263 0.000000 0.058157
#
#
# Mechanical properties :
#
#
# Convention : Reuss Voigt Hill
#
# Bulk Modulus (GPa) = 36.31935 61.07834 48.69885
# Shear Modulus (GPa) = 17.56148 22.68910 20.12529
#
# Velocity S-wave (km/s) = 3.30584 3.75759 3.53893
# Velocity P-wave (km/s) = 6.09697 7.53891 6.85595
#
# Compressibility (1/GPa) = 0.02753353
#
# Stress axis : x y z
#
# Youngs Moduli (GPa) = 23.60912 58.33161 63.13898
#
# Poissons Ratio (x) = 0.16249 0.88704
# Poissons Ratio (y) = 0.06576 0.44625
# Poissons Ratio (z) = 0.33168 0.41227
#
# Static dielectric constant tensor:
#      x y z
#    x 2.655360 0.000000 -0.069190 
#    y 0.000000 3.160150 0.000000 
#    z -0.069190 0.000000 3.157340 
# 
# 
# High freq. dielectric constant tensor:
#      x y z
#    x 1.558470 0.000000 -0.006280 
#    y 0.000000 1.637010 0.000000 
#    z -0.006280 0.000000 1.625130 
# 
# From -- ./inp_files/248527.got.cif
#   From: 2010.06.25/outbox.cif.g09.slc.cpg/sg12_125_cif.got.tgz:248527.got - 2010.06.28 00:19:55.
