data_PCOD8080885
_publ_section_title
;
Structure prediction by ZEFSAII (Michael W. Deem and Ramdas Pophale) SiO2 
 PCOD8080885
Probable space group: C 2/M
;
_chemical_formula_sum "Si O2"
_cell_formula_units_Z 48
_cell_length_a 27.510666
_cell_length_b 9.029035
_cell_length_c 11.746557
_cell_angle_alpha 90.000000
_cell_angle_beta 109.474691
_cell_angle_gamma 90.000000
_cell_volume 2750.853543
_symmetry_space_group_name_H-M "C 2/M"
_symmetry_group_IT_number 12
_symmetry_cell_setting 'monoclinic'
loop_
_space_group_symop_operation_xyz
x,y,z
-x,y,-z
-x,-y,-z
x,-y,z
1/2+x,1/2+y,z
1/2-x,1/2+y,-z
1/2-x,1/2-y,-z
1/2+x,1/2-y,z
loop_
_atom_site_type_symbol
_atom_site_label
_atom_site_fract_x
_atom_site_fract_y
_atom_site_fract_z
Si Si1 0.375832 0.829827 0.101433
Si Si2 0.350566 0.331244 0.755072
Si Si3 0.816013 0.327609 0.267515
Si Si4 0.783024 0.672844 0.870238
Si Si5 0.199858 0.829500 0.511001
Si Si6 0.556157 0.326608 0.016566
O O1 0.367569 0.803723 0.230492
O O2 0.387417 0.000000 0.082969
O O3 0.322906 0.780826 0.998963
O O4 0.423233 0.737593 0.087261
O O5 0.337860 0.500000 0.783202
O O6 0.307124 0.220469 0.768048
O O7 0.347520 0.317556 0.615968
O O8 0.406527 0.285383 0.848144
O O9 0.806607 0.500000 0.284621
O O10 0.769114 0.265375 0.154820
O O11 0.821326 0.243186 0.390408
O O12 0.769948 0.500000 0.859418
O O13 0.250000 0.750000 0.500000
O O14 0.214068 0.000000 0.546556
O O15 0.551582 0.500000 0.994582
O O16 0.500000 0.258421 0.000000
#
# Coordination Sequence:
#
# PCOD8080885 Si02
#       6
#     8   8   8   8   8   8
#     4   9  20  34  48  71 100 130 164 204 249 298
#     4   9  18  32  49  71 100 130 161 202 248 291
#     4  11  21  32  46  67 101 138 169 202 242 287
#     4  10  18  29  47  70  97 130 168 203 241 292
#     4  11  21  32  48  70 100 137 174 204 235 285
#     4   9  18  34  57  80  98 120 156 206 260 307
#
# _framework density 17.44913
#
# number of rings (size 3 to 8) (size 9 to 14) (size 15 to 20)
#    0.000    2.167    1.667    2.000    0.000    3.000 
#    0.000    0.000    0.000    1.000    0.000    7.000 
#    0.000    0.000    0.000    0.000    0.000    0.000 
#
# Total GULP energy -297508.913560 kJ/mol
# GULP energy per Si atom -12396.204732 kJ/mol
# Density = 1.740942 g / cm^3
# Si number density = 17.449130 Si / 1000 Ang^3
#
#
#
# Elastic Constant Matrix: (Units=GPa)
#
#
# Indices 1 2 3 4 5 6 
#
# 1 103.8342 40.7705 45.6535 0.0000 -13.6173 0.0000
# 2 40.7705 78.8108 36.5034 0.0000 -12.3598 0.0000
# 3 45.6535 36.5034 83.9885 0.0000 -22.0177 0.0000
# 4 0.0000 0.0000 0.0000 26.0915 0.0000 -5.6946
# 5 -13.6173 -12.3598 -22.0177 0.0000 22.1648 0.0000
# 6 0.0000 0.0000 0.0000 -5.6946 0.0000 22.4222
#
#
#
# Elastic Compliance Matrix: (Units=1/GPa)
#
#
# Indices 1 2 3 4 5 6 
#
# 1 0.013883 -0.004589 -0.005391 0.000000 0.000616 0.000000
# 2 -0.004589 0.017524 -0.004461 0.000000 0.002521 0.000000
# 3 -0.005391 -0.004461 0.020627 0.000000 0.014690 0.000000
# 4 0.000000 0.000000 0.000000 0.040576 0.000000 0.010305
# 5 0.000616 0.002521 0.014690 0.000000 0.061493 0.000000
# 6 0.000000 0.000000 0.000000 0.010305 0.000000 0.047216
#
#
# Mechanical properties :
#
#
# Convention : Reuss Voigt Hill
#
# Bulk Modulus (GPa) = 43.19137 56.94317 50.06727
# Shear Modulus (GPa) = 21.01561 23.71610 22.36586
#
# Velocity S-wave (km/s) = 3.47420 3.69067 3.58407
# Velocity P-wave (km/s) = 6.39530 7.13205 6.77370
#
# Compressibility (1/GPa) = 0.02315277
#
# Stress axis : x y z
#
# Youngs Moduli (GPa) = 72.02805 57.06392 48.48103
#
# Poissons Ratio (x) = 0.26185 0.26135
# Poissons Ratio (y) = 0.33052 0.21628
# Poissons Ratio (z) = 0.38829 0.25457
#
# Static dielectric constant tensor:
#      x y z
#    x 3.110380 0.000000 -0.032580 
#    y 0.000000 3.280810 0.000000 
#    z -0.032580 0.000000 3.340720 
# 
# 
# High freq. dielectric constant tensor:
#      x y z
#    x 1.640740 0.000000 -0.013700 
#    y 0.000000 1.681330 0.000000 
#    z -0.013700 0.000000 1.670950 
# 
# From -- ./inp_files/172287.got.cif
#   From: 2010.06.25/outbox.cif.g09.slc.cpg/sg12_87_cif.got.tgz:172287.got - 2010.06.28 00:19:55.
