data_PCOD8080449
_publ_section_title
;
Structure prediction by ZEFSAII (Michael W. Deem and Ramdas Pophale) SiO2 
 PCOD8080449
Probable space group: C 2/M
;
_chemical_formula_sum "Si O2"
_cell_formula_units_Z 64
_cell_length_a 19.170611
_cell_length_b 8.930424
_cell_length_c 20.362661
_cell_angle_alpha 90.000000
_cell_angle_beta 96.931642
_cell_angle_gamma 90.000000
_cell_volume 3460.641257
_symmetry_space_group_name_H-M "C 2/M"
_symmetry_group_IT_number 12
_symmetry_cell_setting 'monoclinic'
loop_
_space_group_symop_operation_xyz
x,y,z
-x,y,-z
-x,-y,-z
x,-y,z
1/2+x,1/2+y,z
1/2-x,1/2+y,-z
1/2-x,1/2-y,-z
1/2+x,1/2-y,z
loop_
_atom_site_type_symbol
_atom_site_label
_atom_site_fract_x
_atom_site_fract_y
_atom_site_fract_z
Si Si1 0.926184 0.333806 0.028594
Si Si2 0.119811 0.327009 0.324142
Si Si3 0.023055 0.174744 0.703834
Si Si4 0.867808 0.676892 0.889398
Si Si5 0.710164 0.674748 0.225146
Si Si6 0.251290 0.173573 0.570115
Si Si7 0.493739 0.326927 0.147017
Si Si8 0.162036 0.675981 0.670798
O O1 0.906863 0.500000 0.052071
O O2 0.930133 0.222963 0.091230
O O3 0.869827 0.278899 0.967178
O O4 0.000000 0.338656 0.000000
O O5 0.109382 0.500000 0.304578
O O6 0.150895 0.243863 0.264826
O O7 0.170690 0.307041 0.392070
O O8 0.045838 0.252625 0.333861
O O9 0.031084 0.205424 0.782131
O O10 0.088429 0.246028 0.674231
O O11 0.019607 0.000000 0.687481
O O12 0.863887 0.500000 0.880969
O O13 0.799262 0.752246 0.848165
O O14 0.936983 0.732400 0.859448
O O15 0.695264 0.500000 0.219191
O O16 0.787488 0.710433 0.261319
O O17 0.250000 0.250000 0.500000
O O18 0.194814 0.256100 0.608948
O O19 0.230374 0.000000 0.562244
O O20 0.510863 0.500000 0.136946
O O21 0.151725 0.500000 0.659531
#
# Coordination Sequence:
#
# PCOD8080449 Si02
#       8
#     8   8   8   8   8   8   8   8
#     4   8  16  28  41  64  97 133 174 219 270 323
#     4  10  20  34  56  83 110 143 180 216 260 314
#     4  11  22  35  53  80 113 144 179 224 270 317
#     4  10  18  28  46  71 100 135 176 223 272 323
#     4  10  19  32  51  77 105 136 178 226 272 318
#     4  10  21  39  63  89 115 145 179 215 258 310
#     4  10  19  29  45  71 102 137 175 220 273 321
#     4  10  22  38  57  81 111 145 180 220 267 318
#
# _framework density 18.493680999999999
#
# number of rings (size 3 to 8) (size 9 to 14) (size 15 to 20)
#    0.000    2.125    1.250    3.375    0.000    7.250 
#    0.000    0.625    0.000    4.500    0.000    0.000 
#    0.000    0.000    0.000    0.000    0.000    0.000 
#
# Total GULP energy -396795.199140 kJ/mol
# GULP energy per Si atom -12399.849973 kJ/mol
# Density = 1.845159 g / cm^3
# Si number density = 18.493681 Si / 1000 Ang^3
#
#
#
# Elastic Constant Matrix: (Units=GPa)
#
#
# Indices 1 2 3 4 5 6 
#
# 1 81.1760 31.8798 22.6255 0.0000 0.7715 0.0000
# 2 31.8798 89.2628 36.8636 0.0000 3.8306 0.0000
# 3 22.6255 36.8636 81.1652 0.0000 12.9129 0.0000
# 4 0.0000 0.0000 0.0000 35.2608 0.0000 3.8320
# 5 0.7715 3.8306 12.9129 0.0000 20.1603 0.0000
# 6 0.0000 0.0000 0.0000 3.8320 0.0000 27.4659
#
#
#
# Elastic Compliance Matrix: (Units=1/GPa)
#
#
# Indices 1 2 3 4 5 6 
#
# 1 0.014671 -0.004320 -0.002415 0.000000 0.001806 0.000000
# 2 -0.004320 0.015105 -0.005819 0.000000 0.001022 0.000000
# 3 -0.002415 -0.005819 0.017199 0.000000 -0.009818 0.000000
# 4 0.000000 0.000000 0.000000 0.028797 0.000000 -0.004018
# 5 0.001806 0.001022 -0.009818 0.000000 0.055628 0.000000
# 6 0.000000 0.000000 0.000000 -0.004018 0.000000 0.036969
#
#
# Mechanical properties :
#
#
# Convention : Reuss Voigt Hill
#
# Bulk Modulus (GPa) = 45.73067 48.26021 46.99544
# Shear Modulus (GPa) = 24.90470 27.25972 26.08221
#
# Velocity S-wave (km/s) = 3.67367 3.84344 3.75951
# Velocity P-wave (km/s) = 6.54033 6.77113 6.65673
#
# Compressibility (1/GPa) = 0.02186716
#
# Stress axis : x y z
#
# Youngs Moduli (GPa) = 68.15959 66.20380 58.14454
#
# Poissons Ratio (x) = 0.28600 0.14043
# Poissons Ratio (y) = 0.29445 0.33833
# Poissons Ratio (z) = 0.16461 0.38522
#
# Static dielectric constant tensor:
#      x y z
#    x 3.221680 0.000000 0.361880 
#    y 0.000000 3.558620 0.000000 
#    z 0.361880 0.000000 3.562410 
# 
# 
# High freq. dielectric constant tensor:
#      x y z
#    x 1.689420 0.000000 0.024160 
#    y 0.000000 1.734000 0.000000 
#    z 0.024160 0.000000 1.712330 
# 
# From -- ./inp_files/314186.got.cif
#   From: 2010.06.25/outbox.cif.g09.slc.cpg/sg12_158_cif.got.tgz:314186.got - 2010.06.28 00:19:55.
