data_PCOD8080112
_publ_section_title
;
Structure prediction by ZEFSAII (Michael W. Deem and Ramdas Pophale) SiO2 
 PCOD8080112
Probable space group: C 2/M
;
_chemical_formula_sum "Si O2"
_cell_formula_units_Z 64
_cell_length_a 21.302326
_cell_length_b 21.219725
_cell_length_c 12.029912
_cell_angle_alpha 90.000000
_cell_angle_beta 136.565025
_cell_angle_gamma 90.000000
_cell_volume 3738.707189
_symmetry_space_group_name_H-M "C 2/M"
_symmetry_group_IT_number 12
_symmetry_cell_setting 'monoclinic'
loop_
_space_group_symop_operation_xyz
x,y,z
-x,y,-z
-x,-y,-z
x,-y,z
1/2+x,1/2+y,z
1/2-x,1/2+y,-z
1/2-x,1/2-y,-z
1/2+x,1/2-y,z
loop_
_atom_site_type_symbol
_atom_site_label
_atom_site_fract_x
_atom_site_fract_y
_atom_site_fract_z
Si Si1 0.512642 0.169672 0.762814
Si Si2 0.699724 0.694874 0.572202
Si Si3 0.432982 0.070031 0.325956
Si Si4 0.685948 0.333584 0.978266
Si Si5 0.998549 0.203405 0.368431
Si Si6 0.698600 0.196532 0.076345
Si Si7 0.304755 0.837394 0.497077
Si Si8 0.748153 0.071998 0.770761
O O1 0.557658 0.106045 0.776611
O O2 0.511026 0.221977 0.663625
O O3 0.410161 0.158172 0.674980
O O4 0.588307 0.189459 0.952205
O O5 0.592645 0.678017 0.436560
O O6 0.749760 0.672353 0.748158
O O7 0.715086 0.769857 0.582966
O O8 0.741736 0.655651 0.524267
O O9 0.500000 0.103525 0.500000
O O10 0.333585 0.070567 0.248027
O O11 0.468227 0.000000 0.346083
O O12 0.585380 0.332192 0.796284
O O13 0.760882 0.343526 0.976229
O O14 0.717942 0.270268 0.081848
O O15 0.678754 0.388445 0.062959
O O16 0.000000 0.189493 0.500000
O O17 0.279693 0.893281 0.379486
O O18 0.780724 0.000000 0.786255
#
# Coordination Sequence:
#
# PCOD8080112 Si02
#       8
#     8   8   8   8   8   8   8   8
#     4  10  19  28  48  79 111 144 171 209 262 325
#     4  10  20  35  51  77 107 141 179 219 270 323
#     4  10  18  27  45  76 109 138 174 213 244 300
#     4  10  19  31  51  83 108 134 172 228 276 313
#     4  10  19  30  53  80 101 138 178 221 278 321
#     4  10  18  29  52  80 112 137 168 220 272 318
#     4  10  21  34  51  73 112 148 176 213 260 324
#     4  11  21  34  55  80 110 145 181 218 264 317
#
# _framework density 17.118217000000001
#
# number of rings (size 3 to 8) (size 9 to 14) (size 15 to 20)
#    0.000    1.875    5.000    0.375    1.750    0.500 
#    0.000    0.625    0.000    3.375    0.000    1.750 
#    0.000    0.000    0.000    0.000    0.000    0.000 
#
# Total GULP energy -396559.785620 kJ/mol
# GULP energy per Si atom -12392.493301 kJ/mol
# Density = 1.707926 g / cm^3
# Si number density = 17.118217 Si / 1000 Ang^3
#
#
#
# Elastic Constant Matrix: (Units=GPa)
#
#
# Indices 1 2 3 4 5 6 
#
# 1 93.9285 27.6384 42.0482 0.0000 11.2312 0.0000
# 2 27.6384 66.5992 26.6964 0.0000 -0.3601 0.0000
# 3 42.0482 26.6964 108.4446 0.0000 12.3336 0.0000
# 4 0.0000 0.0000 0.0000 17.3784 0.0000 1.4586
# 5 11.2312 -0.3601 12.3336 0.0000 22.2546 0.0000
# 6 0.0000 0.0000 0.0000 1.4586 0.0000 -1.6539
#
#
#
# Elastic Compliance Matrix: (Units=1/GPa)
#
#
# Indices 1 2 3 4 5 6 
#
# 1 0.014291 -0.004406 -0.003872 0.000000 -0.005137 0.000000
# 2 -0.004406 0.018173 -0.003257 0.000000 0.004323 0.000000
# 3 -0.003872 -0.003257 0.012069 0.000000 -0.004787 0.000000
# 4 0.000000 0.000000 0.000000 0.053577 0.000000 0.047252
# 5 -0.005137 0.004323 -0.004787 0.000000 0.050250 0.000000
# 6 0.000000 0.000000 0.000000 0.047252 0.000000 -0.562975
#
#
# Mechanical properties :
#
#
# Convention : Reuss Voigt Hill
#
# Bulk Modulus (GPa) = 46.59412 51.30427 48.94919
# Shear Modulus (GPa) = -13.00756 19.10177 3.04711
#
# Velocity S-wave (km/s) = -2.75956 3.34409 1.33563
# Velocity P-wave (km/s) = 4.13818 6.70420 5.57094
#
# Compressibility (1/GPa) = 0.02146194
#
# Stress axis : x y z
#
# Youngs Moduli (GPa) = 69.97620 55.02781 82.85790
#
# Poissons Ratio (x) = 0.24246 0.32083
# Poissons Ratio (y) = 0.30833 0.26985
# Poissons Ratio (z) = 0.27095 0.17922
#
# Static dielectric constant tensor:
#      x y z
#    x 3.141950 0.000000 0.198130 
#    y 0.000000 3.085540 0.000000 
#    z 0.198130 0.000000 3.291970 
# 
# 
# High freq. dielectric constant tensor:
#      x y z
#    x 1.643980 0.000000 0.010650 
#    y 0.000000 1.625820 0.000000 
#    z 0.010650 0.000000 1.668010 
# 
# From -- ./inp_files/159579.got.cif
#   From: 2010.06.25/outbox.cif.g09.slc.cpg/sg12_80_cif.got.tgz:159579.got - 2010.06.28 00:19:55.
