data_PCOD8080048
_publ_section_title
;
Structure prediction by ZEFSAII (Michael W. Deem and Ramdas Pophale) SiO2 
 PCOD8080048
Probable space group: C 2/M
;
_chemical_formula_sum "Si O2"
_cell_formula_units_Z 56
_cell_length_a 20.682720
_cell_length_b 9.121256
_cell_length_c 19.927537
_cell_angle_alpha 90.000000
_cell_angle_beta 122.597799
_cell_angle_gamma 90.000000
_cell_volume 3167.174273
_symmetry_space_group_name_H-M "C 2/M"
_symmetry_group_IT_number 12
_symmetry_cell_setting 'monoclinic'
loop_
_space_group_symop_operation_xyz
x,y,z
-x,y,-z
-x,-y,-z
x,-y,z
1/2+x,1/2+y,z
1/2-x,1/2+y,-z
1/2-x,1/2-y,-z
1/2+x,1/2-y,z
loop_
_atom_site_type_symbol
_atom_site_label
_atom_site_fract_x
_atom_site_fract_y
_atom_site_fract_z
Si Si1 0.491508 0.326582 0.338062
Si Si2 0.968020 0.173234 0.177813
Si Si3 0.221844 0.831557 0.168533
Si Si4 0.048038 0.825800 0.090305
Si Si5 0.082291 0.162512 0.510867
Si Si6 0.642091 0.167311 0.660700
Si Si7 0.793328 0.826018 0.084259
O O1 0.476145 0.500000 0.335179
O O2 0.507634 0.278401 0.270285
O O3 0.565717 0.283042 0.425093
O O4 0.414013 0.250892 0.320128
O O5 0.880788 0.228373 0.128914
O O6 0.012941 0.241750 0.139425
O O7 0.969707 0.000000 0.172427
O O8 0.136035 0.775620 0.134872
O O9 0.270952 0.818144 0.264283
O O10 0.257656 0.725659 0.133780
O O11 0.221667 0.000000 0.142437
O O12 0.042152 0.000000 0.088514
O O13 0.000000 0.764149 0.000000
O O14 0.139367 0.268492 0.583377
O O15 0.000000 0.160798 0.500000
O O16 0.118646 0.000000 0.531133
O O17 0.615004 0.000000 0.642396
O O18 0.786133 0.000000 0.074410
O O19 0.750000 0.750000 0.000000
#
# Coordination Sequence:
#
# PCOD8080048 Si02
#       7
#     8   8   8   8   8   8   8
#     4   9  16  29  47  70  96 123 164 206 239 281
#     4   9  17  30  51  74  94 125 167 207 244 284
#     4  10  20  33  50  74 101 128 162 202 246 294
#     4   9  17  31  51  72  95 125 166 210 244 284
#     4   8  15  26  43  66  95 127 159 200 238 279
#     4  10  18  27  43  70 102 129 155 192 242 298
#     4  11  21  33  52  75  99 126 159 204 253 296
#
# _framework density 17.681376
#
# number of rings (size 3 to 8) (size 9 to 14) (size 15 to 20)
#    0.000    2.571    1.429    2.571    0.000    5.429 
#    0.000    0.000    0.000    6.429    0.000    0.000 
#    0.000    0.000    0.000    0.000    0.000    1.429 
#
# Total GULP energy -347074.216962 kJ/mol
# GULP energy per Si atom -12395.507749 kJ/mol
# Density = 1.764113 g / cm^3
# Si number density = 17.681376 Si / 1000 Ang^3
#
#
#
# Elastic Constant Matrix: (Units=GPa)
#
#
# Indices 1 2 3 4 5 6 
#
# 1 107.6089 25.8521 63.0244 0.0000 -6.6538 0.0000
# 2 25.8521 50.3077 40.4946 0.0000 0.6912 0.0000
# 3 63.0244 40.4946 157.5597 0.0000 -15.1161 0.0000
# 4 0.0000 0.0000 0.0000 24.2834 0.0000 -0.8611
# 5 -6.6538 0.6912 -15.1161 0.0000 27.6950 0.0000
# 6 0.0000 0.0000 0.0000 -0.8611 0.0000 14.0386
#
#
#
# Elastic Compliance Matrix: (Units=1/GPa)
#
#
# Indices 1 2 3 4 5 6 
#
# 1 0.012508 -0.003122 -0.004121 0.000000 0.000834 0.000000
# 2 -0.003122 0.026353 -0.005972 0.000000 -0.004667 0.000000
# 3 -0.004121 -0.005972 0.009972 0.000000 0.004602 0.000000
# 4 0.000000 0.000000 0.000000 0.041270 0.000000 0.002531
# 5 0.000834 -0.004667 0.004602 0.000000 0.038936 0.000000
# 6 0.000000 0.000000 0.000000 0.002531 0.000000 0.071387
#
#
# Mechanical properties :
#
#
# Convention : Reuss Voigt Hill
#
# Bulk Modulus (GPa) = 44.63701 63.80207 54.21954
# Shear Modulus (GPa) = 21.33798 25.61039 23.47419
#
# Velocity S-wave (km/s) = 3.47768 3.80997 3.64761
# Velocity P-wave (km/s) = 6.43628 7.45098 6.96214
#
# Compressibility (1/GPa) = 0.02240293
#
# Stress axis : x y z
#
# Youngs Moduli (GPa) = 79.94876 37.94587 100.28566
#
# Poissons Ratio (x) = 0.11847 0.41326
# Poissons Ratio (y) = 0.24960 0.59891
# Poissons Ratio (z) = 0.32946 0.22662
#
# Static dielectric constant tensor:
#      x y z
#    x 3.217200 0.000000 -0.289450 
#    y 0.000000 3.044900 0.000000 
#    z -0.289450 0.000000 3.996790 
# 
# 
# High freq. dielectric constant tensor:
#      x y z
#    x 1.647330 0.000000 -0.010140 
#    y 0.000000 1.655920 0.000000 
#    z -0.010140 0.000000 1.707170 
# 
# From -- ./inp_files/320248.got.cif
#   From: 2010.06.25/outbox.cif.g09.slc.cpg/sg12_161_cif.got.tgz:320248.got - 2010.06.28 00:19:55.
