data_PCOD8080933
_publ_section_title
;
Structure prediction by ZEFSAII (Michael W. Deem and Ramdas Pophale) SiO2 
 PCOD8080933
Probable space group: C 2/M
;
_chemical_formula_sum "Si O2"
_cell_formula_units_Z 64
_cell_length_a 25.139328
_cell_length_b 9.203506
_cell_length_c 14.499576
_cell_angle_alpha 90.000000
_cell_angle_beta 76.245803
_cell_angle_gamma 90.000000
_cell_volume 3258.567187
_symmetry_space_group_name_H-M "C 2/M"
_symmetry_group_IT_number 12
_symmetry_cell_setting 'monoclinic'
loop_
_space_group_symop_operation_xyz
x,y,z
-x,y,-z
-x,-y,-z
x,-y,z
1/2+x,1/2+y,z
1/2-x,1/2+y,-z
1/2-x,1/2-y,-z
1/2+x,1/2-y,z
loop_
_atom_site_type_symbol
_atom_site_label
_atom_site_fract_x
_atom_site_fract_y
_atom_site_fract_z
Si Si1 0.802697 0.832215 0.517515
Si Si2 0.906047 0.160584 0.365844
Si Si3 0.161718 0.840511 0.787559
Si Si4 0.992529 0.665951 0.234021
Si Si5 0.078640 0.665586 0.920523
Si Si6 0.420428 0.671815 0.902859
Si Si7 0.234488 0.834732 0.271215
Si Si8 0.704306 0.330804 0.078731
O O1 0.750000 0.750000 0.500000
O O2 0.859807 0.770494 0.452398
O O3 0.807720 0.816997 0.626404
O O4 0.796814 0.000000 0.489145
O O5 0.881650 0.142667 0.274859
O O6 0.958252 0.267167 0.334296
O O7 0.924530 0.000000 0.393505
O O8 0.138357 0.734359 0.875800
O O9 0.216329 0.772234 0.724021
O O10 0.173239 0.000000 0.826455
O O11 0.006729 0.500000 0.252899
O O12 0.959025 0.675620 0.153070
O O13 0.048095 0.758726 0.197807
O O14 0.085976 0.500000 0.950039
O O15 0.053475 0.757020 0.015664
O O16 0.430220 0.500000 0.898645
O O17 0.356611 0.714505 0.925703
O O18 0.208058 0.789008 0.185186
O O19 0.256379 0.000000 0.258213
O O20 0.714253 0.500000 0.059116
O O21 0.750000 0.250000 0.000000
#
# Coordination Sequence:
#
# PCOD8080933 Si02
#       8
#     8   8   8   8   8   8   8   8
#     4  10  19  32  53  81 112 144 176 217 269 324
#     4   9  18  32  49  75 109 140 169 208 260 318
#     4  10  18  29  47  74 108 140 174 214 259 314
#     4  10  21  35  53  77 104 137 175 216 266 323
#     4  10  20  33  50  75 106 137 174 217 266 322
#     4  11  22  36  54  75 102 136 178 225 269 314
#     4  10  20  34  53  76 107 144 182 221 266 318
#     4  10  23  40  56  78 106 142 184 224 264 310
#
# _framework density 19.640533999999999
#
# number of rings (size 3 to 8) (size 9 to 14) (size 15 to 20)
#    0.000    2.000    1.250    2.625    0.000    7.500 
#    0.000    0.000    0.000    0.750    0.000    5.250 
#    0.000    0.000    0.000    0.000    0.000    0.000 
#
# Total GULP energy -396698.367885 kJ/mol
# GULP energy per Si atom -12396.823996 kJ/mol
# Density = 1.959583 g / cm^3
# Si number density = 19.640534 Si / 1000 Ang^3
#
#
#
# Elastic Constant Matrix: (Units=GPa)
#
#
# Indices 1 2 3 4 5 6 
#
# 1 58.0820 42.3452 35.6140 0.0000 -27.1706 0.0000
# 2 42.3452 113.6183 44.9266 0.0000 -23.9288 0.0000
# 3 35.6140 44.9266 115.7243 0.0000 -29.3547 0.0000
# 4 0.0000 0.0000 0.0000 27.3677 0.0000 -10.5023
# 5 -27.1706 -23.9288 -29.3547 0.0000 39.1860 0.0000
# 6 0.0000 0.0000 0.0000 -10.5023 0.0000 23.5002
#
#
#
# Elastic Compliance Matrix: (Units=1/GPa)
#
#
# Indices 1 2 3 4 5 6 
#
# 1 0.031488 -0.007372 -0.003003 0.000000 0.015082 0.000000
# 2 -0.007372 0.012687 -0.002455 0.000000 0.000797 0.000000
# 3 -0.003003 -0.002455 0.011864 0.000000 0.005307 0.000000
# 4 0.000000 0.000000 0.000000 0.044103 0.000000 0.019710
# 5 0.015082 0.000797 0.005307 0.000000 0.040439 0.000000
# 6 0.000000 0.000000 0.000000 0.019710 0.000000 0.051361
#
#
# Mechanical properties :
#
#
# Convention : Reuss Voigt Hill
#
# Bulk Modulus (GPa) = 32.91485 59.24401 46.07943
# Shear Modulus (GPa) = 21.95598 28.98004 25.46801
#
# Velocity S-wave (km/s) = 3.34712 3.84542 3.60489
# Velocity P-wave (km/s) = 5.63317 7.06725 6.39056
#
# Compressibility (1/GPa) = 0.03038143
#
# Stress axis : x y z
#
# Youngs Moduli (GPa) = 31.75814 78.81870 84.28586
#
# Poissons Ratio (x) = 0.58103 0.25309
# Poissons Ratio (y) = 0.23411 0.20689
# Poissons Ratio (z) = 0.09536 0.19347
#
# Static dielectric constant tensor:
#      x y z
#    x 3.341910 0.000000 -0.291460 
#    y 0.000000 3.744750 0.000000 
#    z -0.291460 0.000000 3.692680 
# 
# 
# High freq. dielectric constant tensor:
#      x y z
#    x 1.731960 0.000000 -0.029300 
#    y 0.000000 1.769440 0.000000 
#    z -0.029300 0.000000 1.763540 
# 
# From -- ./inp_files/243791.got.cif
#   From: 2010.06.25/outbox.cif.g09.slc.cpg/sg12_122_cif.got.tgz:243791.got - 2010.06.28 00:19:55.
