data_PCOD8080531
_publ_section_title
;
Structure prediction by ZEFSAII (Michael W. Deem and Ramdas Pophale) SiO2 
 PCOD8080531
Probable space group: C 2/M
;
_chemical_formula_sum "Si O2"
_cell_formula_units_Z 64
_cell_length_a 24.055199
_cell_length_b 9.420574
_cell_length_c 19.690901
_cell_angle_alpha 90.000000
_cell_angle_beta 57.697279
_cell_angle_gamma 90.000000
_cell_volume 3771.639091
_symmetry_space_group_name_H-M "C 2/M"
_symmetry_group_IT_number 12
_symmetry_cell_setting 'monoclinic'
loop_
_space_group_symop_operation_xyz
x,y,z
-x,y,-z
-x,-y,-z
x,-y,z
1/2+x,1/2+y,z
1/2-x,1/2+y,-z
1/2-x,1/2-y,-z
1/2+x,1/2-y,z
loop_
_atom_site_type_symbol
_atom_site_label
_atom_site_fract_x
_atom_site_fract_y
_atom_site_fract_z
Si Si1 0.052722 0.163936 0.768068
Si Si2 0.205776 0.831642 0.156751
Si Si3 0.275462 0.334653 0.705509
Si Si4 0.844176 0.836413 0.409500
Si Si5 0.297216 0.164389 0.561904
Si Si6 0.350430 0.165766 0.033502
Si Si7 0.903157 0.165311 0.875882
Si Si8 0.875611 0.661639 0.170429
O O1 0.094945 0.216308 0.676060
O O2 0.072386 0.243047 0.823967
O O3 0.976585 0.192184 0.801083
O O4 0.067776 0.000000 0.771667
O O5 0.195512 0.781391 0.241167
O O6 0.275204 0.776962 0.081346
O O7 0.146453 0.774734 0.149058
O O8 0.209406 0.000000 0.156401
O O9 0.291072 0.500000 0.681866
O O10 0.309730 0.240102 0.625603
O O11 0.197612 0.307484 0.755631
O O12 0.778331 0.814242 0.409235
O O13 0.844112 0.738283 0.475973
O O14 0.851724 0.000000 0.427177
O O15 0.316646 0.000000 0.554838
O O16 0.381614 0.194872 0.086770
O O17 0.353311 0.000000 0.013261
O O18 0.393128 0.252196 0.952187
O O19 0.889745 0.000000 0.898206
O O20 0.894689 0.500000 0.172545
#
# Coordination Sequence:
#
# PCOD8080531 Si02
#       8
#     8   8   8   8   8   8   8   8
#     4  10  20  33  48  68  98 129 157 193 233 280
#     4   8  16  32  52  72  94 122 159 201 238 275
#     4   9  16  29  50  72  95 123 155 194 238 279
#     4   9  18  31  45  66  98 129 153 186 231 280
#     4  10  18  28  47  74  99 121 152 193 235 278
#     4   9  18  33  51  71  95 122 158 202 241 277
#     4  10  20  33  50  71  94 125 162 197 237 280
#     4   9  18  31  48  69  94 127 160 191 233 283
#
# _framework density 16.96875
#
# number of rings (size 3 to 8) (size 9 to 14) (size 15 to 20)
#    0.000    2.750    1.250    2.250    0.000    2.500 
#    0.000    5.000    0.000    0.750    0.000    5.250 
#    0.000    0.000    0.000    0.000    0.000    0.000 
#
# Total GULP energy -396796.400566 kJ/mol
# GULP energy per Si atom -12399.887518 kJ/mol
# Density = 1.693013 g / cm^3
# Si number density = 16.968750 Si / 1000 Ang^3
#
#
#
# Elastic Constant Matrix: (Units=GPa)
#
#
# Indices 1 2 3 4 5 6 
#
# 1 60.2132 30.6000 46.4829 0.0000 0.3568 0.0000
# 2 30.6000 60.6212 51.9315 -0.0001 8.2307 -0.0009
# 3 46.4829 51.9315 125.2106 -0.0001 9.8029 0.0000
# 4 0.0000 -0.0001 -0.0001 29.7100 0.0000 4.9368
# 5 0.3568 8.2307 9.8029 0.0000 21.9860 0.0001
# 6 0.0000 -0.0009 0.0000 4.9368 0.0001 19.9008
#
#
#
# Elastic Compliance Matrix: (Units=1/GPa)
#
#
# Indices 1 2 3 4 5 6 
#
# 1 0.025835 -0.008078 -0.006677 0.000000 0.005582 0.000000
# 2 -0.008078 0.028660 -0.008349 0.000000 -0.006875 0.000001
# 3 -0.006677 -0.008349 0.014170 0.000000 -0.003084 0.000000
# 4 0.000000 0.000000 0.000000 0.035106 0.000000 -0.008709
# 5 0.005582 -0.006875 -0.003084 0.000000 0.049342 -0.000001
# 6 0.000000 0.000001 0.000000 -0.008709 -0.000001 0.052410
#
#
# Mechanical properties :
#
#
# Convention : Reuss Voigt Hill
#
# Bulk Modulus (GPa) = 44.53569 56.00819 50.27194
# Shear Modulus (GPa) = 19.28893 22.12139 20.70516
#
# Velocity S-wave (km/s) = 3.37520 3.61453 3.49692
# Velocity P-wave (km/s) = 6.44143 7.10620 6.78197
#
# Compressibility (1/GPa) = 0.02245390
#
# Stress axis : x y z
#
# Youngs Moduli (GPa) = 38.70776 34.89217 70.57269
#
# Poissons Ratio (x) = 0.28187 0.47123
# Poissons Ratio (y) = 0.31270 0.58924
# Poissons Ratio (z) = 0.25846 0.29133
#
# Static dielectric constant tensor:
#      x y z
#    x 3.116930 0.000000 0.090950 
#    y 0.000000 3.026470 0.000000 
#    z 0.090950 0.000000 3.166230 
# 
# 
# High freq. dielectric constant tensor:
#      x y z
#    x 1.633790 0.000000 0.012560 
#    y 0.000000 1.641980 0.000000 
#    z 0.012560 0.000000 1.654490 
# 
# From -- ./inp_files/324132.got.cif
#   From: 2010.06.25/outbox.cif.g09.slc.cpg/sg12_163_cif.got.tgz:324132.got - 2010.06.28 00:19:55.
