data_PCOD8080602
_publ_section_title
;
Structure prediction by ZEFSAII (Michael W. Deem and Ramdas Pophale) SiO2 
 PCOD8080602
Probable space group: C 2/M
;
_chemical_formula_sum "Si O2"
_cell_formula_units_Z 56
_cell_length_a 19.906476
_cell_length_b 20.717928
_cell_length_c 12.882274
_cell_angle_alpha 90.000000
_cell_angle_beta 145.679077
_cell_angle_gamma 90.000000
_cell_volume 2995.571090
_symmetry_space_group_name_H-M "C 2/M"
_symmetry_group_IT_number 12
_symmetry_cell_setting 'monoclinic'
loop_
_space_group_symop_operation_xyz
x,y,z
-x,y,-z
-x,-y,-z
x,-y,z
1/2+x,1/2+y,z
1/2-x,1/2+y,-z
1/2-x,1/2-y,-z
1/2+x,1/2-y,z
loop_
_atom_site_type_symbol
_atom_site_label
_atom_site_fract_x
_atom_site_fract_y
_atom_site_fract_z
Si Si1 0.123711 0.771583 0.705167
Si Si2 0.461655 0.922845 0.839668
Si Si3 0.520312 0.576011 0.905140
Si Si4 0.797365 0.071699 0.501941
Si Si5 0.301742 0.666255 0.989392
Si Si6 0.665516 0.070716 0.948682
Si Si7 0.634488 0.406742 0.641485
O O1 0.231687 0.720923 0.835521
O O2 0.155721 0.829937 0.669078
O O3 0.000000 0.742234 0.500000
O O4 0.116934 0.801511 0.815026
O O5 0.330732 0.893782 0.646632
O O6 0.553890 0.900067 0.869789
O O7 0.457683 0.000000 0.841297
O O8 0.500000 0.894499 0.000000
O O9 0.545380 0.500000 0.910206
O O10 0.401710 0.605092 0.700302
O O11 0.500000 0.585965 0.000000
O O12 0.625146 0.621349 0.996034
O O13 0.835158 0.066332 0.431382
O O14 0.784673 0.000000 0.531554
O O15 0.195810 0.622104 0.899543
O O16 0.633741 0.000000 0.860959
O O17 0.778576 0.059227 0.166734
O O18 0.500000 0.425159 0.500000
#
# Coordination Sequence:
#
# PCOD8080602 Si02
#       7
#     8   8   8   8   8   8   8
#     4   9  19  36  57  78 104 137 176 221 270 310
#     4   9  16  28  45  72 113 145 160 192 256 328
#     4  10  21  37  57  80 107 141 180 222 268 315
#     4  10  18  30  51  78 111 143 168 206 266 325
#     4  10  20  36  59  78 105 140 178 223 269 310
#     4  10  18  29  49  80 112 138 169 211 261 322
#     4  10  18  28  50  81 106 136 168 215 267 321
#
# _framework density 18.694265000000001
#
# number of rings (size 3 to 8) (size 9 to 14) (size 15 to 20)
#    0.000    2.286    1.429    3.429    0.000    2.286 
#    2.571    0.000    9.429    3.000    0.000    0.000 
#    0.000    0.000    0.000    0.000    0.000    0.000 
#
# Total GULP energy -346956.843010 kJ/mol
# GULP energy per Si atom -12391.315822 kJ/mol
# Density = 1.865172 g / cm^3
# Si number density = 18.694265 Si / 1000 Ang^3
#
#
#
# Elastic Constant Matrix: (Units=GPa)
#
#
# Indices 1 2 3 4 5 6 
#
# 1 106.1513 33.6644 30.1213 0.0000 26.9260 0.0000
# 2 33.6644 65.3973 34.0110 0.0000 8.1581 0.0000
# 3 30.1213 34.0110 77.4372 0.0000 19.7944 0.0000
# 4 0.0000 0.0000 0.0000 16.6883 0.0000 1.3870
# 5 26.9260 8.1581 19.7944 0.0000 31.0939 0.0000
# 6 0.0000 0.0000 0.0000 1.3870 0.0000 19.0901
#
#
#
# Elastic Compliance Matrix: (Units=1/GPa)
#
#
# Indices 1 2 3 4 5 6 
#
# 1 0.013960 -0.005764 -0.000233 0.000000 -0.010428 0.000000
# 2 -0.005764 0.022202 -0.008714 0.000000 0.004714 0.000000
# 3 -0.000233 -0.008714 0.019343 0.000000 -0.009826 0.000000
# 4 0.000000 0.000000 0.000000 0.060286 0.000000 -0.004380
# 5 -0.010428 0.004714 -0.009826 0.000000 0.046209 0.000000
# 6 0.000000 0.000000 0.000000 -0.004380 0.000000 0.052701
#
#
# Mechanical properties :
#
#
# Convention : Reuss Voigt Hill
#
# Bulk Modulus (GPa) = 38.33899 49.39768 43.86834
# Shear Modulus (GPa) = 19.77699 23.45372 21.61535
#
# Velocity S-wave (km/s) = 3.25609 3.54587 3.40407
# Velocity P-wave (km/s) = 5.88975 6.57614 6.24238
#
# Compressibility (1/GPa) = 0.02608311
#
# Stress axis : x y z
#
# Youngs Moduli (GPa) = 71.63471 45.04046 51.69753
#
# Poissons Ratio (x) = 0.25962 0.01204
# Poissons Ratio (y) = 0.41291 0.45050
# Poissons Ratio (z) = 0.01668 0.39249
#
# Static dielectric constant tensor:
#      x y z
#    x 3.343550 0.000000 0.184270 
#    y 0.000000 3.247060 0.000000 
#    z 0.184270 0.000000 3.605900 
# 
# 
# High freq. dielectric constant tensor:
#      x y z
#    x 1.710410 0.000000 0.013710 
#    y 0.000000 1.699570 0.000000 
#    z 0.013710 0.000000 1.726420 
# 
# From -- ./inp_files/160333.got.cif
#   From: 2010.06.25/outbox.cif.g09.slc.cpg/sg12_81_cif.got.tgz:160333.got - 2010.06.28 00:19:55.
