data_PCOD8080319
_publ_section_title
;
Structure prediction by ZEFSAII (Michael W. Deem and Ramdas Pophale) SiO2 
 PCOD8080319
Probable space group: C 2/M
;
_chemical_formula_sum "Si O2"
_cell_formula_units_Z 48
_cell_length_a 24.303084
_cell_length_b 9.033537
_cell_length_c 14.052636
_cell_angle_alpha 90.000000
_cell_angle_beta 110.720806
_cell_angle_gamma 90.000000
_cell_volume 2885.593796
_symmetry_space_group_name_H-M "C 2/M"
_symmetry_group_IT_number 12
_symmetry_cell_setting 'monoclinic'
loop_
_space_group_symop_operation_xyz
x,y,z
-x,y,-z
-x,-y,-z
x,-y,z
1/2+x,1/2+y,z
1/2-x,1/2+y,-z
1/2-x,1/2-y,-z
1/2+x,1/2-y,z
loop_
_atom_site_type_symbol
_atom_site_label
_atom_site_fract_x
_atom_site_fract_y
_atom_site_fract_z
Si Si1 0.375375 0.326150 0.836306
Si Si2 0.039513 0.329047 0.433593
Si Si3 0.173404 0.329257 0.519903
Si Si4 0.781127 0.672543 0.659988
Si Si5 0.556566 0.167244 0.968084
Si Si6 0.486058 0.673335 0.774513
O O1 0.368470 0.500000 0.846002
O O2 0.313928 0.257958 0.764484
O O3 0.425180 0.286128 0.789443
O O4 0.391022 0.254877 0.947741
O O5 0.035234 0.500000 0.398948
O O6 0.016549 0.227575 0.334806
O O7 0.000000 0.293902 0.500000
O O8 0.106297 0.288999 0.502031
O O9 0.188067 0.500000 0.549507
O O10 0.185372 0.290634 0.417367
O O11 0.214168 0.229839 0.612859
O O12 0.781194 0.500000 0.683755
O O13 0.540802 0.246587 0.859346
O O14 0.577094 0.000000 0.959899
O O15 0.500000 0.170737 0.000000
O O16 0.498297 0.500000 0.784926
#
# Coordination Sequence:
#
# PCOD8080319 Si02
#       6
#     8   8   8   8   8   8
#     4  10  18  28  44  68  97 126 155 189 235 285
#     4  10  20  34  51  69  92 126 165 200 235 276
#     4   9  18  31  45  65  93 123 157 196 236 278
#     4  10  18  28  46  68  93 125 157 191 235 284
#     4   9  17  28  44  65  92 124 157 191 231 281
#     4  10  19  30  45  66  95 126 157 195 237 279
#
# _framework density 16.634357999999999
#
# number of rings (size 3 to 8) (size 9 to 14) (size 15 to 20)
#    0.000    2.333    1.667    2.000    0.000    5.000 
#    0.000    0.000    0.000    0.000    0.000    1.167 
#    0.000    0.000    0.000    0.000    0.000    0.000 
#
# Total GULP energy -297664.918009 kJ/mol
# GULP energy per Si atom -12402.704917 kJ/mol
# Density = 1.659650 g / cm^3
# Si number density = 16.634358 Si / 1000 Ang^3
#
#
#
# Elastic Constant Matrix: (Units=GPa)
#
#
# Indices 1 2 3 4 5 6 
#
# 1 69.5162 30.2246 42.7072 0.0000 12.9159 0.0000
# 2 30.2246 97.1385 67.3264 0.0000 16.4196 0.0000
# 3 42.7072 67.3264 115.9385 0.0000 29.0075 0.0000
# 4 0.0000 0.0000 0.0000 36.8944 0.0000 7.4395
# 5 12.9159 16.4196 29.0075 0.0000 23.5519 0.0000
# 6 0.0000 0.0000 0.0000 7.4395 0.0000 17.9781
#
#
#
# Elastic Compliance Matrix: (Units=1/GPa)
#
#
# Indices 1 2 3 4 5 6 
#
# 1 0.018882 -0.001784 -0.005261 0.000000 -0.002631 0.000000
# 2 -0.001784 0.017401 -0.009622 0.000000 0.000698 0.000000
# 3 -0.005261 -0.009622 0.019875 0.000000 -0.014886 0.000000
# 4 0.000000 0.000000 0.000000 0.029572 0.000000 -0.012237
# 5 -0.002631 0.000698 -0.014886 0.000000 0.061749 0.000000
# 6 0.000000 0.000000 0.000000 -0.012237 0.000000 0.060687
#
#
# Mechanical properties :
#
#
# Convention : Reuss Voigt Hill
#
# Bulk Modulus (GPa) = 43.81469 62.56772 53.19120
# Shear Modulus (GPa) = 20.07156 25.17389 22.62272
#
# Velocity S-wave (km/s) = 3.47743 3.89442 3.69182
# Velocity P-wave (km/s) = 6.52077 7.61034 7.08652
#
# Compressibility (1/GPa) = 0.02282340
#
# Stress axis : x y z
#
# Youngs Moduli (GPa) = 52.96119 57.46850 50.31348
#
# Poissons Ratio (x) = 0.10252 0.26470
# Poissons Ratio (y) = 0.09447 0.48414
# Poissons Ratio (z) = 0.27863 0.55299
#
# Static dielectric constant tensor:
#      x y z
#    x 2.781690 0.000000 0.238390 
#    y 0.000000 3.190150 0.000000 
#    z 0.238390 0.000000 3.106360 
# 
# 
# High freq. dielectric constant tensor:
#      x y z
#    x 1.590340 0.000000 0.029090 
#    y 0.000000 1.653670 0.000000 
#    z 0.029090 0.000000 1.640480 
# 
# From -- ./inp_files/172921.got.cif
#   From: 2010.06.25/outbox.cif.g09.slc.cpg/sg12_87_cif.got.tgz:172921.got - 2010.06.28 00:19:55.
