data_PCOD8080860
_publ_section_title
;
Structure prediction by ZEFSAII (Michael W. Deem and Ramdas Pophale) SiO2 
 PCOD8080860
Probable space group: C 2/M
;
_chemical_formula_sum "Si O2"
_cell_formula_units_Z 64
_cell_length_a 23.534837
_cell_length_b 9.244354
_cell_length_c 16.848471
_cell_angle_alpha 90.000000
_cell_angle_beta 86.238424
_cell_angle_gamma 90.000000
_cell_volume 3657.729986
_symmetry_space_group_name_H-M "C 2/M"
_symmetry_group_IT_number 12
_symmetry_cell_setting 'monoclinic'
loop_
_space_group_symop_operation_xyz
x,y,z
-x,y,-z
-x,-y,-z
x,-y,z
1/2+x,1/2+y,z
1/2-x,1/2+y,-z
1/2-x,1/2-y,-z
1/2+x,1/2-y,z
loop_
_atom_site_type_symbol
_atom_site_label
_atom_site_fract_x
_atom_site_fract_y
_atom_site_fract_z
Si Si1 0.856548 0.339566 0.658121
Si Si2 0.268165 0.669487 0.577038
Si Si3 0.305156 0.166845 0.264959
Si Si4 0.558428 0.665931 0.958973
Si Si5 0.873349 0.833012 0.892975
Si Si6 0.780653 0.337528 0.821544
Si Si7 0.572702 0.833865 0.798261
Si Si8 0.449415 0.831419 0.763525
O O1 0.855520 0.500000 0.619529
O O2 0.830584 0.225875 0.598271
O O3 0.820670 0.338724 0.741675
O O4 0.920583 0.295682 0.680243
O O5 0.272445 0.500000 0.560197
O O6 0.250000 0.750000 0.500000
O O7 0.221352 0.709312 0.647712
O O8 0.278251 0.260000 0.196023
O O9 0.372533 0.199762 0.261669
O O10 0.291791 0.000000 0.247770
O O11 0.547238 0.500000 0.937419
O O12 0.577122 0.745914 0.878396
O O13 0.500000 0.732471 0.000000
O O14 0.609484 0.682795 0.016992
O O15 0.813320 0.750683 0.887281
O O16 0.923437 0.765384 0.835496
O O17 0.866019 0.000000 0.868742
O O18 0.767555 0.500000 0.852539
O O19 0.516512 0.795255 0.752254
O O20 0.571658 0.000000 0.824113
O O21 0.438017 0.000000 0.785176
#
# Coordination Sequence:
#
# PCOD8080860 Si02
#       8
#     8   8   8   8   8   8   8   8
#     4   8  15  28  46  71 100 124 154 196 238 281
#     4  10  19  32  53  78 102 126 156 195 240 289
#     4   9  19  35  52  74 102 130 162 200 245 297
#     4  10  20  33  46  68 100 132 169 211 253 294
#     4  10  18  29  47  68  95 128 165 211 254 292
#     4   9  17  30  49  71  95 125 164 208 250 294
#     4  10  20  33  51  73  99 132 168 206 248 295
#     4   9  17  29  47  72  99 128 164 205 244 286
#
# _framework density 17.497191000000001
#
# number of rings (size 3 to 8) (size 9 to 14) (size 15 to 20)
#    0.000    2.625    1.250    1.875    0.000    5.250 
#    0.000    0.625    0.000    0.750    0.000    5.250 
#    0.000    0.000    0.000    0.000    0.000    0.000 
#
# Total GULP energy -396725.695961 kJ/mol
# GULP energy per Si atom -12397.677999 kJ/mol
# Density = 1.745737 g / cm^3
# Si number density = 17.497191 Si / 1000 Ang^3
#
#
#
# Elastic Constant Matrix: (Units=GPa)
#
#
# Indices 1 2 3 4 5 6 
#
# 1 124.9729 54.7545 53.4313 0.0000 21.7807 0.0000
# 2 54.7545 94.5471 48.8985 0.0000 15.6670 0.0000
# 3 53.4313 48.8985 75.5554 0.0000 20.2660 0.0000
# 4 0.0000 0.0000 0.0000 26.5860 0.0000 7.4439
# 5 21.7807 15.6670 20.2660 0.0000 25.5720 0.0000
# 6 0.0000 0.0000 0.0000 7.4439 0.0000 25.1942
#
#
#
# Elastic Compliance Matrix: (Units=1/GPa)
#
#
# Indices 1 2 3 4 5 6 
#
# 1 0.012735 -0.003914 -0.005343 0.000000 -0.004215 0.000000
# 2 -0.003914 0.017183 -0.008157 0.000000 -0.000729 0.000000
# 3 -0.005343 -0.008157 0.025058 0.000000 -0.010311 0.000000
# 4 0.000000 0.000000 0.000000 0.041006 0.000000 -0.012116
# 5 -0.004215 -0.000729 -0.010311 0.000000 0.051314 0.000000
# 6 0.000000 0.000000 0.000000 -0.012116 0.000000 0.043271
#
#
# Mechanical properties :
#
#
# Convention : Reuss Voigt Hill
#
# Bulk Modulus (GPa) = 49.62903 67.69378 58.66140
# Shear Modulus (GPa) = 21.54136 24.66985 23.10560
#
# Velocity S-wave (km/s) = 3.51256 3.75898 3.63786
# Velocity P-wave (km/s) = 6.69898 7.59027 7.15851
#
# Compressibility (1/GPa) = 0.02014950
#
# Stress axis : x y z
#
# Youngs Moduli (GPa) = 78.52195 58.19732 39.90669
#
# Poissons Ratio (x) = 0.22777 0.21321
# Poissons Ratio (y) = 0.30731 0.32553
# Poissons Ratio (z) = 0.41951 0.47473
#
# Static dielectric constant tensor:
#      x y z
#    x 3.528610 0.000000 0.300320 
#    y 0.000000 3.378660 0.000000 
#    z 0.300320 0.000000 2.949900 
# 
# 
# High freq. dielectric constant tensor:
#      x y z
#    x 1.676590 0.000000 0.028420 
#    y 0.000000 1.682270 0.000000 
#    z 0.028420 0.000000 1.638060 
# 
# From -- ./inp_files/287625.got.cif
#   From: 2010.06.25/outbox.cif.g09.slc.cpg/sg12_144_cif.got.tgz:287625.got - 2010.06.28 00:19:55.
