data_PCOD8080151
_publ_section_title
;
Structure prediction by ZEFSAII (Michael W. Deem and Ramdas Pophale) SiO2 
 PCOD8080151
Probable space group: C 2/M
;
_chemical_formula_sum "Si O2"
_cell_formula_units_Z 64
_cell_length_a 27.531005
_cell_length_b 8.814583
_cell_length_c 18.862536
_cell_angle_alpha 90.000000
_cell_angle_beta 67.284917
_cell_angle_gamma 90.000000
_cell_volume 4222.409820
_symmetry_space_group_name_H-M "C 2/M"
_symmetry_group_IT_number 12
_symmetry_cell_setting 'monoclinic'
loop_
_space_group_symop_operation_xyz
x,y,z
-x,y,-z
-x,-y,-z
x,-y,z
1/2+x,1/2+y,z
1/2-x,1/2+y,-z
1/2-x,1/2-y,-z
1/2+x,1/2-y,z
loop_
_atom_site_type_symbol
_atom_site_label
_atom_site_fract_x
_atom_site_fract_y
_atom_site_fract_z
Si Si1 0.196323 0.824475 0.617909
Si Si2 0.989111 0.320250 0.620523
Si Si3 0.994016 0.181092 0.240703
Si Si4 0.185819 0.676402 0.475418
Si Si5 0.079588 0.171086 0.911751
Si Si6 0.461328 0.331114 0.923996
Si Si7 0.579901 0.821580 0.467152
Si Si8 0.389012 0.177839 0.242104
O O1 0.179273 0.776379 0.548987
O O2 0.258480 0.793696 0.593759
O O3 0.166406 0.725066 0.692787
O O4 0.182091 0.000000 0.636658
O O5 0.988846 0.500000 0.634452
O O6 0.940521 0.264908 0.598018
O O7 0.983083 0.234839 0.697889
O O8 0.042853 0.264170 0.552245
O O9 0.935555 0.244194 0.260412
O O10 0.035145 0.243623 0.156593
O O11 0.990674 0.000000 0.238952
O O12 0.179826 0.500000 0.500292
O O13 0.140096 0.728122 0.446655
O O14 0.113462 0.274174 0.839388
O O15 0.020915 0.163691 0.916269
O O16 0.103099 0.000000 0.900121
O O17 0.076127 0.245011 0.993978
O O18 0.438823 0.500000 0.929416
O O19 0.573339 0.000000 0.469817
O O20 0.397136 0.000000 0.242928
#
# Coordination Sequence:
#
# PCOD8080151 Si02
#       8
#     8   8   8   8   8   8   8   8
#     4  10  19  29  42  61  82 106 138 172 203 237
#     4   9  16  27  43  62  82 106 135 164 198 238
#     4  10  18  28  41  59  83 109 137 167 199 236
#     4   9  17  30  46  61  80 108 139 169 201 237
#     4   8  13  25  41  55  74 103 136 163 192 234
#     4   7  12  23  39  55  75 105 133 158 193 237
#     4   8  15  28  44  59  79 108 137 164 197 239
#     4  11  20  28  39  57  82 110 138 169 204 238
#
# _framework density 15.157222000000001
#
# number of rings (size 3 to 8) (size 9 to 14) (size 15 to 20)
#    0.000    3.000    0.000    4.875    0.000    1.500 
#    0.000    7.500    0.000    0.000    0.000    0.000 
#    0.000    1.000    0.000    2.000    0.000    3.000 
#
# Total GULP energy -396423.779392 kJ/mol
# GULP energy per Si atom -12388.243106 kJ/mol
# Density = 1.512272 g / cm^3
# Si number density = 15.157222 Si / 1000 Ang^3
#
#
#
# Elastic Constant Matrix: (Units=GPa)
#
#
# Indices 1 2 3 4 5 6 
#
# 1 79.7145 21.6331 48.4137 0.0000 5.4605 0.0000
# 2 21.6331 54.6870 37.4255 -0.0001 0.3054 -0.0003
# 3 48.4137 37.4255 137.5262 0.0000 7.6238 0.0000
# 4 0.0000 -0.0001 0.0000 21.2280 0.0000 2.0539
# 5 5.4605 0.3054 7.6238 0.0000 16.5041 0.0000
# 6 0.0000 -0.0003 0.0000 2.0539 0.0000 13.8189
#
#
#
# Elastic Compliance Matrix: (Units=1/GPa)
#
#
# Indices 1 2 3 4 5 6 
#
# 1 0.016540 -0.003272 -0.004754 0.000000 -0.003216 0.000000
# 2 -0.003272 0.023217 -0.005339 0.000000 0.003119 0.000001
# 3 -0.004754 -0.005339 0.010576 0.000000 -0.003214 0.000000
# 4 0.000000 0.000000 0.000000 0.047795 0.000000 -0.007104
# 5 -0.003216 0.003119 -0.003214 0.000000 0.063082 0.000000
# 6 0.000000 0.000001 0.000000 -0.007104 0.000000 0.073421
#
#
# Mechanical properties :
#
#
# Convention : Reuss Voigt Hill
#
# Bulk Modulus (GPa) = 42.36725 54.09693 48.23209
# Shear Modulus (GPa) = 18.57162 21.27387 19.92274
#
# Velocity S-wave (km/s) = 3.50418 3.75046 3.62941
# Velocity P-wave (km/s) = 6.66220 7.38394 7.03233
#
# Compressibility (1/GPa) = 0.02360313
#
# Stress axis : x y z
#
# Youngs Moduli (GPa) = 60.45847 43.07266 94.55278
#
# Poissons Ratio (x) = 0.14091 0.44952
# Poissons Ratio (y) = 0.19779 0.50484
# Poissons Ratio (z) = 0.28743 0.22998
#
# Static dielectric constant tensor:
#      x y z
#    x 2.734960 0.000000 0.043390 
#    y 0.000000 2.766760 0.000000 
#    z 0.043390 0.000000 3.389010 
# 
# 
# High freq. dielectric constant tensor:
#      x y z
#    x 1.534550 0.000000 0.000140 
#    y 0.000000 1.565010 0.000000 
#    z 0.000140 0.000000 1.589250 
# 
# From -- ./inp_files/294571.got.cif
#   From: 2010.06.25/outbox.cif.g09.slc.cpg/sg12_148_cif.got.tgz:294571.got - 2010.06.28 00:19:55.
