data_PCOD8080674
_publ_section_title
;
Structure prediction by ZEFSAII (Michael W. Deem and Ramdas Pophale) SiO2 
 PCOD8080674
Probable space group: C 2/M
;
_chemical_formula_sum "Si O2"
_cell_formula_units_Z 56
_cell_length_a 26.239851
_cell_length_b 9.105289
_cell_length_c 17.399984
_cell_angle_alpha 90.000000
_cell_angle_beta 54.267969
_cell_angle_gamma 90.000000
_cell_volume 3374.660463
_symmetry_space_group_name_H-M "C 2/M"
_symmetry_group_IT_number 12
_symmetry_cell_setting 'monoclinic'
loop_
_space_group_symop_operation_xyz
x,y,z
-x,y,-z
-x,-y,-z
x,-y,z
1/2+x,1/2+y,z
1/2-x,1/2+y,-z
1/2-x,1/2-y,-z
1/2+x,1/2-y,z
loop_
_atom_site_type_symbol
_atom_site_label
_atom_site_fract_x
_atom_site_fract_y
_atom_site_fract_z
Si Si1 0.347385 0.171992 0.906193
Si Si2 0.782637 0.828231 0.541614
Si Si3 0.923941 0.832024 0.447627
Si Si4 0.769518 0.828139 0.095911
Si Si5 0.412375 0.834963 0.606625
Si Si6 0.052870 0.168836 0.272356
Si Si7 0.765798 0.336050 0.706084
O O1 0.297296 0.211958 0.883893
O O2 0.414466 0.241527 0.824978
O O3 0.356708 0.000000 0.907558
O O4 0.325118 0.238002 0.006835
O O5 0.750000 0.750000 0.500000
O O6 0.856406 0.786767 0.473239
O O7 0.751138 0.772761 0.648717
O O8 0.770773 0.000000 0.545500
O O9 0.944206 0.729217 0.501327
O O10 0.976955 0.813695 0.334846
O O11 0.921277 0.000000 0.479701
O O12 0.769410 0.782468 0.185552
O O13 0.782690 0.000000 0.073678
O O14 0.425357 0.728162 0.665095
O O15 0.338656 0.838568 0.659818
O O16 0.437681 0.000000 0.599993
O O17 0.073355 0.000000 0.247216
O O18 0.743139 0.500000 0.703610
#
# Coordination Sequence:
#
# PCOD8080674 Si02
#       7
#     8   8   8   8   8   8   8
#     4  10  19  30  44  66  95 127 166 203 232 267
#     4  10  20  35  53  73  95 119 153 196 242 287
#     4   9  20  34  46  65  92 124 159 192 230 285
#     4   9  17  31  46  65  94 128 163 197 234 274
#     4  10  18  29  44  66  94 125 160 196 230 269
#     4  11  20  30  44  63  93 131 164 192 229 274
#     4   9  17  31  49  69  96 126 158 194 233 279
#
# _framework density 16.594260999999999
#
# number of rings (size 3 to 8) (size 9 to 14) (size 15 to 20)
#    0.000    2.286    1.429    2.143    0.000    5.143 
#    0.000    0.000    0.000    0.000    0.000    1.000 
#    0.000    8.000    0.000    0.000    0.000    0.000 
#
# Total GULP energy -347177.529083 kJ/mol
# GULP energy per Si atom -12399.197467 kJ/mol
# Density = 1.655649 g / cm^3
# Si number density = 16.594261 Si / 1000 Ang^3
#
#
#
# Elastic Constant Matrix: (Units=GPa)
#
#
# Indices 1 2 3 4 5 6 
#
# 1 47.7251 33.6625 40.4477 0.0000 11.7575 0.0000
# 2 33.6625 88.8901 64.4251 -0.0004 3.8626 0.0002
# 3 40.4477 64.4251 141.9022 0.0000 2.3487 0.0000
# 4 0.0000 -0.0004 0.0000 32.0138 0.0000 3.5024
# 5 11.7575 3.8626 2.3487 0.0000 17.9658 0.0000
# 6 0.0000 0.0002 0.0000 3.5024 0.0000 21.3966
#
#
#
# Elastic Compliance Matrix: (Units=1/GPa)
#
#
# Indices 1 2 3 4 5 6 
#
# 1 0.038127 -0.008739 -0.006533 0.000000 -0.022219 0.000000
# 2 -0.008739 0.018893 -0.006128 0.000000 0.002458 0.000000
# 3 -0.006533 -0.006128 0.011624 0.000000 0.004073 0.000000
# 4 0.000000 0.000000 0.000000 0.031806 0.000000 -0.005206
# 5 -0.022219 0.002458 0.004073 0.000000 0.069141 0.000000
# 6 0.000000 0.000000 0.000000 -0.005206 0.000000 0.047589
#
#
# Mechanical properties :
#
#
# Convention : Reuss Voigt Hill
#
# Bulk Modulus (GPa) = 38.68937 61.73200 50.21068
# Shear Modulus (GPa) = 18.61545 23.60740 21.11142
#
# Velocity S-wave (km/s) = 3.35296 3.77586 3.57068
# Velocity P-wave (km/s) = 6.19317 7.50274 6.87919
#
# Compressibility (1/GPa) = 0.02584690
#
# Stress axis : x y z
#
# Youngs Moduli (GPa) = 26.22785 52.92828 86.03045
#
# Poissons Ratio (x) = 0.46252 0.56201
# Poissons Ratio (y) = 0.22919 0.52717
# Poissons Ratio (z) = 0.17134 0.32433
#
# Static dielectric constant tensor:
#      x y z
#    x 2.781530 0.000000 -0.081790 
#    y 0.000000 3.314090 0.000000 
#    z -0.081790 0.000000 3.325560 
# 
# 
# High freq. dielectric constant tensor:
#      x y z
#    x 1.587180 0.000000 -0.007160 
#    y 0.000000 1.651970 0.000000 
#    z -0.007160 0.000000 1.644080 
# 
# From -- ./inp_files/287893.got.cif
#   From: 2010.06.25/outbox.cif.g09.slc.cpg/sg12_144_cif.got.tgz:287893.got - 2010.06.28 00:19:55.
