data_PCOD8080912
_publ_section_title
;
Structure prediction by ZEFSAII (Michael W. Deem and Ramdas Pophale) SiO2 
 PCOD8080912
Probable space group: C 2/M
;
_chemical_formula_sum "Si O2"
_cell_formula_units_Z 56
_cell_length_a 23.984460
_cell_length_b 9.387778
_cell_length_c 15.799313
_cell_angle_alpha 90.000000
_cell_angle_beta 123.244958
_cell_angle_gamma 90.000000
_cell_volume 2975.164070
_symmetry_space_group_name_H-M "C 2/M"
_symmetry_group_IT_number 12
_symmetry_cell_setting 'monoclinic'
loop_
_space_group_symop_operation_xyz
x,y,z
-x,y,-z
-x,-y,-z
x,-y,z
1/2+x,1/2+y,z
1/2-x,1/2+y,-z
1/2-x,1/2-y,-z
1/2+x,1/2-y,z
loop_
_atom_site_type_symbol
_atom_site_label
_atom_site_fract_x
_atom_site_fract_y
_atom_site_fract_z
Si Si1 0.949857 0.669316 0.387869
Si Si2 0.450844 0.169529 0.199178
Si Si3 0.686845 0.162004 0.652148
Si Si4 0.312896 0.167502 0.815598
Si Si5 0.311431 0.168766 0.009685
Si Si6 0.315549 0.838372 0.542025
Si Si7 0.415741 0.831412 0.765211
O O1 0.953521 0.500000 0.397000
O O2 0.967835 0.722642 0.308459
O O3 0.873985 0.718916 0.341600
O O4 0.000000 0.735512 0.500000
O O5 0.508771 0.228013 0.183941
O O6 0.448621 0.000000 0.195114
O O7 0.378897 0.225937 0.109640
O O8 0.750888 0.258928 0.718789
O O9 0.660190 0.170994 0.534155
O O10 0.706218 0.000000 0.692135
O O11 0.317188 0.212052 0.916459
O O12 0.381165 0.216692 0.824648
O O13 0.302674 0.000000 0.796324
O O14 0.301355 0.000000 0.013156
O O15 0.250000 0.250000 0.000000
O O16 0.250000 0.750000 0.500000
O O17 0.372641 0.774849 0.650025
O O18 0.299508 0.000000 0.555128
O O19 0.420090 0.000000 0.764919
#
# Coordination Sequence:
#
# PCOD8080912 Si02
#       7
#     8   8   8   8   8   8   8
#     4   9  16  27  45  71 100 127 161 206 251 293
#     4   9  17  30  49  72  99 131 166 207 250 294
#     4  10  19  30  49  76 102 132 170 208 246 294
#     4  10  20  33  50  74 102 132 165 205 253 300
#     4  10  21  36  55  77 100 130 168 209 256 302
#     4  10  18  29  47  72 103 136 167 201 245 293
#     4   9  17  30  48  72 103 134 166 205 249 297
#
# _framework density 18.822490999999999
#
# number of rings (size 3 to 8) (size 9 to 14) (size 15 to 20)
#    0.000    2.429    1.429    1.714    0.000    5.714 
#    0.000    2.857    0.000    2.143    0.000    2.000 
#    0.000    0.000    0.000    0.000    0.000    0.000 
#
# Total GULP energy -347079.564673 kJ/mol
# GULP energy per Si atom -12395.698738 kJ/mol
# Density = 1.877965 g / cm^3
# Si number density = 18.822491 Si / 1000 Ang^3
#
#
#
# Elastic Constant Matrix: (Units=GPa)
#
#
# Indices 1 2 3 4 5 6 
#
# 1 182.1867 27.0428 72.4364 0.0000 0.6581 0.0000
# 2 27.0428 21.9397 20.0686 0.0000 0.1445 0.0000
# 3 72.4364 20.0686 123.0644 0.0000 0.0969 0.0000
# 4 0.0000 0.0000 0.0000 17.3810 0.0000 1.1100
# 5 0.6581 0.1445 0.0969 0.0000 34.2713 0.0000
# 6 0.0000 0.0000 0.0000 1.1100 0.0000 22.5679
#
#
#
# Elastic Compliance Matrix: (Units=1/GPa)
#
#
# Indices 1 2 3 4 5 6 
#
# 1 0.007867 -0.006418 -0.003584 0.000000 -0.000114 0.000000
# 2 -0.006418 0.058807 -0.005812 0.000000 -0.000108 0.000000
# 3 -0.003584 -0.005812 0.011183 0.000000 0.000062 0.000000
# 4 0.000000 0.000000 0.000000 0.057716 0.000000 -0.002839
# 5 -0.000114 -0.000108 0.000062 0.000000 0.029181 0.000000
# 6 0.000000 0.000000 0.000000 -0.002839 0.000000 0.044450
#
#
# Mechanical properties :
#
#
# Convention : Reuss Voigt Hill
#
# Bulk Modulus (GPa) = 21.63122 62.92073 42.27598
# Shear Modulus (GPa) = 19.51280 28.68688 24.09984
#
# Velocity S-wave (km/s) = 3.22324 3.90818 3.58211
# Velocity P-wave (km/s) = 5.03681 7.33936 6.29427
#
# Compressibility (1/GPa) = 0.04622948
#
# Stress axis : x y z
#
# Youngs Moduli (GPa) = 127.11664 17.00467 89.42089
#
# Poissons Ratio (x) = 0.10913 0.32047
# Poissons Ratio (y) = 0.81580 0.51975
# Poissons Ratio (z) = 0.45556 0.09884
#
# Static dielectric constant tensor:
#      x y z
#    x 3.823470 0.000000 -0.141820 
#    y 0.000000 2.950660 0.000000 
#    z -0.141820 0.000000 3.748770 
# 
# 
# High freq. dielectric constant tensor:
#      x y z
#    x 1.750160 0.000000 -0.006120 
#    y 0.000000 1.667470 0.000000 
#    z -0.006120 0.000000 1.737170 
# 
# From -- ./inp_files/238977.got.cif
#   From: 2010.06.25/outbox.cif.g09.slc.cpg/sg12_120_cif.got.tgz:238977.got - 2010.06.28 00:19:55.
