data_PCOD8080518
_publ_section_title
;
Structure prediction by ZEFSAII (Michael W. Deem and Ramdas Pophale) SiO2 
 PCOD8080518
Probable space group: C 2/M
;
_chemical_formula_sum "Si O2"
_cell_formula_units_Z 60
_cell_length_a 17.370144
_cell_length_b 13.876143
_cell_length_c 14.541323
_cell_angle_alpha 90.000000
_cell_angle_beta 103.754503
_cell_angle_gamma 90.000000
_cell_volume 3404.395065
_symmetry_space_group_name_H-M "C 2/M"
_symmetry_group_IT_number 12
_symmetry_cell_setting 'monoclinic'
loop_
_space_group_symop_operation_xyz
x,y,z
-x,y,-z
-x,-y,-z
x,-y,z
1/2+x,1/2+y,z
1/2-x,1/2+y,-z
1/2-x,1/2-y,-z
1/2+x,1/2-y,z
loop_
_atom_site_type_symbol
_atom_site_label
_atom_site_fract_x
_atom_site_fract_y
_atom_site_fract_z
Si Si1 0.888806 0.739648 0.312583
Si Si2 0.500000 0.696142 0.500000
Si Si3 0.999189 0.214524 0.197071
Si Si4 0.717939 0.608839 0.808472
Si Si5 0.597770 0.389109 0.377542
Si Si6 0.649810 0.736884 0.138489
Si Si7 0.258821 0.387043 0.695660
Si Si8 0.883545 0.891887 0.042598
O O1 0.841056 0.839987 0.281793
O O2 0.828277 0.658201 0.328453
O O3 0.954857 0.741003 0.411056
O O4 0.932121 0.716241 0.225824
O O5 0.429223 0.633733 0.526190
O O6 0.034457 0.158424 0.293077
O O7 0.067383 0.271335 0.161899
O O8 0.965116 0.137137 0.115344
O O9 0.733656 0.500000 0.777029
O O10 0.799377 0.666510 0.842611
O O11 0.684630 0.606274 0.901299
O O12 0.591191 0.500000 0.355212
O O13 0.689245 0.357884 0.380838
O O14 0.691278 0.649442 0.203585
O O15 0.636696 0.693162 0.034162
O O16 0.246357 0.500000 0.700619
O O17 0.892790 0.000000 0.002116
#
# Coordination Sequence:
#
# PCOD8080518 Si02
#       8
#     8   4   8   8   8   8   8   8
#     4   9  19  34  50  69  93 122 154 191 233 276
#     4  10  19  30  49  72  96 120 148 188 234 284
#     4   9  18  30  45  68  99 125 150 192 239 272
#     4   9  19  34  49  67  94 125 155 191 234 276
#     4   9  17  29  47  71  95 121 152 190 236 277
#     4  10  18  30  49  70  94 124 158 192 229 276
#     4   9  18  33  50  68  94 125 156 190 228 271
#     4  10  18  28  47  73  97 123 157 195 233 274
#
# _framework density 17.624275999999998
#
# number of rings (size 3 to 8) (size 9 to 14) (size 15 to 20)
#    0.000    2.667    0.000    1.800    0.000    6.400 
#    0.000    1.000    0.000    1.600    0.000    0.000 
#    0.000    0.000    0.000    0.000    0.000    0.000 
#
# Total GULP energy -371663.736008 kJ/mol
# GULP energy per Si atom -12388.791200 kJ/mol
# Density = 1.758416 g / cm^3
# Si number density = 17.624276 Si / 1000 Ang^3
#
#
#
# Elastic Constant Matrix: (Units=GPa)
#
#
# Indices 1 2 3 4 5 6 
#
# 1 132.1311 54.8421 35.7514 0.0000 0.3841 0.0000
# 2 54.8421 83.4264 32.4058 0.0000 2.6099 0.0000
# 3 35.7514 32.4058 61.4497 0.0000 -6.9954 0.0000
# 4 0.0000 0.0000 0.0000 10.9011 0.0000 -2.2441
# 5 0.3841 2.6099 -6.9954 0.0000 12.9321 0.0000
# 6 0.0000 0.0000 0.0000 -2.2441 0.0000 24.0613
#
#
#
# Elastic Compliance Matrix: (Units=1/GPa)
#
#
# Indices 1 2 3 4 5 6 
#
# 1 0.010903 -0.005822 -0.003385 0.000000 -0.000980 0.000000
# 2 -0.005822 0.018965 -0.007491 0.000000 -0.007707 0.000000
# 3 -0.003385 -0.007491 0.023845 0.000000 0.014511 0.000000
# 4 0.000000 0.000000 0.000000 0.093530 0.000000 0.008723
# 5 -0.000980 -0.007707 0.014511 0.000000 0.086761 0.000000
# 6 0.000000 0.000000 0.000000 0.008723 0.000000 0.042374
#
#
# Mechanical properties :
#
#
# Convention : Reuss Voigt Hill
#
# Bulk Modulus (GPa) = 49.21948 58.11174 53.66561
# Shear Modulus (GPa) = 15.79544 19.84610 17.82077
#
# Velocity S-wave (km/s) = 2.99696 3.35933 3.18331
# Velocity P-wave (km/s) = 6.32166 6.93476 6.63530
#
# Compressibility (1/GPa) = 0.02031716
#
# Stress axis : x y z
#
# Youngs Moduli (GPa) = 91.71372 52.72899 41.93715
#
# Poissons Ratio (x) = 0.30700 0.14195
# Poissons Ratio (y) = 0.53398 0.31416
# Poissons Ratio (z) = 0.31043 0.39500
#
# Static dielectric constant tensor:
#      x y z
#    x 4.009590 0.000000 -0.400530 
#    y 0.000000 3.036460 0.000000 
#    z -0.400530 0.000000 3.291550 
# 
# 
# High freq. dielectric constant tensor:
#      x y z
#    x 1.700550 0.000000 -0.008770 
#    y 0.000000 1.646310 0.000000 
#    z -0.008770 0.000000 1.673610 
# 
# From -- ./inp_files/223862.got.cif
#   From: 2010.06.25/outbox.cif.g09.slc.cpg/sg12_112_cif.got.tgz:223862.got - 2010.06.28 00:19:55.
