data_PCOD8080034
_publ_section_title
;
Structure prediction by ZEFSAII (Michael W. Deem and Ramdas Pophale) SiO2 
 PCOD8080034
Probable space group: C 2/M
;
_chemical_formula_sum "Si O2"
_cell_formula_units_Z 56
_cell_length_a 27.791855
_cell_length_b 9.301178
_cell_length_c 18.002678
_cell_angle_alpha 90.000000
_cell_angle_beta 130.715256
_cell_angle_gamma 90.000000
_cell_volume 3527.274669
_symmetry_space_group_name_H-M "C 2/M"
_symmetry_group_IT_number 12
_symmetry_cell_setting 'monoclinic'
loop_
_space_group_symop_operation_xyz
x,y,z
-x,y,-z
-x,-y,-z
x,-y,z
1/2+x,1/2+y,z
1/2-x,1/2+y,-z
1/2-x,1/2-y,-z
1/2+x,1/2-y,z
loop_
_atom_site_type_symbol
_atom_site_label
_atom_site_fract_x
_atom_site_fract_y
_atom_site_fract_z
Si Si1 0.063407 0.341599 0.611780
Si Si2 0.993419 0.834702 0.157927
Si Si3 0.566560 0.837621 0.025305
Si Si4 0.623189 0.332502 0.209019
Si Si5 0.378769 0.168364 0.477053
Si Si6 0.496329 0.667961 0.660641
Si Si7 0.748088 0.668455 0.421163
O O1 0.078291 0.500000 0.659953
O O2 0.117913 0.293573 0.607951
O O3 0.000000 0.347753 0.500000
O O4 0.054591 0.229281 0.669901
O O5 0.064836 0.796514 0.204811
O O6 0.986084 0.800238 0.236941
O O7 0.978515 0.000000 0.124799
O O8 0.941635 0.739521 0.062365
O O9 0.618184 0.754588 0.127006
O O10 0.589922 0.000000 0.035777
O O11 0.500000 0.832154 0.000000
O O12 0.625668 0.500000 0.191172
O O13 0.686664 0.280789 0.313848
O O14 0.429859 0.256770 0.575689
O O15 0.309255 0.210823 0.434565
O O16 0.393755 0.000000 0.504057
O O17 0.488779 0.500000 0.636769
O O18 0.745214 0.500000 0.435364
O O19 0.750000 0.750000 0.500000
#
# Coordination Sequence:
#
# PCOD8080034 Si02
#       7
#     8   8   8   8   8   8   8
#     4   8  15  28  43  59  83 115 146 176 215 261
#     4   9  17  28  42  62  88 114 138 170 215 261
#     4   9  17  28  43  63  84 108 141 177 211 251
#     4   9  17  30  45  60  84 117 146 172 208 253
#     4   9  18  31  44  60  87 121 151 177 210 256
#     4  10  18  27  43  67  90 112 143 182 220 256
#     4  10  20  32  46  65  89 119 152 181 210 248
#
# _framework density 15.87628
#
# number of rings (size 3 to 8) (size 9 to 14) (size 15 to 20)
#    0.000    2.857    0.000    2.571    0.000    7.714 
#    0.000    2.857    0.000    0.000    0.000    1.000 
#    0.000    0.000    0.000    0.000    0.000    0.000 
#
# Total GULP energy -347144.378493 kJ/mol
# GULP energy per Si atom -12398.013518 kJ/mol
# Density = 1.584014 g / cm^3
# Si number density = 15.876280 Si / 1000 Ang^3
#
#
#
# Elastic Constant Matrix: (Units=GPa)
#
#
# Indices 1 2 3 4 5 6 
#
# 1 103.3626 46.5424 56.3092 0.0000 -13.2702 0.0000
# 2 46.5424 83.9332 64.7041 0.0000 -13.1958 0.0000
# 3 56.3092 64.7041 116.7112 0.0000 -11.5136 0.0000
# 4 0.0000 0.0000 0.0000 26.0050 0.0000 -7.2333
# 5 -13.2702 -13.1958 -11.5136 0.0000 19.9308 0.0000
# 6 0.0000 0.0000 0.0000 -7.2333 0.0000 21.5296
#
#
#
# Elastic Compliance Matrix: (Units=1/GPa)
#
#
# Indices 1 2 3 4 5 6 
#
# 1 0.014371 -0.003949 -0.004303 0.000000 0.004468 0.000000
# 2 -0.003949 0.023019 -0.010193 0.000000 0.006723 0.000000
# 3 -0.004303 -0.010193 0.016274 0.000000 -0.000213 0.000000
# 4 0.000000 0.000000 0.000000 0.042418 0.000000 0.014251
# 5 0.004468 0.006723 -0.000213 0.000000 0.057477 0.000000
# 6 0.000000 0.000000 0.000000 0.014251 0.000000 0.051236
#
#
# Mechanical properties :
#
#
# Convention : Reuss Voigt Hill
#
# Bulk Modulus (GPa) = 59.61898 71.01316 65.31607
# Shear Modulus (GPa) = 20.22030 22.58983 21.40506
#
# Velocity S-wave (km/s) = 3.57265 3.77618 3.67582
# Velocity P-wave (km/s) = 7.39271 7.98993 7.69711
#
# Compressibility (1/GPa) = 0.01677318
#
# Stress axis : x y z
#
# Youngs Moduli (GPa) = 69.58561 43.44290 61.44620
#
# Poissons Ratio (x) = 0.17155 0.26443
# Poissons Ratio (y) = 0.27479 0.62632
# Poissons Ratio (z) = 0.29946 0.44281
#
# Static dielectric constant tensor:
#      x y z
#    x 3.197500 0.000000 -0.137090 
#    y 0.000000 3.084770 0.000000 
#    z -0.137090 0.000000 2.897280 
# 
# 
# High freq. dielectric constant tensor:
#      x y z
#    x 1.591980 0.000000 -0.018320 
#    y 0.000000 1.614210 0.000000 
#    z -0.018320 0.000000 1.590150 
# 
# From -- ./inp_files/291814.got.cif
#   From: 2010.06.25/outbox.cif.g09.slc.cpg/sg12_146_cif.got.tgz:291814.got - 2010.06.28 00:19:55.
