data_PCOD8080935
_publ_section_title
;
Structure prediction by ZEFSAII (Michael W. Deem and Ramdas Pophale) SiO2 
 PCOD8080935
Probable space group: C 2/M
;
_chemical_formula_sum "Si O2"
_cell_formula_units_Z 52
_cell_length_a 8.831323
_cell_length_b 25.966671
_cell_length_c 12.274028
_cell_angle_alpha 90.000000
_cell_angle_beta 90.000000
_cell_angle_gamma 90.000000
_cell_volume 2814.680823
_symmetry_space_group_name_H-M "C 2/M"
_symmetry_group_IT_number 12
_symmetry_cell_setting 'monoclinic'
loop_
_space_group_symop_operation_xyz
x,y,z
-x,y,-z
-x,-y,-z
x,-y,z
1/2+x,1/2+y,z
1/2-x,1/2+y,-z
1/2-x,1/2-y,-z
1/2+x,1/2-y,z
loop_
_atom_site_type_symbol
_atom_site_label
_atom_site_fract_x
_atom_site_fract_y
_atom_site_fract_z
Si Si1 0.174426 0.696975 0.871657
Si Si2 0.818819 0.888179 0.274403
Si Si3 0.174426 0.303025 0.128343
Si Si4 0.318819 0.611821 0.725597
Si Si5 0.162992 0.000000 0.265550
Si Si6 0.668150 0.111446 0.500000
Si Si7 0.756761 0.000000 0.500000
Si Si8 0.162992 0.000000 0.734450
O O1 0.250000 0.750000 0.832528
O O2 0.263474 0.650445 0.817211
O O3 0.000000 0.696792 0.835088
O O4 0.191805 0.689921 0.000000
O O5 0.763474 0.849555 0.182789
O O6 0.756582 0.870054 0.391850
O O7 1.000000 0.889725 0.280225
O O8 0.754437 0.945445 0.238632
O O9 0.254437 0.554555 0.761368
O O10 0.256582 0.629946 0.608149
O O11 1.000000 0.000000 0.206527
O O12 0.134817 0.000000 0.395634
O O13 0.500000 0.135917 0.500000
O O14 0.649814 0.049914 0.500000
O O15 0.865182 0.000000 0.395634
#
# Coordination Sequence:
#
# PCOD8080935 Si02
#       8
#     8   8   8   8   4   8   4   4
#     4  10  21  38  59  80 101 130 171 217 263 311
#     4  10  19  33  53  78 108 141 177 214 255 304
#     4  10  21  38  59  80 101 130 171 217 263 311
#     4  10  19  33  53  78 108 141 177 214 255 304
#     4   8  15  27  46  73 105 140 174 209 250 300
#     4  10  18  29  47  74 108 142 175 212 256 304
#     4   8  14  24  42  68  99 138 179 214 247 292
#     4   8  15  27  46  73 105 140 174 209 250 300
#
# _framework density 18.474564000000001
#
# number of rings (size 3 to 8) (size 9 to 14) (size 15 to 20)
#    0.000    2.462    0.000    2.769    0.000    5.538 
#    0.000    3.846    0.000    4.615    0.000    0.000 
#    0.000    0.000    0.000    0.000    0.000    0.000 
#
# Total GULP energy -322146.180153 kJ/mol
# GULP energy per Si atom -12390.237698 kJ/mol
# Density = 1.843251 g / cm^3
# Si number density = 18.474564 Si / 1000 Ang^3
#
#
#
# Elastic Constant Matrix: (Units=GPa)
#
#
# Indices 1 2 3 4 5 6 
#
# 1 105.4811 39.5647 28.0158 0.0000 0.0000 0.0000
# 2 39.5647 129.2268 43.7027 0.0000 0.0000 0.0000
# 3 28.0158 43.7027 40.5299 0.0000 0.0001 0.0000
# 4 0.0000 0.0000 0.0000 34.0585 0.0000 0.0000
# 5 0.0000 0.0000 0.0001 0.0000 29.5330 0.0000
# 6 0.0000 0.0000 0.0000 0.0000 0.0000 21.8349
#
#
#
# Elastic Compliance Matrix: (Units=1/GPa)
#
#
# Indices 1 2 3 4 5 6 
#
# 1 0.011758 -0.001340 -0.006683 0.000000 0.000000 0.000000
# 2 -0.001340 0.012332 -0.012372 0.000000 0.000000 0.000000
# 3 -0.006683 -0.012372 0.042633 0.000000 0.000000 0.000000
# 4 0.000000 0.000000 0.000000 0.029361 0.000000 0.000000
# 5 0.000000 0.000000 0.000000 0.000000 0.033860 0.000000
# 6 0.000000 0.000000 0.000000 0.000000 0.000000 0.045798
#
#
# Mechanical properties :
#
#
# Convention : Reuss Voigt Hill
#
# Bulk Modulus (GPa) = 38.55879 55.31156 46.93518
# Shear Modulus (GPa) = 22.20480 28.01560 25.11020
#
# Velocity S-wave (km/s) = 3.47062 3.89838 3.69070
# Velocity P-wave (km/s) = 6.08086 7.08995 6.60471
#
# Compressibility (1/GPa) = 0.02593442
#
# Stress axis : x y z
#
# Youngs Moduli (GPa) = 85.04948 81.08659 23.45614
#
# Poissons Ratio (x) = 0.10864 0.15675
# Poissons Ratio (y) = 0.11395 0.29019
# Poissons Ratio (z) = 0.56836 1.00318
#
# Static dielectric constant tensor:
#      x y z
#    x 3.305170 0.000000 0.000000 
#    y 0.000000 3.507980 0.000000 
#    z 0.000000 0.000000 3.167180 
# 
# 
# High freq. dielectric constant tensor:
#      x y z
#    x 1.714370 0.000000 0.000000 
#    y 0.000000 1.713990 0.000000 
#    z 0.000000 0.000000 1.693950 
# 
# From -- ./inp_files/123732.got.cif
#   From: 2010.06.25/outbox.cif.g09.slc.cpg/sg12_62_cif.got.tgz:123732.got - 2010.06.28 00:19:55.
