data_PCOD8080878
_publ_section_title
;
Structure prediction by ZEFSAII (Michael W. Deem and Ramdas Pophale) SiO2 
 PCOD8080878
Probable space group: C 2/M
;
_chemical_formula_sum "Si O2"
_cell_formula_units_Z 64
_cell_length_a 27.781841
_cell_length_b 12.957931
_cell_length_c 10.939476
_cell_angle_alpha 90.000000
_cell_angle_beta 103.644657
_cell_angle_gamma 90.000000
_cell_volume 3827.013672
_symmetry_space_group_name_H-M "C 2/M"
_symmetry_group_IT_number 12
_symmetry_cell_setting 'monoclinic'
loop_
_space_group_symop_operation_xyz
x,y,z
-x,y,-z
-x,-y,-z
x,-y,z
1/2+x,1/2+y,z
1/2-x,1/2+y,-z
1/2-x,1/2-y,-z
1/2+x,1/2-y,z
loop_
_atom_site_type_symbol
_atom_site_label
_atom_site_fract_x
_atom_site_fract_y
_atom_site_fract_z
Si Si1 0.413747 0.119342 0.986248
Si Si2 0.267325 0.616503 0.414805
Si Si3 0.725547 0.619237 0.864808
Si Si4 0.676836 0.190972 0.944952
Si Si5 0.127541 0.383438 0.681079
Si Si6 0.829180 0.298279 0.533383
Si Si7 0.530729 0.877965 0.744965
Si Si8 0.923302 0.620046 0.713738
O O1 0.433723 0.136134 0.862686
O O2 0.398815 0.000000 0.998203
O O3 0.365070 0.190138 0.975686
O O4 0.455424 0.155047 0.108085
O O5 0.285641 0.500000 0.439694
O O6 0.265920 0.649427 0.271713
O O7 0.212173 0.625194 0.437364
O O8 0.305989 0.683624 0.517665
O O9 0.709278 0.500000 0.868373
O O10 0.683701 0.692294 0.899151
O O11 0.774834 0.639770 0.970119
O O12 0.659196 0.118524 0.823632
O O13 0.122401 0.500000 0.630828
O O14 0.156454 0.320590 0.596835
O O15 0.072285 0.335778 0.674462
O O16 0.878627 0.306889 0.644277
O O17 0.474569 0.842839 0.679047
O O18 0.532445 0.000000 0.739329
O O19 0.911015 0.500000 0.676273
#
# Coordination Sequence:
#
# PCOD8080878 Si02
#       8
#     8   8   8   8   8   8   8   8
#     4   9  16  28  47  69  98 128 154 186 229 283
#     4  10  21  37  51  66  92 127 165 201 233 273
#     4  10  19  32  49  67  90 121 161 203 235 272
#     4  10  18  29  47  70  93 121 156 194 236 284
#     4  10  18  30  45  70 103 130 151 189 238 285
#     4  11  21  32  49  71  94 127 164 192 234 282
#     4   8  16  28  45  70 100 128 156 187 232 283
#     4  10  18  29  47  72  99 130 160 191 228 281
#
# _framework density 16.723223000000001
#
# number of rings (size 3 to 8) (size 9 to 14) (size 15 to 20)
#    0.000    2.250    1.250    4.125    0.000    4.000 
#    0.000    1.875    0.000    0.000    0.000    5.250 
#    0.000    5.000    0.000    0.000    0.000    0.000 
#
# Total GULP energy -396602.896770 kJ/mol
# GULP energy per Si atom -12393.840524 kJ/mol
# Density = 1.668516 g / cm^3
# Si number density = 16.723223 Si / 1000 Ang^3
#
#
#
# Elastic Constant Matrix: (Units=GPa)
#
#
# Indices 1 2 3 4 5 6 
#
# 1 114.8608 37.6009 30.5270 0.0000 4.5641 0.0000
# 2 37.6009 56.5315 19.1309 0.0000 -1.4002 0.0000
# 3 30.5270 19.1309 50.5715 0.0000 -0.6321 0.0000
# 4 0.0000 0.0000 0.0000 22.5379 0.0000 -0.4825
# 5 4.5641 -1.4002 -0.6321 0.0000 23.4900 0.0000
# 6 0.0000 0.0000 0.0000 -0.4825 0.0000 20.7249
#
#
#
# Elastic Compliance Matrix: (Units=1/GPa)
#
#
# Indices 1 2 3 4 5 6 
#
# 1 0.012293 -0.006566 -0.004973 0.000000 -0.002914 0.000000
# 2 -0.006566 0.023817 -0.005014 0.000000 0.002560 0.000000
# 3 -0.004973 -0.005014 0.024690 0.000000 0.001332 0.000000
# 4 0.000000 0.000000 0.000000 0.044392 0.000000 0.001033
# 5 -0.002914 0.002560 0.001332 0.000000 0.043326 0.000000
# 6 0.000000 0.000000 0.000000 0.001033 0.000000 0.048275
#
#
# Mechanical properties :
#
#
# Convention : Reuss Voigt Hill
#
# Bulk Modulus (GPa) = 36.11065 44.05350 40.08207
# Shear Modulus (GPa) = 20.90912 22.33087 21.62000
#
# Velocity S-wave (km/s) = 3.53980 3.65817 3.59947
# Velocity P-wave (km/s) = 6.19249 6.65153 6.42611
#
# Compressibility (1/GPa) = 0.02769266
#
# Stress axis : x y z
#
# Youngs Moduli (GPa) = 81.34657 41.98739 40.50285
#
# Poissons Ratio (x) = 0.27568 0.20143
# Poissons Ratio (y) = 0.53410 0.20310
# Poissons Ratio (z) = 0.40456 0.21054
#
# Static dielectric constant tensor:
#      x y z
#    x 3.388560 0.000000 -0.100190 
#    y 0.000000 2.856030 0.000000 
#    z -0.100190 0.000000 3.170330 
# 
# 
# High freq. dielectric constant tensor:
#      x y z
#    x 1.651980 0.000000 -0.006240 
#    y 0.000000 1.595190 0.000000 
#    z -0.006240 0.000000 1.652270 
# 
# From -- ./inp_files/182133.got.cif
#   From: 2010.06.25/outbox.cif.g09.slc.cpg/sg12_92_cif.got.tgz:182133.got - 2010.06.28 00:19:55.
