data_PCOD8080447
_publ_section_title
;
Structure prediction by ZEFSAII (Michael W. Deem and Ramdas Pophale) SiO2 
 PCOD8080447
Probable space group: C 2/M
;
_chemical_formula_sum "Si O2"
_cell_formula_units_Z 40
_cell_length_a 17.308553
_cell_length_b 10.114900
_cell_length_c 24.402720
_cell_angle_alpha 90.000000
_cell_angle_beta 151.414216
_cell_angle_gamma 90.000000
_cell_volume 2044.179071
_symmetry_space_group_name_H-M "C 2/M"
_symmetry_group_IT_number 12
_symmetry_cell_setting 'monoclinic'
loop_
_space_group_symop_operation_xyz
x,y,z
-x,y,-z
-x,-y,-z
x,-y,z
1/2+x,1/2+y,z
1/2-x,1/2+y,-z
1/2-x,1/2-y,-z
1/2+x,1/2-y,z
loop_
_atom_site_type_symbol
_atom_site_label
_atom_site_fract_x
_atom_site_fract_y
_atom_site_fract_z
Si Si1 0.640324 0.252642 0.237807
Si Si2 0.834545 0.500000 0.601818
Si Si3 0.595509 0.500000 0.355286
Si Si4 0.688850 0.000000 0.617369
Si Si5 0.462956 0.768752 0.242382
Si Si6 0.310893 0.500000 0.368914
Si Si7 0.674133 0.342064 0.999390
O O1 0.761962 0.372865 0.317978
O O2 0.543135 0.231254 0.232968
O O3 0.751769 0.124799 0.295636
O O4 0.510850 0.290130 0.109360
O O5 0.681537 0.500000 0.467234
O O6 0.944278 0.370557 0.659931
O O7 0.776528 0.500000 0.627692
O O8 0.733658 0.500000 0.394958
O O9 0.476255 0.624728 0.277390
O O10 0.500000 0.000000 0.500000
O O11 0.276019 0.814806 0.118512
O O12 0.500000 0.500000 0.500000
O O13 0.678490 0.500000 0.986960
O O14 0.750000 0.250000 0.000000
#
# Coordination Sequence:
#
# PCOD8080447 Si02
#       7
#     8   4   4   4   8   4   8
#     4   9  18  29  46  69  98 125 157 198 244 289
#     4  10  18  33  49  69  99 130 159 202 240 286
#     4  10  20  31  47  73  97 128 167 196 238 292
#     4  10  18  31  47  69  97 128 161 198 234 284
#     4   9  18  29  46  69  99 126 157 199 244 286
#     4  10  20  33  49  73  99 128 161 198 244 292
#     4  10  18  28  46  71 100 129 158 200 255 294
#
# _framework density 19.567755999999999
#
# number of rings (size 3 to 8) (size 9 to 14) (size 15 to 20)
#    0.000    2.400    2.000    1.200    8.400    0.000 
#    0.000    0.000    0.000    0.000    0.000    8.400 
#    0.000    0.000    0.000    0.000    0.000    0.000 
#
# Total GULP energy -247805.097403 kJ/mol
# GULP energy per Si atom -12390.254870 kJ/mol
# Density = 1.952322 g / cm^3
# Si number density = 19.567756 Si / 1000 Ang^3
#
#
#
# Elastic Constant Matrix: (Units=GPa)
#
#
# Indices 1 2 3 4 5 6 
#
# 1 6.5881 10.7900 9.2586 0.0000 5.3215 0.0001
# 2 10.7900 198.2249 91.5428 0.0007 11.4203 0.0013
# 3 9.2586 91.5428 185.6385 0.0016 20.0878 0.0040
# 4 0.0000 0.0007 0.0016 43.3722 0.0007 3.1517
# 5 5.3215 11.4203 20.0878 0.0007 25.0489 0.0011
# 6 0.0001 0.0013 0.0040 3.1517 0.0011 5.4438
#
#
#
# Elastic Compliance Matrix: (Units=1/GPa)
#
#
# Indices 1 2 3 4 5 6 
#
# 1 0.196847 -0.007641 -0.002082 0.000000 -0.036666 0.000006
# 2 -0.007641 0.006833 -0.003096 0.000000 0.000990 0.000001
# 3 -0.002082 -0.003096 0.007464 0.000000 -0.004132 -0.000004
# 4 0.000000 0.000000 0.000000 0.024069 0.000000 -0.013935
# 5 -0.036666 0.000990 -0.004132 0.000000 0.050574 -0.000007
# 6 0.000006 0.000001 -0.000004 -0.013935 -0.000007 0.191764
#
#
# Mechanical properties :
#
#
# Convention : Reuss Voigt Hill
#
# Bulk Modulus (GPa) = 5.39064 68.18158 36.78611
# Shear Modulus (GPa) = 8.84918 33.36365 21.10642
#
# Velocity S-wave (km/s) = 2.12888 4.13368 3.28782
# Velocity P-wave (km/s) = 2.96710 7.59622 5.76655
#
# Compressibility (1/GPa) = 0.18550672
#
# Stress axis : x y z
#
# Youngs Moduli (GPa) = 5.08009 146.34245 133.96938
#
# Poissons Ratio (x) = 1.11820 0.27894
# Poissons Ratio (y) = 0.03882 0.41473
# Poissons Ratio (z) = 0.01058 0.45304
#
# Static dielectric constant tensor:
#      x y z
#    x 2.785210 0.000000 0.118780 
#    y 0.000000 4.063190 0.000000 
#    z 0.118780 0.000000 4.223990 
# 
# 
# High freq. dielectric constant tensor:
#      x y z
#    x 1.672140 0.000000 0.011830 
#    y 0.000000 1.787740 0.000000 
#    z 0.011830 0.000000 1.788600 
# 
# From -- ./inp_files/162571.got.cif
#   From: 2010.06.25/outbox.cif.g09.slc.cpg/sg12_82_cif.got.tgz:162571.got - 2010.06.28 00:19:55.
