data_PCOD8080331
_publ_section_title
;
Structure prediction by ZEFSAII (Michael W. Deem and Ramdas Pophale) SiO2 
 PCOD8080331
Probable space group: C 2/M
;
_chemical_formula_sum "Si O2"
_cell_formula_units_Z 64
_cell_length_a 24.990594
_cell_length_b 8.805725
_cell_length_c 17.796723
_cell_angle_alpha 90.000000
_cell_angle_beta 76.327955
_cell_angle_gamma 90.000000
_cell_volume 3805.380608
_symmetry_space_group_name_H-M "C 2/M"
_symmetry_group_IT_number 12
_symmetry_cell_setting 'monoclinic'
loop_
_space_group_symop_operation_xyz
x,y,z
-x,y,-z
-x,-y,-z
x,-y,z
1/2+x,1/2+y,z
1/2-x,1/2+y,-z
1/2-x,1/2-y,-z
1/2+x,1/2-y,z
loop_
_atom_site_type_symbol
_atom_site_label
_atom_site_fract_x
_atom_site_fract_y
_atom_site_fract_z
Si Si1 0.908058 0.822371 0.678114
Si Si2 0.799569 0.679713 0.318951
Si Si3 0.681755 0.679912 0.411285
Si Si4 0.872057 0.179655 0.418400
Si Si5 0.782823 0.821660 0.169405
Si Si6 0.193879 0.175329 0.996951
Si Si7 0.986655 0.677751 0.419146
Si Si8 0.668615 0.323876 0.163740
O O1 0.863084 0.761769 0.633518
O O2 0.962918 0.724730 0.650698
O O3 0.885300 0.789082 0.769208
O O4 0.921004 0.000000 0.661164
O O5 0.801322 0.500000 0.323191
O O6 0.741646 0.745502 0.369914
O O7 0.849414 0.746832 0.350224
O O8 0.807939 0.730755 0.230603
O O9 0.683619 0.500000 0.407427
O O10 0.664819 0.738412 0.499368
O O11 0.934447 0.229197 0.408858
O O12 0.869576 0.000000 0.412419
O O13 0.821194 0.775117 0.083631
O O14 0.719475 0.776483 0.175508
O O15 0.785452 0.000000 0.186186
O O16 0.206688 0.000000 0.987940
O O17 0.250000 0.250000 0.000000
O O18 0.152581 0.210657 0.080756
O O19 0.974756 0.500000 0.415468
O O20 0.000000 0.724647 0.500000
O O21 0.685987 0.500000 0.168588
#
# Coordination Sequence:
#
# PCOD8080331 Si02
#       8
#     8   8   8   8   8   8   8   8
#     4  10  18  32  53  75  97 130 170 205 246 294
#     4  11  21  35  51  72 102 134 168 205 246 295
#     4   9  18  32  51  73  98 130 166 202 245 292
#     4  11  22  37  54  72  95 129 171 211 250 292
#     4  10  18  28  44  70 102 134 167 199 239 290
#     4   8  15  26  42  66  97 131 163 197 236 288
#     4  11  23  37  52  73  98 128 166 209 253 293
#     4   9  16  29  48  70  99 132 165 201 246 292
#
# _framework density 16.818292
#
# number of rings (size 3 to 8) (size 9 to 14) (size 15 to 20)
#    0.000    2.125    2.500    1.875    0.000    1.500 
#    0.000    1.875    0.000    0.000    0.000    0.875 
#    0.000    7.000    0.000    0.000    0.000    0.000 
#
# Total GULP energy -396616.974877 kJ/mol
# GULP energy per Si atom -12394.280465 kJ/mol
# Density = 1.678001 g / cm^3
# Si number density = 16.818292 Si / 1000 Ang^3
#
#
#
# Elastic Constant Matrix: (Units=GPa)
#
#
# Indices 1 2 3 4 5 6 
#
# 1 68.5557 25.1375 55.0256 0.0000 7.1804 0.0000
# 2 25.1375 46.8068 37.2993 0.0000 1.7100 0.0000
# 3 55.0256 37.2993 154.7307 0.0000 -0.5816 0.0000
# 4 0.0000 0.0000 0.0000 22.6705 0.0000 0.3374
# 5 7.1804 1.7100 -0.5816 0.0000 19.4863 0.0000
# 6 0.0000 0.0000 0.0000 0.3374 0.0000 21.0778
#
#
#
# Elastic Compliance Matrix: (Units=1/GPa)
#
#
# Indices 1 2 3 4 5 6 
#
# 1 0.023326 -0.006923 -0.006657 0.000000 -0.008186 0.000000
# 2 -0.006923 0.028622 -0.004438 0.000000 -0.000093 0.000000
# 3 -0.006657 -0.004438 0.009912 0.000000 0.003138 0.000000
# 4 0.000000 0.000000 0.000000 0.044121 0.000000 -0.000706
# 5 -0.008186 -0.000093 0.003138 0.000000 0.054436 0.000000
# 6 0.000000 0.000000 0.000000 -0.000706 0.000000 0.047455
#
#
# Mechanical properties :
#
#
# Convention : Reuss Voigt Hill
#
# Bulk Modulus (GPa) = 38.72417 56.11309 47.41863
# Shear Modulus (GPa) = 19.80071 22.82232 21.31152
#
# Velocity S-wave (km/s) = 3.43495 3.68774 3.56359
# Velocity P-wave (km/s) = 6.22951 7.18118 6.72221
#
# Compressibility (1/GPa) = 0.02582367
#
# Stress axis : x y z
#
# Youngs Moduli (GPa) = 42.87091 34.93759 100.88917
#
# Poissons Ratio (x) = 0.24188 0.67162
# Poissons Ratio (y) = 0.29680 0.44775
# Poissons Ratio (z) = 0.28539 0.15505
#
# Static dielectric constant tensor:
#      x y z
#    x 2.862190 0.000000 -0.137140 
#    y 0.000000 2.993250 0.000000 
#    z -0.137140 0.000000 3.743560 
# 
# 
# High freq. dielectric constant tensor:
#      x y z
#    x 1.605860 0.000000 -0.006150 
#    y 0.000000 1.646060 0.000000 
#    z -0.006150 0.000000 1.663840 
# 
# From -- ./inp_files/281380.got.cif
#   From: 2010.06.25/outbox.cif.g09.slc.cpg/sg12_141_cif.got.tgz:281380.got - 2010.06.28 00:19:55.
