data_PCOD8080138
_publ_section_title
;
Structure prediction by ZEFSAII (Michael W. Deem and Ramdas Pophale) SiO2 
 PCOD8080138
Probable space group: C 2/M
;
_chemical_formula_sum "Si O2"
_cell_formula_units_Z 56
_cell_length_a 21.281676
_cell_length_b 25.163100
_cell_length_c 18.161673
_cell_angle_alpha 90.000000
_cell_angle_beta 158.707140
_cell_angle_gamma 90.000000
_cell_volume 3531.783553
_symmetry_space_group_name_H-M "C 2/M"
_symmetry_group_IT_number 12
_symmetry_cell_setting 'monoclinic'
loop_
_space_group_symop_operation_xyz
x,y,z
-x,y,-z
-x,-y,-z
x,-y,z
1/2+x,1/2+y,z
1/2-x,1/2+y,-z
1/2-x,1/2-y,-z
1/2+x,1/2-y,z
loop_
_atom_site_type_symbol
_atom_site_label
_atom_site_fract_x
_atom_site_fract_y
_atom_site_fract_z
Si Si1 0.575253 0.323142 0.316906
Si Si2 0.871383 0.345238 0.980145
Si Si3 0.841749 0.283320 0.500410
Si Si4 0.759260 0.128202 0.376466
Si Si5 0.797015 0.059528 0.289032
Si Si6 0.824674 0.219905 0.345123
Si Si7 0.297499 0.810376 0.062457
O O1 0.688056 0.319612 0.365825
O O2 0.615705 0.269189 0.405943
O O3 0.635888 0.373815 0.432462
O O4 0.370936 0.333275 0.077786
O O5 0.795617 0.400542 0.868098
O O6 0.814801 0.293526 0.870600
O O7 0.816001 0.338932 0.003859
O O8 0.075973 0.345783 0.195190
O O9 0.772164 0.267369 0.343429
O O10 0.022908 0.316830 0.695975
O O11 0.746968 0.072205 0.320148
O O12 0.861602 0.166115 0.430994
O O13 0.000000 0.063975 0.500000
O O14 0.731155 0.000000 0.200390
O O15 0.000000 0.239198 0.500000
O O16 0.250000 0.750000 0.000000
#
# Coordination Sequence:
#
# PCOD8080138 Si02
#       7
#     8   8   8   8   8   8   8
#     4   9  16  28  42  56  79 102 136 182 212 253
#     4  11  19  30  44  63  84 114 150 186 228 262
#     4   9  17  28  39  58  78 102 141 176 217 255
#     4  10  18  29  44  60  82 111 147 185 222 265
#     4  10  20  32  45  62  84 113 151 190 229 266
#     4  10  18  28  39  57  82 108 139 181 218 256
#     4  10  18  28  45  60  80 110 146 182 221 260
#
# _framework density 15.856011000000001
#
# number of rings (size 3 to 8) (size 9 to 14) (size 15 to 20)
#    0.000    2.143    1.429    6.857    2.000    1.143 
#    2.571    0.000    0.000    0.000    0.000    0.000 
#    0.000    0.000    0.000    0.000    0.000   12.857 
#
# Total GULP energy -346910.087023 kJ/mol
# GULP energy per Si atom -12389.645965 kJ/mol
# Density = 1.581992 g / cm^3
# Si number density = 15.856011 Si / 1000 Ang^3
#
#
#
# Elastic Constant Matrix: (Units=GPa)
#
#
# Indices 1 2 3 4 5 6 
#
# 1 68.6598 25.7692 32.0624 -0.0001 18.4029 0.0000
# 2 25.7692 46.2070 20.1037 0.0000 -4.0286 0.0000
# 3 32.0624 20.1037 88.3494 -0.0002 16.3227 -0.0001
# 4 -0.0001 0.0000 -0.0002 8.2065 -0.0001 -0.4627
# 5 18.4029 -4.0286 16.3227 -0.0001 24.8587 0.0000
# 6 0.0000 0.0000 -0.0001 -0.4627 0.0000 16.2718
#
#
#
# Elastic Compliance Matrix: (Units=1/GPa)
#
#
# Indices 1 2 3 4 5 6 
#
# 1 0.027463 -0.016170 -0.002329 0.000000 -0.021422 0.000000
# 2 -0.016170 0.035236 -0.006164 0.000000 0.021728 0.000000
# 3 -0.002329 -0.006164 0.015287 0.000000 -0.009312 0.000000
# 4 0.000000 0.000000 0.000000 0.122050 0.000001 0.003471
# 5 -0.021422 0.021728 -0.009312 0.000001 0.065722 0.000000
# 6 0.000000 0.000000 0.000000 0.003471 0.000000 0.061555
#
#
# Mechanical properties :
#
#
# Convention : Reuss Voigt Hill
#
# Bulk Modulus (GPa) = 34.89278 39.89854 37.39566
# Shear Modulus (GPa) = 12.94692 18.21946 15.58319
#
# Velocity S-wave (km/s) = 2.86060 3.39345 3.13836
# Velocity P-wave (km/s) = 5.74147 6.36959 6.06367
#
# Compressibility (1/GPa) = 0.02865922
#
# Stress axis : x y z
#
# Youngs Moduli (GPa) = 36.41276 28.38010 65.41472
#
# Poissons Ratio (x) = 0.45891 0.15236
# Poissons Ratio (y) = 0.58880 0.40322
# Poissons Ratio (z) = 0.08481 0.17494
#
# Static dielectric constant tensor:
#      x y z
#    x 2.817350 0.000000 0.076290 
#    y 0.000000 2.661260 0.000000 
#    z 0.076290 0.000000 3.342530 
# 
# 
# High freq. dielectric constant tensor:
#      x y z
#    x 1.605480 0.000000 0.027380 
#    y 0.000000 1.539380 0.000000 
#    z 0.027380 0.000000 1.615570 
# 
# From -- ./inp_files/286635.got.cif
#   From: 2010.06.25/outbox.cif.g09.slc.cpg/sg12_144_cif.got.tgz:286635.got - 2010.06.28 00:19:55.
