data_PCOD8080374
_publ_section_title
;
Structure prediction by ZEFSAII (Michael W. Deem and Ramdas Pophale) SiO2 
 PCOD8080374
Probable space group: C 2/M
;
_chemical_formula_sum "Si O2"
_cell_formula_units_Z 48
_cell_length_a 27.267205
_cell_length_b 8.840432
_cell_length_c 11.896662
_cell_angle_alpha 90.000000
_cell_angle_beta 72.593259
_cell_angle_gamma 90.000000
_cell_volume 2736.408843
_symmetry_space_group_name_H-M "C 2/M"
_symmetry_group_IT_number 12
_symmetry_cell_setting 'monoclinic'
loop_
_space_group_symop_operation_xyz
x,y,z
-x,y,-z
-x,-y,-z
x,-y,z
1/2+x,1/2+y,z
1/2-x,1/2+y,-z
1/2-x,1/2-y,-z
1/2+x,1/2-y,z
loop_
_atom_site_type_symbol
_atom_site_label
_atom_site_fract_x
_atom_site_fract_y
_atom_site_fract_z
Si Si1 0.792255 0.329073 0.133629
Si Si2 0.858691 0.822320 0.266928
Si Si3 0.639023 0.323057 0.082993
Si Si4 0.179358 0.830674 0.283296
Si Si5 0.196011 0.322873 0.501082
Si Si6 0.943150 0.821166 0.037149
O O1 0.811674 0.500000 0.142892
O O2 0.811087 0.219458 0.220013
O O3 0.731052 0.322891 0.174601
O O4 0.813564 0.271074 0.000333
O O5 0.850885 0.736483 0.389929
O O6 0.911295 0.768725 0.169443
O O7 0.858483 0.000000 0.290287
O O8 0.649258 0.500000 0.052607
O O9 0.635424 0.291424 0.220080
O O10 0.586436 0.271350 0.056671
O O11 0.179822 0.713539 0.384769
O O12 0.171411 0.000000 0.337868
O O13 0.202366 0.500000 0.512127
O O14 0.250000 0.250000 0.500000
O O15 0.948112 0.000000 0.036541
O O16 0.000000 0.746695 0.000000
#
# Coordination Sequence:
#
# PCOD8080374 Si02
#       6
#     8   8   8   8   8   8
#     4  10  18  28  45  68  99 134 166 202 243 295
#     4  10  19  32  51  74 101 132 169 209 247 291
#     4   9  18  31  48  71 100 131 166 207 250 296
#     4  10  20  32  46  68 100 137 170 203 243 290
#     4  12  23  34  50  71 100 137 173 205 241 292
#     4   8  15  30  54  80 101 124 159 208 259 298
#
# _framework density 17.541239000000001
#
# number of rings (size 3 to 8) (size 9 to 14) (size 15 to 20)
#    0.000    2.167    1.667    4.000    0.000    1.333 
#    0.000    0.000    0.000   13.500    0.000    7.000 
#    0.000    0.000    0.000    0.000    0.000    0.000 
#
# Total GULP energy -297489.820273 kJ/mol
# GULP energy per Si atom -12395.409178 kJ/mol
# Density = 1.750131 g / cm^3
# Si number density = 17.541239 Si / 1000 Ang^3
#
#
#
# Elastic Constant Matrix: (Units=GPa)
#
#
# Indices 1 2 3 4 5 6 
#
# 1 88.9038 30.6102 59.4224 0.0000 0.7483 0.0000
# 2 30.6102 79.8522 43.8119 0.0000 1.4245 0.0000
# 3 59.4224 43.8119 114.2576 0.0000 11.1722 0.0000
# 4 0.0000 0.0000 0.0000 29.6527 0.0000 1.5690
# 5 0.7483 1.4245 11.1722 0.0000 21.8871 0.0000
# 6 0.0000 0.0000 0.0000 1.5690 0.0000 13.0777
#
#
#
# Elastic Compliance Matrix: (Units=1/GPa)
#
#
# Indices 1 2 3 4 5 6 
#
# 1 0.017871 -0.002033 -0.008913 0.000000 0.004071 0.000000
# 2 -0.002033 0.016191 -0.005320 0.000000 0.001731 0.000000
# 3 -0.008913 -0.005320 0.016171 0.000000 -0.007603 0.000000
# 4 0.000000 0.000000 0.000000 0.033939 0.000000 -0.004072
# 5 0.004071 0.001731 -0.007603 0.000000 0.049318 0.000000
# 6 0.000000 0.000000 0.000000 -0.004072 0.000000 0.076955
#
#
# Mechanical properties :
#
#
# Convention : Reuss Voigt Hill
#
# Bulk Modulus (GPa) = 56.49562 61.18916 58.84239
# Shear Modulus (GPa) = 20.09028 22.86813 21.47920
#
# Velocity S-wave (km/s) = 3.38793 3.61457 3.50308
# Velocity P-wave (km/s) = 6.89792 7.23732 7.06966
#
# Compressibility (1/GPa) = 0.01770049
#
# Stress axis : x y z
#
# Youngs Moduli (GPa) = 55.95654 61.76424 61.83964
#
# Poissons Ratio (x) = 0.12558 0.55116
# Poissons Ratio (y) = 0.11377 0.32900
# Poissons Ratio (z) = 0.49872 0.32860
#
# Static dielectric constant tensor:
#      x y z
#    x 3.295890 0.000000 -0.009510 
#    y 0.000000 3.199800 0.000000 
#    z -0.009510 0.000000 3.356500 
# 
# 
# High freq. dielectric constant tensor:
#      x y z
#    x 1.645780 0.000000 0.013600 
#    y 0.000000 1.669240 0.000000 
#    z 0.013600 0.000000 1.675670 
# 
# From -- ./inp_files/179188.got.cif
#   From: 2010.06.25/outbox.cif.g09.slc.cpg/sg12_90_cif.got.tgz:179188.got - 2010.06.28 00:19:55.
