data_PCOD8080057
_publ_section_title
;
Structure prediction by ZEFSAII (Michael W. Deem and Ramdas Pophale) SiO2 
 PCOD8080057
Probable space group: C 2/M
;
_chemical_formula_sum "Si O2"
_cell_formula_units_Z 64
_cell_length_a 25.164390
_cell_length_b 9.265488
_cell_length_c 24.241661
_cell_angle_alpha 90.000000
_cell_angle_beta 46.205563
_cell_angle_gamma 90.000000
_cell_volume 4079.908831
_symmetry_space_group_name_H-M "C 2/M"
_symmetry_group_IT_number 12
_symmetry_cell_setting 'monoclinic'
loop_
_space_group_symop_operation_xyz
x,y,z
-x,y,-z
-x,-y,-z
x,-y,z
1/2+x,1/2+y,z
1/2-x,1/2+y,-z
1/2-x,1/2-y,-z
1/2+x,1/2-y,z
loop_
_atom_site_type_symbol
_atom_site_label
_atom_site_fract_x
_atom_site_fract_y
_atom_site_fract_z
Si Si1 0.220500 0.829356 0.914772
Si Si2 0.450603 0.172778 0.663265
Si Si3 0.936771 0.659138 0.499802
Si Si4 0.680270 0.670108 0.819719
Si Si5 0.168822 0.672320 0.336988
Si Si6 0.467265 0.169034 0.081720
Si Si7 0.115966 0.329459 0.178904
Si Si8 0.402598 0.830812 0.930982
O O1 0.198363 0.783675 0.869062
O O2 0.301936 0.769841 0.869501
O O3 0.214953 0.000000 0.926925
O O4 0.166555 0.754370 0.996324
O O5 0.526408 0.236204 0.580731
O O6 0.379493 0.226709 0.680092
O O7 0.440141 0.229208 0.733544
O O8 0.454988 0.000000 0.657403
O O9 0.911217 0.500000 0.499890
O O10 0.865858 0.735639 0.580269
O O11 0.000000 0.647305 0.500000
O O12 0.667842 0.500000 0.824418
O O13 0.747150 0.722188 0.732135
O O14 0.607748 0.749277 0.850636
O O15 0.164499 0.500000 0.341856
O O16 0.523918 0.210770 0.089054
O O17 0.450493 0.000000 0.091551
O O18 0.500000 0.223002 0.000000
O O19 0.119997 0.500000 0.181731
O O20 0.085837 0.283117 0.140810
O O21 0.385377 0.000000 0.948682
#
# Coordination Sequence:
#
# PCOD8080057 Si02
#       8
#     8   8   8   8   8   8   8   8
#     4  10  18  28  43  63  85 106 130 166 207 246
#     4   8  11  18  33  55  83 110 129 152 193 242
#     4   7  10  15  28  51  82 113 128 142 185 246
#     4  10  18  27  44  65  83 106 134 166 205 245
#     4   8  12  20  33  56  87 109 126 153 196 245
#     4  10  20  33  44  55  77 108 142 178 208 233
#     4   9  16  26  40  59  83 108 135 165 200 242
#     4  10  20  32  44  57  77 110 144 172 202 237
#
# _framework density 15.686624999999999
#
# number of rings (size 3 to 8) (size 9 to 14) (size 15 to 20)
#    0.000    3.000    2.500    1.875    0.000    0.750 
#    0.000    0.000    0.000    0.000    0.000    0.875 
#    0.000    6.500    0.000    0.000    0.000    0.000 
#
# Total GULP energy -396440.028528 kJ/mol
# GULP energy per Si atom -12388.750891 kJ/mol
# Density = 1.565092 g / cm^3
# Si number density = 15.686625 Si / 1000 Ang^3
#
#
#
# Elastic Constant Matrix: (Units=GPa)
#
#
# Indices 1 2 3 4 5 6 
#
# 1 87.6226 13.8570 65.7580 0.0009 7.8542 0.0042
# 2 13.8570 9.7261 20.9064 0.0069 1.9472 0.0021
# 3 65.7580 20.9064 179.0737 0.0004 10.1729 -0.0006
# 4 0.0009 0.0069 0.0004 7.0562 -0.0003 2.4532
# 5 7.8542 1.9472 10.1729 -0.0003 17.8786 -0.0019
# 6 0.0042 0.0021 -0.0006 2.4532 -0.0019 4.8195
#
#
#
# Elastic Compliance Matrix: (Units=1/GPa)
#
#
# Indices 1 2 3 4 5 6 
#
# 1 0.017382 -0.014379 -0.004505 0.000019 -0.003507 -0.000021
# 2 -0.014379 0.149788 -0.012028 -0.000151 -0.003153 0.000022
# 3 -0.004505 -0.012028 0.008738 0.000010 -0.001683 0.000004
# 4 0.000019 -0.000151 0.000010 0.172191 -0.000004 -0.087647
# 5 -0.003507 -0.003153 -0.001683 -0.000004 0.058774 0.000029
# 6 -0.000021 0.000022 0.000004 -0.087647 0.000029 0.252104
#
#
# Mechanical properties :
#
#
# Convention : Reuss Voigt Hill
#
# Bulk Modulus (GPa) = 8.76540 53.05168 30.90854
# Shear Modulus (GPa) = 6.58909 17.67761 12.13335
#
# Velocity S-wave (km/s) = 2.05172 3.36061 2.78417
# Velocity P-wave (km/s) = 3.34854 6.99652 5.48471
#
# Compressibility (1/GPa) = 0.11408492
#
# Stress axis : x y z
#
# Youngs Moduli (GPa) = 57.53240 6.67608 114.43744
#
# Poissons Ratio (x) = 0.09599 0.51552
# Poissons Ratio (y) = 0.82724 1.37648
# Poissons Ratio (z) = 0.25917 0.08030
#
# Static dielectric constant tensor:
#      x y z
#    x 2.828290 -0.000010 0.116540 
#    y -0.000010 2.502490 0.000000 
#    z 0.116540 0.000000 3.515280 
# 
# 
# High freq. dielectric constant tensor:
#      x y z
#    x 1.569720 0.000000 0.003770 
#    y 0.000000 1.547710 0.000000 
#    z 0.003770 0.000000 1.620720 
# 
# From -- ./inp_files/349033.got.cif
#   From: 2010.06.25/outbox.cif.g09.slc.cpg/sg12_175_cif.got.tgz:349033.got - 2010.06.28 00:19:55.
