data_PCOD8080105
_publ_section_title
;
Structure prediction by ZEFSAII (Michael W. Deem and Ramdas Pophale) SiO2 
 PCOD8080105
Probable space group: C 2/M
;
_chemical_formula_sum "Si O2"
_cell_formula_units_Z 40
_cell_length_a 24.728642
_cell_length_b 9.317669
_cell_length_c 12.119421
_cell_angle_alpha 90.000000
_cell_angle_beta 118.566934
_cell_angle_gamma 90.000000
_cell_volume 2452.517246
_symmetry_space_group_name_H-M "C 2/M"
_symmetry_group_IT_number 12
_symmetry_cell_setting 'monoclinic'
loop_
_space_group_symop_operation_xyz
x,y,z
-x,y,-z
-x,-y,-z
x,-y,z
1/2+x,1/2+y,z
1/2-x,1/2+y,-z
1/2-x,1/2-y,-z
1/2+x,1/2-y,z
loop_
_atom_site_type_symbol
_atom_site_label
_atom_site_fract_x
_atom_site_fract_y
_atom_site_fract_z
Si Si1 0.215337 0.333119 0.060830
Si Si2 0.417864 0.169428 0.009057
Si Si3 0.950995 0.669232 0.797589
Si Si4 0.746130 0.163787 0.335477
Si Si5 0.845832 0.166170 0.605274
O O1 0.214653 0.500000 0.029171
O O2 0.251103 0.305588 0.210396
O O3 0.250000 0.250000 0.000000
O O4 0.145521 0.271067 0.001383
O O5 0.476721 0.212322 0.141736
O O6 0.413700 0.000000 0.996143
O O7 0.426669 0.224051 0.892714
O O8 0.942008 0.500000 0.772127
O O9 0.911760 0.753464 0.666820
O O10 0.813108 0.189624 0.454987
O O11 0.696301 0.268649 0.339610
O O12 0.723837 0.000000 0.334838
O O13 0.856371 0.000000 0.641515
#
# Coordination Sequence:
#
# PCOD8080105 Si02
#       5
#     8   8   8   8   8
#     4  10  19  33  50  68  92 123 158 194 226 269
#     4   8  15  28  48  68  89 122 161 185 221 283
#     4   9  15  28  49  69  91 123 153 186 233 282
#     4   9  18  32  47  64  93 129 158 183 227 283
#     4  10  18  27  45  73  98 119 148 193 237 275
#
# _framework density 16.309771999999999
#
# number of rings (size 3 to 8) (size 9 to 14) (size 15 to 20)
#    0.000    2.800    2.000    1.800    0.000    1.600 
#    0.000    3.000    0.000    1.200    0.000    8.400 
#    0.000    0.000    0.000    0.000    0.000    0.000 
#
# Total GULP energy -247892.941237 kJ/mol
# GULP energy per Si atom -12394.647062 kJ/mol
# Density = 1.627265 g / cm^3
# Si number density = 16.309772 Si / 1000 Ang^3
#
#
#
# Elastic Constant Matrix: (Units=GPa)
#
#
# Indices 1 2 3 4 5 6 
#
# 1 109.7417 38.6138 65.1665 0.0000 14.3995 0.0000
# 2 38.6138 63.5197 51.3166 0.0000 10.1632 0.0000
# 3 65.1665 51.3166 114.7643 0.0000 22.8370 0.0000
# 4 0.0000 0.0000 0.0000 26.6473 0.0000 2.8480
# 5 14.3995 10.1632 22.8370 0.0000 31.0307 0.0000
# 6 0.0000 0.0000 0.0000 2.8480 0.0000 24.6283
#
#
#
# Elastic Compliance Matrix: (Units=1/GPa)
#
#
# Indices 1 2 3 4 5 6 
#
# 1 0.014195 -0.003316 -0.006424 0.000000 -0.000774 0.000000
# 2 -0.003316 0.025421 -0.009529 0.000000 0.000226 0.000000
# 3 -0.006424 -0.009529 0.018051 0.000000 -0.007183 0.000000
# 4 0.000000 0.000000 0.000000 0.037997 0.000000 -0.004394
# 5 -0.000774 0.000226 -0.007183 0.000000 0.037797 0.000000
# 6 0.000000 0.000000 0.000000 -0.004394 0.000000 0.041112
#
#
# Mechanical properties :
#
#
# Convention : Reuss Voigt Hill
#
# Bulk Modulus (GPa) = 52.27327 66.46883 59.37105
# Shear Modulus (GPa) = 22.78030 25.32318 24.05174
#
# Velocity S-wave (km/s) = 3.74134 3.94463 3.84433
# Velocity P-wave (km/s) = 7.12624 7.84788 7.49575
#
# Compressibility (1/GPa) = 0.01913024
#
# Stress axis : x y z
#
# Youngs Moduli (GPa) = 70.44704 39.33737 55.39734
#
# Poissons Ratio (x) = 0.13043 0.35586
# Poissons Ratio (y) = 0.23358 0.52789
# Poissons Ratio (z) = 0.45254 0.37485
#
# Static dielectric constant tensor:
#      x y z
#    x 3.103450 0.000000 0.420000 
#    y 0.000000 2.920610 0.000000 
#    z 0.420000 0.000000 3.240570 
# 
# 
# High freq. dielectric constant tensor:
#      x y z
#    x 1.600270 0.000000 0.033350 
#    y 0.000000 1.610780 0.000000 
#    z 0.033350 0.000000 1.626010 
# 
# From -- ./inp_files/162361.got.cif
#   From: 2010.06.25/outbox.cif.g09.slc.cpg/sg12_82_cif.got.tgz:162361.got - 2010.06.28 00:19:55.
