data_PCOD8080871
_publ_section_title
;
Structure prediction by ZEFSAII (Michael W. Deem and Ramdas Pophale) SiO2 
 PCOD8080871
Probable space group: C 2/M
;
_chemical_formula_sum "Si O2"
_cell_formula_units_Z 64
_cell_length_a 25.205545
_cell_length_b 8.938865
_cell_length_c 17.636291
_cell_angle_alpha 90.000000
_cell_angle_beta 102.228949
_cell_angle_gamma 90.000000
_cell_volume 3883.449155
_symmetry_space_group_name_H-M "C 2/M"
_symmetry_group_IT_number 12
_symmetry_cell_setting 'monoclinic'
loop_
_space_group_symop_operation_xyz
x,y,z
-x,y,-z
-x,-y,-z
x,-y,z
1/2+x,1/2+y,z
1/2-x,1/2+y,-z
1/2-x,1/2-y,-z
1/2+x,1/2-y,z
loop_
_atom_site_type_symbol
_atom_site_label
_atom_site_fract_x
_atom_site_fract_y
_atom_site_fract_z
Si Si1 0.706619 0.171917 0.816276
Si Si2 0.195274 0.172020 0.503666
Si Si3 0.726410 0.324999 0.671511
Si Si4 0.489724 0.823201 0.080361
Si Si5 0.902943 0.677346 0.808350
Si Si6 0.868422 0.324642 0.068471
Si Si7 0.660181 0.676191 0.336895
Si Si8 0.826232 0.825422 0.907656
O O1 0.697384 0.271940 0.739111
O O2 0.658643 0.212857 0.859485
O O3 0.763428 0.208367 0.873375
O O4 0.703679 0.000000 0.790372
O O5 0.250000 0.250000 0.500000
O O6 0.183356 0.207674 0.588855
O O7 0.151673 0.215765 0.424692
O O8 0.207848 0.000000 0.497186
O O9 0.740381 0.500000 0.680721
O O10 0.782501 0.236475 0.677033
O O11 0.536575 0.767049 0.151597
O O12 0.431077 0.773249 0.093210
O O13 0.493237 0.000000 0.075069
O O14 0.500000 0.753421 0.000000
O O15 0.898929 0.500000 0.802613
O O16 0.889031 0.746229 0.722328
O O17 0.861176 0.733046 0.858644
O O18 0.863146 0.500000 0.046511
O O19 0.838394 0.229550 0.995612
O O20 0.658495 0.500000 0.320308
O O21 0.840000 0.000000 0.903945
#
# Coordination Sequence:
#
# PCOD8080871 Si02
#       8
#     8   8   8   8   8   8   8   8
#     4  10  21  33  47  69  98 129 159 193 237 280
#     4   8  16  28  43  65  93 126 156 186 226 275
#     4  10  18  29  47  69  95 129 162 187 224 279
#     4   9  17  32  52  70  88 117 162 205 239 274
#     4  11  20  31  50  72  93 124 162 196 235 284
#     4  10  20  36  53  67  89 126 166 201 236 279
#     4  10  18  30  46  68 100 126 153 194 236 278
#     4  11  21  32  46  69  99 126 156 195 237 281
#
# _framework density 16.480194999999998
#
# number of rings (size 3 to 8) (size 9 to 14) (size 15 to 20)
#    0.000    2.125    2.500    1.875    0.000    2.000 
#    0.000    1.875    0.000    0.000    0.000    0.875 
#    0.000    7.000    0.000    0.000    0.000    0.000 
#
# Total GULP energy -396595.980483 kJ/mol
# GULP energy per Si atom -12393.624390 kJ/mol
# Density = 1.644269 g / cm^3
# Si number density = 16.480195 Si / 1000 Ang^3
#
#
#
# Elastic Constant Matrix: (Units=GPa)
#
#
# Indices 1 2 3 4 5 6 
#
# 1 94.5237 29.1082 63.9534 0.0000 2.4126 0.0000
# 2 29.1082 57.9327 51.6073 0.0000 5.0330 0.0000
# 3 63.9534 51.6073 159.0064 0.0000 16.2611 0.0000
# 4 0.0000 0.0000 0.0000 26.0592 0.0000 -0.3634
# 5 2.4126 5.0330 16.2611 0.0000 11.1585 0.0000
# 6 0.0000 0.0000 0.0000 -0.3634 0.0000 15.3171
#
#
#
# Elastic Compliance Matrix: (Units=1/GPa)
#
#
# Indices 1 2 3 4 5 6 
#
# 1 0.015301 -0.003064 -0.005832 0.000000 0.006572 0.000000
# 2 -0.003064 0.024899 -0.006778 0.000000 -0.000690 0.000000
# 3 -0.005832 -0.006778 0.012213 0.000000 -0.013480 0.000000
# 4 0.000000 0.000000 0.000000 0.038387 0.000000 0.000911
# 5 0.006572 -0.000690 -0.013480 0.000000 0.108152 0.000000
# 6 0.000000 0.000000 0.000000 0.000911 0.000000 0.065308
#
#
# Mechanical properties :
#
#
# Convention : Reuss Voigt Hill
#
# Bulk Modulus (GPa) = 47.47205 66.75564 57.11384
# Shear Modulus (GPa) = 16.52183 21.62655 19.07419
#
# Velocity S-wave (km/s) = 3.16970 3.62646 3.40575
# Velocity P-wave (km/s) = 6.50108 7.62427 7.08497
#
# Compressibility (1/GPa) = 0.02106503
#
# Stress axis : x y z
#
# Youngs Moduli (GPa) = 65.35588 40.16215 81.87843
#
# Poissons Ratio (x) = 0.12305 0.47750
# Poissons Ratio (y) = 0.20024 0.55501
# Poissons Ratio (z) = 0.38115 0.27224
#
# Static dielectric constant tensor:
#      x y z
#    x 2.953540 0.000000 0.165350 
#    y 0.000000 3.097870 0.000000 
#    z 0.165350 0.000000 3.746670 
# 
# 
# High freq. dielectric constant tensor:
#      x y z
#    x 1.593320 0.000000 0.008100 
#    y 0.000000 1.634680 0.000000 
#    z 0.008100 0.000000 1.648750 
# 
# From -- ./inp_files/287646.got.cif
#   From: 2010.06.25/outbox.cif.g09.slc.cpg/sg12_144_cif.got.tgz:287646.got - 2010.06.28 00:19:55.
