data_PCOD8080572
_publ_section_title
;
Structure prediction by ZEFSAII (Michael W. Deem and Ramdas Pophale) SiO2 
 PCOD8080572
Probable space group: C 2/M
;
_chemical_formula_sum "Si O2"
_cell_formula_units_Z 56
_cell_length_a 25.657396
_cell_length_b 9.352214
_cell_length_c 14.091301
_cell_angle_alpha 90.000000
_cell_angle_beta 124.960326
_cell_angle_gamma 90.000000
_cell_volume 2771.105359
_symmetry_space_group_name_H-M "C 2/M"
_symmetry_group_IT_number 12
_symmetry_cell_setting 'monoclinic'
loop_
_space_group_symop_operation_xyz
x,y,z
-x,y,-z
-x,-y,-z
x,-y,z
1/2+x,1/2+y,z
1/2-x,1/2+y,-z
1/2-x,1/2-y,-z
1/2+x,1/2-y,z
loop_
_atom_site_type_symbol
_atom_site_label
_atom_site_fract_x
_atom_site_fract_y
_atom_site_fract_z
Si Si1 0.185525 0.163753 0.281811
Si Si2 0.404485 0.158728 0.277532
Si Si3 0.324318 0.166072 0.369133
Si Si4 0.118560 0.840734 0.027986
Si Si5 0.881104 0.331381 0.631638
Si Si6 0.302359 0.846127 0.010990
Si Si7 0.010546 0.831831 0.769137
O O1 0.250803 0.217840 0.298471
O O2 0.173389 0.268873 0.356831
O O3 0.195535 0.000000 0.328305
O O4 0.123145 0.168449 0.147274
O O5 0.365971 0.232147 0.325476
O O6 0.357980 0.134421 0.142848
O O7 0.458736 0.266306 0.295276
O O8 0.433152 0.000000 0.333942
O O9 0.360607 0.202480 0.503511
O O10 0.322943 0.000000 0.344633
O O11 0.172114 0.728830 0.055683
O O12 0.051300 0.804718 0.908432
O O13 0.138618 0.000000 0.015370
O O14 0.889516 0.500000 0.658559
O O15 0.945505 0.248676 0.721883
O O16 0.273826 0.000000 0.952745
O O17 0.250000 0.750000 0.000000
O O18 0.999195 0.000000 0.740359
#
# Coordination Sequence:
#
# PCOD8080572 Si02
#       7
#     8   8   8   8   8   8   8
#     4  10  20  38  61  83 108 142 183 229 277 325
#     4   9  18  35  57  80 107 143 183 224 269 323
#     4   9  19  36  59  83 109 143 183 224 273 327
#     4   9  19  35  56  79 106 140 180 224 273 326
#     4  11  23  38  56  80 110 147 187 228 270 320
#     4  10  18  28  48  77 110 144 178 218 269 324
#     4  10  21  38  57  82 113 145 181 223 273 327
#
# _framework density 20.208544
#
# number of rings (size 3 to 8) (size 9 to 14) (size 15 to 20)
#    0.000    2.286    0.000    2.571    0.000    5.143 
#    0.000    8.571    0.000    0.000    0.000    0.000 
#    0.000    0.000    0.000    0.000    0.000    0.000 
#
# Total GULP energy -346946.684686 kJ/mol
# GULP energy per Si atom -12390.953025 kJ/mol
# Density = 2.016255 g / cm^3
# Si number density = 20.208544 Si / 1000 Ang^3
#
#
#
# Elastic Constant Matrix: (Units=GPa)
#
#
# Indices 1 2 3 4 5 6 
#
# 1 69.2437 31.9239 10.1449 0.0000 -0.3150 0.0000
# 2 31.9239 101.6810 19.1213 0.0000 3.8498 0.0000
# 3 10.1449 19.1213 43.4973 0.0000 2.1716 0.0000
# 4 0.0000 0.0000 0.0000 23.1597 0.0000 -2.3748
# 5 -0.3150 3.8498 2.1716 0.0000 30.1699 0.0000
# 6 0.0000 0.0000 0.0000 -2.3748 0.0000 29.9722
#
#
#
# Elastic Compliance Matrix: (Units=1/GPa)
#
#
# Indices 1 2 3 4 5 6 
#
# 1 0.017037 -0.005046 -0.001803 0.000000 0.000952 0.000000
# 2 -0.005046 0.012248 -0.004141 0.000000 -0.001317 0.000000
# 3 -0.001803 -0.004141 0.025296 0.000000 -0.001311 0.000000
# 4 0.000000 0.000000 0.000000 0.043532 0.000000 0.003449
# 5 0.000952 -0.001317 -0.001311 0.000000 0.033418 0.000000
# 6 0.000000 0.000000 0.000000 0.003449 0.000000 0.033638
#
#
# Mechanical properties :
#
#
# Convention : Reuss Voigt Hill
#
# Bulk Modulus (GPa) = 30.67441 37.42246 34.04844
# Shear Modulus (GPa) = 25.25062 26.87583 26.06322
#
# Velocity S-wave (km/s) = 3.53866 3.65077 3.59515
# Velocity P-wave (km/s) = 5.64872 6.02737 5.84111
#
# Compressibility (1/GPa) = 0.03260046
#
# Stress axis : x y z
#
# Youngs Moduli (GPa) = 58.69742 81.64903 39.53136
#
# Poissons Ratio (x) = 0.41199 0.07127
# Poissons Ratio (y) = 0.29618 0.16371
# Poissons Ratio (z) = 0.10582 0.33814
#
# Static dielectric constant tensor:
#      x y z
#    x 3.093280 0.000000 -0.392480 
#    y 0.000000 3.956560 0.000000 
#    z -0.392480 0.000000 3.416710 
# 
# 
# High freq. dielectric constant tensor:
#      x y z
#    x 1.784180 0.000000 -0.001870 
#    y 0.000000 1.779970 0.000000 
#    z -0.001870 0.000000 1.784650 
# 
# From -- ./inp_files/238919.got.cif
#   From: 2010.06.25/outbox.cif.g09.slc.cpg/sg12_120_cif.got.tgz:238919.got - 2010.06.28 00:19:55.
