data_PCOD8080164
_publ_section_title
;
Structure prediction by ZEFSAII (Michael W. Deem and Ramdas Pophale) SiO2 
 PCOD8080164
Probable space group: C 2/M
;
_chemical_formula_sum "Si O2"
_cell_formula_units_Z 64
_cell_length_a 32.016011
_cell_length_b 9.052043
_cell_length_c 15.875712
_cell_angle_alpha 90.000000
_cell_angle_beta 70.211272
_cell_angle_gamma 90.000000
_cell_volume 4329.247187
_symmetry_space_group_name_H-M "C 2/M"
_symmetry_group_IT_number 12
_symmetry_cell_setting 'monoclinic'
loop_
_space_group_symop_operation_xyz
x,y,z
-x,y,-z
-x,-y,-z
x,-y,z
1/2+x,1/2+y,z
1/2-x,1/2+y,-z
1/2-x,1/2-y,-z
1/2+x,1/2-y,z
loop_
_atom_site_type_symbol
_atom_site_label
_atom_site_fract_x
_atom_site_fract_y
_atom_site_fract_z
Si Si1 0.511525 0.329987 0.856500
Si Si2 0.916218 0.673565 0.669973
Si Si3 0.343441 0.325977 0.831039
Si Si4 0.048177 0.833439 0.507753
Si Si5 0.989447 0.672508 0.315784
Si Si6 0.928799 0.169707 0.027081
Si Si7 0.752261 0.668322 0.084506
Si Si8 0.651643 0.827326 0.991812
O O1 0.511146 0.500000 0.826993
O O2 0.519143 0.223671 0.772975
O O3 0.551366 0.301236 0.894253
O O4 0.464984 0.289667 0.931770
O O5 0.908984 0.500000 0.665857
O O6 0.874712 0.744992 0.744312
O O7 0.918733 0.742908 0.575019
O O8 0.960209 0.711418 0.693136
O O9 0.354382 0.500000 0.824899
O O10 0.292602 0.293035 0.832613
O O11 0.351118 0.262400 0.919200
O O12 0.000000 0.832312 0.500000
O O13 0.045622 0.755481 0.600254
O O14 0.066049 0.000000 0.506563
O O15 0.980105 0.500000 0.330453
O O16 0.914386 0.000000 0.027443
O O17 0.886342 0.273549 0.045341
O O18 0.749188 0.500000 0.060744
O O19 0.750000 0.750000 0.000000
O O20 0.801169 0.701450 0.090055
O O21 0.645062 0.000000 0.016693
#
# Coordination Sequence:
#
# PCOD8080164 Si02
#       8
#     8   8   8   8   8   8   8   8
#     4   9  18  31  44  58  80 109 141 175 206 240
#     4  10  19  29  41  61  87 110 135 170 207 241
#     4  10  18  28  42  59  81 111 143 170 199 242
#     4   9  17  29  44  60  79 107 140 169 199 240
#     4  10  19  29  42  60  83 110 138 170 208 244
#     4   9  18  31  44  59  80 108 141 175 208 241
#     4   8  16  28  40  56  79 106 136 169 203 240
#     4  10  18  28  42  60  82 108 138 173 211 245
#
# _framework density 14.783170999999999
#
# number of rings (size 3 to 8) (size 9 to 14) (size 15 to 20)
#    0.000    2.625    0.000    3.375    0.000    7.000 
#    0.000    1.250    0.000    0.000    0.000    0.000 
#    0.000    1.000    0.000    3.000    0.000    4.625 
#
# Total GULP energy -396590.325129 kJ/mol
# GULP energy per Si atom -12393.447660 kJ/mol
# Density = 1.474952 g / cm^3
# Si number density = 14.783171 Si / 1000 Ang^3
#
#
#
# Elastic Constant Matrix: (Units=GPa)
#
#
# Indices 1 2 3 4 5 6 
#
# 1 87.3835 44.0286 39.2067 0.0000 -12.9510 0.0000
# 2 44.0286 82.5269 48.3246 0.0000 -10.6858 0.0000
# 3 39.2067 48.3246 93.1195 0.0000 -10.0327 0.0000
# 4 0.0000 0.0000 0.0000 27.1483 0.0000 -0.9775
# 5 -12.9510 -10.6858 -10.0327 0.0000 19.0049 0.0000
# 6 0.0000 0.0000 0.0000 -0.9775 0.0000 21.3228
#
#
#
# Elastic Compliance Matrix: (Units=1/GPa)
#
#
# Indices 1 2 3 4 5 6 
#
# 1 0.017033 -0.006418 -0.003159 0.000000 0.006331 0.000000
# 2 -0.006418 0.020348 -0.007524 0.000000 0.003096 0.000000
# 3 -0.003159 -0.007524 0.016208 0.000000 0.002173 0.000000
# 4 0.000000 0.000000 0.000000 0.036896 0.000000 0.001691
# 5 0.006331 0.003096 0.002173 0.000000 0.059820 0.000000
# 6 0.000000 0.000000 0.000000 0.001691 0.000000 0.046976
#
#
# Mechanical properties :
#
#
# Convention : Reuss Voigt Hill
#
# Bulk Modulus (GPa) = 51.58023 58.46106 55.02065
# Shear Modulus (GPa) = 21.01341 22.25985 21.63663
#
# Velocity S-wave (km/s) = 3.77429 3.88462 3.82985
# Velocity P-wave (km/s) = 7.34579 7.72993 7.54031
#
# Compressibility (1/GPa) = 0.01938727
#
# Stress axis : x y z
#
# Youngs Moduli (GPa) = 58.70927 49.14576 61.69964
#
# Poissons Ratio (x) = 0.31540 0.19491
# Poissons Ratio (y) = 0.37678 0.46422
# Poissons Ratio (z) = 0.18546 0.36977
#
# Static dielectric constant tensor:
#      x y z
#    x 3.102480 0.000000 -0.223770 
#    y 0.000000 2.964690 0.000000 
#    z -0.223770 0.000000 2.730600 
# 
# 
# High freq. dielectric constant tensor:
#      x y z
#    x 1.544630 0.000000 -0.015180 
#    y 0.000000 1.582070 0.000000 
#    z -0.015180 0.000000 1.542040 
# 
# From -- ./inp_files/248327.got.cif
#   From: 2010.06.25/outbox.cif.g09.slc.cpg/sg12_125_cif.got.tgz:248327.got - 2010.06.28 00:19:55.
