data_PCOD8080445
_publ_section_title
;
Structure prediction by ZEFSAII (Michael W. Deem and Ramdas Pophale) SiO2 
 PCOD8080445
Probable space group: C 2/M
;
_chemical_formula_sum "Si O2"
_cell_formula_units_Z 48
_cell_length_a 29.614642
_cell_length_b 8.992507
_cell_length_c 11.558881
_cell_angle_alpha 90.000000
_cell_angle_beta 99.770079
_cell_angle_gamma 90.000000
_cell_volume 3033.599310
_symmetry_space_group_name_H-M "C 2/M"
_symmetry_group_IT_number 12
_symmetry_cell_setting 'monoclinic'
loop_
_space_group_symop_operation_xyz
x,y,z
-x,y,-z
-x,-y,-z
x,-y,z
1/2+x,1/2+y,z
1/2-x,1/2+y,-z
1/2-x,1/2-y,-z
1/2+x,1/2-y,z
loop_
_atom_site_type_symbol
_atom_site_label
_atom_site_fract_x
_atom_site_fract_y
_atom_site_fract_z
Si Si1 0.133321 0.675641 0.272438
Si Si2 0.889226 0.831594 0.519374
Si Si3 0.041242 0.674267 0.601725
Si Si4 0.022070 0.170957 0.829637
Si Si5 0.928998 0.170498 0.919176
Si Si6 0.705549 0.668262 0.435789
O O1 0.136655 0.500000 0.281283
O O2 0.099036 0.739064 0.358009
O O3 0.113056 0.725973 0.140157
O O4 0.184114 0.746261 0.314555
O O5 0.912518 0.755958 0.419193
O O6 0.833655 0.830492 0.480466
O O7 0.907479 0.000000 0.541794
O O8 0.049966 0.500000 0.600592
O O9 0.030277 0.720765 0.726729
O O10 0.000000 0.723331 0.500000
O O11 0.974146 0.212801 0.867088
O O12 0.022529 0.000000 0.788258
O O13 0.062210 0.197873 0.941196
O O14 0.915568 0.000000 0.890423
O O15 0.718240 0.500000 0.405854
O O16 0.750000 0.750000 0.500000
#
# Coordination Sequence:
#
# PCOD8080445 Si02
#       6
#     8   8   8   8   8   8
#     4  10  18  28  46  70  97 124 151 192 240 283
#     4   9  19  32  47  67  93 126 160 192 233 284
#     4  11  22  32  44  67  97 128 162 199 240 284
#     4   9  19  32  48  65  89 126 166 203 238 279
#     4   9  17  32  48  66  90 123 165 203 238 281
#     4   9  18  31  49  73  98 125 156 195 241 290
#
# _framework density 15.822787
#
# number of rings (size 3 to 8) (size 9 to 14) (size 15 to 20)
#    1.000    1.500    0.000    4.500    0.000    5.333 
#    0.000    1.667    0.000    0.000    0.000    1.167 
#    0.000    0.000    0.000    0.000    0.000    0.000 
#
# Total GULP energy -297440.190802 kJ/mol
# GULP energy per Si atom -12393.341283 kJ/mol
# Density = 1.578677 g / cm^3
# Si number density = 15.822787 Si / 1000 Ang^3
#
#
#
# Elastic Constant Matrix: (Units=GPa)
#
#
# Indices 1 2 3 4 5 6 
#
# 1 54.2746 39.5742 34.3049 0.0000 12.7712 0.0000
# 2 39.5742 122.7697 49.0222 0.0000 14.0521 0.0000
# 3 34.3049 49.0222 86.9069 0.0000 13.3286 0.0000
# 4 0.0000 0.0000 0.0000 27.8839 0.0000 2.7933
# 5 12.7712 14.0521 13.3286 0.0000 26.8062 0.0000
# 6 0.0000 0.0000 0.0000 2.7933 0.0000 21.7682
#
#
#
# Elastic Compliance Matrix: (Units=1/GPa)
#
#
# Indices 1 2 3 4 5 6 
#
# 1 0.028659 -0.005598 -0.007049 0.000000 -0.007215 0.000000
# 2 -0.005598 0.011801 -0.004230 0.000000 -0.001416 0.000000
# 3 -0.007049 -0.004230 0.017126 0.000000 -0.002940 0.000000
# 4 0.000000 0.000000 0.000000 0.036330 0.000000 -0.004662
# 5 -0.007215 -0.001416 -0.002940 0.000000 0.042946 0.000000
# 6 0.000000 0.000000 0.000000 -0.004662 0.000000 0.046537
#
#
# Mechanical properties :
#
#
# Convention : Reuss Voigt Hill
#
# Bulk Modulus (GPa) = 41.95798 56.63931 49.29865
# Shear Modulus (GPa) = 22.21279 24.69499 23.45389
#
# Velocity S-wave (km/s) = 3.75086 3.95489 3.85422
# Velocity P-wave (km/s) = 6.73302 7.53184 7.14361
#
# Compressibility (1/GPa) = 0.02383337
#
# Stress axis : x y z
#
# Youngs Moduli (GPa) = 34.89266 84.74014 58.39203
#
# Poissons Ratio (x) = 0.47436 0.41158
# Poissons Ratio (y) = 0.19532 0.24698
# Poissons Ratio (z) = 0.24594 0.35843
#
# Static dielectric constant tensor:
#      x y z
#    x 2.732430 0.000000 0.105830 
#    y 0.000000 2.999450 0.000000 
#    z 0.105830 0.000000 2.876870 
# 
# 
# High freq. dielectric constant tensor:
#      x y z
#    x 1.574620 0.000000 0.014950 
#    y 0.000000 1.620390 0.000000 
#    z 0.014950 0.000000 1.590650 
# 
# From -- ./inp_files/185969.got.cif
#   From: 2010.06.25/outbox.cif.g09.slc.cpg/sg12_93_cif.got.tgz:185969.got - 2010.06.28 00:19:55.
