data_PCOD8080242
_publ_section_title
;
Structure prediction by ZEFSAII (Michael W. Deem and Ramdas Pophale) SiO2 
 PCOD8080242
Probable space group: C 2/M
;
_chemical_formula_sum "Si O2"
_cell_formula_units_Z 64
_cell_length_a 27.431240
_cell_length_b 8.885585
_cell_length_c 16.369495
_cell_angle_alpha 90.000000
_cell_angle_beta 85.687519
_cell_angle_gamma 90.000000
_cell_volume 3978.647092
_symmetry_space_group_name_H-M "C 2/M"
_symmetry_group_IT_number 12
_symmetry_cell_setting 'monoclinic'
loop_
_space_group_symop_operation_xyz
x,y,z
-x,y,-z
-x,-y,-z
x,-y,z
1/2+x,1/2+y,z
1/2-x,1/2+y,-z
1/2-x,1/2-y,-z
1/2+x,1/2-y,z
loop_
_atom_site_type_symbol
_atom_site_label
_atom_site_fract_x
_atom_site_fract_y
_atom_site_fract_z
Si Si1 0.291411 0.331337 0.599818
Si Si2 0.478972 0.834809 0.912549
Si Si3 0.417240 0.822180 0.145221
Si Si4 0.741455 0.174939 0.242170
Si Si5 0.789049 0.677867 0.935472
Si Si6 0.887989 0.177296 0.980036
Si Si7 0.680157 0.830619 0.556873
Si Si8 0.650563 0.676573 0.717985
O O1 0.311976 0.500000 0.601655
O O2 0.293535 0.260466 0.689710
O O3 0.325492 0.238091 0.533117
O O4 0.236379 0.328876 0.574970
O O5 0.524956 0.782915 0.851219
O O6 0.434652 0.716162 0.916799
O O7 0.459582 0.000000 0.887474
O O8 0.500000 0.848291 0.000000
O O9 0.391486 0.766678 0.230224
O O10 0.409778 0.000000 0.133034
O O11 0.394176 0.736922 0.070937
O O12 0.725857 0.222639 0.154061
O O13 0.797998 0.219770 0.246817
O O14 0.734189 0.000000 0.260330
O O15 0.789505 0.500000 0.948537
O O16 0.841857 0.744824 0.945276
O O17 0.750000 0.750000 0.000000
O O18 0.880149 0.000000 0.984108
O O19 0.649532 0.729577 0.624110
O O20 0.659385 0.000000 0.559467
O O21 0.639990 0.500000 0.723763
#
# Coordination Sequence:
#
# PCOD8080242 Si02
#       8
#     8   8   8   8   8   8   8   8
#     4   9  16  26  42  61  81 109 145 184 220 255
#     4   8  16  31  48  65  85 111 144 182 224 269
#     4  10  19  31  47  66  89 117 148 182 225 272
#     4   9  19  32  44  60  84 117 152 185 220 260
#     4  11  22  35  49  65  89 120 155 191 226 263
#     4  11  21  32  47  66  88 116 151 188 226 265
#     4   9  16  26  40  59  85 116 146 175 214 263
#     4  10  18  28  43  65  92 117 147 184 221 264
#
# _framework density 16.085871000000001
#
# number of rings (size 3 to 8) (size 9 to 14) (size 15 to 20)
#    0.000    2.375    0.000    4.500    0.000    8.250 
#    0.000    0.000    0.000    0.000    0.000    0.000 
#    0.000    1.000    0.000   10.500    0.000    5.500 
#
# Total GULP energy -396761.872636 kJ/mol
# GULP energy per Si atom -12398.808520 kJ/mol
# Density = 1.604926 g / cm^3
# Si number density = 16.085871 Si / 1000 Ang^3
#
#
#
# Elastic Constant Matrix: (Units=GPa)
#
#
# Indices 1 2 3 4 5 6 
#
# 1 67.5729 33.5516 47.1148 0.0000 -12.8014 0.0000
# 2 33.5516 87.0662 56.3929 0.0000 -3.3646 0.0000
# 3 47.1148 56.3929 116.5176 0.0000 -15.7658 0.0000
# 4 0.0000 0.0000 0.0000 30.7912 0.0000 -5.4334
# 5 -12.8014 -3.3646 -15.7658 0.0000 16.4810 0.0000
# 6 0.0000 0.0000 0.0000 -5.4334 0.0000 18.9562
#
#
#
# Elastic Compliance Matrix: (Units=1/GPa)
#
#
# Indices 1 2 3 4 5 6 
#
# 1 0.023308 -0.005043 -0.005368 0.000000 0.011939 0.000000
# 2 -0.005043 0.018184 -0.007799 0.000000 -0.007665 0.000000
# 3 -0.005368 -0.007799 0.015792 0.000000 0.009345 0.000000
# 4 0.000000 0.000000 0.000000 0.034207 0.000000 0.009805
# 5 0.011939 -0.007665 0.009345 0.000000 0.077324 0.000000
# 6 0.000000 0.000000 0.000000 0.009805 0.000000 0.055564
#
#
# Mechanical properties :
#
#
# Convention : Reuss Voigt Hill
#
# Bulk Modulus (GPa) = 47.93154 60.58614 54.25884
# Shear Modulus (GPa) = 18.67392 22.18550 20.42971
#
# Velocity S-wave (km/s) = 3.41088 3.71778 3.56763
# Velocity P-wave (km/s) = 6.73603 7.49501 7.12563
#
# Compressibility (1/GPa) = 0.02086309
#
# Stress axis : x y z
#
# Youngs Moduli (GPa) = 42.90404 54.99336 63.32333
#
# Poissons Ratio (x) = 0.27736 0.33994
# Poissons Ratio (y) = 0.21638 0.49384
# Poissons Ratio (z) = 0.23032 0.42887
#
# Static dielectric constant tensor:
#      x y z
#    x 3.035440 0.000000 -0.261380 
#    y 0.000000 3.193670 0.000000 
#    z -0.261380 0.000000 3.092960 
# 
# 
# High freq. dielectric constant tensor:
#      x y z
#    x 1.576910 0.000000 -0.025020 
#    y 0.000000 1.633990 0.000000 
#    z -0.025020 0.000000 1.609950 
# 
# From -- ./inp_files/244005.got.cif
#   From: 2010.06.25/outbox.cif.g09.slc.cpg/sg12_123_cif.got.tgz:244005.got - 2010.06.28 00:19:55.
