data_PCOD8080030
_publ_section_title
;
Structure prediction by ZEFSAII (Michael W. Deem and Ramdas Pophale) SiO2 
 PCOD8080030
Probable space group: C 2/M
;
_chemical_formula_sum "Si O2"
_cell_formula_units_Z 56
_cell_length_a 27.623110
_cell_length_b 9.227100
_cell_length_c 28.780158
_cell_angle_alpha 90.000000
_cell_angle_beta 151.647992
_cell_angle_gamma 90.000000
_cell_volume 3483.545341
_symmetry_space_group_name_H-M "C 2/M"
_symmetry_group_IT_number 12
_symmetry_cell_setting 'monoclinic'
loop_
_space_group_symop_operation_xyz
x,y,z
-x,y,-z
-x,-y,-z
x,-y,z
1/2+x,1/2+y,z
1/2-x,1/2+y,-z
1/2-x,1/2-y,-z
1/2+x,1/2-y,z
loop_
_atom_site_type_symbol
_atom_site_label
_atom_site_fract_x
_atom_site_fract_y
_atom_site_fract_z
Si Si1 0.093301 0.669327 0.675783
Si Si2 0.517536 0.331513 0.788543
Si Si3 0.287022 0.329856 0.576732
Si Si4 0.324425 0.833393 0.029041
Si Si5 0.620148 0.663666 0.608663
Si Si6 0.358828 0.168423 0.463086
Si Si7 0.342727 0.664323 0.181328
O O1 0.114676 0.500000 0.688360
O O2 0.147518 0.750257 0.678652
O O3 0.143729 0.724722 0.765516
O O4 0.973273 0.703924 0.576022
O O5 0.526545 0.500000 0.808562
O O6 0.401573 0.281461 0.684943
O O7 0.564904 0.241951 0.872160
O O8 0.577752 0.294860 0.792123
O O9 0.279775 0.500000 0.561214
O O10 0.250000 0.250000 0.500000
O O11 0.215956 0.281961 0.559257
O O12 0.332516 0.000000 0.051344
O O13 0.250000 0.750000 0.000000
O O14 0.274505 0.821531 0.935582
O O15 0.500000 0.666619 0.500000
O O16 0.661659 0.500000 0.647580
O O17 0.672582 0.741792 0.609131
O O18 0.346497 0.000000 0.440417
O O19 0.364072 0.500000 0.216306
#
# Coordination Sequence:
#
# PCOD8080030 Si02
#       7
#     8   8   8   8   8   8   8
#     4  10  18  27  43  66  90 116 145 180 222 265
#     4   9  18  31  45  63  90 123 155 186 220 260
#     4  10  20  32  46  66  93 124 156 188 219 255
#     4   9  17  29  45  64  87 116 149 186 226 267
#     4   9  17  29  45  63  84 113 147 182 221 264
#     4   9  18  31  44  62  90 120 150 183 217 256
#     4   9  17  28  42  63  90 116 144 181 222 262
#
# _framework density 16.075576999999999
#
# number of rings (size 3 to 8) (size 9 to 14) (size 15 to 20)
#    0.000    2.714    0.000    3.000    0.000    6.286 
#    0.000    0.000    0.000    0.000    0.000    1.000 
#    0.000    8.000    0.000    0.000    0.000    0.000 
#
# Total GULP energy -347150.615992 kJ/mol
# GULP energy per Si atom -12398.236285 kJ/mol
# Density = 1.603899 g / cm^3
# Si number density = 16.075577 Si / 1000 Ang^3
#
#
#
# Elastic Constant Matrix: (Units=GPa)
#
#
# Indices 1 2 3 4 5 6 
#
# 1 97.3243 50.6756 53.8833 -0.0005 -10.1523 -0.0001
# 2 50.6756 92.8081 57.4284 -0.0003 -12.5306 -0.0002
# 3 53.8833 57.4284 103.4931 -0.0005 -6.8266 -0.0002
# 4 -0.0005 -0.0003 -0.0005 29.9570 -0.0002 -8.6246
# 5 -10.1523 -12.5306 -6.8266 -0.0002 18.9094 0.0000
# 6 -0.0001 -0.0002 -0.0002 -8.6246 0.0000 25.6888
#
#
#
# Elastic Compliance Matrix: (Units=1/GPa)
#
#
# Indices 1 2 3 4 5 6 
#
# 1 0.016280 -0.005059 -0.005443 0.000000 0.003423 0.000000
# 2 -0.005059 0.019178 -0.007528 0.000000 0.007274 0.000000
# 3 -0.005443 -0.007528 0.016546 0.000000 -0.001937 0.000000
# 4 0.000000 0.000000 0.000000 0.036953 0.000001 0.012406
# 5 0.003423 0.007274 -0.001937 0.000001 0.058843 0.000000
# 6 0.000000 0.000000 0.000000 0.012406 0.000000 0.043093
#
#
# Mechanical properties :
#
#
# Convention : Reuss Voigt Hill
#
# Bulk Modulus (GPa) = 62.72174 68.62224 65.67199
# Shear Modulus (GPa) = 21.52713 23.68691 22.60702
#
# Velocity S-wave (km/s) = 3.66337 3.84275 3.75413
# Velocity P-wave (km/s) = 7.54952 7.90373 7.72865
#
# Compressibility (1/GPa) = 0.01594343
#
# Stress axis : x y z
#
# Youngs Moduli (GPa) = 61.42675 52.14433 60.43840
#
# Poissons Ratio (x) = 0.26379 0.32896
# Poissons Ratio (y) = 0.31075 0.45498
# Poissons Ratio (z) = 0.33434 0.39254
#
# Static dielectric constant tensor:
#      x y z
#    x 2.924250 0.000000 -0.053740 
#    y 0.000000 3.191600 0.000000 
#    z -0.053740 0.000000 3.272240 
# 
# 
# High freq. dielectric constant tensor:
#      x y z
#    x 1.590220 0.000000 -0.015660 
#    y 0.000000 1.628310 0.000000 
#    z -0.015660 0.000000 1.604940 
# 
# From -- ./inp_files/384426.got.cif
#   From: 2010.06.25/outbox.cif.g09.slc.cpg/sg12_193_cif.got.tgz:384426.got - 2010.06.28 00:19:55.
