data_PCOD8080567
_publ_section_title
;
Structure prediction by ZEFSAII (Michael W. Deem and Ramdas Pophale) SiO2 
 PCOD8080567
Probable space group: C 2/M
;
_chemical_formula_sum "Si O2"
_cell_formula_units_Z 56
_cell_length_a 18.835303
_cell_length_b 9.138206
_cell_length_c 29.882462
_cell_angle_alpha 90.000000
_cell_angle_beta 37.506742
_cell_angle_gamma 90.000000
_cell_volume 3131.581004
_symmetry_space_group_name_H-M "C 2/M"
_symmetry_group_IT_number 12
_symmetry_cell_setting 'monoclinic'
loop_
_space_group_symop_operation_xyz
x,y,z
-x,y,-z
-x,-y,-z
x,-y,z
1/2+x,1/2+y,z
1/2-x,1/2+y,-z
1/2-x,1/2-y,-z
1/2+x,1/2-y,z
loop_
_atom_site_type_symbol
_atom_site_label
_atom_site_fract_x
_atom_site_fract_y
_atom_site_fract_z
Si Si1 0.537073 0.833706 0.216857
Si Si2 0.220594 0.334463 0.058920
Si Si3 0.082220 0.673115 0.498533
Si Si4 0.678999 0.834444 0.623300
Si Si5 0.818039 0.826977 0.783840
Si Si6 0.131984 0.827853 0.928538
Si Si7 0.494918 0.171746 0.638373
O O1 0.584591 0.811562 0.142352
O O2 0.397840 0.816948 0.292491
O O3 0.598200 0.713637 0.217012
O O4 0.573170 0.000000 0.214616
O O5 0.247203 0.500000 0.033430
O O6 0.302062 0.283431 0.058953
O O7 0.250000 0.250000 0.000000
O O8 0.087987 0.500000 0.494382
O O9 0.212661 0.728549 0.426424
O O10 0.032710 0.728173 0.570666
O O11 0.000000 0.733841 0.500000
O O12 0.599300 0.791191 0.620633
O O13 0.724451 0.000000 0.595287
O O14 0.690654 0.757363 0.857362
O O15 0.876534 0.758179 0.710096
O O16 0.806559 0.000000 0.784014
O O17 0.139603 0.000000 0.914938
O O18 0.000000 0.774160 0.000000
O O19 0.467009 0.000000 0.652720
#
# Coordination Sequence:
#
# PCOD8080567 Si02
#       7
#     8   8   8   8   8   8   8
#     4   8  16  32  50  69  96 130 164 196 239 292
#     4   9  17  30  49  72  98 128 161 197 238 285
#     4  10  21  35  50  71 100 131 160 195 241 289
#     4   9  17  31  53  75  93 122 163 203 242 284
#     4  10  18  28  48  77 101 121 156 207 249 279
#     4   9  18  34  53  70  95 134 170 197 236 292
#     4   9  18  34  53  71  96 129 162 196 238 291
#
# _framework density 17.882342000000001
#
# number of rings (size 3 to 8) (size 9 to 14) (size 15 to 20)
#    0.000    2.857    0.000    3.429    0.000    5.714 
#    0.000    1.429    0.000    5.143    0.000    0.000 
#    0.000    0.000    0.000    0.000    0.000    0.000 
#
# Total GULP energy -347008.282658 kJ/mol
# GULP energy per Si atom -12393.152952 kJ/mol
# Density = 1.784164 g / cm^3
# Si number density = 17.882342 Si / 1000 Ang^3
#
#
#
# Elastic Constant Matrix: (Units=GPa)
#
#
# Indices 1 2 3 4 5 6 
#
# 1 62.5158 26.2478 64.8162 0.0007 0.4693 -0.0100
# 2 26.2478 55.3207 54.2826 0.0053 -4.6709 -0.0094
# 3 64.8162 54.2826 184.7722 0.0000 -3.0864 -0.0006
# 4 0.0007 0.0053 0.0000 34.4903 0.0005 -1.9545
# 5 0.4693 -4.6709 -3.0864 0.0005 27.3700 0.0010
# 6 -0.0100 -0.0094 -0.0006 -1.9545 0.0010 18.6444
#
#
#
# Elastic Compliance Matrix: (Units=1/GPa)
#
#
# Indices 1 2 3 4 5 6 
#
# 1 0.026127 -0.004989 -0.007736 0.000001 -0.002172 0.000011
# 2 -0.004989 0.026690 -0.006025 -0.000003 0.003961 0.000010
# 3 -0.007736 -0.006025 0.009899 0.000001 0.000221 -0.000007
# 4 0.000001 -0.000003 0.000001 0.029167 -0.000001 0.003058
# 5 -0.002172 0.003961 0.000221 -0.000001 0.037275 -0.000001
# 6 0.000011 0.000010 -0.000007 0.003058 -0.000001 0.053956
#
#
# Mechanical properties :
#
#
# Convention : Reuss Voigt Hill
#
# Bulk Modulus (GPa) = 39.65570 65.92244 52.78907
# Shear Modulus (GPa) = 21.83227 26.58508 24.20867
#
# Velocity S-wave (km/s) = 3.49791 3.85991 3.68336
# Velocity P-wave (km/s) = 6.20788 7.53723 6.90462
#
# Compressibility (1/GPa) = 0.02521706
#
# Stress axis : x y z
#
# Youngs Moduli (GPa) = 38.27386 37.46773 101.01756
#
# Poissons Ratio (x) = 0.18694 0.78145
# Poissons Ratio (y) = 0.19096 0.60858
# Poissons Ratio (z) = 0.29608 0.22572
#
# Static dielectric constant tensor:
#      x y z
#    x 2.996370 0.000000 0.012630 
#    y 0.000000 3.131510 -0.000010 
#    z 0.012630 -0.000010 3.779980 
# 
# 
# High freq. dielectric constant tensor:
#      x y z
#    x 1.643090 0.000000 -0.002170 
#    y 0.000000 1.681600 0.000000 
#    z -0.002170 0.000000 1.717680 
# 
# From -- ./inp_files/280432.got.cif
#   From: 2010.06.25/outbox.cif.g09.slc.cpg/sg12_141_cif.got.tgz:280432.got - 2010.06.28 00:19:55.
