data_PCOD8080635
_publ_section_title
;
Structure prediction by ZEFSAII (Michael W. Deem and Ramdas Pophale) SiO2 
 PCOD8080635
Probable space group: C 2/M
;
_chemical_formula_sum "Si O2"
_cell_formula_units_Z 64
_cell_length_a 24.566286
_cell_length_b 9.035335
_cell_length_c 18.991459
_cell_angle_alpha 90.000000
_cell_angle_beta 103.179091
_cell_angle_gamma 90.000000
_cell_volume 4104.406719
_symmetry_space_group_name_H-M "C 2/M"
_symmetry_group_IT_number 12
_symmetry_cell_setting 'monoclinic'
loop_
_space_group_symop_operation_xyz
x,y,z
-x,y,-z
-x,-y,-z
x,-y,z
1/2+x,1/2+y,z
1/2-x,1/2+y,-z
1/2-x,1/2-y,-z
1/2+x,1/2-y,z
loop_
_atom_site_type_symbol
_atom_site_label
_atom_site_fract_x
_atom_site_fract_y
_atom_site_fract_z
Si Si1 0.348879 0.676056 0.737233
Si Si2 0.453355 0.825628 0.697644
Si Si3 0.329247 0.171623 0.486403
Si Si4 0.768114 0.328661 0.613991
Si Si5 0.439247 0.334229 0.016875
Si Si6 0.015178 0.663699 0.848596
Si Si7 0.106881 0.333538 0.120166
Si Si8 0.454435 0.175244 0.539746
O O1 0.348854 0.500000 0.739387
O O2 0.399935 0.732323 0.704919
O O3 0.291630 0.736040 0.686634
O O4 0.352776 0.737691 0.817957
O O5 0.506348 0.789877 0.764197
O O6 0.470194 0.777766 0.623931
O O7 0.437354 0.000000 0.697880
O O8 0.293523 0.268611 0.421631
O O9 0.308758 0.196323 0.559842
O O10 0.392696 0.230892 0.500662
O O11 0.323813 0.000000 0.463604
O O12 0.764165 0.500000 0.633758
O O13 0.416076 0.500000 0.013948
O O14 0.395740 0.238520 0.958256
O O15 0.500000 0.328891 0.000000
O O16 0.443129 0.272677 0.097862
O O17 0.041275 0.500000 0.861624
O O18 0.954412 0.665278 0.865272
O O19 0.130400 0.500000 0.120471
O O20 0.500000 0.245546 0.500000
O O21 0.455101 0.000000 0.534147
#
# Coordination Sequence:
#
# PCOD8080635 Si02
#       8
#     8   8   8   8   8   8   8   8
#     4  11  19  26  39  59  81 106 137 172 210 245
#     4   9  16  28  41  57  79 105 139 174 208 251
#     4   9  17  29  44  63  83 104 137 175 211 253
#     4  10  18  29  44  60  82 109 137 173 213 251
#     4   9  15  22  32  48  71  97 131 168 200 236
#     4   8  14  22  34  48  68  99 133 167 201 237
#     4   9  16  25  36  50  73 103 134 164 200 243
#     4   9  16  28  47  66  84 108 139 177 217 254
#
# _framework density 15.592995999999999
#
# number of rings (size 3 to 8) (size 9 to 14) (size 15 to 20)
#    0.000    2.750    1.250    3.000    0.000    5.000 
#    0.000    0.000    0.000    1.500    0.000    0.000 
#    0.000    0.000    0.000    1.125    0.000   11.375 
#
# Total GULP energy -396675.335679 kJ/mol
# GULP energy per Si atom -12396.104240 kJ/mol
# Density = 1.555751 g / cm^3
# Si number density = 15.592996 Si / 1000 Ang^3
#
#
#
# Elastic Constant Matrix: (Units=GPa)
#
#
# Indices 1 2 3 4 5 6 
#
# 1 50.0756 18.6057 38.5213 0.0000 5.2860 0.0000
# 2 18.6057 102.5481 68.3245 0.0000 8.1496 0.0000
# 3 38.5213 68.3245 149.5472 0.0000 11.8894 0.0000
# 4 0.0000 0.0000 0.0000 27.4400 0.0000 6.5255
# 5 5.2860 8.1496 11.8894 0.0000 10.8490 0.0000
# 6 0.0000 0.0000 0.0000 6.5255 0.0000 9.3055
#
#
#
# Elastic Compliance Matrix: (Units=1/GPa)
#
#
# Indices 1 2 3 4 5 6 
#
# 1 0.025220 -0.000142 -0.005985 0.000000 -0.005623 0.000000
# 2 -0.000142 0.014168 -0.006130 0.000000 -0.003856 0.000000
# 3 -0.005985 -0.006130 0.011427 0.000000 -0.005002 0.000000
# 4 0.000000 0.000000 0.000000 0.043737 0.000000 -0.030671
# 5 -0.005623 -0.003856 -0.005002 0.000000 0.103292 0.000000
# 6 0.000000 0.000000 0.000000 -0.030671 0.000000 0.128971
#
#
# Mechanical properties :
#
#
# Convention : Reuss Voigt Hill
#
# Bulk Modulus (GPa) = 38.01968 61.45265 49.73616
# Shear Modulus (GPa) = 13.88528 21.30021 17.59275
#
# Velocity S-wave (km/s) = 2.98733 3.69997 3.36258
# Velocity P-wave (km/s) = 6.02780 7.59928 6.85869
#
# Compressibility (1/GPa) = 0.02630217
#
# Stress axis : x y z
#
# Youngs Moduli (GPa) = 39.65167 70.58265 87.51484
#
# Poissons Ratio (x) = 0.00999 0.52373
# Poissons Ratio (y) = 0.00561 0.53646
# Poissons Ratio (z) = 0.23730 0.43266
#
# Static dielectric constant tensor:
#      x y z
#    x 2.495760 0.000000 0.057580 
#    y 0.000000 2.975650 0.000000 
#    z 0.057580 0.000000 3.308650 
# 
# 
# High freq. dielectric constant tensor:
#      x y z
#    x 1.515560 0.000000 0.014950 
#    y 0.000000 1.596610 0.000000 
#    z 0.014950 0.000000 1.616270 
# 
# From -- ./inp_files/323769.got.cif
#   From: 2010.06.25/outbox.cif.g09.slc.cpg/sg12_162_cif.got.tgz:323769.got - 2010.06.28 00:19:55.
