data_PCOD8080942
_publ_section_title
;
Structure prediction by ZEFSAII (Michael W. Deem and Ramdas Pophale) SiO2 
 PCOD8080942
Probable space group: C 2/M
;
_chemical_formula_sum "Si O2"
_cell_formula_units_Z 64
_cell_length_a 20.480870
_cell_length_b 9.038144
_cell_length_c 24.070148
_cell_angle_alpha 90.000000
_cell_angle_beta 53.443188
_cell_angle_gamma 90.000000
_cell_volume 3579.036789
_symmetry_space_group_name_H-M "C 2/M"
_symmetry_group_IT_number 12
_symmetry_cell_setting 'monoclinic'
loop_
_space_group_symop_operation_xyz
x,y,z
-x,y,-z
-x,-y,-z
x,-y,z
1/2+x,1/2+y,z
1/2-x,1/2+y,-z
1/2-x,1/2-y,-z
1/2+x,1/2-y,z
loop_
_atom_site_type_symbol
_atom_site_label
_atom_site_fract_x
_atom_site_fract_y
_atom_site_fract_z
Si Si1 0.146085 0.673863 0.291832
Si Si2 0.680565 0.328486 0.500008
Si Si3 0.199561 0.174188 0.157435
Si Si4 0.188667 0.330153 0.991827
Si Si5 0.572502 0.173307 0.140450
Si Si6 0.908774 0.674596 0.274639
Si Si7 0.540696 0.174545 0.629989
Si Si8 0.229503 0.171473 0.349061
O O1 0.159128 0.500000 0.281750
O O2 0.200572 0.748642 0.216489
O O3 0.173957 0.732185 0.337129
O O4 0.052646 0.718294 0.331041
O O5 0.680627 0.500000 0.516106
O O6 0.750000 0.250000 0.500000
O O7 0.593150 0.257547 0.556941
O O8 0.696505 0.305029 0.427304
O O9 0.288476 0.210341 0.083622
O O10 0.127438 0.236398 0.155636
O O11 0.186451 0.000000 0.172035
O O12 0.208306 0.500000 0.990331
O O13 0.250000 0.250000 0.000000
O O14 0.098264 0.295467 0.062431
O O15 0.478739 0.222161 0.195339
O O16 0.582191 0.000000 0.150864
O O17 0.901737 0.500000 0.283315
O O18 0.931385 0.735208 0.324097
O O19 0.821756 0.735045 0.298616
O O20 0.554574 0.000000 0.616785
O O21 0.225463 0.000000 0.333263
#
# Coordination Sequence:
#
# PCOD8080942 Si02
#       8
#     8   8   8   8   8   8   8   8
#     4  11  23  38  56  78 106 142 181 221 264 317
#     4  11  22  37  59  84 111 142 175 217 266 316
#     4  10  18  29  47  75 110 142 173 216 268 315
#     4   8  15  25  42  72 106 137 172 215 260 310
#     4   9  15  28  51  77 105 139 179 218 261 312
#     4   9  16  32  56  78 104 138 175 218 263 308
#     4  10  20  37  58  80 106 138 180 222 263 311
#     4  10  22  39  56  77 107 139 172 216 268 317
#
# _framework density 17.881906000000001
#
# number of rings (size 3 to 8) (size 9 to 14) (size 15 to 20)
#    0.000    2.250    2.500    1.125    0.000    3.000 
#    0.000    3.125    0.000    0.750    0.000    5.250 
#    0.000    0.000    0.000    0.000    0.000    0.000 
#
# Total GULP energy -396578.640207 kJ/mol
# GULP energy per Si atom -12393.082506 kJ/mol
# Density = 1.784121 g / cm^3
# Si number density = 17.881906 Si / 1000 Ang^3
#
#
#
# Elastic Constant Matrix: (Units=GPa)
#
#
# Indices 1 2 3 4 5 6 
#
# 1 77.2208 33.3571 45.6297 0.0002 -0.9712 0.0009
# 2 33.3571 59.4157 49.4362 0.0003 -0.7355 0.0022
# 3 45.6297 49.4362 134.8088 -0.0001 -19.3310 0.0000
# 4 0.0002 0.0003 -0.0001 28.1196 0.0000 1.1526
# 5 -0.9712 -0.7355 -19.3310 0.0000 25.8504 0.0000
# 6 0.0009 0.0022 0.0000 1.1526 0.0000 24.3873
#
#
#
# Elastic Compliance Matrix: (Units=1/GPa)
#
#
# Indices 1 2 3 4 5 6 
#
# 1 0.018291 -0.006981 -0.003989 0.000000 -0.002494 0.000000
# 2 -0.006981 0.027957 -0.008751 0.000000 -0.006011 -0.000002
# 3 -0.003989 -0.008751 0.013352 0.000000 0.009586 0.000001
# 4 0.000000 0.000000 0.000000 0.035631 0.000000 -0.001684
# 5 -0.002494 -0.006011 0.009586 0.000000 0.045587 0.000001
# 6 0.000000 -0.000002 0.000001 -0.001684 0.000001 0.041085
#
#
# Mechanical properties :
#
#
# Convention : Reuss Voigt Hill
#
# Bulk Modulus (GPa) = 49.60888 58.69904 54.15396
# Shear Modulus (GPa) = 21.92368 25.20627 23.56498
#
# Velocity S-wave (km/s) = 3.50526 3.75853 3.63411
# Velocity P-wave (km/s) = 6.64720 7.19254 6.92524
#
# Compressibility (1/GPa) = 0.02015768
#
# Stress axis : x y z
#
# Youngs Moduli (GPa) = 54.67165 35.76960 74.89685
#
# Poissons Ratio (x) = 0.24971 0.29874
# Poissons Ratio (y) = 0.38166 0.65543
# Poissons Ratio (z) = 0.21807 0.31302
#
# Static dielectric constant tensor:
#      x y z
#    x 3.132530 0.000000 -0.281830 
#    y 0.000000 3.225530 0.000000 
#    z -0.281830 0.000000 3.916450 
# 
# 
# High freq. dielectric constant tensor:
#      x y z
#    x 1.657840 0.000000 -0.017160 
#    y 0.000000 1.684110 0.000000 
#    z -0.017160 0.000000 1.713910 
# 
# From -- ./inp_files/319951.got.cif
#   From: 2010.06.25/outbox.cif.g09.slc.cpg/sg12_160_cif.got.tgz:319951.got - 2010.06.28 00:19:55.
