data_PCOD8080187
_publ_section_title
;
Structure prediction by ZEFSAII (Michael W. Deem and Ramdas Pophale) SiO2 
 PCOD8080187
Probable space group: C 2/M
;
_chemical_formula_sum "Si O2"
_cell_formula_units_Z 56
_cell_length_a 29.102756
_cell_length_b 8.890801
_cell_length_c 29.019105
_cell_angle_alpha 90.000000
_cell_angle_beta 27.671415
_cell_angle_gamma 90.000000
_cell_volume 3486.996237
_symmetry_space_group_name_H-M "C 2/M"
_symmetry_group_IT_number 12
_symmetry_cell_setting 'monoclinic'
loop_
_space_group_symop_operation_xyz
x,y,z
-x,y,-z
-x,-y,-z
x,-y,z
1/2+x,1/2+y,z
1/2-x,1/2+y,-z
1/2-x,1/2-y,-z
1/2+x,1/2-y,z
loop_
_atom_site_type_symbol
_atom_site_label
_atom_site_fract_x
_atom_site_fract_y
_atom_site_fract_z
Si Si1 0.831528 0.175075 0.364861
Si Si2 0.145875 0.323577 0.411894
Si Si3 0.309409 0.326399 0.719592
Si Si4 0.093780 0.677722 0.890533
Si Si5 0.869939 0.826176 0.431858
Si Si6 0.506642 0.328174 0.391016
Si Si7 0.155370 0.677481 0.736839
O O1 0.888622 0.215404 0.361668
O O2 0.717922 0.227595 0.469125
O O3 0.888899 0.255230 0.271371
O O4 0.831752 0.000000 0.354254
O O5 0.166386 0.500000 0.396523
O O6 0.137923 0.272998 0.366101
O O7 0.044833 0.283272 0.527374
O O8 0.232383 0.233336 0.360478
O O9 0.309545 0.500000 0.703011
O O10 0.194968 0.274957 0.827398
O O11 0.374114 0.305203 0.708988
O O12 0.081608 0.500000 0.901618
O O13 0.097041 0.734238 0.834385
O O14 0.000000 0.752356 0.000000
O O15 0.971076 0.792915 0.370370
O O16 0.837435 0.000000 0.464604
O O17 0.478804 0.500000 0.428443
O O18 0.152819 0.500000 0.736044
#
# Coordination Sequence:
#
# PCOD8080187 Si02
#       7
#     8   8   8   8   8   8   8
#     4  10  18  28  42  63  87 115 151 184 215 253
#     4  11  20  28  40  61  88 118 149 178 209 250
#     4   9  18  30  45  63  84 113 145 177 217 262
#     4   8  15  29  48  68  86 105 138 185 227 262
#     4   9  18  29  42  59  86 121 152 182 212 248
#     4  10  18  29  43  60  85 118 150 176 209 254
#     4  10  18  29  46  65  87 116 146 180 223 263
#
# _framework density 16.059667000000001
#
# number of rings (size 3 to 8) (size 9 to 14) (size 15 to 20)
#    0.000    2.429    1.429    3.429    0.000    2.857 
#    0.000    0.000    0.000   10.714    0.000    1.000 
#    0.000    0.000    0.000    0.000    0.000    0.000 
#
# Total GULP energy -346988.287750 kJ/mol
# GULP energy per Si atom -12392.438848 kJ/mol
# Density = 1.602311 g / cm^3
# Si number density = 16.059667 Si / 1000 Ang^3
#
#
#
# Elastic Constant Matrix: (Units=GPa)
#
#
# Indices 1 2 3 4 5 6 
#
# 1 138.8856 31.1829 64.5531 -0.0099 1.8843 0.0061
# 2 31.1829 50.2256 23.5035 -0.0080 5.8562 0.0138
# 3 64.5531 23.5035 91.8221 0.0111 4.2955 0.0040
# 4 -0.0099 -0.0080 0.0111 7.8735 -0.0005 4.9220
# 5 1.8843 5.8562 4.2955 -0.0005 15.8022 -0.0048
# 6 0.0061 0.0138 0.0040 4.9220 -0.0048 20.5879
#
#
#
# Elastic Compliance Matrix: (Units=1/GPa)
#
#
# Indices 1 2 3 4 5 6 
#
# 1 0.011344 -0.003981 -0.007051 0.000023 0.002039 -0.000004
# 2 -0.003981 0.024784 -0.003178 0.000041 -0.007846 -0.000026
# 3 -0.007051 -0.003178 0.016780 -0.000042 -0.002543 0.000011
# 4 0.000023 0.000041 -0.000042 0.149326 -0.000013 -0.035700
# 5 0.002039 -0.007846 -0.002543 -0.000013 0.066638 0.000024
# 6 -0.000004 -0.000026 0.000011 -0.035700 0.000024 0.057107
#
#
# Mechanical properties :
#
#
# Convention : Reuss Voigt Hill
#
# Bulk Modulus (GPa) = 40.83775 57.71249 49.27512
# Shear Modulus (GPa) = 13.79072 19.63231 16.71151
#
# Velocity S-wave (km/s) = 2.93357 3.50016 3.22932
# Velocity P-wave (km/s) = 6.07934 7.23527 6.68235
#
# Compressibility (1/GPa) = 0.02448715
#
# Stress axis : x y z
#
# Youngs Moduli (GPa) = 88.15462 40.34887 59.59358
#
# Poissons Ratio (x) = 0.16062 0.42021
# Poissons Ratio (y) = 0.35093 0.18940
# Poissons Ratio (z) = 0.62161 0.12824
#
# Static dielectric constant tensor:
#      x y z
#    x 3.376380 -0.000010 0.082460 
#    y -0.000010 2.965860 0.000030 
#    z 0.082460 0.000030 2.900100 
# 
# 
# High freq. dielectric constant tensor:
#      x y z
#    x 1.625380 0.000000 0.004400 
#    y 0.000000 1.609750 0.000000 
#    z 0.004400 0.000000 1.564440 
# 
# From -- ./inp_files/247725.got.cif
#   From: 2010.06.25/outbox.cif.g09.slc.cpg/sg12_124_cif.got.tgz:247725.got - 2010.06.28 00:19:55.
