data_PCOD8080136
_publ_section_title
;
Structure prediction by ZEFSAII (Michael W. Deem and Ramdas Pophale) SiO2 
 PCOD8080136
Probable space group: C 2/M
;
_chemical_formula_sum "Si O2"
_cell_formula_units_Z 40
_cell_length_a 9.243056
_cell_length_b 21.808130
_cell_length_c 17.934665
_cell_angle_alpha 90.000000
_cell_angle_beta 141.759816
_cell_angle_gamma 90.000000
_cell_volume 2237.636010
_symmetry_space_group_name_H-M "C 2/M"
_symmetry_group_IT_number 12
_symmetry_cell_setting 'monoclinic'
loop_
_space_group_symop_operation_xyz
x,y,z
-x,y,-z
-x,-y,-z
x,-y,z
1/2+x,1/2+y,z
1/2-x,1/2+y,-z
1/2-x,1/2-y,-z
1/2+x,1/2-y,z
loop_
_atom_site_type_symbol
_atom_site_label
_atom_site_fract_x
_atom_site_fract_y
_atom_site_fract_z
Si Si1 0.691798 0.395443 0.638546
Si Si2 0.000000 0.749232 0.000000
Si Si3 0.443574 0.177869 0.130728
Si Si4 0.567518 0.500000 0.384261
Si Si5 0.661831 0.067489 0.001166
Si Si6 0.076006 0.000000 0.218135
Si Si7 0.442360 0.000000 0.658018
O O1 0.500000 0.373288 0.500000
O O2 0.821638 0.335269 0.725309
O O3 0.574941 0.437640 0.655333
O O4 0.883703 0.438057 0.677568
O O5 0.757495 0.787556 0.904038
O O6 0.985701 0.711354 0.917426
O O7 0.336071 0.111318 0.068752
O O8 0.651205 0.500000 0.333661
O O9 0.805329 0.500000 0.525537
O O10 0.923911 0.060971 0.139240
O O11 0.560826 0.000000 0.936965
O O12 0.500000 0.096491 0.000000
O O13 0.285766 0.000000 0.246225
#
# Coordination Sequence:
#
# PCOD8080136 Si02
#       7
#     8   4   8   4   8   4   4
#     4   9  20  36  58  78 110 153 180 221 276 339
#     4  10  26  38  58  82 102 160 174 244 276 312
#     4  11  21  41  57  78 116 137 198 223 282 328
#     4   9  17  32  52  81 117 153 176 212 279 349
#     4   9  19  30  52  86 108 141 175 218 285 336
#     4  10  18  27  50  86 113 145 180 218 281 315
#     4   9  19  31  48  87 118 143 180 219 285 328
#
# _framework density 17.876007999999999
#
# number of rings (size 3 to 8) (size 9 to 14) (size 15 to 20)
#    0.600    1.800    1.000    2.700    5.600    0.000 
#    0.000    2.500    0.000    0.000    0.000    0.000 
#    0.000    0.000    0.000    0.000    0.000    0.000 
#
# Total GULP energy -247809.986776 kJ/mol
# GULP energy per Si atom -12390.499339 kJ/mol
# Density = 1.783532 g / cm^3
# Si number density = 17.876008 Si / 1000 Ang^3
#
#
#
# Elastic Constant Matrix: (Units=GPa)
#
#
# Indices 1 2 3 4 5 6 
#
# 1 98.4503 29.9748 43.9142 0.0028 10.9771 0.0039
# 2 29.9748 70.3080 44.2870 0.0014 -1.6665 0.0023
# 3 43.9142 44.2870 104.0141 0.0021 2.4267 0.0033
# 4 0.0028 0.0014 0.0021 6.7937 -0.0009 -33.8138
# 5 10.9771 -1.6665 2.4267 -0.0009 30.4569 -0.0006
# 6 0.0039 0.0023 0.0033 -33.8138 -0.0006 -41.4206
#
#
#
# Elastic Compliance Matrix: (Units=1/GPa)
#
#
# Indices 1 2 3 4 5 6 
#
# 1 0.013557 -0.003219 -0.004243 0.000000 -0.004724 0.000001
# 2 -0.003219 0.020291 -0.007347 0.000000 0.002856 0.000000
# 3 -0.004243 -0.007347 0.014534 0.000000 -0.000031 0.000000
# 4 0.000000 0.000000 0.000000 0.029072 0.000000 -0.023733
# 5 -0.004724 0.002856 -0.000031 0.000000 0.034695 -0.000001
# 6 0.000001 0.000000 0.000000 -0.023733 -0.000001 -0.004768
#
#
# Mechanical properties :
#
#
# Convention : Reuss Voigt Hill
#
# Bulk Modulus (GPa) = 53.29278 56.56940 54.93109
# Shear Modulus (GPa) = 34.90327 9.47244 22.18786
#
# Velocity S-wave (km/s) = 4.42353 2.30445 3.52690
# Velocity P-wave (km/s) = 7.48113 6.22854 6.88339
#
# Compressibility (1/GPa) = 0.01876427
#
# Stress axis : x y z
#
# Youngs Moduli (GPa) = 73.76389 49.28243 68.80288
#
# Poissons Ratio (x) = 0.15865 0.29191
# Poissons Ratio (y) = 0.23746 0.50550
# Poissons Ratio (z) = 0.31296 0.36208
#
# Static dielectric constant tensor:
#      x y z
#    x 3.208610 0.000000 -0.003230 
#    y 0.000000 3.147700 0.000000 
#    z -0.003230 0.000000 3.270990 
# 
# 
# High freq. dielectric constant tensor:
#      x y z
#    x 1.690990 0.000000 -0.002300 
#    y 0.000000 1.665710 0.000000 
#    z -0.002300 0.000000 1.692530 
# 
# From -- ./inp_files/259076.got.cif
#   From: 2010.06.25/outbox.cif.g09.slc.cpg/sg12_130_cif.got.tgz:259076.got - 2010.06.28 00:19:55.
