data_PCOD8080326
_publ_section_title
;
Structure prediction by ZEFSAII (Michael W. Deem and Ramdas Pophale) SiO2 
 PCOD8080326
Probable space group: C 2/M
;
_chemical_formula_sum "Si O2"
_cell_formula_units_Z 56
_cell_length_a 19.294412
_cell_length_b 9.391159
_cell_length_c 22.056705
_cell_angle_alpha 90.000000
_cell_angle_beta 126.239848
_cell_angle_gamma 90.000000
_cell_volume 3223.460323
_symmetry_space_group_name_H-M "C 2/M"
_symmetry_group_IT_number 12
_symmetry_cell_setting 'monoclinic'
loop_
_space_group_symop_operation_xyz
x,y,z
-x,y,-z
-x,-y,-z
x,-y,z
1/2+x,1/2+y,z
1/2-x,1/2+y,-z
1/2-x,1/2-y,-z
1/2+x,1/2-y,z
loop_
_atom_site_type_symbol
_atom_site_label
_atom_site_fract_x
_atom_site_fract_y
_atom_site_fract_z
Si Si1 0.198592 0.833470 0.923104
Si Si2 0.343545 0.168005 0.761272
Si Si3 0.526243 0.665891 0.678769
Si Si4 0.715800 0.668880 0.797428
Si Si5 0.751152 0.663271 0.591132
Si Si6 0.497636 0.662710 0.193953
Si Si7 0.620445 0.164306 0.452532
O O1 0.229444 0.776119 0.873116
O O2 0.097655 0.802179 0.878851
O O3 0.218080 0.000000 0.940065
O O4 0.250000 0.750000 0.000000
O O5 0.293165 0.221911 0.794948
O O6 0.287886 0.214011 0.674420
O O7 0.436514 0.240030 0.809129
O O8 0.358045 0.000000 0.769499
O O9 0.516335 0.500000 0.656712
O O10 0.624364 0.720154 0.723208
O O11 0.494511 0.693758 0.730690
O O12 0.470673 0.758810 0.603505
O O13 0.710380 0.500000 0.797161
O O14 0.719857 0.500000 0.576973
O O15 0.669902 0.762027 0.533857
O O16 0.825575 0.684028 0.580622
O O17 0.521155 0.500000 0.192576
O O18 0.605044 0.000000 0.460665
#
# Coordination Sequence:
#
# PCOD8080326 Si02
#       7
#     8   8   8   8   8   8   8
#     4   9  18  35  56  78 101 128 161 195 234 284
#     4  10  18  32  52  74  98 125 164 207 241 282
#     4   9  16  30  50  69  92 127 166 202 242 288
#     4   8  17  33  53  74  98 128 161 199 242 287
#     4   9  18  29  43  67  96 126 161 203 247 288
#     4   9  18  31  50  74 100 128 159 196 241 290
#     4  10  18  28  44  69  96 124 164 210 247 281
#
# _framework density 17.372634999999999
#
# number of rings (size 3 to 8) (size 9 to 14) (size 15 to 20)
#    0.000    2.857    1.429    2.143    0.000    1.714 
#    0.000    5.000    0.000    8.571    0.000    0.000 
#    0.000    0.000    0.000    0.000    0.000    0.000 
#
# Total GULP energy -347167.190593 kJ/mol
# GULP energy per Si atom -12398.828235 kJ/mol
# Density = 1.733309 g / cm^3
# Si number density = 17.372635 Si / 1000 Ang^3
#
#
#
# Elastic Constant Matrix: (Units=GPa)
#
#
# Indices 1 2 3 4 5 6 
#
# 1 109.3650 40.9184 50.7456 0.0000 3.8420 0.0000
# 2 40.9184 65.8602 52.0047 0.0000 10.0853 0.0000
# 3 50.7456 52.0047 114.6721 0.0000 8.3708 0.0000
# 4 0.0000 0.0000 0.0000 32.6682 0.0000 6.4539
# 5 3.8420 10.0853 8.3708 0.0000 19.0418 0.0000
# 6 0.0000 0.0000 0.0000 6.4539 0.0000 22.7909
#
#
#
# Elastic Compliance Matrix: (Units=1/GPa)
#
#
# Indices 1 2 3 4 5 6 
#
# 1 0.012665 -0.005636 -0.003182 0.000000 0.001828 0.000000
# 2 -0.005636 0.027427 -0.009264 0.000000 -0.009317 0.000000
# 3 -0.003182 -0.009264 0.014387 0.000000 -0.000776 0.000000
# 4 0.000000 0.000000 0.000000 0.032425 0.000000 -0.009182
# 5 0.001828 -0.009317 -0.000776 0.000000 0.057422 0.000000
# 6 0.000000 0.000000 0.000000 -0.009182 0.000000 0.046477
#
#
# Mechanical properties :
#
#
# Convention : Reuss Voigt Hill
#
# Bulk Modulus (GPa) = 54.60261 64.13721 59.36991
# Shear Modulus (GPa) = 21.45260 24.64876 23.05068
#
# Velocity S-wave (km/s) = 3.51786 3.77082 3.64653
# Velocity P-wave (km/s) = 6.92812 7.48047 7.20959
#
# Compressibility (1/GPa) = 0.01831414
#
# Stress axis : x y z
#
# Youngs Moduli (GPa) = 78.96075 36.46016 69.50856
#
# Poissons Ratio (x) = 0.20548 0.22118
# Poissons Ratio (y) = 0.44501 0.64395
# Poissons Ratio (z) = 0.25125 0.33778
#
# Static dielectric constant tensor:
#      x y z
#    x 3.227830 0.000000 0.008040 
#    y 0.000000 3.057920 0.000000 
#    z 0.008040 0.000000 3.143120 
# 
# 
# High freq. dielectric constant tensor:
#      x y z
#    x 1.657480 0.000000 0.009420 
#    y 0.000000 1.654940 0.000000 
#    z 0.009420 0.000000 1.665030 
# 
# From -- ./inp_files/314446.got.cif
#   From: 2010.06.25/outbox.cif.g09.slc.cpg/sg12_158_cif.got.tgz:314446.got - 2010.06.28 00:19:55.
