data_PCOD8080512
_publ_section_title
;
Structure prediction by ZEFSAII (Michael W. Deem and Ramdas Pophale) SiO2 
 PCOD8080512
Probable space group: C 2/M
;
_chemical_formula_sum "Si O2"
_cell_formula_units_Z 56
_cell_length_a 18.168493
_cell_length_b 8.995637
_cell_length_c 28.908351
_cell_angle_alpha 90.000000
_cell_angle_beta 141.008136
_cell_angle_gamma 90.000000
_cell_volume 2972.828009
_symmetry_space_group_name_H-M "C 2/M"
_symmetry_group_IT_number 12
_symmetry_cell_setting 'monoclinic'
loop_
_space_group_symop_operation_xyz
x,y,z
-x,y,-z
-x,-y,-z
x,-y,z
1/2+x,1/2+y,z
1/2-x,1/2+y,-z
1/2-x,1/2-y,-z
1/2+x,1/2-y,z
loop_
_atom_site_type_symbol
_atom_site_label
_atom_site_fract_x
_atom_site_fract_y
_atom_site_fract_z
Si Si1 0.421263 0.164381 0.506976
Si Si2 0.375351 0.323614 0.064898
Si Si3 0.802460 0.176126 0.207991
Si Si4 0.538510 0.827940 0.071247
Si Si5 0.032278 0.176445 0.791164
Si Si6 0.110657 0.174950 0.650202
Si Si7 0.770280 0.823764 0.652910
O O1 0.500000 0.159364 0.500000
O O2 0.478858 0.274183 0.572556
O O3 0.293287 0.219111 0.426865
O O4 0.413308 0.000000 0.525297
O O5 0.361360 0.500000 0.056563
O O6 0.455296 0.271045 0.062002
O O7 0.433494 0.269030 0.141117
O O8 0.250000 0.250000 0.000000
O O9 0.669818 0.234947 0.141122
O O10 0.876432 0.243671 0.201394
O O11 0.864089 0.227005 0.285349
O O12 0.799879 0.000000 0.202426
O O13 0.528749 0.000000 0.081764
O O14 0.500000 0.807402 0.000000
O O15 0.902794 0.234615 0.715374
O O16 0.034233 0.000000 0.789513
O O17 0.208275 0.247784 0.665907
O O18 0.118898 0.000000 0.648407
O O19 0.762044 0.000000 0.656845
#
# Coordination Sequence:
#
# PCOD8080512 Si02
#       7
#     8   8   8   8   8   8   8
#     4   8  15  28  46  69  96 127 164 204 246 294
#     4  11  22  36  57  82 107 136 171 212 255 302
#     4   9  18  32  50  74 102 132 168 207 250 301
#     4  10  20  36  58  80 105 138 172 209 255 305
#     4   9  18  34  54  74  98 133 174 208 245 299
#     4  10  18  28  47  73 100 129 161 204 253 300
#     4   9  17  31  52  73  94 126 168 210 247 291
#
# _framework density 18.837281999999998
#
# number of rings (size 3 to 8) (size 9 to 14) (size 15 to 20)
#    0.000    2.571    0.000    3.429    0.000    5.143 
#    0.000    2.143    0.000    6.000    0.000    0.000 
#    0.000    0.000    0.000    0.000    0.000    0.000 
#
# Total GULP energy -347141.650856 kJ/mol
# GULP energy per Si atom -12397.916102 kJ/mol
# Density = 1.879441 g / cm^3
# Si number density = 18.837282 Si / 1000 Ang^3
#
#
#
# Elastic Constant Matrix: (Units=GPa)
#
#
# Indices 1 2 3 4 5 6 
#
# 1 116.6607 35.0104 71.1790 0.0000 8.8872 0.0000
# 2 35.0104 48.6347 42.0279 0.0000 -0.6756 -0.0001
# 3 71.1790 42.0279 171.5557 0.0000 16.4685 0.0000
# 4 0.0000 0.0000 0.0000 22.2552 0.0000 4.8236
# 5 8.8872 -0.6756 16.4685 0.0000 31.7714 0.0000
# 6 0.0000 -0.0001 0.0000 4.8236 0.0000 14.2094
#
#
#
# Elastic Compliance Matrix: (Units=1/GPa)
#
#
# Indices 1 2 3 4 5 6 
#
# 1 0.012743 -0.006064 -0.003628 0.000000 -0.001813 0.000000
# 2 -0.006064 0.029478 -0.005187 0.000000 0.005012 0.000000
# 3 -0.003628 -0.005187 0.008964 0.000000 -0.003742 0.000000
# 4 0.000000 0.000000 0.000000 0.048502 0.000000 -0.016465
# 5 -0.001813 0.005012 -0.003742 0.000000 0.034028 0.000000
# 6 0.000000 0.000000 0.000000 -0.016465 0.000000 0.075966
#
#
# Mechanical properties :
#
#
# Convention : Reuss Voigt Hill
#
# Bulk Modulus (GPa) = 46.66546 70.36508 58.51527
# Shear Modulus (GPa) = 20.27734 26.22277 23.25006
#
# Velocity S-wave (km/s) = 3.28449 3.73509 3.51701
# Velocity P-wave (km/s) = 6.26183 7.48575 6.90098
#
# Compressibility (1/GPa) = 0.02142913
#
# Stress axis : x y z
#
# Youngs Moduli (GPa) = 78.47418 33.92318 111.55715
#
# Poissons Ratio (x) = 0.20570 0.40468
# Poissons Ratio (y) = 0.47584 0.57864
# Poissons Ratio (z) = 0.28467 0.17596
#
# Static dielectric constant tensor:
#      x y z
#    x 3.469310 0.000000 0.169700 
#    y 0.000000 3.181860 0.000000 
#    z 0.169700 0.000000 3.978850 
# 
# 
# High freq. dielectric constant tensor:
#      x y z
#    x 1.717890 0.000000 0.005800 
#    y 0.000000 1.700370 0.000000 
#    z 0.005800 0.000000 1.755640 
# 
# From -- ./inp_files/363120.got.cif
#   From: 2010.06.25/outbox.cif.g09.slc.cpg/sg12_182_cif.got.tgz:363120.got - 2010.06.28 00:19:55.
