data_PCOD8080347
_publ_section_title
;
Structure prediction by ZEFSAII (Michael W. Deem and Ramdas Pophale) SiO2 
 PCOD8080347
Probable space group: C 2/M
;
_chemical_formula_sum "Si O2"
_cell_formula_units_Z 48
_cell_length_a 23.540561
_cell_length_b 8.929832
_cell_length_c 17.314791
_cell_angle_alpha 90.000000
_cell_angle_beta 120.961900
_cell_angle_gamma 90.000000
_cell_volume 3121.162206
_symmetry_space_group_name_H-M "C 2/M"
_symmetry_group_IT_number 12
_symmetry_cell_setting 'monoclinic'
loop_
_space_group_symop_operation_xyz
x,y,z
-x,y,-z
-x,-y,-z
x,-y,z
1/2+x,1/2+y,z
1/2-x,1/2+y,-z
1/2-x,1/2-y,-z
1/2+x,1/2-y,z
loop_
_atom_site_type_symbol
_atom_site_label
_atom_site_fract_x
_atom_site_fract_y
_atom_site_fract_z
Si Si1 0.779998 0.825120 0.636827
Si Si2 0.736573 0.169855 0.910924
Si Si3 0.014085 0.676721 0.424643
Si Si4 0.753145 0.176595 0.233732
Si Si5 0.849696 0.324214 0.549597
Si Si6 0.375523 0.830441 0.273136
O O1 0.788594 0.742011 0.724484
O O2 0.836395 0.762558 0.619741
O O3 0.707759 0.788667 0.551873
O O4 0.791073 0.000000 0.657158
O O5 0.774405 0.253607 0.866526
O O6 0.657074 0.174636 0.835823
O O7 0.762460 0.000000 0.934346
O O8 0.750000 0.250000 0.000000
O O9 0.023206 0.500000 0.436528
O O10 0.951846 0.722431 0.326330
O O11 0.000000 0.742971 0.500000
O O12 0.081590 0.742149 0.436159
O O13 0.830573 0.226097 0.297674
O O14 0.745977 0.000000 0.226260
O O15 0.853495 0.500000 0.570686
O O16 0.371548 0.000000 0.303981
#
# Coordination Sequence:
#
# PCOD8080347 Si02
#       6
#     8   8   8   8   8   8
#     4  10  18  30  44  62  89 120 155 195 231 266
#     4   9  17  29  46  69  95 119 148 184 230 276
#     4   9  15  26  45  66  89 120 155 186 220 266
#     4  10  18  28  45  66  90 118 149 186 227 271
#     4   9  18  29  45  64  86 120 160 193 224 265
#     4   8  16  28  43  65  91 118 148 183 223 268
#
# _framework density 15.378887000000001
#
# number of rings (size 3 to 8) (size 9 to 14) (size 15 to 20)
#    1.000    1.833    0.000    3.000    0.000    3.333 
#    0.000    0.833    0.000    2.000    0.000    1.167 
#    0.000    9.333    0.000    0.000    0.000    0.000 
#
# Total GULP energy -297353.064980 kJ/mol
# GULP energy per Si atom -12389.711041 kJ/mol
# Density = 1.534388 g / cm^3
# Si number density = 15.378887 Si / 1000 Ang^3
#
#
#
# Elastic Constant Matrix: (Units=GPa)
#
#
# Indices 1 2 3 4 5 6 
#
# 1 110.9334 40.3681 50.1280 0.0000 -16.5216 0.0000
# 2 40.3681 88.9832 40.3519 0.0000 -19.3689 0.0000
# 3 50.1280 40.3519 87.4658 0.0000 -20.6125 0.0000
# 4 0.0000 0.0000 0.0000 19.9810 0.0000 -6.7179
# 5 -16.5216 -19.3689 -20.6125 0.0000 26.8723 0.0000
# 6 0.0000 0.0000 0.0000 -6.7179 0.0000 22.1450
#
#
#
# Elastic Compliance Matrix: (Units=1/GPa)
#
#
# Indices 1 2 3 4 5 6 
#
# 1 0.012866 -0.002952 -0.005675 0.000000 0.001429 0.000000
# 2 -0.002952 0.015840 -0.004093 0.000000 0.006463 0.000000
# 3 -0.005675 -0.004093 0.018378 0.000000 0.007658 0.000000
# 4 0.000000 0.000000 0.000000 0.055732 0.000000 0.016907
# 5 0.001429 0.006463 0.007658 0.000000 0.048624 0.000000
# 6 0.000000 0.000000 0.000000 0.016907 0.000000 0.050286
#
#
# Mechanical properties :
#
#
# Convention : Reuss Voigt Hill
#
# Bulk Modulus (GPa) = 46.20055 61.00870 53.60462
# Shear Modulus (GPa) = 21.33282 24.23529 22.78405
#
# Velocity S-wave (km/s) = 3.72849 3.97404 3.85322
# Velocity P-wave (km/s) = 6.97440 7.79833 7.39784
#
# Compressibility (1/GPa) = 0.02164476
#
# Stress axis : x y z
#
# Youngs Moduli (GPa) = 77.72490 63.13098 54.41201
#
# Poissons Ratio (x) = 0.18637 0.30878
# Poissons Ratio (y) = 0.22946 0.22270
# Poissons Ratio (z) = 0.44107 0.25838
#
# Static dielectric constant tensor:
#      x y z
#    x 2.906240 0.000000 -0.037730 
#    y 0.000000 2.825150 0.000000 
#    z -0.037730 0.000000 2.784460 
# 
# 
# High freq. dielectric constant tensor:
#      x y z
#    x 1.568350 0.000000 -0.013200 
#    y 0.000000 1.584020 0.000000 
#    z -0.013200 0.000000 1.568060 
# 
# From -- ./inp_files/280541.got.cif
#   From: 2010.06.25/outbox.cif.g09.slc.cpg/sg12_141_cif.got.tgz:280541.got - 2010.06.28 00:19:55.
