data_PCOD8080068
_publ_section_title
;
Structure prediction by ZEFSAII (Michael W. Deem and Ramdas Pophale) SiO2 
 PCOD8080068
Probable space group: C 2/M
;
_chemical_formula_sum "Si O2"
_cell_formula_units_Z 56
_cell_length_a 20.014451
_cell_length_b 9.094976
_cell_length_c 18.565516
_cell_angle_alpha 90.000000
_cell_angle_beta 75.004159
_cell_angle_gamma 90.000000
_cell_volume 3264.408405
_symmetry_space_group_name_H-M "C 2/M"
_symmetry_group_IT_number 12
_symmetry_cell_setting 'monoclinic'
loop_
_space_group_symop_operation_xyz
x,y,z
-x,y,-z
-x,-y,-z
x,-y,z
1/2+x,1/2+y,z
1/2-x,1/2+y,-z
1/2-x,1/2-y,-z
1/2+x,1/2-y,z
loop_
_atom_site_type_symbol
_atom_site_label
_atom_site_fract_x
_atom_site_fract_y
_atom_site_fract_z
Si Si1 0.889792 0.674565 0.156212
Si Si2 0.922647 0.661678 0.993088
Si Si3 0.565414 0.674635 0.439756
Si Si4 0.715397 0.672997 0.442785
Si Si5 0.967813 0.174362 0.848435
Si Si6 0.755226 0.674225 0.274861
Si Si7 0.393159 0.674904 0.725965
O O1 0.900373 0.500000 0.162900
O O2 0.877532 0.712871 0.074861
O O3 0.823519 0.737558 0.217334
O O4 0.956777 0.754641 0.169163
O O5 0.898673 0.500000 0.972776
O O6 0.918577 0.776366 0.928575
O O7 0.000000 0.651284 0.000000
O O8 0.500000 0.744427 0.500000
O O9 0.560414 0.500000 0.441114
O O10 0.635517 0.723436 0.460396
O O11 0.566369 0.730901 0.356721
O O12 0.720857 0.500000 0.452265
O O13 0.750000 0.750000 0.500000
O O14 0.754700 0.721761 0.358730
O O15 0.931843 0.233699 0.785807
O O16 0.975096 0.000000 0.848104
O O17 0.755819 0.500000 0.268820
O O18 0.685993 0.733982 0.254560
O O19 0.391723 0.500000 0.726619
#
# Coordination Sequence:
#
# PCOD8080068 Si02
#       7
#     8   8   8   8   8   8   8
#     4   9  17  30  48  65  83 114 153 185 210 250
#     4   8  15  28  44  62  85 115 149 179 210 254
#     4   8  14  26  44  64  86 114 147 178 208 250
#     4   9  17  29  47  68  89 115 145 180 219 258
#     4  10  18  27  44  69  93 113 137 180 228 261
#     4   8  15  30  48  63  84 118 154 179 207 256
#     4   8  15  27  42  62  87 115 146 176 211 257
#
# _framework density 17.154716000000001
#
# number of rings (size 3 to 8) (size 9 to 14) (size 15 to 20)
#    0.000    3.429    0.000    3.000    0.000    3.714 
#    0.000    2.857    0.000    9.000    0.000    0.000 
#    0.000    0.000    0.000    0.000    0.000    0.000 
#
# Total GULP energy -346970.194651 kJ/mol
# GULP energy per Si atom -12391.792666 kJ/mol
# Density = 1.711567 g / cm^3
# Si number density = 17.154716 Si / 1000 Ang^3
#
#
#
# Elastic Constant Matrix: (Units=GPa)
#
#
# Indices 1 2 3 4 5 6 
#
# 1 109.7112 30.5616 103.4137 0.0000 -3.2602 0.0000
# 2 30.5616 31.9579 36.4700 0.0000 4.1969 0.0000
# 3 103.4137 36.4700 168.3830 0.0000 -3.2486 0.0000
# 4 0.0000 0.0000 0.0000 22.0525 0.0000 4.4178
# 5 -3.2602 4.1969 -3.2486 0.0000 35.7400 0.0000
# 6 0.0000 0.0000 0.0000 4.4178 0.0000 16.0026
#
#
#
# Elastic Compliance Matrix: (Units=1/GPa)
#
#
# Indices 1 2 3 4 5 6 
#
# 1 0.023158 -0.008256 -0.012397 0.000000 0.001955 0.000000
# 2 -0.008256 0.045704 -0.004955 0.000000 -0.006571 0.000000
# 3 -0.012397 -0.004955 0.014641 0.000000 0.000782 0.000000
# 4 0.000000 0.000000 0.000000 0.048001 0.000000 -0.013251
# 5 0.001955 -0.006571 0.000782 0.000000 0.029001 0.000000
# 6 0.000000 0.000000 0.000000 -0.013251 0.000000 0.066148
#
#
# Mechanical properties :
#
#
# Convention : Reuss Voigt Hill
#
# Bulk Modulus (GPa) = 30.97229 72.32698 51.64964
# Shear Modulus (GPa) = 17.32314 24.06614 20.69464
#
# Velocity S-wave (km/s) = 3.18121 3.74958 3.47703
# Velocity P-wave (km/s) = 5.62026 7.81018 6.80390
#
# Compressibility (1/GPa) = 0.03228693
#
# Stress axis : x y z
#
# Youngs Moduli (GPa) = 43.18188 21.87975 68.30233
#
# Poissons Ratio (x) = 0.18064 0.84673
# Poissons Ratio (y) = 0.35650 0.33847
# Poissons Ratio (z) = 0.53531 0.10843
#
# Static dielectric constant tensor:
#      x y z
#    x 3.318330 0.000000 -0.209520 
#    y 0.000000 2.781680 0.000000 
#    z -0.209520 0.000000 3.748420 
# 
# 
# High freq. dielectric constant tensor:
#      x y z
#    x 1.647830 0.000000 -0.004880 
#    y 0.000000 1.617710 0.000000 
#    z -0.004880 0.000000 1.675890 
# 
# From -- ./inp_files/318826.got.cif
#   From: 2010.06.25/outbox.cif.g09.slc.cpg/sg12_160_cif.got.tgz:318826.got - 2010.06.28 00:19:55.
