data_PCOD8080005
_publ_section_title
;
Structure prediction by ZEFSAII (Michael W. Deem and Ramdas Pophale) SiO2 
 PCOD8080005
Probable space group: C 2/M
;
_chemical_formula_sum "Si O2"
_cell_formula_units_Z 56
_cell_length_a 24.320516
_cell_length_b 8.692456
_cell_length_c 17.701189
_cell_angle_alpha 90.000000
_cell_angle_beta 117.784385
_cell_angle_gamma 90.000000
_cell_volume 3310.683796
_symmetry_space_group_name_H-M "C 2/M"
_symmetry_group_IT_number 12
_symmetry_cell_setting 'monoclinic'
loop_
_space_group_symop_operation_xyz
x,y,z
-x,y,-z
-x,-y,-z
x,-y,z
1/2+x,1/2+y,z
1/2-x,1/2+y,-z
1/2-x,1/2-y,-z
1/2+x,1/2-y,z
loop_
_atom_site_type_symbol
_atom_site_label
_atom_site_fract_x
_atom_site_fract_y
_atom_site_fract_z
Si Si1 0.038805 0.175453 0.780049
Si Si2 0.412113 0.682486 0.485822
Si Si3 0.894253 0.824111 0.718030
Si Si4 0.560971 0.173428 0.942349
Si Si5 0.962935 0.319310 0.374163
Si Si6 0.682112 0.818889 0.461238
Si Si7 0.915510 0.673883 0.880113
O O1 0.076838 0.222140 0.879889
O O2 0.062256 0.279112 0.725240
O O3 0.965992 0.204449 0.745334
O O4 0.053806 0.000000 0.770845
O O5 0.411653 0.500000 0.476923
O O6 0.413406 0.760911 0.404172
O O7 0.472077 0.731734 0.572418
O O8 0.350805 0.738107 0.488984
O O9 0.853872 0.714715 0.639317
O O10 0.880597 0.781241 0.796905
O O11 0.874903 0.000000 0.691416
O O12 0.488218 0.178275 0.910988
O O13 0.582142 0.000000 0.937984
O O14 0.596161 0.232828 0.041055
O O15 0.973862 0.500000 0.390229
O O16 0.750000 0.750000 0.500000
O O17 0.684496 0.000000 0.476582
O O18 0.890669 0.500000 0.855495
#
# Coordination Sequence:
#
# PCOD8080005 Si02
#       7
#     8   8   8   8   8   8   8
#     4  10  18  27  42  65  95 126 158 196 236 280
#     4  11  21  35  51  70  95 122 157 200 243 285
#     4  10  19  30  45  65  91 122 159 198 238 283
#     4   8  14  24  38  58  86 120 156 191 229 277
#     4  11  20  31  49  71  95 127 162 196 237 287
#     4  12  24  38  54  71  94 125 162 203 244 287
#     4   8  14  25  40  58  84 119 156 192 231 277
#
# _framework density 16.914933999999999
#
# number of rings (size 3 to 8) (size 9 to 14) (size 15 to 20)
#    0.000    2.000    1.429    6.429    0.000    1.714 
#    0.000    2.857    0.000    0.000    0.000    0.000 
#    0.000    1.143    0.000    4.286    0.000    6.571 
#
# Total GULP energy -347125.917601 kJ/mol
# GULP energy per Si atom -12397.354200 kJ/mol
# Density = 1.687643 g / cm^3
# Si number density = 16.914934 Si / 1000 Ang^3
#
#
#
# Elastic Constant Matrix: (Units=GPa)
#
#
# Indices 1 2 3 4 5 6 
#
# 1 65.9004 24.0034 34.2506 0.0000 -15.5143 0.0000
# 2 24.0034 92.4757 34.6567 0.0000 -12.0423 0.0000
# 3 34.2506 34.6567 91.1301 0.0000 -36.1744 0.0000
# 4 0.0000 0.0000 0.0000 29.2116 0.0000 -6.7925
# 5 -15.5143 -12.0423 -36.1744 0.0000 24.7762 0.0000
# 6 0.0000 0.0000 0.0000 -6.7925 0.0000 21.1484
#
#
#
# Elastic Compliance Matrix: (Units=1/GPa)
#
#
# Indices 1 2 3 4 5 6 
#
# 1 0.019585 -0.002799 -0.004682 0.000000 0.004068 0.000000
# 2 -0.002799 0.013056 -0.004971 0.000000 -0.002665 0.000000
# 3 -0.004682 -0.004971 0.029733 0.000000 0.038064 0.000000
# 4 0.000000 0.000000 0.000000 0.036996 0.000000 0.011882
# 5 0.004068 -0.002665 0.038064 0.000000 0.097187 0.000000
# 6 0.000000 0.000000 0.000000 0.011882 0.000000 0.051101
#
#
# Mechanical properties :
#
#
# Convention : Reuss Voigt Hill
#
# Bulk Modulus (GPa) = 26.68800 48.36973 37.52887
# Shear Modulus (GPa) = 17.54065 25.46695 21.50380
#
# Velocity S-wave (km/s) = 3.22373 3.88440 3.56938
# Velocity P-wave (km/s) = 5.44689 6.98399 6.26277
#
# Compressibility (1/GPa) = 0.03747002
#
# Stress axis : x y z
#
# Youngs Moduli (GPa) = 51.05997 76.59197 33.63294
#
# Poissons Ratio (x) = 0.21441 0.15745
# Poissons Ratio (y) = 0.14293 0.16719
# Poissons Ratio (z) = 0.23904 0.38074
#
# Static dielectric constant tensor:
#      x y z
#    x 2.833830 0.000000 -0.412800 
#    y 0.000000 3.277240 0.000000 
#    z -0.412800 0.000000 3.454430 
# 
# 
# High freq. dielectric constant tensor:
#      x y z
#    x 1.593440 0.000000 -0.041940 
#    y 0.000000 1.664950 0.000000 
#    z -0.041940 0.000000 1.652530 
# 
# From -- ./inp_files/287862.got.cif
#   From: 2010.06.25/outbox.cif.g09.slc.cpg/sg12_144_cif.got.tgz:287862.got - 2010.06.28 00:19:55.
