data_PCOD8080606
_publ_section_title
;
Structure prediction by ZEFSAII (Michael W. Deem and Ramdas Pophale) SiO2 
 PCOD8080606
Probable space group: C 2/M
;
_chemical_formula_sum "Si O2"
_cell_formula_units_Z 60
_cell_length_a 15.720382
_cell_length_b 19.251729
_cell_length_c 21.420112
_cell_angle_alpha 90.000000
_cell_angle_beta 34.303484
_cell_angle_gamma 90.000000
_cell_volume 3653.484579
_symmetry_space_group_name_H-M "C 2/M"
_symmetry_group_IT_number 12
_symmetry_cell_setting 'monoclinic'
loop_
_space_group_symop_operation_xyz
x,y,z
-x,y,-z
-x,-y,-z
x,-y,z
1/2+x,1/2+y,z
1/2-x,1/2+y,-z
1/2-x,1/2-y,-z
1/2+x,1/2-y,z
loop_
_atom_site_type_symbol
_atom_site_label
_atom_site_fract_x
_atom_site_fract_y
_atom_site_fract_z
Si Si1 0.150659 0.784790 0.506917
Si Si2 0.000000 0.315963 0.500000
Si Si3 0.594269 0.215410 0.730130
Si Si4 0.212868 0.675767 0.052963
Si Si5 0.827894 0.215307 0.113117
Si Si6 0.423764 0.418379 0.848556
Si Si7 0.927609 0.819987 0.738223
Si Si8 0.200656 0.157705 0.738862
O O1 0.250000 0.750000 0.500000
O O2 0.268344 0.824749 0.388963
O O3 0.062166 0.728055 0.520267
O O4 0.026264 0.833917 0.615464
O O5 0.135525 0.362894 0.389200
O O6 0.469168 0.163693 0.834749
O O7 0.510054 0.265218 0.732573
O O8 0.662294 0.263147 0.743130
O O9 0.279266 0.672489 0.081822
O O10 0.250000 0.750000 0.000000
O O11 0.283025 0.614204 0.970515
O O12 0.733883 0.286472 0.180919
O O13 0.801277 0.159900 0.184989
O O14 0.000000 0.238599 0.000000
O O15 0.406536 0.500000 0.859758
O O16 0.414145 0.392684 0.782681
O O17 0.580695 0.397430 0.785967
#
# Coordination Sequence:
#
# PCOD8080606 Si02
#       8
#     8   4   8   8   8   8   8   8
#     4   9  16  28  45  77 108 129 163 222 272 309
#     4  10  18  28  51  80 113 132 168 226 276 304
#     4   8  16  27  48  71 101 126 166 221 261 297
#     4  11  17  32  49  73 100 133 179 217 254 307
#     4  11  17  26  50  79 101 125 164 221 267 299
#     4  11  22  36  52  72 106 146 178 211 263 326
#     4   9  17  30  48  72 101 130 174 212 258 307
#     4  10  18  31  47  79 105 134 168 213 269 313
#
# _framework density 16.422678000000001
#
# number of rings (size 3 to 8) (size 9 to 14) (size 15 to 20)
#    0.000    2.133    6.667    0.800    0.000    0.000 
#    0.000    1.667    0.000    1.200    0.000    0.467 
#    0.000    0.000    0.000    0.000    0.000    0.000 
#
# Total GULP energy -371730.494958 kJ/mol
# GULP energy per Si atom -12391.016499 kJ/mol
# Density = 1.638530 g / cm^3
# Si number density = 16.422678 Si / 1000 Ang^3
#
#
#
# Elastic Constant Matrix: (Units=GPa)
#
#
# Indices 1 2 3 4 5 6 
#
# 1 22.2205 10.7899 7.9445 0.0000 4.1832 0.0007
# 2 10.7899 74.6963 46.6673 0.0025 2.9253 -0.0002
# 3 7.9445 46.6673 162.1754 0.0079 -4.0934 -0.0006
# 4 0.0000 0.0025 0.0079 13.1701 -0.0014 0.1489
# 5 4.1832 2.9253 -4.0934 -0.0014 29.1355 -0.0007
# 6 0.0007 -0.0002 -0.0006 0.1489 -0.0007 12.3377
#
#
#
# Elastic Compliance Matrix: (Units=1/GPa)
#
#
# Indices 1 2 3 4 5 6 
#
# 1 0.049640 -0.006449 -0.000742 0.000001 -0.006584 -0.000003
# 2 -0.006449 0.017316 -0.004704 -0.000001 -0.001474 0.000000
# 3 -0.000742 -0.004704 0.007598 -0.000003 0.001646 0.000000
# 4 0.000001 -0.000001 -0.000003 0.075940 0.000003 -0.000916
# 5 -0.006584 -0.001474 0.001646 0.000003 0.035647 0.000002
# 6 -0.000003 0.000000 0.000000 -0.000916 0.000002 0.081063
#
#
# Mechanical properties :
#
#
# Convention : Reuss Voigt Hill
#
# Bulk Modulus (GPa) = 19.69943 43.32175 31.51059
# Shear Modulus (GPa) = 16.23826 23.84136 20.03981
#
# Velocity S-wave (km/s) = 3.14788 3.81430 3.49700
# Velocity P-wave (km/s) = 5.02330 6.77015 5.96106
#
# Compressibility (1/GPa) = 0.05076290
#
# Stress axis : x y z
#
# Youngs Moduli (GPa) = 20.14514 57.75113 131.61890
#
# Poissons Ratio (x) = 0.37243 0.09768
# Poissons Ratio (y) = 0.12992 0.61914
# Poissons Ratio (z) = 0.01495 0.27166
#
# Static dielectric constant tensor:
#      x y z
#    x 3.295440 0.000000 -0.013150 
#    y 0.000000 2.407080 0.000000 
#    z -0.013150 0.000000 4.048410 
# 
# 
# High freq. dielectric constant tensor:
#      x y z
#    x 1.641640 0.000000 0.001130 
#    y 0.000000 1.539220 0.000000 
#    z 0.001130 0.000000 1.669180 
# 
# From -- ./inp_files/311946.got.cif
#   From: 2010.06.25/outbox.cif.g09.slc.cpg/sg12_156_cif.got.tgz:311946.got - 2010.06.28 00:19:55.
