data_PCOD8080236
_publ_section_title
;
Structure prediction by ZEFSAII (Michael W. Deem and Ramdas Pophale) SiO2 
 PCOD8080236
Probable space group: C 2/M
;
_chemical_formula_sum "Si O2"
_cell_formula_units_Z 48
_cell_length_a 24.402828
_cell_length_b 8.685974
_cell_length_c 21.753652
_cell_angle_alpha 90.000000
_cell_angle_beta 37.575382
_cell_angle_gamma 90.000000
_cell_volume 2811.781827
_symmetry_space_group_name_H-M "C 2/M"
_symmetry_group_IT_number 12
_symmetry_cell_setting 'monoclinic'
loop_
_space_group_symop_operation_xyz
x,y,z
-x,y,-z
-x,-y,-z
x,-y,z
1/2+x,1/2+y,z
1/2-x,1/2+y,-z
1/2-x,1/2-y,-z
1/2+x,1/2-y,z
loop_
_atom_site_type_symbol
_atom_site_label
_atom_site_fract_x
_atom_site_fract_y
_atom_site_fract_z
Si Si1 0.115824 0.320247 0.724393
Si Si2 0.832701 0.821615 0.999549
Si Si3 0.953181 0.819680 0.339618
Si Si4 0.215570 0.682429 0.466575
Si Si5 0.475766 0.179021 0.953539
Si Si6 0.368329 0.822485 0.839476
O O1 0.120953 0.500000 0.704181
O O2 0.067055 0.235587 0.711505
O O3 0.216865 0.252623 0.644690
O O4 0.061180 0.286276 0.834739
O O5 0.727763 0.787494 0.106245
O O6 0.846900 0.000000 0.970127
O O7 0.889039 0.775221 0.009289
O O8 0.866762 0.720171 0.912643
O O9 0.887492 0.739058 0.448353
O O10 0.055972 0.774975 0.263772
O O11 0.938757 0.000000 0.357222
O O12 0.220462 0.500000 0.460727
O O13 0.250000 0.750000 0.500000
O O14 0.449873 0.000000 0.975752
O O15 0.500000 0.235830 0.000000
O O16 0.395144 0.000000 0.810905
#
# Coordination Sequence:
#
# PCOD8080236 Si02
#       6
#     8   8   8   8   8   8
#     4  10  18  30  46  65  94 127 160 199 239 280
#     4  10  20  32  48  70  95 126 163 201 240 284
#     4  11  19  28  45  70  97 125 159 192 237 291
#     4  10  18  28  43  64  93 125 157 192 237 288
#     4  10  21  35  51  70  96 132 168 201 239 282
#     4  10  19  31  47  69  98 129 158 194 242 292
#
# _framework density 17.071024999999999
#
# number of rings (size 3 to 8) (size 9 to 14) (size 15 to 20)
#    0.000    1.833    1.667    6.500    0.000    3.000 
#    0.000    0.000    0.000    0.000    0.000    1.167 
#    0.000    9.333    0.000    0.000    0.000    0.000 
#
# Total GULP energy -297583.319783 kJ/mol
# GULP energy per Si atom -12399.304991 kJ/mol
# Density = 1.703217 g / cm^3
# Si number density = 17.071025 Si / 1000 Ang^3
#
#
#
# Elastic Constant Matrix: (Units=GPa)
#
#
# Indices 1 2 3 4 5 6 
#
# 1 75.4095 28.8807 47.1012 0.0034 -12.2298 -0.0028
# 2 28.8807 100.0512 44.5631 0.0058 -13.3457 -0.0044
# 3 47.1012 44.5631 108.5646 0.0037 -26.5901 -0.0044
# 4 0.0034 0.0058 0.0037 28.5678 -0.0024 -8.1304
# 5 -12.2298 -13.3457 -26.5901 -0.0024 26.2129 0.0019
# 6 -0.0028 -0.0044 -0.0044 -8.1304 0.0019 21.0209
#
#
#
# Elastic Compliance Matrix: (Units=1/GPa)
#
#
# Indices 1 2 3 4 5 6 
#
# 1 0.018570 -0.002157 -0.007076 -0.000001 0.000388 0.000000
# 2 -0.002157 0.012527 -0.003846 -0.000001 0.001470 0.000001
# 3 -0.007076 -0.003846 0.016728 0.000001 0.011709 0.000001
# 4 -0.000001 -0.000001 0.000001 0.039334 0.000002 0.015213
# 5 0.000388 0.001470 0.011709 0.000002 0.050956 -0.000001
# 6 0.000000 0.000001 0.000001 0.015213 -0.000001 0.053456
#
#
# Mechanical properties :
#
#
# Convention : Reuss Voigt Hill
#
# Bulk Modulus (GPa) = 46.15618 58.34615 52.25116
# Shear Modulus (GPa) = 22.22717 26.05901 24.14309
#
# Velocity S-wave (km/s) = 3.61229 3.91129 3.76476
# Velocity P-wave (km/s) = 6.67043 7.39258 7.04077
#
# Compressibility (1/GPa) = 0.02166557
#
# Stress axis : x y z
#
# Youngs Moduli (GPa) = 53.85119 79.83010 59.78121
#
# Poissons Ratio (x) = 0.17218 0.42303
# Poissons Ratio (y) = 0.11615 0.22992
# Poissons Ratio (z) = 0.38107 0.30704
#
# Static dielectric constant tensor:
#      x y z
#    x 2.883310 -0.000010 -0.461630 
#    y -0.000010 3.279810 0.000010 
#    z -0.461630 0.000010 3.758270 
# 
# 
# High freq. dielectric constant tensor:
#      x y z
#    x 1.603600 0.000000 -0.040640 
#    y 0.000000 1.675810 0.000000 
#    z -0.040640 0.000000 1.663450 
# 
# From -- ./inp_files/323520.got.cif
#   From: 2010.06.25/outbox.cif.g09.slc.cpg/sg12_162_cif.got.tgz:323520.got - 2010.06.28 00:19:55.
