data_PCOD8080753
_publ_section_title
;
Structure prediction by ZEFSAII (Michael W. Deem and Ramdas Pophale) SiO2 
 PCOD8080753
Probable space group: C 2/M
;
_chemical_formula_sum "Si O2"
_cell_formula_units_Z 56
_cell_length_a 27.752522
_cell_length_b 14.552703
_cell_length_c 8.990925
_cell_angle_alpha 90.000000
_cell_angle_beta 83.822634
_cell_angle_gamma 90.000000
_cell_volume 3610.118337
_symmetry_space_group_name_H-M "C 2/M"
_symmetry_group_IT_number 12
_symmetry_cell_setting 'monoclinic'
loop_
_space_group_symop_operation_xyz
x,y,z
-x,y,-z
-x,-y,-z
x,-y,z
1/2+x,1/2+y,z
1/2-x,1/2+y,-z
1/2-x,1/2-y,-z
1/2+x,1/2-y,z
loop_
_atom_site_type_symbol
_atom_site_label
_atom_site_fract_x
_atom_site_fract_y
_atom_site_fract_z
Si Si1 0.215529 0.771899 0.375990
Si Si2 0.744692 0.102900 0.218078
Si Si3 0.837320 0.895172 0.398277
Si Si4 0.572587 0.391085 0.823475
Si Si5 0.984154 0.890705 0.664575
Si Si6 0.783974 0.892658 0.883024
Si Si7 0.106210 0.109125 0.126666
O O1 0.250000 0.750000 0.500000
O O2 0.204801 0.674074 0.297749
O O3 0.169767 0.827320 0.458099
O O4 0.241410 0.837874 0.244451
O O5 0.794501 0.110673 0.292445
O O6 0.723284 0.000000 0.236702
O O7 0.756089 0.129229 0.044311
O O8 0.886163 0.860728 0.305774
O O9 0.841977 0.000000 0.456717
O O10 0.572196 0.500000 0.836971
O O11 0.521189 0.354670 0.779123
O O12 0.583988 0.349061 0.981535
O O13 0.929522 0.860227 0.726884
O O14 0.000000 0.848853 0.500000
O O15 0.987248 0.000000 0.655809
O O16 0.839327 0.854133 0.869164
O O17 0.782367 0.000000 0.847881
O O18 0.108560 0.000000 0.112079
#
# Coordination Sequence:
#
# PCOD8080753 Si02
#       7
#     8   8   8   8   8   8   8
#     4  10  20  29  41  61  83 105 135 175 219 255
#     4   9  17  31  45  58  78 105 141 180 214 246
#     4   9  16  27  42  61  83 110 141 173 207 243
#     4   9  15  25  39  53  78 113 145 172 197 231
#     4   9  17  24  33  53  80 108 140 173 199 229
#     4  10  18  29  46  63  81 108 143 177 205 246
#     4   9  16  26  39  56  77 108 144 172 200 233
#
# _framework density 15.511957000000001
#
# number of rings (size 3 to 8) (size 9 to 14) (size 15 to 20)
#    0.000    2.714    1.429    1.286    2.000    2.286 
#    0.000    0.000    0.000    0.000    0.000    0.000 
#    0.000    0.000    0.000    2.571    0.000    5.143 
#
# Total GULP energy -346923.411892 kJ/mol
# GULP energy per Si atom -12390.121853 kJ/mol
# Density = 1.547665 g / cm^3
# Si number density = 15.511957 Si / 1000 Ang^3
#
#
#
# Elastic Constant Matrix: (Units=GPa)
#
#
# Indices 1 2 3 4 5 6 
#
# 1 35.2385 17.5386 21.8321 0.0000 -6.6974 0.0000
# 2 17.5386 52.6486 44.8491 0.0000 -8.8742 0.0000
# 3 21.8321 44.8491 108.7770 0.0000 -6.2942 0.0000
# 4 0.0000 0.0000 0.0000 25.9684 0.0000 0.0284
# 5 -6.6974 -8.8742 -6.2942 0.0000 22.7942 0.0000
# 6 0.0000 0.0000 0.0000 0.0284 0.0000 6.4646
#
#
#
# Elastic Compliance Matrix: (Units=1/GPa)
#
#
# Indices 1 2 3 4 5 6 
#
# 1 0.035688 -0.007728 -0.003601 0.000000 0.006483 0.000000
# 2 -0.007728 0.032538 -0.011446 0.000000 0.007236 0.000000
# 3 -0.003601 -0.011446 0.014548 0.000000 -0.001497 0.000000
# 4 0.000000 0.000000 0.000000 0.038508 0.000000 -0.000169
# 5 0.006483 0.007236 -0.001497 0.000000 0.048179 0.000000
# 6 0.000000 0.000000 0.000000 -0.000169 0.000000 0.154690
#
#
# Mechanical properties :
#
#
# Convention : Reuss Voigt Hill
#
# Bulk Modulus (GPa) = 26.86431 40.56708 33.71569
# Shear Modulus (GPa) = 13.08521 18.54173 15.81347
#
# Velocity S-wave (km/s) = 2.90756 3.46109 3.19633
# Velocity P-wave (km/s) = 5.35050 6.49470 5.95017
#
# Compressibility (1/GPa) = 0.03722411
#
# Stress axis : x y z
#
# Youngs Moduli (GPa) = 28.02088 30.73313 68.73582
#
# Poissons Ratio (x) = 0.23750 0.24754
# Poissons Ratio (y) = 0.21654 0.78674
# Poissons Ratio (z) = 0.10091 0.35177
#
# Static dielectric constant tensor:
#      x y z
#    x 2.896920 0.000000 -0.045170 
#    y 0.000000 2.795440 0.000000 
#    z -0.045170 0.000000 3.325710 
# 
# 
# High freq. dielectric constant tensor:
#      x y z
#    x 1.566900 0.000000 0.001200 
#    y 0.000000 1.531700 0.000000 
#    z 0.001200 0.000000 1.624250 
# 
# From -- ./inp_files/110807.got.cif
#   From: 2010.06.25/outbox.cif.g09.slc.cpg/sg12_56_cif.got.tgz:110807.got - 2010.06.28 00:19:55.
