data_PCOD8080939
_publ_section_title
;
Structure prediction by ZEFSAII (Michael W. Deem and Ramdas Pophale) SiO2 
 PCOD8080939
Probable space group: C 2/M
;
_chemical_formula_sum "Si O2"
_cell_formula_units_Z 64
_cell_length_a 31.506437
_cell_length_b 8.532875
_cell_length_c 15.602930
_cell_angle_alpha 90.000000
_cell_angle_beta 55.579288
_cell_angle_gamma 90.000000
_cell_volume 3460.246119
_symmetry_space_group_name_H-M "C 2/M"
_symmetry_group_IT_number 12
_symmetry_cell_setting 'monoclinic'
loop_
_space_group_symop_operation_xyz
x,y,z
-x,y,-z
-x,-y,-z
x,-y,z
1/2+x,1/2+y,z
1/2-x,1/2+y,-z
1/2-x,1/2-y,-z
1/2+x,1/2-y,z
loop_
_atom_site_type_symbol
_atom_site_label
_atom_site_fract_x
_atom_site_fract_y
_atom_site_fract_z
Si Si1 0.540248 0.679839 0.149404
Si Si2 0.055208 0.318537 0.827648
Si Si3 0.347907 0.315930 0.366999
Si Si4 0.983052 0.681913 0.643711
Si Si5 0.576339 0.315247 0.440664
Si Si6 0.111356 0.318430 0.938399
Si Si7 0.322709 0.684475 0.584127
Si Si8 0.208713 0.315808 0.725098
O O1 0.539686 0.500000 0.177699
O O2 0.494815 0.716129 0.134535
O O3 0.534506 0.784472 0.240123
O O4 0.594022 0.719053 0.040625
O O5 0.040466 0.500000 0.835223
O O6 0.099596 0.277263 0.709646
O O7 0.074245 0.278674 0.901145
O O8 0.359897 0.500000 0.353080
O O9 0.327185 0.254396 0.481768
O O10 0.305187 0.277536 0.344871
O O11 0.995880 0.500000 0.618590
O O12 0.936970 0.728063 0.632325
O O13 0.034114 0.779670 0.562055
O O14 0.577429 0.500000 0.422345
O O15 0.631657 0.248232 0.408497
O O16 0.107620 0.500000 0.966785
O O17 0.169892 0.271335 0.846578
O O18 0.329319 0.500000 0.574775
O O19 0.266755 0.731368 0.685820
O O20 0.203563 0.500000 0.709847
#
# Coordination Sequence:
#
# PCOD8080939 Si02
#       8
#     8   8   8   8   8   8   8   8
#     4  12  23  34  52  76 101 131 170 214 257 301
#     4  10  20  34  51  73 104 139 172 206 251 306
#     4  10  18  29  47  75 108 139 173 209 247 291
#     4  11  22  37  55  77 106 136 167 203 251 310
#     4  10  19  35  57  81 108 134 165 207 255 302
#     4   9  19  34  51  71 100 137 173 209 249 297
#     4   9  18  31  51  76 102 135 171 208 251 300
#     4   9  18  34  51  70 101 140 176 208 249 296
#
# _framework density 18.495792999999999
#
# number of rings (size 3 to 8) (size 9 to 14) (size 15 to 20)
#    0.000    2.000    0.000    6.375    0.000    5.000 
#    0.000    3.750    0.000    0.750    0.000    0.000 
#    0.000    0.000    0.000    0.000    0.000    0.000 
#
# Total GULP energy -396835.147089 kJ/mol
# GULP energy per Si atom -12401.098347 kJ/mol
# Density = 1.845370 g / cm^3
# Si number density = 18.495793 Si / 1000 Ang^3
#
#
#
# Elastic Constant Matrix: (Units=GPa)
#
#
# Indices 1 2 3 4 5 6 
#
# 1 102.7757 11.2320 46.6817 0.0000 -17.5515 0.0000
# 2 11.2320 48.9454 13.3679 -0.0001 2.2158 -0.0001
# 3 46.6817 13.3679 102.1044 0.0000 -7.1203 0.0000
# 4 0.0000 -0.0001 0.0000 27.7981 0.0000 2.2498
# 5 -17.5515 2.2158 -7.1203 0.0000 21.3300 0.0000
# 6 0.0000 -0.0001 0.0000 2.2498 0.0000 21.8694
#
#
#
# Elastic Compliance Matrix: (Units=1/GPa)
#
#
# Indices 1 2 3 4 5 6 
#
# 1 0.014187 -0.002211 -0.005495 0.000000 0.010069 0.000000
# 2 -0.002211 0.021749 -0.002172 0.000000 -0.004803 0.000000
# 3 -0.005495 -0.002172 0.012584 0.000000 -0.000095 0.000000
# 4 0.000000 0.000000 0.000000 0.036276 0.000000 -0.003732
# 5 0.010069 -0.004803 -0.000095 0.000000 0.055635 0.000000
# 6 0.000000 0.000000 0.000000 -0.003732 0.000000 0.046110
#
#
# Mechanical properties :
#
#
# Convention : Reuss Voigt Hill
#
# Bulk Modulus (GPa) = 34.76400 44.04320 39.40360
# Shear Modulus (GPa) = 23.16078 26.36909 24.76494
#
# Velocity S-wave (km/s) = 3.54251 3.77991 3.66314
# Velocity P-wave (km/s) = 5.96397 6.55092 6.26432
#
# Compressibility (1/GPa) = 0.02876539
#
# Stress axis : x y z
#
# Youngs Moduli (GPa) = 70.48825 45.97955 79.46813
#
# Poissons Ratio (x) = 0.10165 0.43664
# Poissons Ratio (y) = 0.15583 0.17258
# Poissons Ratio (z) = 0.38730 0.09985
#
# Static dielectric constant tensor:
#      x y z
#    x 3.466740 0.000000 -0.139630 
#    y 0.000000 3.307770 0.000000 
#    z -0.139630 0.000000 3.408280 
# 
# 
# High freq. dielectric constant tensor:
#      x y z
#    x 1.701070 0.000000 -0.010860 
#    y 0.000000 1.712130 0.000000 
#    z -0.010860 0.000000 1.713060 
# 
# From -- ./inp_files/249041.got.cif
#   From: 2010.06.25/outbox.cif.g09.slc.cpg/sg12_125_cif.got.tgz:249041.got - 2010.06.28 00:19:55.
