data_PCOD8080659
_publ_section_title
;
Structure prediction by ZEFSAII (Michael W. Deem and Ramdas Pophale) SiO2 
 PCOD8080659
Probable space group: C 2/M
;
_chemical_formula_sum "Si O2"
_cell_formula_units_Z 64
_cell_length_a 20.649996
_cell_length_b 8.901919
_cell_length_c 25.466759
_cell_angle_alpha 90.000000
_cell_angle_beta 50.359491
_cell_angle_gamma 90.000000
_cell_volume 3604.982798
_symmetry_space_group_name_H-M "C 2/M"
_symmetry_group_IT_number 12
_symmetry_cell_setting 'monoclinic'
loop_
_space_group_symop_operation_xyz
x,y,z
-x,y,-z
-x,-y,-z
x,-y,z
1/2+x,1/2+y,z
1/2-x,1/2+y,-z
1/2-x,1/2-y,-z
1/2+x,1/2-y,z
loop_
_atom_site_type_symbol
_atom_site_label
_atom_site_fract_x
_atom_site_fract_y
_atom_site_fract_z
Si Si1 0.137046 0.673770 0.571860
Si Si2 0.678694 0.321876 0.918423
Si Si3 0.882009 0.178000 0.162170
Si Si4 0.819972 0.323235 0.294629
Si Si5 0.074112 0.822403 0.072285
Si Si6 0.271491 0.171914 0.572461
Si Si7 0.022492 0.325752 0.718781
Si Si8 0.140043 0.320879 0.141482
O O1 0.162856 0.500000 0.571504
O O2 0.199379 0.788317 0.568051
O O3 0.141291 0.699053 0.506182
O O4 0.044550 0.704135 0.645532
O O5 0.680893 0.500000 0.914696
O O6 0.647179 0.258048 0.879032
O O7 0.771605 0.258352 0.882679
O O8 0.613683 0.269685 0.996700
O O9 0.820179 0.248172 0.237488
O O10 0.977414 0.230041 0.123397
O O11 0.874153 0.000000 0.168312
O O12 0.817603 0.500000 0.289192
O O13 0.736967 0.271679 0.370490
O O14 0.901663 0.263353 0.284207
O O15 0.125729 0.740081 0.090739
O O16 0.082536 0.000000 0.075662
O O17 0.263392 0.000000 0.594229
O O18 0.015246 0.500000 0.734639
O O19 0.933175 0.255166 0.781985
O O20 0.141232 0.500000 0.138631
#
# Coordination Sequence:
#
# PCOD8080659 Si02
#       8
#     8   8   8   8   8   8   8   8
#     4   8  14  24  37  58  90 123 151 185 228 271
#     4   9  19  33  49  69  93 123 156 193 234 278
#     4  10  19  32  49  68  91 122 160 195 232 277
#     4  10  18  29  44  64  92 121 152 190 235 279
#     4  10  19  32  50  70  93 120 154 196 238 276
#     4   9  15  23  38  61  89 120 153 186 226 274
#     4   8  14  25  42  63  88 118 149 183 224 269
#     4  10  18  31  50  70  94 124 157 188 228 281
#
# _framework density 17.753205000000001
#
# number of rings (size 3 to 8) (size 9 to 14) (size 15 to 20)
#    0.000    2.750    1.250    2.250    0.000    2.000 
#    0.000    1.250    0.000    1.500    0.000    0.875 
#    0.000    7.000    0.000    0.000    0.000    0.000 
#
# Total GULP energy -396503.060254 kJ/mol
# GULP energy per Si atom -12390.720633 kJ/mol
# Density = 1.771280 g / cm^3
# Si number density = 17.753205 Si / 1000 Ang^3
#
#
#
# Elastic Constant Matrix: (Units=GPa)
#
#
# Indices 1 2 3 4 5 6 
#
# 1 70.4751 18.1574 39.2225 0.0001 11.0936 0.0006
# 2 18.1574 28.4033 25.4476 -0.0003 4.4914 0.0017
# 3 39.2225 25.4476 158.1812 -0.0001 25.0934 0.0002
# 4 0.0001 -0.0003 -0.0001 22.0384 -0.0001 5.7561
# 5 11.0936 4.4914 25.0934 -0.0001 13.0344 -0.0004
# 6 0.0006 0.0017 0.0002 5.7561 -0.0004 14.9440
#
#
#
# Elastic Compliance Matrix: (Units=1/GPa)
#
#
# Indices 1 2 3 4 5 6 
#
# 1 0.019017 -0.009085 -0.001703 0.000000 -0.009776 0.000000
# 2 -0.009085 0.045516 -0.005483 0.000002 0.002604 -0.000006
# 3 -0.001703 -0.005483 0.010217 0.000000 -0.016330 0.000000
# 4 0.000000 0.000002 0.000000 0.050451 -0.000001 -0.019433
# 5 -0.009776 0.002604 -0.016330 -0.000001 0.115582 0.000003
# 6 0.000000 -0.000006 0.000000 -0.019433 0.000003 0.074402
#
#
# Mechanical properties :
#
#
# Convention : Reuss Voigt Hill
#
# Bulk Modulus (GPa) = 23.69252 46.96831 35.33041
# Shear Modulus (GPa) = 13.82001 21.61884 17.71942
#
# Velocity S-wave (km/s) = 2.79310 3.49340 3.16270
# Velocity P-wave (km/s) = 4.87610 6.54106 5.76896
#
# Compressibility (1/GPa) = 0.04220742
#
# Stress axis : x y z
#
# Youngs Moduli (GPa) = 52.58510 21.97053 97.87866
#
# Poissons Ratio (x) = 0.19961 0.16668
# Poissons Ratio (y) = 0.47775 0.53663
# Poissons Ratio (z) = 0.08955 0.12046
#
# Static dielectric constant tensor:
#      x y z
#    x 3.002130 0.000000 -0.008320 
#    y 0.000000 3.006980 0.000000 
#    z -0.008320 0.000000 3.902540 
# 
# 
# High freq. dielectric constant tensor:
#      x y z
#    x 1.628910 0.000000 0.009370 
#    y 0.000000 1.661760 0.000000 
#    z 0.009370 0.000000 1.717550 
# 
# From -- ./inp_files/365175.got.cif
#   From: 2010.06.25/outbox.cif.g09.slc.cpg/sg12_183_cif.got.tgz:365175.got - 2010.06.28 00:19:55.
