data_PCOD8080852
_publ_section_title
;
Structure prediction by ZEFSAII (Michael W. Deem and Ramdas Pophale) SiO2 
 PCOD8080852
Probable space group: C 2/M
;
_chemical_formula_sum "Si O2"
_cell_formula_units_Z 56
_cell_length_a 28.566808
_cell_length_b 9.461413
_cell_length_c 17.585381
_cell_angle_alpha 90.000000
_cell_angle_beta 136.154847
_cell_angle_gamma 90.000000
_cell_volume 3292.471739
_symmetry_space_group_name_H-M "C 2/M"
_symmetry_group_IT_number 12
_symmetry_cell_setting 'monoclinic'
loop_
_space_group_symop_operation_xyz
x,y,z
-x,y,-z
-x,-y,-z
x,-y,z
1/2+x,1/2+y,z
1/2-x,1/2+y,-z
1/2-x,1/2-y,-z
1/2+x,1/2-y,z
loop_
_atom_site_type_symbol
_atom_site_label
_atom_site_fract_x
_atom_site_fract_y
_atom_site_fract_z
Si Si1 0.936863 0.665843 0.641792
Si Si2 0.691870 0.835083 0.075807
Si Si3 0.414277 0.167170 0.170547
Si Si4 0.779999 0.660789 0.724264
Si Si5 0.848761 0.337082 0.401815
Si Si6 0.315423 0.164394 0.601661
Si Si7 0.824761 0.334049 0.204734
O O1 0.942410 0.500000 0.662059
O O2 0.914878 0.700291 0.529087
O O3 0.881429 0.726071 0.636157
O O4 0.010530 0.735108 0.742738
O O5 0.680126 0.800083 0.151331
O O6 0.754380 0.747807 0.115841
O O7 0.707215 0.000000 0.079947
O O8 0.624522 0.788704 0.951935
O O9 0.373712 0.224043 0.196367
O O10 0.420334 0.000000 0.185258
O O11 0.754734 0.500000 0.699421
O O12 0.713760 0.753935 0.636340
O O13 0.827681 0.683873 0.706773
O O14 0.829631 0.500000 0.389202
O O15 0.861159 0.300116 0.327949
O O16 0.250000 0.250000 0.500000
O O17 0.303861 0.000000 0.567178
O O18 0.809498 0.500000 0.177708
#
# Coordination Sequence:
#
# PCOD8080852 Si02
#       7
#     8   8   8   8   8   8   8
#     4   9  17  28  43  65  92 117 143 179 222 263
#     4   9  17  30  47  65  88 118 149 180 217 257
#     4   9  17  29  44  64  91 120 147 180 219 258
#     4   9  17  28  44  67  90 112 143 182 219 256
#     4   9  16  27  44  67  90 113 144 181 220 258
#     4  10  18  29  47  68  89 113 144 180 218 261
#     4   9  17  28  46  69  88 112 150 187 217 253
#
# _framework density 17.008497999999999
#
# number of rings (size 3 to 8) (size 9 to 14) (size 15 to 20)
#    0.000    2.857    1.429    0.429    0.000    0.571 
#    0.000    3.571    0.000    7.714    0.000    4.000 
#    0.000    5.714    0.000    0.000    0.000    0.000 
#
# Total GULP energy -347053.023690 kJ/mol
# GULP energy per Si atom -12394.750846 kJ/mol
# Density = 1.696979 g / cm^3
# Si number density = 17.008498 Si / 1000 Ang^3
#
#
#
# Elastic Constant Matrix: (Units=GPa)
#
#
# Indices 1 2 3 4 5 6 
#
# 1 109.1367 22.5706 79.4897 0.0000 -1.2679 0.0000
# 2 22.5706 26.4786 28.4551 0.0000 2.6737 0.0000
# 3 79.4897 28.4551 146.0192 0.0000 7.0062 0.0000
# 4 0.0000 0.0000 0.0000 17.2060 0.0000 0.3800
# 5 -1.2679 2.6737 7.0062 0.0000 24.7408 0.0000
# 6 0.0000 0.0000 0.0000 0.3800 0.0000 16.9432
#
#
#
# Elastic Compliance Matrix: (Units=1/GPa)
#
#
# Indices 1 2 3 4 5 6 
#
# 1 0.016073 -0.005665 -0.007821 0.000000 0.003651 0.000000
# 2 -0.005665 0.049927 -0.006461 0.000000 -0.003856 0.000000
# 3 -0.007821 -0.006461 0.012521 0.000000 -0.003248 0.000000
# 4 0.000000 0.000000 0.000000 0.058148 0.000000 -0.001304
# 5 0.003651 -0.003856 -0.003248 0.000000 0.041943 0.000000
# 6 0.000000 0.000000 0.000000 -0.001304 0.000000 0.059050
#
#
# Mechanical properties :
#
#
# Convention : Reuss Voigt Hill
#
# Bulk Modulus (GPa) = 25.88768 60.29613 43.09190
# Shear Modulus (GPa) = 17.21577 21.85263 19.53420
#
# Velocity S-wave (km/s) = 3.18494 3.58831 3.39262
# Velocity P-wave (km/s) = 5.36457 7.25917 6.38256
#
# Compressibility (1/GPa) = 0.03862842
#
# Stress axis : x y z
#
# Youngs Moduli (GPa) = 62.21483 20.02916 79.86577
#
# Poissons Ratio (x) = 0.11346 0.62465
# Poissons Ratio (y) = 0.35242 0.51599
# Poissons Ratio (z) = 0.48660 0.12940
#
# Static dielectric constant tensor:
#      x y z
#    x 3.390420 0.000000 -0.146110 
#    y 0.000000 2.938260 0.000000 
#    z -0.146110 0.000000 3.388840 
# 
# 
# High freq. dielectric constant tensor:
#      x y z
#    x 1.652600 0.000000 -0.021110 
#    y 0.000000 1.622740 0.000000 
#    z -0.021110 0.000000 1.657010 
# 
# From -- ./inp_files/245619.got.cif
#   From: 2010.06.25/outbox.cif.g09.slc.cpg/sg12_123_cif.got.tgz:245619.got - 2010.06.28 00:19:55.
