data_PCOD8080306
_publ_section_title
;
Structure prediction by ZEFSAII (Michael W. Deem and Ramdas Pophale) SiO2 
 PCOD8080306
Probable space group: C 2/M
;
_chemical_formula_sum "Si O2"
_cell_formula_units_Z 64
_cell_length_a 19.912391
_cell_length_b 8.831468
_cell_length_c 21.352244
_cell_angle_alpha 90.000000
_cell_angle_beta 103.837871
_cell_angle_gamma 90.000000
_cell_volume 3645.931549
_symmetry_space_group_name_H-M "C 2/M"
_symmetry_group_IT_number 12
_symmetry_cell_setting 'monoclinic'
loop_
_space_group_symop_operation_xyz
x,y,z
-x,y,-z
-x,-y,-z
x,-y,z
1/2+x,1/2+y,z
1/2-x,1/2+y,-z
1/2-x,1/2-y,-z
1/2+x,1/2-y,z
loop_
_atom_site_type_symbol
_atom_site_label
_atom_site_fract_x
_atom_site_fract_y
_atom_site_fract_z
Si Si1 0.791018 0.679187 0.952308
Si Si2 0.595032 0.820481 0.187113
Si Si3 0.937177 0.668636 0.565533
Si Si4 0.246833 0.321765 0.192802
Si Si5 0.123311 0.820634 0.702072
Si Si6 0.901727 0.329066 0.427625
Si Si7 0.930910 0.823282 0.946781
Si Si8 0.521048 0.181147 0.296770
O O1 0.793482 0.500000 0.960127
O O2 0.752268 0.728429 0.879640
O O3 0.869022 0.739901 0.969045
O O4 0.750000 0.750000 0.000000
O O5 0.675040 0.768009 0.208448
O O6 0.558005 0.740783 0.120480
O O7 0.557374 0.764798 0.241491
O O8 0.589331 0.000000 0.176484
O O9 0.906968 0.500000 0.561322
O O10 0.896267 0.744846 0.497278
O O11 0.931311 0.742478 0.633823
O O12 0.018217 0.664290 0.570727
O O13 0.251891 0.500000 0.198938
O O14 0.312231 0.253029 0.244109
O O15 0.136119 0.773979 0.632388
O O16 0.055267 0.749777 0.717599
O O17 0.117541 0.000000 0.704646
O O18 0.871290 0.500000 0.418879
O O19 0.913865 0.000000 0.939690
O O20 0.000000 0.788811 0.000000
O O21 0.514856 0.000000 0.299673
#
# Coordination Sequence:
#
# PCOD8080306 Si02
#       8
#     8   8   8   8   8   8   8   8
#     4  10  20  36  56  76  99 127 163 202 240 286
#     4   9  18  34  54  71  90 122 163 200 231 273
#     4   7  11  22  41  62  86 116 148 187 232 274
#     4   8  17  33  49  66  92 126 156 183 225 281
#     4  10  18  28  44  67  95 123 151 187 233 280
#     4   8  13  24  41  61  87 118 153 190 227 269
#     4  10  21  36  53  74 101 131 161 195 240 291
#     4   9  17  30  48  70  92 116 154 198 235 273
#
# _framework density 17.553812000000001
#
# number of rings (size 3 to 8) (size 9 to 14) (size 15 to 20)
#    0.000    3.125    0.000    3.375    0.000    2.500 
#    0.000   15.000    0.000    0.750    0.000    0.000 
#    0.000    0.000    0.000    0.000    0.000    0.750 
#
# Total GULP energy -396441.454410 kJ/mol
# GULP energy per Si atom -12388.795450 kJ/mol
# Density = 1.751386 g / cm^3
# Si number density = 17.553812 Si / 1000 Ang^3
#
#
#
# Elastic Constant Matrix: (Units=GPa)
#
#
# Indices 1 2 3 4 5 6 
#
# 1 86.9661 34.1375 94.2035 0.0000 -1.2748 0.0000
# 2 34.1375 49.5930 45.6929 0.0000 0.3969 0.0000
# 3 94.2035 45.6929 179.0826 0.0000 -2.6556 0.0000
# 4 0.0000 0.0000 0.0000 26.3983 0.0000 0.9312
# 5 -1.2748 0.3969 -2.6556 0.0000 24.1777 0.0000
# 6 0.0000 0.0000 0.0000 0.9312 0.0000 19.7346
#
#
#
# Elastic Compliance Matrix: (Units=1/GPa)
#
#
# Indices 1 2 3 4 5 6 
#
# 1 0.028801 -0.007675 -0.013189 0.000000 0.000196 0.000000
# 2 -0.007675 0.028440 -0.003237 0.000000 -0.001227 0.000000
# 3 -0.013189 -0.003237 0.013360 0.000000 0.000825 0.000000
# 4 0.000000 0.000000 0.000000 0.037944 0.000000 -0.001790
# 5 0.000196 -0.001227 0.000825 0.000000 0.041482 0.000000
# 6 0.000000 0.000000 0.000000 -0.001790 0.000000 0.050757
#
#
# Mechanical properties :
#
#
# Convention : Reuss Voigt Hill
#
# Bulk Modulus (GPa) = 44.64650 73.74552 59.19601
# Shear Modulus (GPa) = 19.49673 23.50261 21.49967
#
# Velocity S-wave (km/s) = 3.33631 3.66305 3.50349
# Velocity P-wave (km/s) = 6.35063 7.74551 7.08250
#
# Compressibility (1/GPa) = 0.02239817
#
# Stress axis : x y z
#
# Youngs Moduli (GPa) = 34.72082 35.16203 74.84899
#
# Poissons Ratio (x) = 0.26987 0.98720
# Poissons Ratio (y) = 0.26648 0.24231
# Poissons Ratio (z) = 0.45794 0.11383
#
# Static dielectric constant tensor:
#      x y z
#    x 3.116760 0.000000 -0.026190 
#    y 0.000000 3.061400 0.000000 
#    z -0.026190 0.000000 3.925560 
# 
# 
# High freq. dielectric constant tensor:
#      x y z
#    x 1.645450 0.000000 -0.000840 
#    y 0.000000 1.655260 0.000000 
#    z -0.000840 0.000000 1.700570 
# 
# From -- ./inp_files/341999.got.cif
#   From: 2010.06.25/outbox.cif.g09.slc.cpg/sg12_171_cif.got.tgz:341999.got - 2010.06.28 00:19:55.
