data_PCOD8080338
_publ_section_title
;
Structure prediction by ZEFSAII (Michael W. Deem and Ramdas Pophale) SiO2 
 PCOD8080338
Probable space group: C 2/M
;
_chemical_formula_sum "Si O2"
_cell_formula_units_Z 48
_cell_length_a 12.863878
_cell_length_b 26.326121
_cell_length_c 16.830721
_cell_angle_alpha 90.000000
_cell_angle_beta 152.697487
_cell_angle_gamma 90.000000
_cell_volume 2614.444252
_symmetry_space_group_name_H-M "C 2/M"
_symmetry_group_IT_number 12
_symmetry_cell_setting 'monoclinic'
loop_
_space_group_symop_operation_xyz
x,y,z
-x,y,-z
-x,-y,-z
x,-y,z
1/2+x,1/2+y,z
1/2-x,1/2+y,-z
1/2-x,1/2-y,-z
1/2+x,1/2-y,z
loop_
_atom_site_type_symbol
_atom_site_label
_atom_site_fract_x
_atom_site_fract_y
_atom_site_fract_z
Si Si1 0.052486 0.185539 0.325267
Si Si2 0.329481 0.807361 0.041413
Si Si3 0.709695 0.280833 0.591264
Si Si4 0.227867 0.890117 0.103543
Si Si5 0.117733 0.000000 0.995296
Si Si6 0.890551 0.604551 0.512010
Si Si7 0.775992 0.500000 0.399355
O O1 0.151082 0.238171 0.359469
O O2 0.093699 0.181727 0.447743
O O3 0.182107 0.142137 0.366547
O O4 0.785450 0.178584 0.121812
O O5 0.604855 0.810901 0.228392
O O6 0.227464 0.845762 0.037905
O O7 0.250000 0.750000 0.000000
O O8 0.500000 0.258720 0.500000
O O9 0.434324 0.878221 0.302313
O O10 0.258533 0.946867 0.085873
O O11 0.000000 0.886864 0.000000
O O12 0.940353 0.000000 0.803929
O O13 0.000000 0.000000 0.000000
O O14 0.783703 0.549539 0.460226
O O15 0.000000 0.603726 0.500000
O O16 0.000000 0.500000 0.500000
#
# Coordination Sequence:
#
# PCOD8080338 Si02
#       7
#     8   8   8   8   4   8   4
#     4  10  20  36  54  77 106 138 186 222 269 333
#     4  10  21  38  51  79 110 143 190 226 267 334
#     4  10  21  37  55  76 107 143 181 231 272 317
#     4  11  20  33  53  80 113 150 182 229 279 334
#     4  10  18  30  48  78 110 143 184 222 273 342
#     4  11  19  31  51  77 110 148 179 219 273 330
#     4  10  18  28  44  74 108 143 178 216 265 332
#
# _framework density 18.359542000000001
#
# number of rings (size 3 to 8) (size 9 to 14) (size 15 to 20)
#    0.000    1.667    1.667    7.000    0.000    2.000 
#    0.000    0.000    0.000    0.000    0.000    2.333 
#    0.000    4.000    0.000    0.000    0.000    0.000 
#
# Total GULP energy -297337.047350 kJ/mol
# GULP energy per Si atom -12389.043640 kJ/mol
# Density = 1.831775 g / cm^3
# Si number density = 18.359542 Si / 1000 Ang^3
#
#
#
# Elastic Constant Matrix: (Units=GPa)
#
#
# Indices 1 2 3 4 5 6 
#
# 1 31.1967 9.7484 27.8991 -0.0007 -1.2697 -0.0006
# 2 9.7484 99.2749 23.0668 -0.0002 -7.4230 -0.0003
# 3 27.8991 23.0668 174.9731 -0.0033 -10.8456 -0.0020
# 4 -0.0007 -0.0002 -0.0033 36.1700 -0.0012 -2.3209
# 5 -1.2697 -7.4230 -10.8456 -0.0012 23.4995 -0.0007
# 6 -0.0006 -0.0003 -0.0020 -2.3209 -0.0007 23.8164
#
#
#
# Elastic Compliance Matrix: (Units=1/GPa)
#
#
# Indices 1 2 3 4 5 6 
#
# 1 0.037974 -0.002484 -0.005815 0.000000 -0.001417 0.000000
# 2 -0.002484 0.010727 -0.000840 0.000000 0.002866 0.000000
# 3 -0.005815 -0.000840 0.006915 0.000001 0.002612 0.000001
# 4 0.000000 0.000000 0.000001 0.027821 0.000002 0.002711
# 5 -0.001417 0.002866 0.002612 0.000002 0.044588 0.000002
# 6 0.000000 0.000000 0.000001 0.002711 0.000002 0.042252
#
#
# Mechanical properties :
#
#
# Convention : Reuss Voigt Hill
#
# Bulk Modulus (GPa) = 26.78326 47.43035 37.10681
# Shear Modulus (GPa) = 24.87553 33.01255 28.94404
#
# Velocity S-wave (km/s) = 3.68490 4.24502 3.97484
# Velocity P-wave (km/s) = 5.72054 7.06521 6.42813
#
# Compressibility (1/GPa) = 0.03733675
#
# Stress axis : x y z
#
# Youngs Moduli (GPa) = 26.33408 93.22699 144.61171
#
# Poissons Ratio (x) = 0.23154 0.84095
# Poissons Ratio (y) = 0.06540 0.12153
# Poissons Ratio (z) = 0.15314 0.07835
#
# Static dielectric constant tensor:
#      x y z
#    x 2.906240 -0.000010 -0.191000 
#    y -0.000010 3.468430 0.000040 
#    z -0.191000 0.000040 4.085290 
# 
# 
# High freq. dielectric constant tensor:
#      x y z
#    x 1.646590 0.000000 -0.016330 
#    y 0.000000 1.712330 0.000000 
#    z -0.016330 0.000000 1.746360 
# 
# From -- ./inp_files/150368.got.cif
#   From: 2010.06.25/outbox.cif.g09.slc.cpg/sg12_76_cif.got.tgz:150368.got - 2010.06.28 00:19:55.
