data_PCOD8080952
_publ_section_title
;
Structure prediction by ZEFSAII (Michael W. Deem and Ramdas Pophale) SiO2 
 PCOD8080952
Probable space group: C 2/M
;
_chemical_formula_sum "Si O2"
_cell_formula_units_Z 64
_cell_length_a 31.338258
_cell_length_b 9.211328
_cell_length_c 14.595315
_cell_angle_alpha 90.000000
_cell_angle_beta 62.235283
_cell_angle_gamma 90.000000
_cell_volume 3728.112989
_symmetry_space_group_name_H-M "C 2/M"
_symmetry_group_IT_number 12
_symmetry_cell_setting 'monoclinic'
loop_
_space_group_symop_operation_xyz
x,y,z
-x,y,-z
-x,-y,-z
x,-y,z
1/2+x,1/2+y,z
1/2-x,1/2+y,-z
1/2-x,1/2-y,-z
1/2+x,1/2-y,z
loop_
_atom_site_type_symbol
_atom_site_label
_atom_site_fract_x
_atom_site_fract_y
_atom_site_fract_z
Si Si1 0.172446 0.165781 0.912453
Si Si2 0.281473 0.667667 0.630256
Si Si3 0.553221 0.327440 0.550469
Si Si4 0.138015 0.829701 0.594072
Si Si5 0.170388 0.669630 0.735080
Si Si6 0.946334 0.827702 0.654946
Si Si7 0.284044 0.831213 0.808440
Si Si8 0.643358 0.330206 0.140422
O O1 0.153854 0.269018 0.849987
O O2 0.227824 0.198664 0.881516
O O3 0.166609 0.000000 0.885478
O O4 0.140710 0.197891 0.034265
O O5 0.287139 0.500000 0.653038
O O6 0.313261 0.705122 0.510159
O O7 0.226443 0.706714 0.661531
O O8 0.300693 0.762250 0.695584
O O9 0.555864 0.500000 0.547138
O O10 0.592404 0.267664 0.582891
O O11 0.499575 0.273466 0.632445
O O12 0.565510 0.270654 0.435703
O O13 0.138826 0.745785 0.688823
O O14 0.133071 0.000000 0.619047
O O15 0.159885 0.500000 0.743428
O O16 0.906198 0.769821 0.765717
O O17 0.946448 0.000000 0.654454
O O18 0.311759 0.756208 0.863709
O O19 0.296751 0.000000 0.793897
O O20 0.651175 0.500000 0.153632
#
# Coordination Sequence:
#
# PCOD8080952 Si02
#       8
#     8   8   8   8   8   8   8   8
#     4   9  19  33  46  63  89 122 157 191 225 261
#     4   9  18  31  46  66  92 122 154 185 220 265
#     4   8  14  25  44  71  97 117 140 177 224 269
#     4  10  18  29  48  70  92 119 151 186 225 270
#     4  10  20  32  46  65  91 122 154 189 226 265
#     4   8  14  26  45  70  96 117 142 179 222 267
#     4  10  19  29  43  66  96 124 150 184 224 267
#     4  10  18  29  48  69  90 119 154 189 225 268
#
# _framework density 17.166861999999998
#
# number of rings (size 3 to 8) (size 9 to 14) (size 15 to 20)
#    0.000    2.750    0.000    3.000    0.000    4.000 
#    0.000    0.000    0.000    1.500    0.000    7.875 
#    0.000    0.000    0.000    0.000    0.000    0.000 
#
# Total GULP energy -396777.721243 kJ/mol
# GULP energy per Si atom -12399.303789 kJ/mol
# Density = 1.712779 g / cm^3
# Si number density = 17.166862 Si / 1000 Ang^3
#
#
#
# Elastic Constant Matrix: (Units=GPa)
#
#
# Indices 1 2 3 4 5 6 
#
# 1 106.1899 36.1084 61.0122 0.0000 15.6536 0.0000
# 2 36.1084 51.0429 39.7607 0.0000 10.9759 0.0000
# 3 61.0122 39.7607 118.3924 0.0000 7.8250 0.0000
# 4 0.0000 0.0000 0.0000 19.2376 0.0000 8.1330
# 5 15.6536 10.9759 7.8250 0.0000 22.7885 0.0000
# 6 0.0000 0.0000 0.0000 8.1330 0.0000 19.7667
#
#
#
# Elastic Compliance Matrix: (Units=1/GPa)
#
#
# Indices 1 2 3 4 5 6 
#
# 1 0.015381 -0.005012 -0.005837 0.000000 -0.006147 0.000000
# 2 -0.005012 0.030568 -0.007098 0.000000 -0.008843 0.000000
# 3 -0.005837 -0.007098 0.013657 0.000000 0.002739 0.000000
# 4 0.000000 0.000000 0.000000 0.062927 0.000000 -0.025891
# 5 -0.006147 -0.008843 0.002739 0.000000 0.051423 0.000000
# 6 0.000000 0.000000 0.000000 -0.025891 0.000000 0.061243
#
#
# Mechanical properties :
#
#
# Convention : Reuss Voigt Hill
#
# Bulk Modulus (GPa) = 42.17392 61.04308 51.60850
# Shear Modulus (GPa) = 17.92120 21.60815 19.76468
#
# Velocity S-wave (km/s) = 3.23451 3.55168 3.39680
# Velocity P-wave (km/s) = 6.21046 7.24259 6.74629
#
# Compressibility (1/GPa) = 0.02371133
#
# Stress axis : x y z
#
# Youngs Moduli (GPa) = 65.01411 32.71396 73.22020
#
# Poissons Ratio (x) = 0.16397 0.42739
# Poissons Ratio (y) = 0.32587 0.51975
# Poissons Ratio (z) = 0.37949 0.23222
#
# Static dielectric constant tensor:
#      x y z
#    x 3.223840 0.000000 -0.055250 
#    y 0.000000 2.957790 0.000000 
#    z -0.055250 0.000000 3.278680 
# 
# 
# High freq. dielectric constant tensor:
#      x y z
#    x 1.648470 0.000000 0.007510 
#    y 0.000000 1.636850 0.000000 
#    z 0.007510 0.000000 1.657950 
# 
# From -- ./inp_files/249080.got.cif
#   From: 2010.06.25/outbox.cif.g09.slc.cpg/sg12_125_cif.got.tgz:249080.got - 2010.06.28 00:19:55.
