data_PCOD8080961
_publ_section_title
;
Structure prediction by ZEFSAII (Michael W. Deem and Ramdas Pophale) SiO2 
 PCOD8080961
Probable space group: C 2/M
;
_chemical_formula_sum "Si O2"
_cell_formula_units_Z 48
_cell_length_a 24.162449
_cell_length_b 9.036976
_cell_length_c 14.172263
_cell_angle_alpha 90.000000
_cell_angle_beta 110.325645
_cell_angle_gamma 90.000000
_cell_volume 2901.901984
_symmetry_space_group_name_H-M "C 2/M"
_symmetry_group_IT_number 12
_symmetry_cell_setting 'monoclinic'
loop_
_space_group_symop_operation_xyz
x,y,z
-x,y,-z
-x,-y,-z
x,-y,z
1/2+x,1/2+y,z
1/2-x,1/2+y,-z
1/2-x,1/2-y,-z
1/2+x,1/2-y,z
loop_
_atom_site_type_symbol
_atom_site_label
_atom_site_fract_x
_atom_site_fract_y
_atom_site_fract_z
Si Si1 0.026622 0.325882 0.644408
Si Si2 0.214809 0.172281 0.561437
Si Si3 0.697241 0.670055 0.020785
Si Si4 0.920874 0.174070 0.505728
Si Si5 0.627066 0.170834 0.840695
Si Si6 0.731317 0.169893 0.763049
O O1 0.017730 0.500000 0.620925
O O2 0.065231 0.258159 0.582865
O O3 0.061449 0.297775 0.762720
O O4 0.963607 0.242310 0.612018
O O5 0.250000 0.250000 0.500000
O O6 0.145945 0.206947 0.505020
O O7 0.237537 0.229691 0.675270
O O8 0.228106 0.000000 0.564922
O O9 0.697924 0.500000 0.992313
O O10 0.636375 0.741040 0.944980
O O11 0.750000 0.750000 0.000000
O O12 0.708277 0.689083 0.139647
O O13 0.933031 0.000000 0.500628
O O14 0.674728 0.221864 0.790427
O O15 0.637195 0.000000 0.869646
O O16 0.723084 0.000000 0.726640
#
# Coordination Sequence:
#
# PCOD8080961 Si02
#       6
#     8   8   8   8   8   8
#     4  10  18  29  48  70  95 129 158 188 235 284
#     4  11  23  35  50  69  92 126 164 201 239 279
#     4   9  17  27  42  65  93 125 156 189 232 280
#     4  10  20  32  45  68  95 122 159 198 237 281
#     4   9  17  28  44  69  97 126 157 188 229 282
#     4   9  17  31  46  64  94 125 157 196 232 277
#
# _framework density 16.540876000000001
#
# number of rings (size 3 to 8) (size 9 to 14) (size 15 to 20)
#    0.000    2.333    1.667    4.000    0.000    6.667 
#    0.000    0.000    0.000    0.000    0.000    1.167 
#    0.000    9.333    0.000    0.000    0.000    0.000 
#
# Total GULP energy -297477.836245 kJ/mol
# GULP energy per Si atom -12394.909844 kJ/mol
# Density = 1.650323 g / cm^3
# Si number density = 16.540876 Si / 1000 Ang^3
#
#
#
# Elastic Constant Matrix: (Units=GPa)
#
#
# Indices 1 2 3 4 5 6 
#
# 1 66.7189 45.2448 48.0959 0.0000 8.1422 0.0000
# 2 45.2448 103.9440 64.4976 0.0000 9.5385 0.0000
# 3 48.0959 64.4976 120.7063 0.0000 24.1266 0.0000
# 4 0.0000 0.0000 0.0000 34.0148 0.0000 4.3764
# 5 8.1422 9.5385 24.1266 0.0000 23.1841 0.0000
# 6 0.0000 0.0000 0.0000 4.3764 0.0000 22.6221
#
#
#
# Elastic Compliance Matrix: (Units=1/GPa)
#
#
# Indices 1 2 3 4 5 6 
#
# 1 0.023786 -0.006658 -0.006058 0.000000 0.000690 0.000000
# 2 -0.006658 0.016384 -0.006593 0.000000 0.002459 0.000000
# 3 -0.006058 -0.006593 0.016735 0.000000 -0.012575 0.000000
# 4 0.000000 0.000000 0.000000 0.030149 0.000000 -0.005833
# 5 0.000690 0.002459 -0.012575 0.000000 0.054965 0.000000
# 6 0.000000 0.000000 0.000000 -0.005833 0.000000 0.045333
#
#
# Mechanical properties :
#
#
# Convention : Reuss Voigt Hill
#
# Bulk Modulus (GPa) = 54.68391 67.44952 61.06672
# Shear Modulus (GPa) = 21.54554 24.86625 23.20589
#
# Velocity S-wave (km/s) = 3.61302 3.88148 3.74965
# Velocity P-wave (km/s) = 7.10893 7.80729 7.46628
#
# Compressibility (1/GPa) = 0.01828691
#
# Stress axis : x y z
#
# Youngs Moduli (GPa) = 42.04132 61.03487 59.75565
#
# Poissons Ratio (x) = 0.40637 0.36200
# Poissons Ratio (y) = 0.27991 0.39398
# Poissons Ratio (z) = 0.25469 0.40241
#
# Static dielectric constant tensor:
#      x y z
#    x 3.075110 0.000000 0.732090 
#    y 0.000000 3.336940 0.000000 
#    z 0.732090 0.000000 3.893960 
# 
# 
# High freq. dielectric constant tensor:
#      x y z
#    x 1.584590 0.000000 0.036060 
#    y 0.000000 1.652770 0.000000 
#    z 0.036060 0.000000 1.640270 
# 
# From -- ./inp_files/236865.got.cif
#   From: 2010.06.25/outbox.cif.g09.slc.cpg/sg12_119_cif.got.tgz:236865.got - 2010.06.28 00:19:55.
