data_PCOD8080263
_publ_section_title
;
Structure prediction by ZEFSAII (Michael W. Deem and Ramdas Pophale) SiO2 
 PCOD8080263
Probable space group: C 2/M
;
_chemical_formula_sum "Si O2"
_cell_formula_units_Z 64
_cell_length_a 31.762568
_cell_length_b 8.865805
_cell_length_c 30.390981
_cell_angle_alpha 90.000000
_cell_angle_beta 29.829289
_cell_angle_gamma 90.000000
_cell_volume 4256.959832
_symmetry_space_group_name_H-M "C 2/M"
_symmetry_group_IT_number 12
_symmetry_cell_setting 'monoclinic'
loop_
_space_group_symop_operation_xyz
x,y,z
-x,y,-z
-x,-y,-z
x,-y,z
1/2+x,1/2+y,z
1/2-x,1/2+y,-z
1/2-x,1/2-y,-z
1/2+x,1/2-y,z
loop_
_atom_site_type_symbol
_atom_site_label
_atom_site_fract_x
_atom_site_fract_y
_atom_site_fract_z
Si Si1 0.306638 0.323819 0.985674
Si Si2 0.210397 0.823934 0.472388
Si Si3 0.585852 0.175584 0.331208
Si Si4 0.449748 0.821401 0.811624
Si Si5 0.612375 0.174766 0.483169
Si Si6 0.600402 0.330402 0.405929
Si Si7 0.346464 0.824127 0.821258
Si Si8 0.627821 0.675881 0.638887
O O1 0.317285 0.500000 0.966838
O O2 0.398753 0.245126 0.900304
O O3 0.250000 0.250000 0.000000
O O4 0.253983 0.295581 0.078719
O O5 0.164229 0.774534 0.470169
O O6 0.296766 0.730573 0.398105
O O7 0.149506 0.786630 0.568655
O O8 0.232548 0.000000 0.450669
O O9 0.486043 0.204095 0.418646
O O10 0.627920 0.261028 0.334254
O O11 0.627838 0.246208 0.249041
O O12 0.606283 0.000000 0.318714
O O13 0.405303 0.758525 0.807236
O O14 0.545195 0.766737 0.727568
O O15 0.446307 0.000000 0.817453
O O16 0.638163 0.229056 0.410962
O O17 0.636056 0.000000 0.467125
O O18 0.500000 0.328534 0.500000
O O19 0.635927 0.500000 0.377630
O O20 0.367028 0.000000 0.800354
O O21 0.612266 0.500000 0.660633
#
# Coordination Sequence:
#
# PCOD8080263 Si02
#       8
#     8   8   8   8   8   8   8   8
#     4   9  16  27  41  59  83 111 142 175 212 252
#     4  10  20  32  45  62  85 111 140 177 215 248
#     4   9  16  27  42  60  82 110 143 174 207 249
#     4  10  18  29  44  61  83 113 146 178 213 250
#     4  10  18  28  44  62  82 112 145 174 207 250
#     4   9  17  28  40  57  82 109 138 174 211 246
#     4   8  15  26  41  60  83 111 141 173 208 249
#     4  10  20  32  45  62  84 111 143 177 212 250
#
# _framework density 15.034203
#
# number of rings (size 3 to 8) (size 9 to 14) (size 15 to 20)
#    0.000    2.625    0.000    3.750    0.000    4.500 
#    0.000    3.750    0.000    0.000    0.000    0.000 
#    0.000    1.000    0.000   10.750    0.000    4.750 
#
# Total GULP energy -396689.768415 kJ/mol
# GULP energy per Si atom -12396.555263 kJ/mol
# Density = 1.499998 g / cm^3
# Si number density = 15.034203 Si / 1000 Ang^3
#
#
#
# Elastic Constant Matrix: (Units=GPa)
#
#
# Indices 1 2 3 4 5 6 
#
# 1 65.0121 22.0101 31.6899 -0.0069 11.7080 0.0005
# 2 22.0101 63.2887 35.2180 -0.0069 3.3105 0.0014
# 3 31.6899 35.2180 91.6114 -0.0123 7.9679 0.0038
# 4 -0.0069 -0.0069 -0.0123 22.1915 0.0026 -1.4226
# 5 11.7080 3.3105 7.9679 0.0026 19.4626 -0.0015
# 6 0.0005 0.0014 0.0038 -1.4226 -0.0015 24.7691
#
#
#
# Elastic Compliance Matrix: (Units=1/GPa)
#
#
# Indices 1 2 3 4 5 6 
#
# 1 0.020883 -0.004076 -0.004795 0.000004 -0.009906 0.000000
# 2 -0.004076 0.020897 -0.006769 0.000001 0.001668 0.000000
# 3 -0.004795 -0.006769 0.015373 0.000005 -0.002258 -0.000002
# 4 0.000004 0.000001 0.000005 0.045229 -0.000010 0.002598
# 5 -0.009906 0.001668 -0.002258 -0.000010 0.057980 0.000003
# 6 0.000000 0.000000 -0.000002 0.002598 0.000003 0.040522
#
#
# Mechanical properties :
#
#
# Convention : Reuss Voigt Hill
#
# Bulk Modulus (GPa) = 38.64974 44.19423 41.42199
# Shear Modulus (GPa) = 20.76507 22.01759 21.39133
#
# Velocity S-wave (km/s) = 3.72047 3.83103 3.77615
# Velocity P-wave (km/s) = 6.64978 7.00205 6.82818
#
# Compressibility (1/GPa) = 0.02587340
#
# Stress axis : x y z
#
# Youngs Moduli (GPa) = 47.88553 47.85279 65.04958
#
# Poissons Ratio (x) = 0.19505 0.31193
# Poissons Ratio (y) = 0.19518 0.44030
# Poissons Ratio (z) = 0.22963 0.32390
#
# Static dielectric constant tensor:
#      x y z
#    x 2.781690 -0.000010 0.213420 
#    y -0.000010 2.993270 0.000060 
#    z 0.213420 0.000060 3.070950 
# 
# 
# High freq. dielectric constant tensor:
#      x y z
#    x 1.546640 0.000000 0.012340 
#    y 0.000000 1.584140 0.000000 
#    z 0.012340 0.000000 1.559760 
# 
# From -- ./inp_files/243967.got.cif
#   From: 2010.06.25/outbox.cif.g09.slc.cpg/sg12_122_cif.got.tgz:243967.got - 2010.06.28 00:19:55.
