data_PCOD8080923
_publ_section_title
;
Structure prediction by ZEFSAII (Michael W. Deem and Ramdas Pophale) SiO2 
 PCOD8080923
Probable space group: C 2/M
;
_chemical_formula_sum "Si O2"
_cell_formula_units_Z 60
_cell_length_a 24.320280
_cell_length_b 14.474158
_cell_length_c 21.953121
_cell_angle_alpha 90.000000
_cell_angle_beta 28.017798
_cell_angle_gamma 90.000000
_cell_volume 3630.120730
_symmetry_space_group_name_H-M "C 2/M"
_symmetry_group_IT_number 12
_symmetry_cell_setting 'monoclinic'
loop_
_space_group_symop_operation_xyz
x,y,z
-x,y,-z
-x,-y,-z
x,-y,z
1/2+x,1/2+y,z
1/2-x,1/2+y,-z
1/2-x,1/2-y,-z
1/2+x,1/2-y,z
loop_
_atom_site_type_symbol
_atom_site_label
_atom_site_fract_x
_atom_site_fract_y
_atom_site_fract_z
Si Si1 0.630437 0.233470 0.989057
Si Si2 0.886975 0.717926 0.760997
Si Si3 0.500000 0.727607 0.000000
Si Si4 0.011379 0.898097 0.819945
Si Si5 0.935572 0.898986 0.767205
Si Si6 0.554827 0.103636 0.511977
Si Si7 0.668799 0.893845 0.062132
Si Si8 0.685884 0.606260 0.749266
O O1 0.766582 0.257203 0.843980
O O2 0.558185 0.210096 0.997225
O O3 0.581767 0.327219 0.063923
O O4 0.615439 0.149491 0.051836
O O5 0.954964 0.815751 0.701698
O O6 0.869499 0.667687 0.842938
O O7 0.969971 0.657126 0.639305
O O8 0.394636 0.663291 0.125962
O O9 0.136913 0.884584 0.728623
O O10 0.029633 0.888598 0.729585
O O11 0.960835 0.000000 0.884939
O O12 0.948048 0.000000 0.722945
O O13 0.808316 0.889467 0.922740
O O14 0.500000 0.104341 0.500000
O O15 0.683782 0.148683 0.381100
O O16 0.566447 0.000000 0.526438
O O17 0.624802 0.000000 0.111412
O O18 0.688692 0.500000 0.769474
#
# Coordination Sequence:
#
# PCOD8080923 Si02
#       8
#     8   8   4   8   8   8   8   8
#     4  10  18  30  45  75  99 123 165 204 234 284
#     4  11  18  30  51  73  98 128 161 193 247 294
#     4  10  19  30  53  68  96 132 162 196 242 282
#     4   9  15  26  46  67  96 122 147 196 243 275
#     4   9  16  28  47  74 100 121 153 202 244 278
#     4  10  21  34  46  66  99 131 160 192 233 292
#     4  10  18  29  47  73 102 128 161 204 241 281
#     4   9  18  31  45  69  96 124 160 197 234 284
#
# _framework density 16.528376000000002
#
# number of rings (size 3 to 8) (size 9 to 14) (size 15 to 20)
#    0.000    2.267    2.667    2.200    0.000    1.067 
#    0.000    1.000    0.000    0.400    0.000    0.933 
#    0.000    0.000    0.000    0.000    0.000    0.000 
#
# Total GULP energy -371773.200592 kJ/mol
# GULP energy per Si atom -12392.440020 kJ/mol
# Density = 1.649076 g / cm^3
# Si number density = 16.528376 Si / 1000 Ang^3
#
#
#
# Elastic Constant Matrix: (Units=GPa)
#
#
# Indices 1 2 3 4 5 6 
#
# 1 100.7437 36.2441 22.3964 0.0000 -3.5857 0.0000
# 2 36.2441 78.7686 24.0808 0.0001 2.4161 -0.0001
# 3 22.3964 24.0808 67.0098 0.0001 -0.8739 -0.0001
# 4 0.0000 0.0001 0.0001 53.5296 0.0000 12.4707
# 5 -3.5857 2.4161 -0.8739 0.0000 18.9335 0.0001
# 6 0.0000 -0.0001 -0.0001 12.4707 0.0001 24.6819
#
#
#
# Elastic Compliance Matrix: (Units=1/GPa)
#
#
# Indices 1 2 3 4 5 6 
#
# 1 0.012362 -0.005083 -0.002267 0.000000 0.002885 0.000000
# 2 -0.005083 0.016433 -0.004249 0.000000 -0.003256 0.000000
# 3 -0.002267 -0.004249 0.017220 0.000000 0.000908 0.000000
# 4 0.000000 0.000000 0.000000 0.021174 0.000000 -0.010698
# 5 0.002885 -0.003256 0.000908 0.000000 0.053820 0.000000
# 6 0.000000 0.000000 0.000000 -0.010698 0.000000 0.045921
#
#
# Mechanical properties :
#
#
# Convention : Reuss Voigt Hill
#
# Bulk Modulus (GPa) = 43.82970 45.77385 44.80177
# Shear Modulus (GPa) = 25.28652 30.34904 27.81778
#
# Velocity S-wave (km/s) = 3.91562 4.28971 4.10693
# Velocity P-wave (km/s) = 6.85698 7.23116 7.04656
#
# Compressibility (1/GPa) = 0.02281558
#
# Stress axis : x y z
#
# Youngs Moduli (GPa) = 80.89478 60.85202 58.07308
#
# Poissons Ratio (x) = 0.30934 0.13166
# Poissons Ratio (y) = 0.41122 0.24675
# Poissons Ratio (z) = 0.18340 0.25856
#
# Static dielectric constant tensor:
#      x y z
#    x 3.465980 0.000000 -0.093310 
#    y 0.000000 3.271860 0.000000 
#    z -0.093310 0.000000 2.791960 
# 
# 
# High freq. dielectric constant tensor:
#      x y z
#    x 1.646490 0.000000 -0.009880 
#    y 0.000000 1.627900 0.000000 
#    z -0.009880 0.000000 1.597820 
# 
# From -- ./inp_files/325528.got.cif
#   From: 2010.06.25/outbox.cif.g09.slc.cpg/sg12_163_cif.got.tgz:325528.got - 2010.06.28 00:19:55.
