data_PCOD8080999
_publ_section_title
;
Structure prediction by ZEFSAII (Michael W. Deem and Ramdas Pophale) SiO2 
 PCOD8080999
Probable space group: C 2/M
;
_chemical_formula_sum "Si O2"
_cell_formula_units_Z 48
_cell_length_a 16.164267
_cell_length_b 13.178273
_cell_length_c 15.235196
_cell_angle_alpha 90.000000
_cell_angle_beta 51.504423
_cell_angle_gamma 90.000000
_cell_volume 2539.999300
_symmetry_space_group_name_H-M "C 2/M"
_symmetry_group_IT_number 12
_symmetry_cell_setting 'monoclinic'
loop_
_space_group_symop_operation_xyz
x,y,z
-x,y,-z
-x,-y,-z
x,-y,z
1/2+x,1/2+y,z
1/2-x,1/2+y,-z
1/2-x,1/2-y,-z
1/2+x,1/2-y,z
loop_
_atom_site_type_symbol
_atom_site_label
_atom_site_fract_x
_atom_site_fract_y
_atom_site_fract_z
Si Si1 0.326313 0.385269 0.051703
Si Si2 0.014031 0.885357 0.205799
Si Si3 0.900572 0.383832 0.620325
Si Si4 0.457378 0.883389 0.125650
Si Si5 0.103103 0.313600 0.187268
Si Si6 0.175076 0.805042 0.760443
O O1 0.285493 0.500000 0.069652
O O2 0.228844 0.313985 0.086766
O O3 0.358873 0.363838 0.129501
O O4 0.428765 0.366265 0.925283
O O5 0.067247 0.802240 0.234308
O O6 0.890364 0.859628 0.274433
O O7 0.029450 0.000000 0.231494
O O8 0.876454 0.500000 0.610682
O O9 0.924762 0.378686 0.708088
O O10 0.799832 0.315216 0.660062
O O11 0.000000 0.342121 0.500000
O O12 0.546685 0.858347 0.138576
O O13 0.354950 0.813812 0.212171
O O14 0.421852 0.000000 0.157623
O O15 0.500000 0.860433 0.000000
#
# Coordination Sequence:
#
# PCOD8080999 Si02
#       6
#     8   8   8   8   8   8
#     4  10  18  29  48  73 102 136 172 206 244 295
#     4  10  19  29  46  75 107 135 160 196 253 314
#     4  10  21  38  59  77  93 124 175 228 268 298
#     4  10  20  33  51  78 112 146 172 195 238 307
#     4  10  19  34  52  72 102 135 173 211 245 295
#     4  10  18  32  52  74 102 131 169 217 258 296
#
# _framework density 18.897642999999999
#
# number of rings (size 3 to 8) (size 9 to 14) (size 15 to 20)
#    0.000    2.000    0.000    7.000    0.000    2.667 
#    0.000   10.000    0.000    4.000    0.000    0.000 
#    0.000    0.000    0.000    0.000    0.000    0.000 
#
# Total GULP energy -297531.199028 kJ/mol
# GULP energy per Si atom -12397.133293 kJ/mol
# Density = 1.885463 g / cm^3
# Si number density = 18.897643 Si / 1000 Ang^3
#
#
#
# Elastic Constant Matrix: (Units=GPa)
#
#
# Indices 1 2 3 4 5 6 
#
# 1 97.7942 37.3131 22.0118 0.0000 -15.3175 0.0000
# 2 37.3131 111.6030 22.1663 0.0000 -19.2269 0.0000
# 3 22.0118 22.1663 56.7972 0.0000 -15.5373 0.0000
# 4 0.0000 0.0000 0.0000 19.3935 0.0000 -3.7864
# 5 -15.3175 -19.2269 -15.5373 0.0000 23.7764 0.0000
# 6 0.0000 0.0000 0.0000 -3.7864 0.0000 26.2890
#
#
#
# Elastic Compliance Matrix: (Units=1/GPa)
#
#
# Indices 1 2 3 4 5 6 
#
# 1 0.012582 -0.003003 -0.002619 0.000000 0.003966 0.000000
# 2 -0.003003 0.011346 -0.001563 0.000000 0.006219 0.000000
# 3 -0.002619 -0.001563 0.022435 0.000000 0.011709 0.000000
# 4 0.000000 0.000000 0.000000 0.053056 0.000000 0.007642
# 5 0.003966 0.006219 0.011709 0.000000 0.057294 0.000000
# 6 0.000000 0.000000 0.000000 0.007642 0.000000 0.039139
#
#
# Mechanical properties :
#
#
# Convention : Reuss Voigt Hill
#
# Bulk Modulus (GPa) = 31.25771 47.68631 39.47201
# Shear Modulus (GPa) = 22.63598 26.20533 24.42066
#
# Velocity S-wave (km/s) = 3.46471 3.72788 3.59870
# Velocity P-wave (km/s) = 5.70807 6.61953 6.18063
#
# Compressibility (1/GPa) = 0.03199211
#
# Stress axis : x y z
#
# Youngs Moduli (GPa) = 79.47779 88.13460 44.57372
#
# Poissons Ratio (x) = 0.26469 0.11675
# Poissons Ratio (y) = 0.23869 0.06967
# Poissons Ratio (z) = 0.20818 0.13775
#
# Static dielectric constant tensor:
#      x y z
#    x 3.441060 0.000000 -0.079060 
#    y 0.000000 3.769370 0.000000 
#    z -0.079060 0.000000 3.160830 
# 
# 
# High freq. dielectric constant tensor:
#      x y z
#    x 1.733920 0.000000 -0.013770 
#    y 0.000000 1.743500 0.000000 
#    z -0.013770 0.000000 1.691700 
# 
# From -- ./inp_files/214665.got.cif
#   From: 2010.06.25/outbox.cif.g09.slc.cpg/sg12_108_cif.got.tgz:214665.got - 2010.06.28 00:19:55.
