data_PCOD8080640
_publ_section_title
;
Structure prediction by ZEFSAII (Michael W. Deem and Ramdas Pophale) SiO2 
 PCOD8080640
Probable space group: C 2/M
;
_chemical_formula_sum "Si O2"
_cell_formula_units_Z 56
_cell_length_a 32.736049
_cell_length_b 9.030675
_cell_length_c 12.141480
_cell_angle_alpha 90.000000
_cell_angle_beta 105.359031
_cell_angle_gamma 90.000000
_cell_volume 3461.174807
_symmetry_space_group_name_H-M "C 2/M"
_symmetry_group_IT_number 12
_symmetry_cell_setting 'monoclinic'
loop_
_space_group_symop_operation_xyz
x,y,z
-x,y,-z
-x,-y,-z
x,-y,z
1/2+x,1/2+y,z
1/2-x,1/2+y,-z
1/2-x,1/2-y,-z
1/2+x,1/2-y,z
loop_
_atom_site_type_symbol
_atom_site_label
_atom_site_fract_x
_atom_site_fract_y
_atom_site_fract_z
Si Si1 0.303422 0.332654 0.940104
Si Si2 0.560811 0.173920 0.540980
Si Si3 0.115399 0.326085 0.942720
Si Si4 0.003786 0.173878 0.343321
Si Si5 0.724002 0.333342 0.826859
Si Si6 0.356380 0.170454 0.279077
Si Si7 0.028441 0.828539 0.917409
O O1 0.309338 0.500000 0.903264
O O2 0.267520 0.255949 0.839222
O O3 0.347641 0.247027 0.957410
O O4 0.289029 0.326546 0.055686
O O5 0.534695 0.248277 0.620968
O O6 0.547772 0.251998 0.416708
O O7 0.610605 0.200332 0.598585
O O8 0.550237 0.000000 0.530238
O O9 0.117508 0.500000 0.962529
O O10 0.121364 0.281842 0.819290
O O11 0.070592 0.267748 0.952091
O O12 0.999045 0.205268 0.210886
O O13 0.003838 0.000000 0.370348
O O14 0.731344 0.500000 0.791713
O O15 0.686069 0.263249 0.727795
O O16 0.342778 0.000000 0.262274
O O17 0.041757 0.000000 0.931617
O O18 0.000000 0.781635 0.000000
#
# Coordination Sequence:
#
# PCOD8080640 Si02
#       7
#     8   8   8   8   8   8   8
#     4   9  16  26  39  56  82 115 146 177 216 261
#     4  10  18  29  45  64  89 117 146 181 223 268
#     4  10  18  29  44  62  84 112 150 187 221 263
#     4  10  19  30  45  64  85 112 149 187 224 265
#     4   9  16  24  37  58  83 113 146 179 212 252
#     4   9  17  27  40  60  87 117 145 176 216 264
#     4  10  21  35  48  63  87 118 152 190 230 269
#
# _framework density 16.179478
#
# number of rings (size 3 to 8) (size 9 to 14) (size 15 to 20)
#    0.000    2.429    1.429    3.000    0.000    6.000 
#    0.000    0.000    0.000    0.000    0.000    0.000 
#    0.000    1.143    0.000    3.429    0.000    5.286 
#
# Total GULP energy -347167.635888 kJ/mol
# GULP energy per Si atom -12398.844139 kJ/mol
# Density = 1.614265 g / cm^3
# Si number density = 16.179478 Si / 1000 Ang^3
#
#
#
# Elastic Constant Matrix: (Units=GPa)
#
#
# Indices 1 2 3 4 5 6 
#
# 1 98.0987 64.1281 53.4234 0.0000 33.0899 0.0000
# 2 64.1281 114.6787 44.5589 0.0000 21.5368 0.0000
# 3 53.4234 44.5589 74.4030 0.0000 18.1202 0.0000
# 4 0.0000 0.0000 0.0000 16.2646 0.0000 10.4850
# 5 33.0899 21.5368 18.1202 0.0000 29.0561 0.0000
# 6 0.0000 0.0000 0.0000 10.4850 0.0000 30.4200
#
#
#
# Elastic Compliance Matrix: (Units=1/GPa)
#
#
# Indices 1 2 3 4 5 6 
#
# 1 0.027178 -0.007638 -0.010354 0.000000 -0.018833 0.000000
# 2 -0.007638 0.014143 -0.003008 0.000000 0.000091 0.000000
# 3 -0.010354 -0.003008 0.022710 0.000000 -0.000143 0.000000
# 4 0.000000 0.000000 0.000000 0.079047 0.000000 -0.027245
# 5 -0.018833 0.000091 -0.000143 0.000000 0.055885 0.000000
# 6 0.000000 0.000000 0.000000 -0.027245 0.000000 0.042264
#
#
# Mechanical properties :
#
#
# Convention : Reuss Voigt Hill
#
# Bulk Modulus (GPa) = 45.38807 67.93348 56.66078
# Shear Modulus (GPa) = 17.20759 23.48613 20.34686
#
# Velocity S-wave (km/s) = 3.26474 3.81412 3.55007
# Velocity P-wave (km/s) = 6.50578 7.84062 7.20418
#
# Compressibility (1/GPa) = 0.02203222
#
# Stress axis : x y z
#
# Youngs Moduli (GPa) = 36.79470 70.70769 44.03251
#
# Poissons Ratio (x) = 0.54007 0.45589
# Poissons Ratio (y) = 0.28104 0.13244
# Poissons Ratio (z) = 0.38096 0.21267
#
# Static dielectric constant tensor:
#      x y z
#    x 2.936140 0.000000 0.395370 
#    y 0.000000 3.196040 0.000000 
#    z 0.395370 0.000000 2.869840 
# 
# 
# High freq. dielectric constant tensor:
#      x y z
#    x 1.603170 0.000000 0.046100 
#    y 0.000000 1.639050 0.000000 
#    z 0.046100 0.000000 1.579740 
# 
# From -- ./inp_files/247897.got.cif
#   From: 2010.06.25/outbox.cif.g09.slc.cpg/sg12_124_cif.got.tgz:247897.got - 2010.06.28 00:19:55.
