data_PCOD8080349
_publ_section_title
;
Structure prediction by ZEFSAII (Michael W. Deem and Ramdas Pophale) SiO2 
 PCOD8080349
Probable space group: C 2/M
;
_chemical_formula_sum "Si O2"
_cell_formula_units_Z 48
_cell_length_a 24.345120
_cell_length_b 8.982570
_cell_length_c 14.334807
_cell_angle_alpha 90.000000
_cell_angle_beta 111.661390
_cell_angle_gamma 90.000000
_cell_volume 2913.388581
_symmetry_space_group_name_H-M "C 2/M"
_symmetry_group_IT_number 12
_symmetry_cell_setting 'monoclinic'
loop_
_space_group_symop_operation_xyz
x,y,z
-x,y,-z
-x,-y,-z
x,-y,z
1/2+x,1/2+y,z
1/2-x,1/2+y,-z
1/2-x,1/2-y,-z
1/2+x,1/2-y,z
loop_
_atom_site_type_symbol
_atom_site_label
_atom_site_fract_x
_atom_site_fract_y
_atom_site_fract_z
Si Si1 0.478795 0.324103 0.768229
Si Si2 0.535607 0.827673 0.432306
Si Si3 0.378968 0.824809 0.828804
Si Si4 0.940531 0.164143 0.021895
Si Si5 0.211814 0.171694 0.340748
Si Si6 0.330724 0.829960 0.505605
O O1 0.466851 0.500000 0.764655
O O2 0.486962 0.269122 0.668426
O O3 0.423304 0.242902 0.780404
O O4 0.539684 0.284324 0.861978
O O5 0.500000 0.772162 0.500000
O O6 0.604817 0.801040 0.496653
O O7 0.522376 0.000000 0.402206
O O8 0.313349 0.766934 0.761815
O O9 0.381933 0.000000 0.823831
O O10 0.394527 0.776486 0.944511
O O11 0.911375 0.000000 0.006145
O O12 0.000000 0.158644 0.000000
O O13 0.282114 0.200864 0.394546
O O14 0.179071 0.219125 0.415105
O O15 0.197469 0.000000 0.313148
O O16 0.324307 0.000000 0.538124
#
# Coordination Sequence:
#
# PCOD8080349 Si02
#       6
#     8   8   8   8   8   8
#     4  10  19  31  46  65  91 123 156 191 229 271
#     4  10  20  33  49  69  94 124 157 193 230 270
#     4  11  19  27  43  68  95 122 152 185 231 282
#     4   8  16  29  43  62  90 120 151 185 226 278
#     4  10  18  28  45  66  92 124 154 187 228 273
#     4   9  18  31  45  65  91 122 157 189 227 275
#
# _framework density 16.475659
#
# number of rings (size 3 to 8) (size 9 to 14) (size 15 to 20)
#    0.000    2.333    1.667    3.500    0.000    4.667 
#    0.000    0.000    0.000    0.000    0.000    1.167 
#    0.000    0.000    0.000    0.000    0.000    0.000 
#
# Total GULP energy -297531.895806 kJ/mol
# GULP energy per Si atom -12397.162325 kJ/mol
# Density = 1.643816 g / cm^3
# Si number density = 16.475659 Si / 1000 Ang^3
#
#
#
# Elastic Constant Matrix: (Units=GPa)
#
#
# Indices 1 2 3 4 5 6 
#
# 1 67.2872 30.8851 50.8377 0.0000 7.7942 0.0000
# 2 30.8851 102.2337 67.0663 0.0000 13.1014 0.0000
# 3 50.8377 67.0663 138.9882 0.0000 22.6097 0.0000
# 4 0.0000 0.0000 0.0000 28.3412 0.0000 3.7320
# 5 7.7942 13.1014 22.6097 0.0000 21.7398 0.0000
# 6 0.0000 0.0000 0.0000 3.7320 0.0000 14.6546
#
#
#
# Elastic Compliance Matrix: (Units=1/GPa)
#
#
# Indices 1 2 3 4 5 6 
#
# 1 0.020795 -0.001916 -0.006809 0.000000 0.000780 0.000000
# 2 -0.001916 0.014543 -0.006022 0.000000 -0.001815 0.000000
# 3 -0.006809 -0.006022 0.013966 0.000000 -0.008455 0.000000
# 4 0.000000 0.000000 0.000000 0.036509 0.000000 -0.009297
# 5 0.000780 -0.001815 -0.008455 0.000000 0.055606 0.000000
# 6 0.000000 0.000000 0.000000 -0.009297 0.000000 0.070606
#
#
# Mechanical properties :
#
#
# Convention : Reuss Voigt Hill
#
# Bulk Modulus (GPa) = 50.47336 67.34302 58.90819
# Shear Modulus (GPa) = 20.15151 23.59511 21.87331
#
# Velocity S-wave (km/s) = 3.50109 3.78844 3.64760
# Velocity P-wave (km/s) = 6.85894 7.75238 7.31931
#
# Compressibility (1/GPa) = 0.01981243
#
# Stress axis : x y z
#
# Youngs Moduli (GPa) = 48.08911 68.76158 71.60103
#
# Poissons Ratio (x) = 0.13172 0.48751
# Poissons Ratio (y) = 0.09212 0.43115
# Poissons Ratio (z) = 0.32742 0.41405
#
# Static dielectric constant tensor:
#      x y z
#    x 2.792100 0.000000 0.355280 
#    y 0.000000 3.148040 0.000000 
#    z 0.355280 0.000000 3.455650 
# 
# 
# High freq. dielectric constant tensor:
#      x y z
#    x 1.579390 0.000000 0.034720 
#    y 0.000000 1.642350 0.000000 
#    z 0.034720 0.000000 1.639190 
# 
# From -- ./inp_files/236857.got.cif
#   From: 2010.06.25/outbox.cif.g09.slc.cpg/sg12_119_cif.got.tgz:236857.got - 2010.06.28 00:19:55.
