data_PCOD8080511
_publ_section_title
;
Structure prediction by ZEFSAII (Michael W. Deem and Ramdas Pophale) SiO2 
 PCOD8080511
Probable space group: C 2/M
;
_chemical_formula_sum "Si O2"
_cell_formula_units_Z 40
_cell_length_a 8.821220
_cell_length_b 20.170443
_cell_length_c 11.964899
_cell_angle_alpha 90.000000
_cell_angle_beta 97.606054
_cell_angle_gamma 90.000000
_cell_volume 2110.158628
_symmetry_space_group_name_H-M "C 2/M"
_symmetry_group_IT_number 12
_symmetry_cell_setting 'monoclinic'
loop_
_space_group_symop_operation_xyz
x,y,z
-x,y,-z
-x,-y,-z
x,-y,z
1/2+x,1/2+y,z
1/2-x,1/2+y,-z
1/2-x,1/2-y,-z
1/2+x,1/2-y,z
loop_
_atom_site_type_symbol
_atom_site_label
_atom_site_fract_x
_atom_site_fract_y
_atom_site_fract_z
Si Si1 0.540683 0.425024 0.810524
Si Si2 0.642656 0.679235 0.077365
Si Si3 0.627134 0.220082 0.259452
Si Si4 0.855233 0.620262 0.924798
Si Si5 0.932483 0.818269 0.372025
O O1 0.487679 0.500000 0.782710
O O2 0.423220 0.392134 0.886694
O O3 0.715927 0.427195 0.874097
O O4 0.530420 0.383894 0.694910
O O5 0.699539 0.723645 0.185857
O O6 0.500000 0.714823 0.000000
O O7 0.783908 0.672420 0.006413
O O8 0.576247 0.158625 0.176384
O O9 0.751457 0.193469 0.360333
O O10 0.492649 0.251406 0.318750
O O11 0.000000 0.583735 0.000000
O O12 0.000000 0.829228 0.500000
#
# Coordination Sequence:
#
# PCOD8080511 Si02
#       5
#     8   8   8   8   8
#     4   9  20  35  48  67  95 129 167 196 224 274
#     4   9  17  29  48  70  97 130 155 184 228 284
#     4  10  18  30  47  72 100 121 154 193 236 289
#     4  10  18  28  47  73 100 126 150 187 236 284
#     4  10  20  33  51  71  93 124 159 203 245 274
#
# _framework density 18.955921
#
# number of rings (size 3 to 8) (size 9 to 14) (size 15 to 20)
#    0.000    2.400    0.000    4.200    0.000    4.400 
#    0.000    0.000    0.000    0.000    0.000    0.000 
#    0.000   19.200    0.000    0.000    0.000    0.000 
#
# Total GULP energy -247822.838257 kJ/mol
# GULP energy per Si atom -12391.141913 kJ/mol
# Density = 1.891278 g / cm^3
# Si number density = 18.955921 Si / 1000 Ang^3
#
#
#
# Elastic Constant Matrix: (Units=GPa)
#
#
# Indices 1 2 3 4 5 6 
#
# 1 48.1736 -2.3063 31.8214 0.0000 16.1494 0.0000
# 2 -2.3063 60.1318 20.7237 0.0000 13.2763 0.0000
# 3 31.8214 20.7237 110.5621 0.0000 20.4745 0.0000
# 4 0.0000 0.0000 0.0000 9.2116 0.0000 0.7529
# 5 16.1494 13.2763 20.4745 0.0000 26.8267 0.0000
# 6 0.0000 0.0000 0.0000 0.7529 0.0000 15.0046
#
#
#
# Elastic Compliance Matrix: (Units=1/GPa)
#
#
# Indices 1 2 3 4 5 6 
#
# 1 0.031768 0.007565 -0.007368 0.000000 -0.017245 0.000000
# 2 0.007565 0.020893 -0.003884 0.000000 -0.011929 0.000000
# 3 -0.007368 -0.003884 0.012480 0.000000 -0.003167 0.000000
# 4 0.000000 0.000000 0.000000 0.109006 0.000000 -0.005470
# 5 -0.017245 -0.011929 -0.003167 0.000000 0.055978 0.000000
# 6 0.000000 0.000000 0.000000 -0.005470 0.000000 0.066921
#
#
# Mechanical properties :
#
#
# Convention : Reuss Voigt Hill
#
# Bulk Modulus (GPa) = 17.31102 35.48281 26.39691
# Shear Modulus (GPa) = 15.44759 21.45051 18.44905
#
# Velocity S-wave (km/s) = 2.85778 3.36758 3.12310
# Velocity P-wave (km/s) = 4.47675 5.82065 5.19236
#
# Compressibility (1/GPa) = 0.05776668
#
# Stress axis : x y z
#
# Youngs Moduli (GPa) = 31.47789 47.86334 80.12914
#
# Poissons Ratio (x) = -0.36209 0.59038
# Poissons Ratio (y) = -0.23813 0.31125
# Poissons Ratio (z) = 0.23193 0.18592
#
# Static dielectric constant tensor:
#      x y z
#    x 3.381510 0.000000 0.088200 
#    y 0.000000 3.068140 0.000000 
#    z 0.088200 0.000000 3.393300 
# 
# 
# High freq. dielectric constant tensor:
#      x y z
#    x 1.732110 0.000000 0.008950 
#    y 0.000000 1.703110 0.000000 
#    z 0.008950 0.000000 1.729730 
# 
# From -- ./inp_files/120029.got.cif
#   From: 2010.06.25/outbox.cif.g09.slc.cpg/sg12_61_cif.got.tgz:120029.got - 2010.06.28 00:19:55.
