data_PCOD8080260
_publ_section_title
;
Structure prediction by ZEFSAII (Michael W. Deem and Ramdas Pophale) SiO2 
 PCOD8080260
Probable space group: C 2/M
;
_chemical_formula_sum "Si O2"
_cell_formula_units_Z 48
_cell_length_a 20.497871
_cell_length_b 9.210416
_cell_length_c 16.662799
_cell_angle_alpha 90.000000
_cell_angle_beta 63.885285
_cell_angle_gamma 90.000000
_cell_volume 2824.691158
_symmetry_space_group_name_H-M "C 2/M"
_symmetry_group_IT_number 12
_symmetry_cell_setting 'monoclinic'
loop_
_space_group_symop_operation_xyz
x,y,z
-x,y,-z
-x,-y,-z
x,-y,z
1/2+x,1/2+y,z
1/2-x,1/2+y,-z
1/2-x,1/2-y,-z
1/2+x,1/2-y,z
loop_
_atom_site_type_symbol
_atom_site_label
_atom_site_fract_x
_atom_site_fract_y
_atom_site_fract_z
Si Si1 0.718847 0.827210 0.438714
Si Si2 0.038439 0.837592 0.101490
Si Si3 0.947500 0.328054 0.460120
Si Si4 0.819767 0.668096 0.265540
Si Si5 0.527912 0.166836 0.729345
Si Si6 0.385910 0.664203 0.094610
O O1 0.750000 0.750000 0.500000
O O2 0.634742 0.785004 0.475641
O O3 0.757200 0.764509 0.339136
O O4 0.730838 0.000000 0.439246
O O5 0.034961 0.741527 0.183554
O O6 0.961350 0.833704 0.100267
O O7 0.057934 0.000000 0.117648
O O8 0.099658 0.782135 0.004918
O O9 0.955028 0.500000 0.452519
O O10 0.971454 0.265168 0.360381
O O11 0.000000 0.261783 0.500000
O O12 0.796551 0.500000 0.274876
O O13 0.892303 0.689822 0.277777
O O14 0.830540 0.726875 0.168882
O O15 0.506448 0.000000 0.738949
O O16 0.354618 0.500000 0.111858
#
# Coordination Sequence:
#
# PCOD8080260 Si02
#       6
#     8   8   8   8   8   8
#     4  11  20  32  50  71  94 124 160 196 238 281
#     4   8  14  24  39  60  89 122 153 185 229 280
#     4   9  18  33  50  68  93 125 162 199 231 275
#     4  10  18  28  43  68  96 122 155 192 235 279
#     4   9  16  27  43  65  90 119 157 192 229 275
#     4   8  14  25  39  60  90 123 154 185 227 279
#
# _framework density 16.993006999999999
#
# number of rings (size 3 to 8) (size 9 to 14) (size 15 to 20)
#    0.000    2.833    1.667    2.000    0.000    1.333 
#    0.000    3.333    0.000    4.500    0.000    1.167 
#    0.000    0.000    0.000    0.000    0.000    0.000 
#
# Total GULP energy -297451.863339 kJ/mol
# GULP energy per Si atom -12393.827639 kJ/mol
# Density = 1.695433 g / cm^3
# Si number density = 16.993007 Si / 1000 Ang^3
#
#
#
# Elastic Constant Matrix: (Units=GPa)
#
#
# Indices 1 2 3 4 5 6 
#
# 1 56.7643 30.1939 44.5091 0.0000 -0.4804 0.0000
# 2 30.1939 78.3701 71.4547 0.0000 -2.5402 0.0000
# 3 44.5091 71.4547 185.9238 0.0000 0.5963 0.0000
# 4 0.0000 0.0000 0.0000 36.7954 0.0000 -1.5558
# 5 -0.4804 -2.5402 0.5963 0.0000 13.4970 0.0000
# 6 0.0000 0.0000 0.0000 -1.5558 0.0000 9.3714
#
#
#
# Elastic Compliance Matrix: (Units=1/GPa)
#
#
# Indices 1 2 3 4 5 6 
#
# 1 0.023395 -0.006023 -0.003285 0.000000 -0.000156 0.000000
# 2 -0.006023 0.021416 -0.006802 0.000000 0.004117 0.000000
# 3 -0.003285 -0.006802 0.008785 0.000000 -0.001785 0.000000
# 4 0.000000 0.000000 0.000000 0.027369 0.000000 0.004544
# 5 -0.000156 0.004117 -0.001785 0.000000 0.074939 0.000000
# 6 0.000000 0.000000 0.000000 0.004544 0.000000 0.107462
#
#
# Mechanical properties :
#
#
# Convention : Reuss Voigt Hill
#
# Bulk Modulus (GPa) = 46.78347 68.15265 57.46806
# Shear Modulus (GPa) = 16.51741 23.59278 20.05510
#
# Velocity S-wave (km/s) = 3.12109 3.73014 3.43913
# Velocity P-wave (km/s) = 6.37017 7.66455 7.04714
#
# Compressibility (1/GPa) = 0.02137507
#
# Stress axis : x y z
#
# Youngs Moduli (GPa) = 42.74367 46.69506 113.83232
#
# Poissons Ratio (x) = 0.28125 0.37398
# Poissons Ratio (y) = 0.25745 0.77426
# Poissons Ratio (z) = 0.14043 0.31761
#
# Static dielectric constant tensor:
#      x y z
#    x 2.784060 0.000000 0.039740 
#    y 0.000000 3.148350 0.000000 
#    z 0.039740 0.000000 3.719320 
# 
# 
# High freq. dielectric constant tensor:
#      x y z
#    x 1.589910 0.000000 -0.000570 
#    y 0.000000 1.643300 0.000000 
#    z -0.000570 0.000000 1.679890 
# 
# From -- ./inp_files/280077.got.cif
#   From: 2010.06.25/outbox.cif.g09.slc.cpg/sg12_141_cif.got.tgz:280077.got - 2010.06.28 00:19:55.
