data_PCOD8080544
_publ_section_title
;
Structure prediction by ZEFSAII (Michael W. Deem and Ramdas Pophale) SiO2 
 PCOD8080544
Probable space group: C 2/M
;
_chemical_formula_sum "Si O2"
_cell_formula_units_Z 56
_cell_length_a 20.184457
_cell_length_b 9.437436
_cell_length_c 26.249215
_cell_angle_alpha 90.000000
_cell_angle_beta 39.633138
_cell_angle_gamma 90.000000
_cell_volume 3189.475440
_symmetry_space_group_name_H-M "C 2/M"
_symmetry_group_IT_number 12
_symmetry_cell_setting 'monoclinic'
loop_
_space_group_symop_operation_xyz
x,y,z
-x,y,-z
-x,-y,-z
x,-y,z
1/2+x,1/2+y,z
1/2-x,1/2+y,-z
1/2-x,1/2-y,-z
1/2+x,1/2-y,z
loop_
_atom_site_type_symbol
_atom_site_label
_atom_site_fract_x
_atom_site_fract_y
_atom_site_fract_z
Si Si1 0.318242 0.663167 0.921104
Si Si2 0.281017 0.335794 0.826959
Si Si3 0.488278 0.335468 0.328647
Si Si4 0.548058 0.663612 0.815438
Si Si5 0.085411 0.834639 0.909266
Si Si6 0.645712 0.166285 0.674407
Si Si7 0.312982 0.659728 0.501567
O O1 0.302316 0.500000 0.944236
O O2 0.281716 0.699617 0.886188
O O3 0.438167 0.704647 0.855956
O O4 0.250000 0.750000 0.000000
O O5 0.256706 0.500000 0.831562
O O6 0.391720 0.291890 0.737102
O O7 0.193781 0.244182 0.851592
O O8 0.481217 0.500000 0.314554
O O9 0.431879 0.239016 0.320076
O O10 0.435400 0.314426 0.416501
O O11 0.576640 0.500000 0.789329
O O12 0.543658 0.698818 0.877739
O O13 0.633716 0.760575 0.736584
O O14 0.105537 0.000000 0.906314
O O15 0.000000 0.777708 0.000000
O O16 0.767403 0.190850 0.585213
O O17 0.618869 0.000000 0.694294
O O18 0.284366 0.500000 0.504680
O O19 0.250000 0.750000 0.500000
#
# Coordination Sequence:
#
# PCOD8080544 Si02
#       7
#     8   8   8   8   8   8   8
#     4  10  20  34  52  75  99 128 166 208 256 306
#     4  10  20  34  54  77 102 132 168 211 256 304
#     4   9  16  31  51  72 104 141 169 201 254 309
#     4  10  20  36  54  72 101 138 171 203 254 317
#     4  10  22  39  57  74  97 134 175 214 256 307
#     4  10  18  28  47  79 108 131 168 214 251 290
#     4   8  15  26  44  71 103 135 166 202 247 299
#
# _framework density 17.557746000000002
#
# number of rings (size 3 to 8) (size 9 to 14) (size 15 to 20)
#    0.000    2.429    1.429    1.286    0.000    4.286 
#    0.000    0.000    0.000    0.857    0.000    6.000 
#    0.000    0.000    0.000    0.000    0.000    0.000 
#
# Total GULP energy -347004.169060 kJ/mol
# GULP energy per Si atom -12393.006038 kJ/mol
# Density = 1.751778 g / cm^3
# Si number density = 17.557746 Si / 1000 Ang^3
#
#
#
# Elastic Constant Matrix: (Units=GPa)
#
#
# Indices 1 2 3 4 5 6 
#
# 1 44.0825 23.3963 16.6972 -0.0001 0.9134 0.0001
# 2 23.3963 58.3250 50.2181 -0.0001 4.1440 0.0005
# 3 16.6972 50.2181 132.8042 0.0000 9.0111 0.0000
# 4 -0.0001 -0.0001 0.0000 30.5478 0.0000 1.6717
# 5 0.9134 4.1440 9.0111 0.0000 23.8559 0.0001
# 6 0.0001 0.0005 0.0000 1.6717 0.0001 26.1022
#
#
#
# Elastic Compliance Matrix: (Units=1/GPa)
#
#
# Indices 1 2 3 4 5 6 
#
# 1 0.028942 -0.012581 0.001073 0.000000 0.000672 0.000000
# 2 -0.012581 0.030906 -0.010031 0.000000 -0.001098 -0.000001
# 3 0.001073 -0.010031 0.011364 0.000000 -0.002591 0.000000
# 4 0.000000 0.000000 0.000000 0.032851 0.000000 -0.002104
# 5 0.000672 -0.001098 -0.002591 0.000000 0.043062 0.000000
# 6 0.000000 -0.000001 0.000000 -0.002104 0.000000 0.038446
#
#
# Mechanical properties :
#
#
# Convention : Reuss Voigt Hill
#
# Bulk Modulus (GPa) = 35.54364 46.20389 40.87376
# Shear Modulus (GPa) = 21.00609 25.76116 23.38363
#
# Velocity S-wave (km/s) = 3.46265 3.83459 3.65336
# Velocity P-wave (km/s) = 6.02283 6.78071 6.41297
#
# Compressibility (1/GPa) = 0.02813443
#
# Stress axis : x y z
#
# Youngs Moduli (GPa) = 34.55215 32.35572 87.99955
#
# Poissons Ratio (x) = 0.40707 -0.09443
# Poissons Ratio (y) = 0.43471 0.88268
# Poissons Ratio (z) = -0.03708 0.32454
#
# Static dielectric constant tensor:
#      x y z
#    x 2.923130 0.000000 0.554800 
#    y 0.000000 3.238820 -0.000010 
#    z 0.554800 -0.000010 5.024880 
# 
# 
# High freq. dielectric constant tensor:
#      x y z
#    x 1.635430 0.000000 0.008830 
#    y 0.000000 1.679970 0.000000 
#    z 0.008830 0.000000 1.703090 
# 
# From -- ./inp_files/280261.got.cif
#   From: 2010.06.25/outbox.cif.g09.slc.cpg/sg12_141_cif.got.tgz:280261.got - 2010.06.28 00:19:55.
