data_PCOD8080453
_publ_section_title
;
Structure prediction by ZEFSAII (Michael W. Deem and Ramdas Pophale) SiO2 
 PCOD8080453
Probable space group: C 2/M
;
_chemical_formula_sum "Si O2"
_cell_formula_units_Z 64
_cell_length_a 19.886773
_cell_length_b 9.434783
_cell_length_c 19.398193
_cell_angle_alpha 90.000000
_cell_angle_beta 101.715711
_cell_angle_gamma 90.000000
_cell_volume 3563.808432
_symmetry_space_group_name_H-M "C 2/M"
_symmetry_group_IT_number 12
_symmetry_cell_setting 'monoclinic'
loop_
_space_group_symop_operation_xyz
x,y,z
-x,y,-z
-x,-y,-z
x,-y,z
1/2+x,1/2+y,z
1/2-x,1/2+y,-z
1/2-x,1/2-y,-z
1/2+x,1/2-y,z
loop_
_atom_site_type_symbol
_atom_site_label
_atom_site_fract_x
_atom_site_fract_y
_atom_site_fract_z
Si Si1 0.840925 0.337032 0.430829
Si Si2 0.900130 0.835173 0.564978
Si Si3 0.862394 0.336067 0.799716
Si Si4 0.399690 0.660065 0.930208
Si Si5 0.199124 0.837444 0.330904
Si Si6 0.972134 0.663966 0.366533
Si Si7 0.443982 0.341169 0.084575
Si Si8 0.517919 0.837754 0.786725
O O1 0.839867 0.500000 0.456161
O O2 0.852012 0.234524 0.497490
O O3 0.768870 0.292747 0.382958
O O4 0.898720 0.313675 0.385461
O O5 0.864565 0.814084 0.631242
O O6 0.973225 0.756860 0.580057
O O7 0.910870 0.000000 0.549677
O O8 0.842948 0.500000 0.802130
O O9 0.854893 0.265622 0.873825
O O10 0.809265 0.261377 0.737285
O O11 0.938296 0.312658 0.786021
O O12 0.371087 0.500000 0.917102
O O13 0.477475 0.664326 0.921406
O O14 0.397342 0.709888 0.009946
O O15 0.202388 0.000000 0.306758
O O16 0.996143 0.500000 0.374119
O O17 0.966894 0.718049 0.286889
O O18 0.422945 0.500000 0.100780
O O19 0.432990 0.244110 0.149322
O O20 0.538875 0.000000 0.798342
#
# Coordination Sequence:
#
# PCOD8080453 Si02
#       8
#     8   8   8   8   8   8   8   8
#     4  10  22  38  55  72  96 131 168 203 243 296
#     4  11  22  35  54  77 100 125 159 207 254 295
#     4  10  18  28  46  71  97 128 163 201 244 288
#     4   8  14  25  40  62  95 130 161 195 236 287
#     4  10  21  36  52  73  98 130 167 202 246 295
#     4  10  20  36  54  73  99 132 167 201 242 295
#     4   8  14  24  40  63  93 129 162 193 237 286
#     4   9  17  28  44  68  96 125 160 199 239 285
#
# _framework density 17.958316
#
# number of rings (size 3 to 8) (size 9 to 14) (size 15 to 20)
#    0.000    2.500    1.250    2.250    0.000    4.500 
#    0.000    2.500    0.000    0.000    0.000    0.875 
#    0.000    0.000    0.000    0.000    0.000    0.000 
#
# Total GULP energy -396790.550630 kJ/mol
# GULP energy per Si atom -12399.704707 kJ/mol
# Density = 1.791744 g / cm^3
# Si number density = 17.958316 Si / 1000 Ang^3
#
#
#
# Elastic Constant Matrix: (Units=GPa)
#
#
# Indices 1 2 3 4 5 6 
#
# 1 29.9819 16.4793 4.7381 0.0000 2.6575 0.0000
# 2 16.4793 97.9746 70.0379 0.0000 12.8556 0.0000
# 3 4.7381 70.0379 122.9558 0.0000 17.4845 0.0000
# 4 0.0000 0.0000 0.0000 40.5403 0.0000 5.1208
# 5 2.6575 12.8556 17.4845 0.0000 7.7792 0.0000
# 6 0.0000 0.0000 0.0000 5.1208 0.0000 14.5379
#
#
#
# Elastic Compliance Matrix: (Units=1/GPa)
#
#
# Indices 1 2 3 4 5 6 
#
# 1 0.038163 -0.008576 0.004781 0.000000 -0.009611 0.000000
# 2 -0.008576 0.019628 -0.009780 0.000000 -0.007526 0.000000
# 3 0.004781 -0.009780 0.016834 0.000000 -0.023307 0.000000
# 4 0.000000 0.000000 0.000000 0.025815 0.000000 -0.009093
# 5 -0.009611 -0.007526 -0.023307 0.000000 0.196651 0.000000
# 6 0.000000 0.000000 0.000000 -0.009093 0.000000 0.071989
#
#
# Mechanical properties :
#
#
# Convention : Reuss Voigt Hill
#
# Bulk Modulus (GPa) = 21.06328 48.15811 34.61069
# Shear Modulus (GPa) = 12.13432 23.21528 17.67480
#
# Velocity S-wave (km/s) = 2.60223 3.59936 3.14062
# Velocity P-wave (km/s) = 4.55887 6.64445 5.69789
#
# Compressibility (1/GPa) = 0.04747599
#
# Stress axis : x y z
#
# Youngs Moduli (GPa) = 26.20316 50.94845 59.40452
#
# Poissons Ratio (x) = 0.43691 -0.28401
# Poissons Ratio (y) = 0.22471 0.58096
# Poissons Ratio (z) = -0.12528 0.49826
#
# Static dielectric constant tensor:
#      x y z
#    x 2.889550 0.000000 0.055100 
#    y 0.000000 3.376970 0.000000 
#    z 0.055100 0.000000 3.593810 
# 
# 
# High freq. dielectric constant tensor:
#      x y z
#    x 1.646790 0.000000 0.007120 
#    y 0.000000 1.695430 0.000000 
#    z 0.007120 0.000000 1.708930 
# 
# From -- ./inp_files/319211.got.cif
#   From: 2010.06.25/outbox.cif.g09.slc.cpg/sg12_160_cif.got.tgz:319211.got - 2010.06.28 00:19:55.
