data_PCOD8080365
_publ_section_title
;
Structure prediction by ZEFSAII (Michael W. Deem and Ramdas Pophale) SiO2 
 PCOD8080365
Probable space group: C 2/M
;
_chemical_formula_sum "Si O2"
_cell_formula_units_Z 48
_cell_length_a 28.887788
_cell_length_b 9.018796
_cell_length_c 12.078941
_cell_angle_alpha 90.000000
_cell_angle_beta 110.552696
_cell_angle_gamma 90.000000
_cell_volume 2946.658372
_symmetry_space_group_name_H-M "C 2/M"
_symmetry_group_IT_number 12
_symmetry_cell_setting 'monoclinic'
loop_
_space_group_symop_operation_xyz
x,y,z
-x,y,-z
-x,-y,-z
x,-y,z
1/2+x,1/2+y,z
1/2-x,1/2+y,-z
1/2-x,1/2-y,-z
1/2+x,1/2-y,z
loop_
_atom_site_type_symbol
_atom_site_label
_atom_site_fract_x
_atom_site_fract_y
_atom_site_fract_z
Si Si1 0.014198 0.337902 0.884769
Si Si2 0.243845 0.327814 0.659423
Si Si3 0.117711 0.322959 0.032572
Si Si4 0.781522 0.824756 0.931564
Si Si5 0.589693 0.823502 0.255443
Si Si6 0.826759 0.173300 0.552971
O O1 0.020011 0.500000 0.835705
O O2 0.967133 0.259523 0.785286
O O3 0.068472 0.261608 0.925979
O O4 0.000000 0.357519 0.000000
O O5 0.231196 0.500000 0.636673
O O6 0.255896 0.282374 0.794427
O O7 0.195926 0.236144 0.579977
O O8 0.290680 0.284808 0.623719
O O9 0.122763 0.500000 0.023643
O O10 0.163581 0.240627 0.016313
O O11 0.114007 0.279074 0.158495
O O12 0.784027 0.000000 0.950921
O O13 0.750000 0.750000 0.000000
O O14 0.620493 0.749116 0.379857
O O15 0.589551 0.000000 0.269123
O O16 0.835014 0.000000 0.547078
#
# Coordination Sequence:
#
# PCOD8080365 Si02
#       6
#     8   8   8   8   8   8
#     4   7  12  23  40  64  91 120 153 184 217 268
#     4   9  19  33  45  62  90 122 155 190 228 273
#     4   9  16  28  46  66  91 123 157 191 226 265
#     4  11  22  35  49  67  92 122 159 196 231 272
#     4   9  15  25  44  68  95 125 153 182 224 275
#     4  10  18  28  45  68  94 121 152 189 230 275
#
# _framework density 16.289639000000001
#
# number of rings (size 3 to 8) (size 9 to 14) (size 15 to 20)
#    0.000    2.833    1.667    3.000    0.000    2.000 
#    0.000    0.833    0.000    3.000    0.000    1.167 
#    0.000    9.333    0.000    0.000    0.000    0.000 
#
# Total GULP energy -297385.522105 kJ/mol
# GULP energy per Si atom -12391.063421 kJ/mol
# Density = 1.625256 g / cm^3
# Si number density = 16.289639 Si / 1000 Ang^3
#
#
#
# Elastic Constant Matrix: (Units=GPa)
#
#
# Indices 1 2 3 4 5 6 
#
# 1 119.8588 44.8369 65.9220 0.0000 30.7838 0.0000
# 2 44.8369 48.3130 37.9320 0.0000 14.1800 0.0000
# 3 65.9220 37.9320 87.8281 0.0000 26.5143 0.0000
# 4 0.0000 0.0000 0.0000 21.4435 0.0000 2.7044
# 5 30.7838 14.1800 26.5143 0.0000 35.0177 0.0000
# 6 0.0000 0.0000 0.0000 2.7044 0.0000 19.7016
#
#
#
# Elastic Compliance Matrix: (Units=1/GPa)
#
#
# Indices 1 2 3 4 5 6 
#
# 1 0.017056 -0.008226 -0.007426 0.000000 -0.006040 0.000000
# 2 -0.008226 0.035558 -0.009099 0.000000 -0.000278 0.000000
# 3 -0.007426 -0.009099 0.023082 0.000000 -0.007265 0.000000
# 4 0.000000 0.000000 0.000000 0.047456 0.000000 -0.006514
# 5 -0.006040 -0.000278 -0.007265 0.000000 0.039480 0.000000
# 6 0.000000 0.000000 0.000000 -0.006514 0.000000 0.051652
#
#
# Mechanical properties :
#
#
# Convention : Reuss Voigt Hill
#
# Bulk Modulus (GPa) = 38.17504 61.48687 49.83095
# Shear Modulus (GPa) = 18.34762 22.38649 20.36705
#
# Velocity S-wave (km/s) = 3.35973 3.71115 3.53980
# Velocity P-wave (km/s) = 6.20777 7.49609 6.88215
#
# Compressibility (1/GPa) = 0.02619513
#
# Stress axis : x y z
#
# Youngs Moduli (GPa) = 58.63204 28.12336 43.32321
#
# Poissons Ratio (x) = 0.23133 0.32170
# Poissons Ratio (y) = 0.48228 0.39420
# Poissons Ratio (z) = 0.43538 0.25590
#
# Static dielectric constant tensor:
#      x y z
#    x 3.117590 0.000000 0.415230 
#    y 0.000000 2.879840 0.000000 
#    z 0.415230 0.000000 3.023670 
# 
# 
# High freq. dielectric constant tensor:
#      x y z
#    x 1.611280 0.000000 0.041150 
#    y 0.000000 1.611090 0.000000 
#    z 0.041150 0.000000 1.604870 
# 
# From -- ./inp_files/179339.got.cif
#   From: 2010.06.25/outbox.cif.g09.slc.cpg/sg12_90_cif.got.tgz:179339.got - 2010.06.28 00:19:55.
