data_PCOD8080367
_publ_section_title
;
Structure prediction by ZEFSAII (Michael W. Deem and Ramdas Pophale) SiO2 
 PCOD8080367
Probable space group: C 2/M
;
_chemical_formula_sum "Si O2"
_cell_formula_units_Z 64
_cell_length_a 35.794709
_cell_length_b 14.709103
_cell_length_c 12.907006
_cell_angle_alpha 90.000000
_cell_angle_beta 145.996254
_cell_angle_gamma 90.000000
_cell_volume 3800.443510
_symmetry_space_group_name_H-M "C 2/M"
_symmetry_group_IT_number 12
_symmetry_cell_setting 'monoclinic'
loop_
_space_group_symop_operation_xyz
x,y,z
-x,y,-z
-x,-y,-z
x,-y,z
1/2+x,1/2+y,z
1/2-x,1/2+y,-z
1/2-x,1/2-y,-z
1/2+x,1/2-y,z
loop_
_atom_site_type_symbol
_atom_site_label
_atom_site_fract_x
_atom_site_fract_y
_atom_site_fract_z
Si Si1 0.782814 0.101704 0.784594
Si Si2 0.569662 0.266672 0.216853
Si Si3 0.298901 0.243244 0.964800
Si Si4 0.750888 0.596516 0.716369
Si Si5 0.392889 0.396853 0.520417
Si Si6 0.370266 0.106562 0.520894
Si Si7 0.803188 0.827418 0.610774
Si Si8 0.850023 0.738159 0.297338
O O1 0.817420 0.161535 0.953459
O O2 0.703420 0.119877 0.601005
O O3 0.813562 0.120672 0.742612
O O4 0.799511 0.000000 0.855835
O O5 0.567044 0.349614 0.293228
O O6 0.581832 0.168398 0.298030
O O7 0.626348 0.286630 0.262627
O O8 0.500000 0.261287 0.000000
O O9 0.302639 0.170491 0.879490
O O10 0.225463 0.242447 0.843141
O O11 0.352363 0.221918 0.178605
O O12 0.787775 0.500000 0.812130
O O13 0.684517 0.597271 0.631505
O O14 0.729139 0.606339 0.547789
O O15 0.420495 0.500000 0.561043
O O16 0.396121 0.326731 0.430252
O O17 0.374283 0.147123 0.413147
O O18 0.391738 0.000000 0.569903
O O19 0.750000 0.750000 0.500000
#
# Coordination Sequence:
#
# PCOD8080367 Si02
#       8
#     8   8   8   8   8   8   8   8
#     4  10  18  28  45  68  94 127 159 190 234 282
#     4  10  20  32  48  71  96 123 159 195 232 272
#     4   9  15  25  38  62  94 120 153 194 229 273
#     4   9  16  25  40  61  88 121 153 185 225 271
#     4   8  15  28  43  60  85 119 154 187 228 274
#     4   9  17  30  46  67  94 125 158 191 231 283
#     4  11  17  31  48  64  95 130 154 188 228 280
#     4   8  15  25  40  61  91 124 152 188 234 278
#
# _framework density 16.840140999999999
#
# number of rings (size 3 to 8) (size 9 to 14) (size 15 to 20)
#    0.000    2.750    2.500    1.875    0.000    2.000 
#    0.000    5.000    0.000    0.000    0.000    3.500 
#    0.000    6.000    0.000    0.000    0.000    0.000 
#
# Total GULP energy -396464.730595 kJ/mol
# GULP energy per Si atom -12389.522831 kJ/mol
# Density = 1.680181 g / cm^3
# Si number density = 16.840141 Si / 1000 Ang^3
#
#
#
# Elastic Constant Matrix: (Units=GPa)
#
#
# Indices 1 2 3 4 5 6 
#
# 1 54.0063 33.4660 43.4129 0.0000 -24.4687 0.0000
# 2 33.4660 144.7115 58.7363 0.0000 -18.8231 0.0000
# 3 43.4129 58.7363 92.6646 0.0000 -22.4164 0.0000
# 4 0.0000 0.0000 0.0000 11.5246 0.0000 -2.6159
# 5 -24.4687 -18.8231 -22.4164 0.0000 23.4681 0.0000
# 6 0.0000 0.0000 0.0000 -2.6159 0.0000 13.2531
#
#
#
# Elastic Compliance Matrix: (Units=1/GPa)
#
#
# Indices 1 2 3 4 5 6 
#
# 1 0.043851 -0.000981 -0.011773 0.000000 0.033689 0.000000
# 2 -0.000981 0.009429 -0.005118 0.000000 0.001652 0.000000
# 3 -0.011773 -0.005118 0.020273 0.000000 0.002985 0.000000
# 4 0.000000 0.000000 0.000000 0.090841 0.000000 0.017930
# 5 0.033689 0.001652 0.002985 0.000000 0.081913 0.000000
# 6 0.000000 0.000000 0.000000 0.017930 0.000000 0.078993
#
#
# Mechanical properties :
#
#
# Convention : Reuss Voigt Hill
#
# Bulk Modulus (GPa) = 26.44706 62.51252 44.47979
# Shear Modulus (GPa) = 13.38163 20.03364 16.70764
#
# Velocity S-wave (km/s) = 2.82197 3.45285 3.15323
# Velocity P-wave (km/s) = 5.13390 7.28684 6.30297
#
# Compressibility (1/GPa) = 0.03781138
#
# Stress axis : x y z
#
# Youngs Moduli (GPa) = 22.80438 106.05397 49.32637
#
# Poissons Ratio (x) = 0.10399 0.58071
# Poissons Ratio (y) = 0.02236 0.25244
# Poissons Ratio (z) = 0.26847 0.54275
#
# Static dielectric constant tensor:
#      x y z
#    x 31.957800 0.000000 -7.545470 
#    y 0.000000 3.821910 0.000000 
#    z -7.545470 0.000000 4.682660 
# 
# 
# High freq. dielectric constant tensor:
#      x y z
#    x 1.611670 0.000000 -0.040770 
#    y 0.000000 1.663800 0.000000 
#    z -0.040770 0.000000 1.614640 
# 
# From -- ./inp_files/189484.got.cif
#   From: 2010.06.25/outbox.cif.g09.slc.cpg/sg12_95_cif.got.tgz:189484.got - 2010.06.28 00:19:55.
