data_PCOD8080245
_publ_section_title
;
Structure prediction by ZEFSAII (Michael W. Deem and Ramdas Pophale) SiO2 
 PCOD8080245
Probable space group: C 2/M
;
_chemical_formula_sum "Si O2"
_cell_formula_units_Z 48
_cell_length_a 23.850177
_cell_length_b 9.442884
_cell_length_c 13.091866
_cell_angle_alpha 90.000000
_cell_angle_beta 103.812303
_cell_angle_gamma 90.000000
_cell_volume 2863.216452
_symmetry_space_group_name_H-M "C 2/M"
_symmetry_group_IT_number 12
_symmetry_cell_setting 'monoclinic'
loop_
_space_group_symop_operation_xyz
x,y,z
-x,y,-z
-x,-y,-z
x,-y,z
1/2+x,1/2+y,z
1/2-x,1/2+y,-z
1/2-x,1/2-y,-z
1/2+x,1/2-y,z
loop_
_atom_site_type_symbol
_atom_site_label
_atom_site_fract_x
_atom_site_fract_y
_atom_site_fract_z
Si Si1 0.970627 0.833807 0.383558
Si Si2 0.438122 0.157461 0.068093
Si Si3 0.867532 0.840130 0.884762
Si Si4 0.125561 0.657397 0.747300
Si Si5 0.256731 0.834993 0.107801
Si Si6 0.030279 0.838393 0.202522
O O1 0.908248 0.758776 0.346041
O O2 0.000000 0.779386 0.500000
O O3 0.014725 0.792507 0.310990
O O4 0.958465 0.000000 0.382116
O O5 0.412061 0.150060 0.168299
O O6 0.498201 0.243552 0.102588
O O7 0.450663 0.000000 0.031422
O O8 0.391488 0.233064 0.978124
O O9 0.799213 0.811798 0.844132
O O10 0.901077 0.819979 0.790812
O O11 0.877631 0.000000 0.929587
O O12 0.131486 0.500000 0.701831
O O13 0.188732 0.720254 0.802552
O O14 0.266159 0.000000 0.083608
O O15 0.250000 0.750000 0.000000
O O16 0.010229 0.000000 0.177005
#
# Coordination Sequence:
#
# PCOD8080245 Si02
#       6
#     8   8   8   8   8   8
#     4   9  18  33  53  72  88 112 151 198 241 277
#     4  10  18  28  43  65  94 125 154 187 224 265
#     4  10  19  29  44  64  91 127 157 183 221 269
#     4   9  18  31  46  68  95 121 153 189 227 273
#     4  10  19  31  46  66  94 128 162 188 217 264
#     4   9  18  31  45  65  91 118 152 191 231 276
#
# _framework density 16.764362999999999
#
# number of rings (size 3 to 8) (size 9 to 14) (size 15 to 20)
#    0.000    2.500    1.667    1.000    0.000    4.333 
#    0.000    0.000    0.000    1.000    0.000    0.000 
#    0.000    0.000    0.000    0.000    0.000    0.000 
#
# Total GULP energy -297474.512843 kJ/mol
# GULP energy per Si atom -12394.771368 kJ/mol
# Density = 1.672621 g / cm^3
# Si number density = 16.764363 Si / 1000 Ang^3
#
#
#
# Elastic Constant Matrix: (Units=GPa)
#
#
# Indices 1 2 3 4 5 6 
#
# 1 121.0938 36.9546 47.3790 0.0000 22.3455 0.0000
# 2 36.9546 68.1046 43.4261 0.0000 11.4356 0.0000
# 3 47.3790 43.4261 93.2722 0.0000 22.2144 0.0000
# 4 0.0000 0.0000 0.0000 19.3827 0.0000 6.6692
# 5 22.3455 11.4356 22.2144 0.0000 21.9574 0.0000
# 6 0.0000 0.0000 0.0000 6.6692 0.0000 18.2502
#
#
#
# Elastic Compliance Matrix: (Units=1/GPa)
#
#
# Indices 1 2 3 4 5 6 
#
# 1 0.011698 -0.003467 -0.002533 0.000000 -0.007536 0.000000
# 2 -0.003467 0.021942 -0.008660 0.000000 0.000862 0.000000
# 3 -0.002533 -0.008660 0.018908 0.000000 -0.012041 0.000000
# 4 0.000000 0.000000 0.000000 0.059012 0.000000 -0.021565
# 5 -0.007536 0.000862 -0.012041 0.000000 0.064945 0.000000
# 6 0.000000 0.000000 0.000000 -0.021565 0.000000 0.062674
#
#
# Mechanical properties :
#
#
# Convention : Reuss Voigt Hill
#
# Bulk Modulus (GPa) = 43.05247 59.77666 51.41456
# Shear Modulus (GPa) = 18.10011 22.23212 20.16612
#
# Velocity S-wave (km/s) = 3.28941 3.64559 3.47207
# Velocity P-wave (km/s) = 6.33748 7.31128 6.84173
#
# Compressibility (1/GPa) = 0.02322747
#
# Stress axis : x y z
#
# Youngs Moduli (GPa) = 85.48611 45.57545 52.88838
#
# Poissons Ratio (x) = 0.15800 0.13397
# Poissons Ratio (y) = 0.29636 0.45801
# Poissons Ratio (z) = 0.21654 0.39468
#
# Static dielectric constant tensor:
#      x y z
#    x 3.406490 0.000000 0.031800 
#    y 0.000000 3.379300 0.000000 
#    z 0.031800 0.000000 2.899820 
# 
# 
# High freq. dielectric constant tensor:
#      x y z
#    x 1.653740 0.000000 0.002070 
#    y 0.000000 1.649430 0.000000 
#    z 0.002070 0.000000 1.603550 
# 
# From -- ./inp_files/172139.got.cif
#   From: 2010.06.25/outbox.cif.g09.slc.cpg/sg12_87_cif.got.tgz:172139.got - 2010.06.28 00:19:55.
