data_PCOD8080591
_publ_section_title
;
Structure prediction by ZEFSAII (Michael W. Deem and Ramdas Pophale) SiO2 
 PCOD8080591
Probable space group: C 2/M
;
_chemical_formula_sum "Si O2"
_cell_formula_units_Z 36
_cell_length_a 14.203009
_cell_length_b 18.556637
_cell_length_c 13.862190
_cell_angle_alpha 90.000000
_cell_angle_beta 30.326643
_cell_angle_gamma 90.000000
_cell_volume 1844.768370
_symmetry_space_group_name_H-M "C 2/M"
_symmetry_group_IT_number 12
_symmetry_cell_setting 'monoclinic'
loop_
_space_group_symop_operation_xyz
x,y,z
-x,y,-z
-x,-y,-z
x,-y,z
1/2+x,1/2+y,z
1/2-x,1/2+y,-z
1/2-x,1/2-y,-z
1/2+x,1/2-y,z
loop_
_atom_site_type_symbol
_atom_site_label
_atom_site_fract_x
_atom_site_fract_y
_atom_site_fract_z
Si Si1 0.179559 0.288770 0.910339
Si Si2 0.289822 0.814592 0.538897
Si Si3 0.502527 0.419149 0.887075
Si Si4 0.500000 0.726128 0.500000
Si Si5 0.338851 0.147985 0.873095
O O1 0.367910 0.319211 0.689625
O O2 0.230834 0.213269 0.914989
O O3 0.134573 0.343749 0.035809
O O4 0.000000 0.282635 0.000000
O O5 0.250000 0.750000 0.500000
O O6 0.115717 0.865441 0.716336
O O7 0.347425 0.777547 0.586778
O O8 0.456453 0.864120 0.351411
O O9 0.585272 0.500000 0.807370
O O10 0.500000 0.392436 0.000000
O O11 0.290412 0.420781 0.034697
#
# Coordination Sequence:
#
# PCOD8080591 Si02
#       5
#     8   8   8   4   8
#     4  10  18  30  51  79 109 138 176 229 283 328
#     4  11  21  34  55  83 112 145 187 234 282 330
#     4  11  23  38  56  80 115 154 187 226 282 346
#     4  10  18  28  49  78 109 138 174 222 276 332
#     4  10  20  33  51  77 110 143 181 228 277 333
#
# _framework density 19.514645999999999
#
# number of rings (size 3 to 8) (size 9 to 14) (size 15 to 20)
#    0.000    1.556    0.000   10.000    0.000    0.889 
#    0.000    2.778    0.000    0.667    0.000   20.222 
#    0.000    0.889    0.000    0.000    0.000    0.000 
#
# Total GULP energy -223051.473208 kJ/mol
# GULP energy per Si atom -12391.748512 kJ/mol
# Density = 1.947023 g / cm^3
# Si number density = 19.514646 Si / 1000 Ang^3
#
#
#
# Elastic Constant Matrix: (Units=GPa)
#
#
# Indices 1 2 3 4 5 6 
#
# 1 115.2367 25.1545 38.3592 -0.0013 2.2753 -0.0060
# 2 25.1545 56.9788 37.1372 -0.0181 4.7210 0.0015
# 3 38.3592 37.1372 164.2683 -0.0131 3.8024 -0.0017
# 4 -0.0013 -0.0181 -0.0131 22.5800 0.0061 1.7205
# 5 2.2753 4.7210 3.8024 0.0061 34.3803 0.0040
# 6 -0.0060 0.0015 -0.0017 1.7205 0.0040 17.4209
#
#
#
# Elastic Compliance Matrix: (Units=1/GPa)
#
#
# Indices 1 2 3 4 5 6 
#
# 1 0.009932 -0.003368 -0.001557 -0.000003 -0.000023 0.000004
# 2 -0.003368 0.021911 -0.004113 0.000016 -0.002331 -0.000004
# 3 -0.001557 -0.004113 0.007385 0.000001 -0.000149 0.000000
# 4 -0.000003 0.000016 0.000001 0.044623 -0.000009 -0.004407
# 5 -0.000023 -0.002331 -0.000149 -0.000009 0.029424 -0.000006
# 6 0.000004 -0.000004 0.000000 -0.004407 -0.000006 0.057837
#
#
# Mechanical properties :
#
#
# Convention : Reuss Voigt Hill
#
# Bulk Modulus (GPa) = 47.27908 59.75397 53.51652
# Shear Modulus (GPa) = 25.47913 30.59844 28.03878
#
# Velocity S-wave (km/s) = 3.61729 3.96406 3.79464
# Velocity P-wave (km/s) = 6.45960 7.18597 6.83245
#
# Compressibility (1/GPa) = 0.02115100
#
# Stress axis : x y z
#
# Youngs Moduli (GPa) = 100.68714 45.63885 135.41660
#
# Poissons Ratio (x) = 0.15370 0.21089
# Poissons Ratio (y) = 0.33908 0.55700
# Poissons Ratio (z) = 0.15680 0.18772
#
# Static dielectric constant tensor:
#      x y z
#    x 3.727940 -0.000030 0.049930 
#    y -0.000030 2.989080 0.000050 
#    z 0.049930 0.000050 3.900310 
# 
# 
# High freq. dielectric constant tensor:
#      x y z
#    x 1.775770 0.000000 0.002220 
#    y 0.000000 1.688340 0.000000 
#    z 0.002220 0.000000 1.787530 
# 
# From -- ./inp_files/217113.got.cif
#   From: 2010.06.25/outbox.cif.g09.slc.cpg/sg12_109_cif.got.tgz:217113.got - 2010.06.28 00:19:55.
