data_PCOD8080461
_publ_section_title
;
Structure prediction by ZEFSAII (Michael W. Deem and Ramdas Pophale) SiO2 
 PCOD8080461
Probable space group: C 2/M
;
_chemical_formula_sum "Si O2"
_cell_formula_units_Z 64
_cell_length_a 19.953933
_cell_length_b 9.045597
_cell_length_c 21.209532
_cell_angle_alpha 90.000000
_cell_angle_beta 103.824695
_cell_angle_gamma 90.000000
_cell_volume 3717.321257
_symmetry_space_group_name_H-M "C 2/M"
_symmetry_group_IT_number 12
_symmetry_cell_setting 'monoclinic'
loop_
_space_group_symop_operation_xyz
x,y,z
-x,y,-z
-x,-y,-z
x,-y,z
1/2+x,1/2+y,z
1/2-x,1/2+y,-z
1/2-x,1/2-y,-z
1/2+x,1/2-y,z
loop_
_atom_site_type_symbol
_atom_site_label
_atom_site_fract_x
_atom_site_fract_y
_atom_site_fract_z
Si Si1 0.967616 0.325532 0.058874
Si Si2 0.615229 0.830038 0.671126
Si Si3 0.811337 0.668161 0.047701
Si Si4 0.664773 0.827294 0.426087
Si Si5 0.801431 0.674365 0.426518
Si Si6 0.861048 0.331838 0.188492
Si Si7 0.002217 0.174173 0.811418
Si Si8 0.532960 0.175071 0.317910
O O1 0.973648 0.500000 0.071262
O O2 0.887211 0.274878 0.043672
O O3 0.012473 0.244100 0.123047
O O4 0.000000 0.276236 0.000000
O O5 0.652088 0.754971 0.619275
O O6 0.663836 0.809549 0.744748
O O7 0.538895 0.765749 0.667846
O O8 0.605683 0.000000 0.651299
O O9 0.803603 0.500000 0.025518
O O10 0.802271 0.689134 0.121917
O O11 0.750000 0.750000 0.000000
O O12 0.725849 0.743541 0.404203
O O13 0.662580 0.783291 0.499315
O O14 0.592967 0.777839 0.379231
O O15 0.678254 0.000000 0.420799
O O16 0.792850 0.500000 0.416742
O O17 0.891649 0.500000 0.188532
O O18 0.919455 0.211945 0.188633
O O19 0.953590 0.246178 0.746496
O O20 0.989681 0.000000 0.810976
O O21 0.530525 0.000000 0.306088
#
# Coordination Sequence:
#
# PCOD8080461 Si02
#       8
#     8   8   8   8   8   8   8   8
#     4   9  18  34  53  69  91 127 163 189 222 275
#     4   8  14  27  49  71  88 113 152 195 232 267
#     4   9  17  29  47  69  92 120 152 186 225 269
#     4   9  18  31  47  67  92 125 157 185 226 280
#     4   9  17  30  48  69  93 120 152 191 234 278
#     4   8  15  30  48  65  89 123 157 185 225 281
#     4  10  18  28  46  72  97 119 149 192 238 275
#     4   9  17  31  49  67  91 122 156 190 225 274
#
# _framework density 17.216698999999998
#
# number of rings (size 3 to 8) (size 9 to 14) (size 15 to 20)
#    0.000    3.125    0.000    2.625    0.000    3.250 
#    0.000    6.250    0.000    3.000    0.000    7.000 
#    0.000    0.000    0.000    0.000    0.000    0.000 
#
# Total GULP energy -396509.037729 kJ/mol
# GULP energy per Si atom -12390.907429 kJ/mol
# Density = 1.717751 g / cm^3
# Si number density = 17.216699 Si / 1000 Ang^3
#
#
#
# Elastic Constant Matrix: (Units=GPa)
#
#
# Indices 1 2 3 4 5 6 
#
# 1 86.9981 26.6990 83.9979 0.0000 1.2903 0.0000
# 2 26.6990 43.5957 41.0577 0.0000 0.5897 0.0000
# 3 83.9979 41.0577 161.2897 0.0000 -3.4285 0.0000
# 4 0.0000 0.0000 0.0000 21.9920 0.0000 4.4547
# 5 1.2903 0.5897 -3.4285 0.0000 33.0864 0.0000
# 6 0.0000 0.0000 0.0000 4.4547 0.0000 21.7372
#
#
#
# Elastic Compliance Matrix: (Units=1/GPa)
#
#
# Indices 1 2 3 4 5 6 
#
# 1 0.023722 -0.003715 -0.011452 0.000000 -0.002046 0.000000
# 2 -0.003715 0.030812 -0.005930 0.000000 -0.001019 0.000000
# 3 -0.011452 -0.005930 0.013716 0.000000 0.001974 0.000000
# 4 0.000000 0.000000 0.000000 0.047440 0.000000 -0.009722
# 5 -0.002046 -0.001019 0.001974 0.000000 0.030526 0.000000
# 6 0.000000 0.000000 0.000000 -0.009722 0.000000 0.047997
#
#
# Mechanical properties :
#
#
# Convention : Reuss Voigt Hill
#
# Bulk Modulus (GPa) = 38.38025 66.15474 52.26749
# Shear Modulus (GPa) = 20.40046 24.70504 22.55275
#
# Velocity S-wave (km/s) = 3.44600 3.79218 3.62323
# Velocity P-wave (km/s) = 6.17852 7.59489 6.92302
#
# Compressibility (1/GPa) = 0.02605507
#
# Stress axis : x y z
#
# Youngs Moduli (GPa) = 42.15515 32.45470 72.90951
#
# Poissons Ratio (x) = 0.12057 0.83495
# Poissons Ratio (y) = 0.15661 0.43238
# Poissons Ratio (z) = 0.48276 0.19247
#
# Static dielectric constant tensor:
#      x y z
#    x 3.029310 0.000000 -0.076750 
#    y 0.000000 2.965250 0.000000 
#    z -0.076750 0.000000 3.634270 
# 
# 
# High freq. dielectric constant tensor:
#      x y z
#    x 1.628100 0.000000 0.000410 
#    y 0.000000 1.642010 0.000000 
#    z 0.000410 0.000000 1.684000 
# 
# From -- ./inp_files/319203.got.cif
#   From: 2010.06.25/outbox.cif.g09.slc.cpg/sg12_160_cif.got.tgz:319203.got - 2010.06.28 00:19:55.
