data_PCOD8080070
_publ_section_title
;
Structure prediction by ZEFSAII (Michael W. Deem and Ramdas Pophale) SiO2 
 PCOD8080070
Probable space group: C 2/M
;
_chemical_formula_sum "Si O2"
_cell_formula_units_Z 56
_cell_length_a 27.452390
_cell_length_b 9.043267
_cell_length_c 17.146711
_cell_angle_alpha 90.000000
_cell_angle_beta 53.630248
_cell_angle_gamma 90.000000
_cell_volume 3427.629450
_symmetry_space_group_name_H-M "C 2/M"
_symmetry_group_IT_number 12
_symmetry_cell_setting 'monoclinic'
loop_
_space_group_symop_operation_xyz
x,y,z
-x,y,-z
-x,-y,-z
x,-y,z
1/2+x,1/2+y,z
1/2-x,1/2+y,-z
1/2-x,1/2-y,-z
1/2+x,1/2-y,z
loop_
_atom_site_type_symbol
_atom_site_label
_atom_site_fract_x
_atom_site_fract_y
_atom_site_fract_z
Si Si1 0.964981 0.329157 0.706119
Si Si2 0.339655 0.828822 0.891999
Si Si3 0.793146 0.323484 0.521473
Si Si4 0.238148 0.670341 0.891178
Si Si5 0.770281 0.666200 0.717504
Si Si6 0.917173 0.825630 0.429208
Si Si7 0.091725 0.333675 0.405286
O O1 0.981083 0.500000 0.705408
O O2 0.909096 0.279546 0.814057
O O3 0.948718 0.301157 0.631237
O O4 0.022653 0.228713 0.673251
O O5 0.296595 0.737379 0.876868
O O6 0.331763 0.000000 0.875775
O O7 0.321434 0.801441 0.999553
O O8 0.795699 0.500000 0.509702
O O9 0.750000 0.250000 0.500000
O O10 0.767978 0.277187 0.630571
O O11 0.860003 0.257946 0.446115
O O12 0.251646 0.500000 0.866749
O O13 0.227582 0.738822 0.815272
O O14 0.746025 0.500000 0.744278
O O15 0.838404 0.679188 0.685366
O O16 0.924599 0.783947 0.512948
O O17 0.908869 0.000000 0.427252
O O18 0.079483 0.500000 0.449488
#
# Coordination Sequence:
#
# PCOD8080070 Si02
#       7
#     8   8   8   8   8   8   8
#     4  10  18  31  47  62  90 133 171 197 231 281
#     4   9  18  31  44  62  93 133 169 201 237 276
#     4  10  21  38  57  75  95 122 155 194 241 290
#     4  10  18  27  44  69  95 125 165 206 238 272
#     4   9  17  31  49  69  96 129 159 189 235 290
#     4  11  22  32  45  69  98 123 155 199 240 284
#     4   9  17  30  46  63  89 131 170 195 229 281
#
# _framework density 16.337821999999999
#
# number of rings (size 3 to 8) (size 9 to 14) (size 15 to 20)
#    0.000    2.286    1.429    3.429    0.000    6.286 
#    0.000    0.000    0.000    0.000    0.000    1.000 
#    0.000    8.000    0.000    0.000    0.000    0.000 
#
# Total GULP energy -347148.633208 kJ/mol
# GULP energy per Si atom -12398.165472 kJ/mol
# Density = 1.630064 g / cm^3
# Si number density = 16.337822 Si / 1000 Ang^3
#
#
#
# Elastic Constant Matrix: (Units=GPa)
#
#
# Indices 1 2 3 4 5 6 
#
# 1 83.2114 44.1908 49.3741 0.0000 -4.5231 -0.0001
# 2 44.1908 89.9755 55.6782 0.0005 -3.4320 -0.0002
# 3 49.3741 55.6782 108.3073 0.0001 -12.2000 0.0000
# 4 0.0000 0.0005 0.0001 26.6385 0.0000 -0.0097
# 5 -4.5231 -3.4320 -12.2000 0.0000 16.6903 0.0000
# 6 -0.0001 -0.0002 0.0000 -0.0097 0.0000 24.2818
#
#
#
# Elastic Compliance Matrix: (Units=1/GPa)
#
#
# Indices 1 2 3 4 5 6 
#
# 1 0.018203 -0.005571 -0.005457 0.000000 -0.000201 0.000000
# 2 -0.005571 0.018145 -0.007125 0.000000 -0.002987 0.000000
# 3 -0.005457 -0.007125 0.016402 0.000000 0.009046 0.000000
# 4 0.000000 0.000000 0.000000 0.037540 0.000000 0.000015
# 5 -0.000201 -0.002987 0.009046 0.000000 0.065858 0.000000
# 6 0.000000 0.000000 0.000000 0.000015 0.000000 0.041183
#
#
# Mechanical properties :
#
#
# Convention : Reuss Voigt Hill
#
# Bulk Modulus (GPa) = 60.80886 64.44227 62.62556
# Shear Modulus (GPa) = 20.91005 22.33887 21.62446
#
# Velocity S-wave (km/s) = 3.58139 3.70173 3.64205
# Velocity P-wave (km/s) = 7.37579 7.60261 7.49006
#
# Compressibility (1/GPa) = 0.01644497
#
# Stress axis : x y z
#
# Youngs Moduli (GPa) = 54.93522 55.11047 60.96721
#
# Poissons Ratio (x) = 0.30703 0.33270
# Poissons Ratio (y) = 0.30605 0.43438
# Poissons Ratio (z) = 0.29978 0.39265
#
# Static dielectric constant tensor:
#      x y z
#    x 2.784160 0.000000 -0.079110 
#    y 0.000000 3.119830 0.000000 
#    z -0.079110 0.000000 3.274050 
# 
# 
# High freq. dielectric constant tensor:
#      x y z
#    x 1.585290 0.000000 -0.008370 
#    y 0.000000 1.630960 0.000000 
#    z -0.008370 0.000000 1.630540 
# 
# From -- ./inp_files/291838.got.cif
#   From: 2010.06.25/outbox.cif.g09.slc.cpg/sg12_146_cif.got.tgz:291838.got - 2010.06.28 00:19:55.
