data_PCOD8080769
_publ_section_title
;
Structure prediction by ZEFSAII (Michael W. Deem and Ramdas Pophale) SiO2 
 PCOD8080769
Probable space group: C 2/M
;
_chemical_formula_sum "Si O2"
_cell_formula_units_Z 48
_cell_length_a 28.567979
_cell_length_b 9.065019
_cell_length_c 12.167918
_cell_angle_alpha 90.000000
_cell_angle_beta 69.110606
_cell_angle_gamma 90.000000
_cell_volume 2943.995516
_symmetry_space_group_name_H-M "C 2/M"
_symmetry_group_IT_number 12
_symmetry_cell_setting 'monoclinic'
loop_
_space_group_symop_operation_xyz
x,y,z
-x,y,-z
-x,-y,-z
x,-y,z
1/2+x,1/2+y,z
1/2-x,1/2+y,-z
1/2-x,1/2-y,-z
1/2+x,1/2-y,z
loop_
_atom_site_type_symbol
_atom_site_label
_atom_site_fract_x
_atom_site_fract_y
_atom_site_fract_z
Si Si1 0.496803 0.174675 0.342558
Si Si2 0.367352 0.330703 0.963199
Si Si3 0.240438 0.169948 0.894516
Si Si4 0.928424 0.173502 0.554458
Si Si5 0.169596 0.170534 0.243899
Si Si6 0.467519 0.827199 0.926573
O O1 0.541318 0.252959 0.371183
O O2 0.444233 0.245577 0.427932
O O3 0.503341 0.212813 0.209511
O O4 0.497546 0.000000 0.364475
O O5 0.384181 0.500000 0.943193
O O6 0.354887 0.274337 0.850355
O O7 0.412294 0.239711 0.977535
O O8 0.318618 0.310518 0.083625
O O9 0.278589 0.241905 0.773686
O O10 0.254409 0.000000 0.895349
O O11 0.250000 0.250000 0.000000
O O12 0.869393 0.199337 0.624640
O O13 0.941016 0.000000 0.539006
O O14 0.183770 0.000000 0.220849
O O15 0.460291 0.000000 0.945475
O O16 0.500000 0.762639 0.000000
#
# Coordination Sequence:
#
# PCOD8080769 Si02
#       6
#     8   8   8   8   8   8
#     4  10  19  30  44  65  90 118 155 189 224 272
#     4   9  17  30  44  63  90 119 152 186 223 267
#     4   9  17  27  41  63  91 119 149 182 221 271
#     4  10  18  29  46  66  93 122 148 183 227 273
#     4   9  17  28  43  66  93 120 149 179 221 276
#     4  10  21  34  47  65  90 122 158 193 227 265
#
# _framework density 16.304372999999998
#
# number of rings (size 3 to 8) (size 9 to 14) (size 15 to 20)
#    0.000    2.500    1.667    3.500    0.000    5.667 
#    0.000    0.000    0.000    0.000    0.000    1.167 
#    0.000    0.000    0.000    0.000    0.000    0.000 
#
# Total GULP energy -297453.622178 kJ/mol
# GULP energy per Si atom -12393.900924 kJ/mol
# Density = 1.626726 g / cm^3
# Si number density = 16.304373 Si / 1000 Ang^3
#
#
#
# Elastic Constant Matrix: (Units=GPa)
#
#
# Indices 1 2 3 4 5 6 
#
# 1 90.9846 46.8160 56.7486 0.0000 -22.0095 0.0000
# 2 46.8160 82.4402 46.3210 0.0000 -15.4958 0.0000
# 3 56.7486 46.3210 90.0421 0.0000 -18.8565 0.0000
# 4 0.0000 0.0000 0.0000 19.4685 0.0000 -10.5905
# 5 -22.0095 -15.4958 -18.8565 0.0000 30.9358 0.0000
# 6 0.0000 0.0000 0.0000 -10.5905 0.0000 27.4111
#
#
#
# Elastic Compliance Matrix: (Units=1/GPa)
#
#
# Indices 1 2 3 4 5 6 
#
# 1 0.021159 -0.005698 -0.008998 0.000000 0.006715 0.000000
# 2 -0.005698 0.018966 -0.005761 0.000000 0.001935 0.000000
# 3 -0.008998 -0.005761 0.020399 0.000000 0.003147 0.000000
# 4 0.000000 0.000000 0.000000 0.065033 0.000000 0.025126
# 5 0.006715 0.001935 0.003147 0.000000 0.039990 0.000000
# 6 0.000000 0.000000 0.000000 0.025126 0.000000 0.046189
#
#
# Mechanical properties :
#
#
# Convention : Reuss Voigt Hill
#
# Bulk Modulus (GPa) = 50.98973 62.58203 56.78588
# Shear Modulus (GPa) = 19.29100 23.13515 21.21308
#
# Velocity S-wave (km/s) = 3.44347 3.77099 3.61094
# Velocity P-wave (km/s) = 6.86670 7.57809 7.23114
#
# Compressibility (1/GPa) = 0.01961179
#
# Stress axis : x y z
#
# Youngs Moduli (GPa) = 47.26021 52.72539 49.02103
#
# Poissons Ratio (x) = 0.30043 0.44110
# Poissons Ratio (y) = 0.26929 0.28239
# Poissons Ratio (z) = 0.42525 0.30373
#
# Static dielectric constant tensor:
#      x y z
#    x 3.197600 0.000000 -0.562460 
#    y 0.000000 3.209720 0.000000 
#    z -0.562460 0.000000 3.290040 
# 
# 
# High freq. dielectric constant tensor:
#      x y z
#    x 1.601030 0.000000 -0.045000 
#    y 0.000000 1.637990 0.000000 
#    z -0.045000 0.000000 1.604370 
# 
# From -- ./inp_files/179314.got.cif
#   From: 2010.06.25/outbox.cif.g09.slc.cpg/sg12_90_cif.got.tgz:179314.got - 2010.06.28 00:19:55.
