data_PCOD8080128
_publ_section_title
;
Structure prediction by ZEFSAII (Michael W. Deem and Ramdas Pophale) SiO2 
 PCOD8080128
Probable space group: C 2/M
;
_chemical_formula_sum "Si O2"
_cell_formula_units_Z 48
_cell_length_a 23.311073
_cell_length_b 9.250007
_cell_length_c 19.984411
_cell_angle_alpha 90.000000
_cell_angle_beta 143.905928
_cell_angle_gamma 90.000000
_cell_volume 2538.599008
_symmetry_space_group_name_H-M "C 2/M"
_symmetry_group_IT_number 12
_symmetry_cell_setting 'monoclinic'
loop_
_space_group_symop_operation_xyz
x,y,z
-x,y,-z
-x,-y,-z
x,-y,z
1/2+x,1/2+y,z
1/2-x,1/2+y,-z
1/2-x,1/2-y,-z
1/2+x,1/2-y,z
loop_
_atom_site_type_symbol
_atom_site_label
_atom_site_fract_x
_atom_site_fract_y
_atom_site_fract_z
Si Si1 0.515133 0.667640 0.357832
Si Si2 0.373258 0.330064 0.933468
Si Si3 0.108216 0.842561 0.576866
Si Si4 0.339291 0.330594 0.617856
Si Si5 0.161656 0.669189 0.750289
Si Si6 0.920253 0.828112 0.832301
O O1 0.488321 0.500000 0.342427
O O2 0.597955 0.713090 0.490533
O O3 0.560927 0.699464 0.328924
O O4 0.414376 0.754661 0.271899
O O5 0.385196 0.500000 0.936227
O O6 0.272679 0.293891 0.877658
O O7 0.372280 0.269694 0.855910
O O8 0.466794 0.272041 0.062747
O O9 0.158631 0.722932 0.670495
O O10 0.000000 0.865231 0.500000
O O11 0.161786 0.000000 0.631147
O O12 0.314442 0.500000 0.594379
O O13 0.250000 0.250000 0.500000
O O14 0.359873 0.267657 0.711750
O O15 0.139391 0.500000 0.729999
O O16 0.918720 0.000000 0.824969
#
# Coordination Sequence:
#
# PCOD8080128 Si02
#       6
#     8   8   8   8   8   8
#     4   9  19  34  46  65 100 137 165 190 238 308
#     4   8  15  28  49  76 101 124 160 209 253 289
#     4   8  15  28  43  60  93 134 161 187 233 293
#     4  10  21  35  54  75  98 133 170 202 244 298
#     4  10  18  27  47  77  99 120 161 214 251 276
#     4   8  15  31  51  71  99 132 163 201 248 298
#
# _framework density 18.908066999999999
#
# number of rings (size 3 to 8) (size 9 to 14) (size 15 to 20)
#    0.000    3.167    0.000    2.500    2.333    3.667 
#    0.000    0.833    0.000    2.000    0.000    5.833 
#    0.000    0.000    0.000    0.000    0.000    0.000 
#
# Total GULP energy -297315.442752 kJ/mol
# GULP energy per Si atom -12388.143448 kJ/mol
# Density = 1.886503 g / cm^3
# Si number density = 18.908067 Si / 1000 Ang^3
#
#
#
# Elastic Constant Matrix: (Units=GPa)
#
#
# Indices 1 2 3 4 5 6 
#
# 1 69.5326 26.9402 50.3530 0.0000 4.9542 0.0000
# 2 26.9402 48.8624 31.8434 0.0000 10.6339 0.0000
# 3 50.3530 31.8434 120.8956 0.0000 2.5177 0.0000
# 4 0.0000 0.0000 0.0000 16.4376 0.0000 0.6547
# 5 4.9542 10.6339 2.5177 0.0000 32.2811 0.0000
# 6 0.0000 0.0000 0.0000 0.6547 0.0000 18.9629
#
#
#
# Elastic Compliance Matrix: (Units=1/GPa)
#
#
# Indices 1 2 3 4 5 6 
#
# 1 0.022764 -0.007591 -0.007473 0.000000 -0.000410 0.000000
# 2 -0.007591 0.029277 -0.004380 0.000000 -0.008137 0.000000
# 3 -0.007473 -0.004380 0.012504 0.000000 0.001615 0.000000
# 4 0.000000 0.000000 0.000000 0.060920 0.000000 -0.002103
# 5 -0.000410 -0.008137 0.001615 0.000000 0.033596 0.000000
# 6 0.000000 0.000000 0.000000 -0.002103 0.000000 0.052807
#
#
# Mechanical properties :
#
#
# Convention : Reuss Voigt Hill
#
# Bulk Modulus (GPa) = 38.97786 50.84042 44.90914
# Shear Modulus (GPa) = 19.28206 22.21324 20.74765
#
# Velocity S-wave (km/s) = 3.19686 3.43126 3.31613
# Velocity P-wave (km/s) = 5.85540 6.53029 6.20203
#
# Compressibility (1/GPa) = 0.02565559
#
# Stress axis : x y z
#
# Youngs Moduli (GPa) = 43.92896 34.15702 79.97311
#
# Poissons Ratio (x) = 0.25930 0.59765
# Poissons Ratio (y) = 0.33349 0.35028
# Poissons Ratio (z) = 0.32829 0.14961
#
# Static dielectric constant tensor:
#      x y z
#    x 3.672370 0.000000 -0.291200 
#    y 0.000000 3.135490 0.000000 
#    z -0.291200 0.000000 3.977940 
# 
# 
# High freq. dielectric constant tensor:
#      x y z
#    x 1.729530 0.000000 0.007540 
#    y 0.000000 1.695490 0.000000 
#    z 0.007540 0.000000 1.725330 
# 
# From -- ./inp_files/323864.got.cif
#   From: 2010.06.25/outbox.cif.g09.slc.cpg/sg12_162_cif.got.tgz:323864.got - 2010.06.28 00:19:55.
