data_PCOD8080215
_publ_section_title
;
Structure prediction by ZEFSAII (Michael W. Deem and Ramdas Pophale) SiO2 
 PCOD8080215
Probable space group: C 2/M
;
_chemical_formula_sum "Si O2"
_cell_formula_units_Z 56
_cell_length_a 30.248392
_cell_length_b 9.392822
_cell_length_c 11.959634
_cell_angle_alpha 90.000000
_cell_angle_beta 108.871688
_cell_angle_gamma 90.000000
_cell_volume 3215.288971
_symmetry_space_group_name_H-M "C 2/M"
_symmetry_group_IT_number 12
_symmetry_cell_setting 'monoclinic'
loop_
_space_group_symop_operation_xyz
x,y,z
-x,y,-z
-x,-y,-z
x,-y,z
1/2+x,1/2+y,z
1/2-x,1/2+y,-z
1/2-x,1/2-y,-z
1/2+x,1/2-y,z
loop_
_atom_site_type_symbol
_atom_site_label
_atom_site_fract_x
_atom_site_fract_y
_atom_site_fract_z
Si Si1 0.330400 0.668638 0.377205
Si Si2 0.851191 0.168328 0.640720
Si Si3 0.459281 0.669513 0.111742
Si Si4 0.734639 0.663513 0.287945
Si Si5 0.061318 0.830480 0.151853
Si Si6 0.291273 0.662050 0.982086
Si Si7 0.121947 0.168563 0.806533
O O1 0.322311 0.500000 0.362935
O O2 0.354417 0.712743 0.513540
O O3 0.280209 0.740231 0.324252
O O4 0.364655 0.724463 0.306419
O O5 0.801524 0.222165 0.648599
O O6 0.895201 0.235809 0.743353
O O7 0.852675 0.000000 0.657208
O O8 0.458253 0.500000 0.109654
O O9 0.512703 0.722347 0.168961
O O10 0.427829 0.728991 0.189218
O O11 0.437622 0.722580 0.975761
O O12 0.749409 0.500000 0.322518
O O13 0.706834 0.677493 0.149200
O O14 0.063599 0.000000 0.157809
O O15 0.283234 0.500000 0.012661
O O16 0.250000 0.750000 0.000000
O O17 0.339518 0.719745 0.072661
O O18 0.119132 0.000000 0.800472
#
# Coordination Sequence:
#
# PCOD8080215 Si02
#       7
#     8   8   8   8   8   8   8
#     4  10  19  30  43  60  89 122 145 175 217 258
#     4   9  17  28  41  59  84 115 149 180 214 253
#     4   8  13  22  39  60  82 110 142 175 214 259
#     4  10  19  30  45  63  84 115 152 184 211 247
#     4   8  13  23  39  59  82 109 143 179 212 255
#     4  10  18  28  43  62  86 113 140 175 213 250
#     4   9  16  26  39  58  85 115 141 169 215 263
#
# _framework density 17.416785000000001
#
# number of rings (size 3 to 8) (size 9 to 14) (size 15 to 20)
#    0.000    2.857    1.429    2.143    0.000    3.429 
#    0.000    0.714    0.000    4.286    0.000    0.000 
#    0.000    5.714    0.000   15.714    0.000   14.286 
#
# Total GULP energy -347000.411595 kJ/mol
# GULP energy per Si atom -12392.871843 kJ/mol
# Density = 1.737714 g / cm^3
# Si number density = 17.416785 Si / 1000 Ang^3
#
#
#
# Elastic Constant Matrix: (Units=GPa)
#
#
# Indices 1 2 3 4 5 6 
#
# 1 146.6970 12.6858 66.3211 0.0000 -24.4795 0.0000
# 2 12.6858 15.0594 11.8535 0.0000 -3.5364 0.0000
# 3 66.3211 11.8535 106.3748 0.0000 -16.1940 0.0000
# 4 0.0000 0.0000 0.0000 11.5670 0.0000 0.5638
# 5 -24.4795 -3.5364 -16.1940 0.0000 26.1129 0.0000
# 6 0.0000 0.0000 0.0000 0.5638 0.0000 14.8654
#
#
#
# Elastic Compliance Matrix: (Units=1/GPa)
#
#
# Indices 1 2 3 4 5 6 
#
# 1 0.010496 -0.003271 -0.005244 0.000000 0.006144 0.000000
# 2 -0.003271 0.074486 -0.005733 0.000000 0.003466 0.000000
# 3 -0.005244 -0.005733 0.013739 0.000000 0.002828 0.000000
# 4 0.000000 0.000000 0.000000 0.086613 0.000000 -0.003285
# 5 0.006144 0.003466 0.002828 0.000000 0.046279 0.000000
# 6 0.000000 0.000000 0.000000 -0.003285 0.000000 0.067395
#
#
# Mechanical properties :
#
#
# Convention : Reuss Voigt Hill
#
# Bulk Modulus (GPa) = 14.23998 49.98357 32.11177
# Shear Modulus (GPa) = 14.24863 22.32711 18.28787
#
# Velocity S-wave (km/s) = 2.86334 3.58429 3.24391
# Velocity P-wave (km/s) = 4.37326 6.77424 5.70157
#
# Compressibility (1/GPa) = 0.07022483
#
# Stress axis : x y z
#
# Youngs Moduli (GPa) = 95.27769 13.42542 72.78288
#
# Poissons Ratio (x) = 0.04391 0.38166
# Poissons Ratio (y) = 0.31165 0.41727
# Poissons Ratio (z) = 0.49962 0.07697
#
# Static dielectric constant tensor:
#      x y z
#    x 3.627170 0.000000 0.064830 
#    y 0.000000 2.675720 0.000000 
#    z 0.064830 0.000000 4.434880 
# 
# 
# High freq. dielectric constant tensor:
#      x y z
#    x 1.681160 0.000000 -0.008620 
#    y 0.000000 1.601470 0.000000 
#    z -0.008620 0.000000 1.676850 
# 
# From -- ./inp_files/181563.got.cif
#   From: 2010.06.25/outbox.cif.g09.slc.cpg/sg12_91_cif.got.tgz:181563.got - 2010.06.28 00:19:55.
