data_PCOD8080510
_publ_section_title
;
Structure prediction by ZEFSAII (Michael W. Deem and Ramdas Pophale) SiO2 
 PCOD8080510
Probable space group: C 2/M
;
_chemical_formula_sum "Si O2"
_cell_formula_units_Z 48
_cell_length_a 20.617238
_cell_length_b 8.740308
_cell_length_c 20.333567
_cell_angle_alpha 90.000000
_cell_angle_beta 47.724638
_cell_angle_gamma 90.000000
_cell_volume 2711.164144
_symmetry_space_group_name_H-M "C 2/M"
_symmetry_group_IT_number 12
_symmetry_cell_setting 'monoclinic'
loop_
_space_group_symop_operation_xyz
x,y,z
-x,y,-z
-x,-y,-z
x,-y,z
1/2+x,1/2+y,z
1/2-x,1/2+y,-z
1/2-x,1/2-y,-z
1/2+x,1/2-y,z
loop_
_atom_site_type_symbol
_atom_site_label
_atom_site_fract_x
_atom_site_fract_y
_atom_site_fract_z
Si Si1 0.660939 0.820295 0.535496
Si Si2 0.730936 0.323994 0.908697
Si Si3 0.901343 0.177058 0.553920
Si Si4 0.375019 0.320964 0.901307
Si Si5 0.988565 0.319864 0.726349
Si Si6 0.342541 0.323944 0.736409
O O1 0.750000 0.750000 0.500000
O O2 0.642745 0.772704 0.473350
O O3 0.582866 0.764013 0.636370
O O4 0.669514 0.000000 0.532079
O O5 0.736620 0.500000 0.884091
O O6 0.807597 0.284725 0.907585
O O7 0.747011 0.224080 0.831607
O O8 0.639099 0.290533 0.010419
O O9 0.842329 0.205149 0.658780
O O10 0.000000 0.235147 0.500000
O O11 0.903161 0.000000 0.531791
O O12 0.358714 0.500000 0.897343
O O13 0.469718 0.267237 0.808984
O O14 0.986408 0.500000 0.739876
O O15 0.917616 0.276489 0.719311
O O16 0.362224 0.500000 0.739005
#
# Coordination Sequence:
#
# PCOD8080510 Si02
#       6
#     8   8   8   8   8   8
#     4  11  24  38  54  75 102 136 173 214 257 303
#     4   9  16  25  38  62  96 128 160 201 244 291
#     4  10  20  35  54  76 103 135 171 211 254 303
#     4   9  16  25  40  62  91 129 164 197 245 297
#     4  10  19  30  46  70  97 128 166 208 250 295
#     4  10  18  28  47  72  98 132 166 201 249 298
#
# _framework density 17.704571999999999
#
# number of rings (size 3 to 8) (size 9 to 14) (size 15 to 20)
#    0.000    2.167    1.667    4.500    0.000    5.667 
#    0.000    0.000    0.000    0.000    0.000    1.167 
#    0.000    9.333    0.000    0.000    0.000    0.000 
#
# Total GULP energy -297413.660589 kJ/mol
# GULP energy per Si atom -12392.235858 kJ/mol
# Density = 1.766428 g / cm^3
# Si number density = 17.704572 Si / 1000 Ang^3
#
#
#
# Elastic Constant Matrix: (Units=GPa)
#
#
# Indices 1 2 3 4 5 6 
#
# 1 59.3844 16.1709 45.2920 0.0000 -0.1856 0.0001
# 2 16.1709 47.9438 48.9544 0.0000 2.9996 0.0001
# 3 45.2920 48.9544 181.8372 0.0000 8.5812 0.0000
# 4 0.0000 0.0000 0.0000 33.8769 0.0000 2.1969
# 5 -0.1856 2.9996 8.5812 0.0000 13.8306 0.0000
# 6 0.0001 0.0001 0.0000 2.1969 0.0000 20.3764
#
#
#
# Elastic Compliance Matrix: (Units=1/GPa)
#
#
# Indices 1 2 3 4 5 6 
#
# 1 0.021178 -0.002498 -0.004782 0.000000 0.003793 0.000000
# 2 -0.002498 0.029089 -0.007118 0.000000 -0.001926 0.000000
# 3 -0.004782 -0.007118 0.008794 0.000000 -0.003977 0.000000
# 4 0.000000 0.000000 0.000000 0.029726 0.000000 -0.003205
# 5 0.003793 -0.001926 -0.003977 0.000000 0.075239 0.000000
# 6 0.000000 0.000000 0.000000 -0.003205 0.000000 0.049422
#
#
# Mechanical properties :
#
#
# Convention : Reuss Voigt Hill
#
# Bulk Modulus (GPa) = 33.04038 56.66668 44.85353
# Shear Modulus (GPa) = 19.81497 25.53333 22.67415
#
# Velocity S-wave (km/s) = 3.34908 3.80174 3.58256
# Velocity P-wave (km/s) = 5.80152 7.16570 6.51939
#
# Compressibility (1/GPa) = 0.03026600
#
# Stress axis : x y z
#
# Youngs Moduli (GPa) = 47.21792 34.37705 113.70775
#
# Poissons Ratio (x) = 0.08588 0.54370
# Poissons Ratio (y) = 0.11796 0.80940
# Poissons Ratio (z) = 0.22577 0.24471
#
# Static dielectric constant tensor:
#      x y z
#    x 2.665370 0.000000 -0.023160 
#    y 0.000000 3.320870 0.000000 
#    z -0.023160 0.000000 4.087340 
# 
# 
# High freq. dielectric constant tensor:
#      x y z
#    x 1.601330 0.000000 0.009560 
#    y 0.000000 1.696670 0.000000 
#    z 0.009560 0.000000 1.720220 
# 
# From -- ./inp_files/318986.got.cif
#   From: 2010.06.25/outbox.cif.g09.slc.cpg/sg12_160_cif.got.tgz:318986.got - 2010.06.28 00:19:55.
