data_PCOD8080619
_publ_section_title
;
Structure prediction by ZEFSAII (Michael W. Deem and Ramdas Pophale) SiO2 
 PCOD8080619
Probable space group: C 2/M
;
_chemical_formula_sum "Si O2"
_cell_formula_units_Z 56
_cell_length_a 29.002502
_cell_length_b 9.250328
_cell_length_c 13.997068
_cell_angle_alpha 90.000000
_cell_angle_beta 77.694483
_cell_angle_gamma 90.000000
_cell_volume 3668.895755
_symmetry_space_group_name_H-M "C 2/M"
_symmetry_group_IT_number 12
_symmetry_cell_setting 'monoclinic'
loop_
_space_group_symop_operation_xyz
x,y,z
-x,y,-z
-x,-y,-z
x,-y,z
1/2+x,1/2+y,z
1/2-x,1/2+y,-z
1/2-x,1/2-y,-z
1/2+x,1/2-y,z
loop_
_atom_site_type_symbol
_atom_site_label
_atom_site_fract_x
_atom_site_fract_y
_atom_site_fract_z
Si Si1 0.637846 0.167538 0.035367
Si Si2 0.544346 0.163405 0.550106
Si Si3 0.468161 0.831276 0.924718
Si Si4 0.174447 0.168683 0.203285
Si Si5 0.597576 0.666623 0.378513
Si Si6 0.232063 0.666554 0.917559
Si Si7 0.988934 0.831460 0.722980
O O1 0.585676 0.208495 0.022920
O O2 0.650381 0.252694 0.125235
O O3 0.640170 0.000000 0.062199
O O4 0.675905 0.202390 0.932150
O O5 0.500000 0.166532 0.500000
O O6 0.588323 0.236415 0.475849
O O7 0.532488 0.254228 0.649988
O O8 0.557900 0.000000 0.572710
O O9 0.484767 0.737123 0.828623
O O10 0.473547 0.000000 0.896185
O O11 0.500000 0.787564 0.000000
O O12 0.148572 0.213459 0.313184
O O13 0.231308 0.204344 0.185360
O O14 0.165016 0.000000 0.190384
O O15 0.596137 0.500000 0.411512
O O16 0.559278 0.695689 0.312905
O O17 0.238198 0.500000 0.939371
O O18 0.250000 0.750000 0.000000
O O19 0.000712 0.000000 0.726953
#
# Coordination Sequence:
#
# PCOD8080619 Si02
#       7
#     8   8   8   8   8   8   8
#     4   9  16  26  39  54  75 104 137 169 200 233
#     4   9  17  27  40  58  79 105 134 162 194 237
#     4  10  20  31  42  57  79 108 142 177 207 235
#     4   9  15  24  38  57  81 106 131 159 196 237
#     4   9  16  25  38  58  82 107 132 159 194 237
#     4   8  14  23  36  54  75 101 131 161 193 235
#     4  10  18  29  43  57  77 105 136 170 204 238
#
# _framework density 15.263448
#
# number of rings (size 3 to 8) (size 9 to 14) (size 15 to 20)
#    0.000    2.857    1.429    0.857    0.000    3.143 
#    0.000    0.000    0.000    0.000    0.000    0.000 
#    0.000    1.143    0.000    2.000    0.000    2.857 
#
# Total GULP energy -346868.532459 kJ/mol
# GULP energy per Si atom -12388.161874 kJ/mol
# Density = 1.522871 g / cm^3
# Si number density = 15.263448 Si / 1000 Ang^3
#
#
#
# Elastic Constant Matrix: (Units=GPa)
#
#
# Indices 1 2 3 4 5 6 
#
# 1 90.4342 35.2209 63.1723 0.0000 -33.1752 0.0000
# 2 35.2209 67.5147 51.2663 0.0000 -16.0567 0.0000
# 3 63.1723 51.2663 96.2347 0.0000 -36.4185 0.0000
# 4 0.0000 0.0000 0.0000 25.3733 0.0000 -5.1026
# 5 -33.1752 -16.0567 -36.4185 0.0000 31.8876 0.0000
# 6 0.0000 0.0000 0.0000 -5.1026 0.0000 12.4859
#
#
#
# Elastic Compliance Matrix: (Units=1/GPa)
#
#
# Indices 1 2 3 4 5 6 
#
# 1 0.022754 -0.001885 -0.009392 0.000000 0.011996 0.000000
# 2 -0.001885 0.025417 -0.014445 0.000000 -0.005660 0.000000
# 3 -0.009392 -0.014445 0.031352 0.000000 0.018761 0.000000
# 4 0.000000 0.000000 0.000000 0.042941 0.000000 0.017548
# 5 0.011996 -0.005660 0.018761 0.000000 0.062418 0.000000
# 6 0.000000 0.000000 0.000000 0.017548 0.000000 0.087262
#
#
# Mechanical properties :
#
#
# Convention : Reuss Voigt Hill
#
# Bulk Modulus (GPa) = 35.61462 61.50029 48.55745
# Shear Modulus (GPa) = 15.01739 20.91762 17.96750
#
# Velocity S-wave (km/s) = 3.14009 3.70596 3.43470
# Velocity P-wave (km/s) = 6.04407 7.66108 6.90011
#
# Compressibility (1/GPa) = 0.02807836
#
# Stress axis : x y z
#
# Youngs Moduli (GPa) = 43.94875 39.34312 31.89618
#
# Poissons Ratio (x) = 0.07417 0.29958
# Poissons Ratio (y) = 0.08285 0.46073
# Poissons Ratio (z) = 0.41278 0.56830
#
# Static dielectric constant tensor:
#      x y z
#    x 3.116710 0.000000 -0.627030 
#    y 0.000000 3.199040 0.000000 
#    z -0.627030 0.000000 2.857890 
# 
# 
# High freq. dielectric constant tensor:
#      x y z
#    x 1.556150 0.000000 -0.051780 
#    y 0.000000 1.593420 0.000000 
#    z -0.051780 0.000000 1.559670 
# 
# From -- ./inp_files/247779.got.cif
#   From: 2010.06.25/outbox.cif.g09.slc.cpg/sg12_124_cif.got.tgz:247779.got - 2010.06.28 00:19:55.
