data_PCOD8080503
_publ_section_title
;
Structure prediction by ZEFSAII (Michael W. Deem and Ramdas Pophale) SiO2 
 PCOD8080503
Probable space group: C 2/M
;
_chemical_formula_sum "Si O2"
_cell_formula_units_Z 48
_cell_length_a 27.606542
_cell_length_b 8.764574
_cell_length_c 11.854464
_cell_angle_alpha 90.000000
_cell_angle_beta 107.761370
_cell_angle_gamma 90.000000
_cell_volume 2731.584370
_symmetry_space_group_name_H-M "C 2/M"
_symmetry_group_IT_number 12
_symmetry_cell_setting 'monoclinic'
loop_
_space_group_symop_operation_xyz
x,y,z
-x,y,-z
-x,-y,-z
x,-y,z
1/2+x,1/2+y,z
1/2-x,1/2+y,-z
1/2-x,1/2-y,-z
1/2+x,1/2-y,z
loop_
_atom_site_type_symbol
_atom_site_label
_atom_site_fract_x
_atom_site_fract_y
_atom_site_fract_z
Si Si1 0.305292 0.818110 0.527062
Si Si2 0.570533 0.177917 0.754510
Si Si3 0.377188 0.322739 0.404032
Si Si4 0.958368 0.328849 0.607445
Si Si5 0.113279 0.672201 0.242727
Si Si6 0.945910 0.317082 0.005525
O O1 0.250000 0.750000 0.500000
O O2 0.329878 0.765487 0.426551
O O3 0.339963 0.751034 0.655140
O O4 0.303675 0.000000 0.527088
O O5 0.615168 0.264827 0.718944
O O6 0.517930 0.208252 0.650457
O O7 0.566777 0.244511 0.878608
O O8 0.583501 0.000000 0.767825
O O9 0.364398 0.500000 0.394612
O O10 0.428999 0.291470 0.509424
O O11 0.948310 0.500000 0.552143
O O12 0.938397 0.320688 0.721091
O O13 0.130414 0.500000 0.233356
O O14 0.098585 0.745278 0.111039
O O15 0.947438 0.500000 0.005264
O O16 0.000000 0.253365 0.000000
#
# Coordination Sequence:
#
# PCOD8080503 Si02
#       6
#     8   8   8   8   8   8
#     4  10  20  36  58  79  99 122 158 207 259 303
#     4  10  18  28  47  72 101 136 170 205 243 290
#     4  11  22  33  46  68 100 134 169 206 248 295
#     4   9  16  28  46  69  99 133 169 206 245 289
#     4   8  14  26  46  75 103 127 159 203 245 289
#     4   9  14  24  46  75 103 132 169 203 235 286
#
# _framework density 17.572220000000002
#
# number of rings (size 3 to 8) (size 9 to 14) (size 15 to 20)
#    0.000    2.500    1.667    3.500    0.000    2.667 
#    0.000    0.000    0.000    6.500    0.000    0.000 
#    0.000    0.000    0.000    0.000    0.000    0.000 
#
# Total GULP energy -297440.812638 kJ/mol
# GULP energy per Si atom -12393.367193 kJ/mol
# Density = 1.753223 g / cm^3
# Si number density = 17.572220 Si / 1000 Ang^3
#
#
#
# Elastic Constant Matrix: (Units=GPa)
#
#
# Indices 1 2 3 4 5 6 
#
# 1 110.7756 31.7686 56.6975 0.0000 -10.5717 0.0000
# 2 31.7686 55.2862 28.2388 0.0000 -5.5206 0.0000
# 3 56.6975 28.2388 109.1498 0.0000 -19.0455 0.0000
# 4 0.0000 0.0000 0.0000 7.0507 0.0000 -4.7826
# 5 -10.5717 -5.5206 -19.0455 0.0000 21.3411 0.0000
# 6 0.0000 0.0000 0.0000 -4.7826 0.0000 23.5771
#
#
#
# Elastic Compliance Matrix: (Units=1/GPa)
#
#
# Indices 1 2 3 4 5 6 
#
# 1 0.013295 -0.004734 -0.005621 0.000000 0.000345 0.000000
# 2 -0.004734 0.022536 -0.003273 0.000000 0.000564 0.000000
# 3 -0.005621 -0.003273 0.014562 0.000000 0.009365 0.000000
# 4 0.000000 0.000000 0.000000 0.164458 0.000000 0.033360
# 5 0.000345 0.000564 0.009365 0.000000 0.055532 0.000000
# 6 0.000000 0.000000 0.000000 0.033360 0.000000 0.049181
#
#
# Mechanical properties :
#
#
# Convention : Reuss Voigt Hill
#
# Bulk Modulus (GPa) = 43.22051 56.51350 49.86700
# Shear Modulus (GPa) = 14.10305 20.96088 17.53196
#
# Velocity S-wave (km/s) = 2.83605 3.45750 3.16208
# Velocity P-wave (km/s) = 5.94757 6.94043 6.46309
#
# Compressibility (1/GPa) = 0.02313717
#
# Stress axis : x y z
#
# Youngs Moduli (GPa) = 75.21769 44.37349 68.67011
#
# Poissons Ratio (x) = 0.21006 0.38599
# Poissons Ratio (y) = 0.35608 0.22476
# Poissons Ratio (z) = 0.42280 0.14524
#
# Static dielectric constant tensor:
#      x y z
#    x 3.128980 0.000000 -0.046110 
#    y 0.000000 2.865790 0.000000 
#    z -0.046110 0.000000 3.531870 
# 
# 
# High freq. dielectric constant tensor:
#      x y z
#    x 1.653770 0.000000 -0.012860 
#    y 0.000000 1.639340 0.000000 
#    z -0.012860 0.000000 1.683470 
# 
# From -- ./inp_files/172327.got.cif
#   From: 2010.06.25/outbox.cif.g09.slc.cpg/sg12_87_cif.got.tgz:172327.got - 2010.06.28 00:19:55.
