data_PCOD8080973
_publ_section_title
;
Structure prediction by ZEFSAII (Michael W. Deem and Ramdas Pophale) SiO2 
 PCOD8080973
Probable space group: C 2/M
;
_chemical_formula_sum "Si O2"
_cell_formula_units_Z 56
_cell_length_a 23.520881
_cell_length_b 7.654351
_cell_length_c 20.876696
_cell_angle_alpha 90.000000
_cell_angle_beta 55.568847
_cell_angle_gamma 90.000000
_cell_volume 3100.099532
_symmetry_space_group_name_H-M "C 2/M"
_symmetry_group_IT_number 12
_symmetry_cell_setting 'monoclinic'
loop_
_space_group_symop_operation_xyz
x,y,z
-x,y,-z
-x,-y,-z
x,-y,z
1/2+x,1/2+y,z
1/2-x,1/2+y,-z
1/2-x,1/2-y,-z
1/2+x,1/2-y,z
loop_
_atom_site_type_symbol
_atom_site_label
_atom_site_fract_x
_atom_site_fract_y
_atom_site_fract_z
Si Si1 0.836059 0.694642 0.697165
Si Si2 0.455403 0.792787 0.087988
Si Si3 0.023766 0.000000 0.586264
Si Si4 0.110248 0.000000 0.414221
Si Si5 0.953238 0.707344 0.855050
Si Si6 0.303728 0.207394 0.151709
Si Si7 0.686069 0.795541 0.997731
Si Si8 0.464589 0.796352 0.702652
O O1 0.850698 0.500000 0.661729
O O2 0.846507 0.827652 0.631784
O O3 0.758011 0.703303 0.770937
O O4 0.888248 0.737284 0.722478
O O5 0.486340 0.726815 0.135972
O O6 0.376299 0.730657 0.135620
O O7 0.458813 0.000000 0.081496
O O8 0.500000 0.716369 0.000000
O O9 0.020562 0.176970 0.630396
O O10 0.094820 0.000000 0.500265
O O11 0.960805 0.000000 0.577898
O O12 0.948952 0.500000 0.857098
O O13 0.965367 0.772013 0.775135
O O14 0.881788 0.787738 0.926913
O O15 0.301848 0.280579 0.080588
O O16 0.294208 0.000000 0.160887
O O17 0.674538 0.000000 0.998617
O O18 0.750000 0.750000 0.000000
O O19 0.485962 0.000000 0.682857
#
# Coordination Sequence:
#
# PCOD8080973 Si02
#       8
#     8   8   4   4   8   8   8   8
#     4  10  19  32  51  74 107 139 164 206 255 306
#     4   9  15  27  48  70  93 131 176 222 261 294
#     4   9  18  32  54  78 109 134 158 208 252 307
#     4   9  18  34  52  80 107 132 168 198 250 319
#     4   9  16  29  46  67  98 131 173 214 251 300
#     4  10  18  29  48  71  98 132 177 218 254 299
#     4  10  19  29  43  65  95 133 173 211 249 299
#     4   9  18  31  50  76 105 137 168 203 254 309
#
# _framework density 18.063936000000002
#
# number of rings (size 3 to 8) (size 9 to 14) (size 15 to 20)
#    0.000    2.571    2.143    0.857    0.000    2.286 
#    1.286    2.857    1.571    0.429    0.000    1.000 
#    0.000    0.000    0.000    0.000    0.000    0.000 
#
# Total GULP energy -347107.868227 kJ/mol
# GULP energy per Si atom -12396.709580 kJ/mol
# Density = 1.802282 g / cm^3
# Si number density = 18.063936 Si / 1000 Ang^3
#
#
#
# Elastic Constant Matrix: (Units=GPa)
#
#
# Indices 1 2 3 4 5 6 
#
# 1 113.3966 18.7958 59.3438 -0.0008 -2.6147 0.0011
# 2 18.7958 67.2920 48.0677 0.0483 0.3187 0.0038
# 3 59.3438 48.0677 159.4265 0.0119 2.3950 -0.0042
# 4 -0.0008 0.0483 0.0119 13.9703 -0.0018 0.0422
# 5 -2.6147 0.3187 2.3950 -0.0018 11.5028 0.0036
# 6 0.0011 0.0038 -0.0042 0.0422 0.0036 12.5069
#
#
#
# Elastic Compliance Matrix: (Units=1/GPa)
#
#
# Indices 1 2 3 4 5 6 
#
# 1 0.011084 -0.000164 -0.004127 0.000005 0.003383 -0.000003
# 2 -0.000164 0.018947 -0.005661 -0.000061 0.000616 -0.000008
# 3 -0.004127 -0.005661 0.009557 0.000011 -0.002771 0.000006
# 4 0.000005 -0.000061 0.000011 0.071581 0.000012 -0.000241
# 5 0.003383 0.000616 -0.002771 0.000012 0.088265 -0.000027
# 6 -0.000003 -0.000008 0.000006 -0.000241 -0.000027 0.079957
#
#
# Mechanical properties :
#
#
# Convention : Reuss Voigt Hill
#
# Bulk Modulus (GPa) = 50.80210 65.83665 58.31938
# Shear Modulus (GPa) = 16.34759 21.85651 19.10205
#
# Velocity S-wave (km/s) = 3.01156 3.48221 3.25540
# Velocity P-wave (km/s) = 6.34643 7.25902 6.81801
#
# Compressibility (1/GPa) = 0.01968423
#
# Stress axis : x y z
#
# Youngs Moduli (GPa) = 90.22326 52.77829 104.63360
#
# Poissons Ratio (x) = 0.00865 0.43184
# Poissons Ratio (y) = 0.01478 0.59232
# Poissons Ratio (z) = 0.37236 0.29877
#
# Static dielectric constant tensor:
#      x y z
#    x 3.279240 -0.000010 0.078350 
#    y -0.000010 3.205710 -0.000010 
#    z 0.078350 -0.000010 3.430180 
# 
# 
# High freq. dielectric constant tensor:
#      x y z
#    x 1.677450 0.000000 0.001010 
#    y 0.000000 1.691080 0.000000 
#    z 0.001010 0.000000 1.685080 
# 
# From -- ./inp_files/323596.got.cif
#   From: 2010.06.25/outbox.cif.g09.slc.cpg/sg12_162_cif.got.tgz:323596.got - 2010.06.28 00:19:55.
