data_PCOD8080618
_publ_section_title
;
Structure prediction by ZEFSAII (Michael W. Deem and Ramdas Pophale) SiO2 
 PCOD8080618
Probable space group: C 2/M
;
_chemical_formula_sum "Si O2"
_cell_formula_units_Z 48
_cell_length_a 15.570250
_cell_length_b 26.163918
_cell_length_c 8.256019
_cell_angle_alpha 90.000000
_cell_angle_beta 36.930422
_cell_angle_gamma 90.000000
_cell_volume 2020.837143
_symmetry_space_group_name_H-M "C 2/M"
_symmetry_group_IT_number 12
_symmetry_cell_setting 'monoclinic'
loop_
_space_group_symop_operation_xyz
x,y,z
-x,y,-z
-x,-y,-z
x,-y,z
1/2+x,1/2+y,z
1/2-x,1/2+y,-z
1/2-x,1/2-y,-z
1/2+x,1/2-y,z
loop_
_atom_site_type_symbol
_atom_site_label
_atom_site_fract_x
_atom_site_fract_y
_atom_site_fract_z
Si Si1 0.748853 0.370744 0.797812
Si Si2 0.588475 0.556708 0.218835
Si Si3 0.671560 0.558077 0.614227
Si Si4 0.002560 0.205642 0.187030
Si Si5 0.516187 0.180858 0.728194
Si Si6 0.780172 0.647242 0.292804
O O1 0.689548 0.401545 0.731625
O O2 0.910018 0.349554 0.533871
O O3 0.732676 0.410929 0.970299
O O4 0.650433 0.323059 0.994656
O O5 0.500000 0.581733 0.500000
O O6 0.635928 0.500000 0.198416
O O7 0.492978 0.555479 0.197587
O O8 0.725575 0.500000 0.571074
O O9 0.766936 0.585200 0.329124
O O10 0.998651 0.259263 0.288513
O O11 0.876259 0.171581 0.452280
O O12 0.000000 0.216778 0.000000
O O13 0.622635 0.173588 0.717771
O O14 0.358016 0.158169 0.003335
#
# Coordination Sequence:
#
# PCOD8080618 Si02
#       6
#     8   8   8   8   8   8
#     4  11  20  33  52  82 104 133 170 212 258 293
#     4  10  20  35  56  79 100 129 172 216 256 304
#     4  10  19  32  51  76 104 131 164 210 259 303
#     4  12  16  28  47  74 106 140 172 208 250 298
#     4  10  20  27  45  73 111 136 166 207 248 304
#     4  10  18  29  42  72 107 139 163 203 257 300
#
# _framework density 23.752535000000002
#
# number of rings (size 3 to 8) (size 9 to 14) (size 15 to 20)
#    0.000    1.500    6.667    2.500    0.000    1.333 
#    0.000    7.500    0.000    2.000    0.000    3.500 
#    0.000    0.000    0.000    0.000    0.000    0.000 
#
# Total GULP energy -297345.784775 kJ/mol
# GULP energy per Si atom -12389.407699 kJ/mol
# Density = 2.369847 g / cm^3
# Si number density = 23.752535 Si / 1000 Ang^3
#
#
#
# Elastic Constant Matrix: (Units=GPa)
#
#
# Indices 1 2 3 4 5 6 
#
# 1 25.8470 11.0702 0.5360 0.0000 -10.5267 0.0000
# 2 11.0702 185.5198 88.7531 0.0000 -9.1073 0.0000
# 3 0.5360 88.7531 209.0731 0.0000 -17.1633 0.0000
# 4 0.0000 0.0000 0.0000 24.5951 0.0000 12.0341
# 5 -10.5267 -9.1073 -17.1633 0.0000 13.6464 0.0000
# 6 0.0000 0.0000 0.0000 12.0341 0.0000 2.6590
#
#
#
# Elastic Compliance Matrix: (Units=1/GPa)
#
#
# Indices 1 2 3 4 5 6 
#
# 1 0.061417 -0.003863 0.005754 0.000000 0.052036 0.000000
# 2 -0.003863 0.007019 -0.003156 0.000000 -0.002265 0.000000
# 3 0.005754 -0.003156 0.007025 0.000000 0.011168 0.000000
# 4 0.000000 0.000000 0.000000 -0.033479 0.000000 0.151522
# 5 0.052036 -0.002265 0.011168 0.000000 0.125954 0.000000
# 6 0.000000 0.000000 0.000000 0.151522 0.000000 -0.309678
#
#
# Mechanical properties :
#
#
# Convention : Reuss Voigt Hill
#
# Bulk Modulus (GPa) = 13.71146 69.01762 41.36454
# Shear Modulus (GPa) = -43.51517 29.51880 -6.99819
#
# Velocity S-wave (km/s) = -4.28486 3.52911 -1.71834
# Velocity P-wave (km/s) = 4.32375 6.76211 3.67637
#
# Compressibility (1/GPa) = 0.07293167
#
# Stress axis : x y z
#
# Youngs Moduli (GPa) = 16.28210 142.46360 142.35514
#
# Poissons Ratio (x) = 0.55037 -0.81914
# Poissons Ratio (y) = 0.06290 0.44924
# Poissons Ratio (z) = -0.09369 0.44958
#
# Static dielectric constant tensor:
#      x y z
#    x 3.620840 0.000000 0.076160 
#    y 0.000000 4.597720 0.000000 
#    z 0.076160 0.000000 5.253870 
# 
# 
# High freq. dielectric constant tensor:
#      x y z
#    x 1.888950 0.000000 0.010380 
#    y 0.000000 1.951970 0.000000 
#    z 0.010380 0.000000 1.954780 
# 
# From -- ./inp_files/91186.got.cif
#   From: 2010.06.25/outbox.cif.g09.slc.cpg/sg12_46_cif.got.tgz:91186.got - 2010.06.28 00:19:55.
