data_PCOD8080592
_publ_section_title
;
Structure prediction by ZEFSAII (Michael W. Deem and Ramdas Pophale) SiO2 
 PCOD8080592
Probable space group: C 2/M
;
_chemical_formula_sum "Si O2"
_cell_formula_units_Z 64
_cell_length_a 32.438398
_cell_length_b 9.341322
_cell_length_c 12.082931
_cell_angle_alpha 90.000000
_cell_angle_beta 86.828517
_cell_angle_gamma 90.000000
_cell_volume 3655.732176
_symmetry_space_group_name_H-M "C 2/M"
_symmetry_group_IT_number 12
_symmetry_cell_setting 'monoclinic'
loop_
_space_group_symop_operation_xyz
x,y,z
-x,y,-z
-x,-y,-z
x,-y,z
1/2+x,1/2+y,z
1/2-x,1/2+y,-z
1/2-x,1/2-y,-z
1/2+x,1/2-y,z
loop_
_atom_site_type_symbol
_atom_site_label
_atom_site_fract_x
_atom_site_fract_y
_atom_site_fract_z
Si Si1 0.480700 0.164048 0.195735
Si Si2 0.846697 0.666143 0.233606
Si Si3 0.698981 0.334982 0.413796
Si Si4 0.775385 0.165692 0.339873
Si Si5 0.935588 0.831202 0.827400
Si Si6 0.591293 0.836105 0.965035
Si Si7 0.417418 0.834390 0.391736
Si Si8 0.105691 0.832413 0.396403
O O1 0.518625 0.269292 0.175218
O O2 0.448881 0.196413 0.102336
O O3 0.459144 0.193817 0.316730
O O4 0.495943 0.000000 0.186846
O O5 0.835136 0.500000 0.249773
O O6 0.805542 0.760915 0.246408
O O7 0.867538 0.694141 0.111763
O O8 0.878222 0.714155 0.325001
O O9 0.706464 0.500000 0.381151
O O10 0.730617 0.239074 0.338843
O O11 0.705193 0.309279 0.542705
O O12 0.653277 0.283100 0.388932
O O13 0.770514 0.000000 0.310673
O O14 0.914198 0.787212 0.716226
O O15 0.937959 0.000000 0.842311
O O16 0.907877 0.766671 0.929526
O O17 0.590456 0.000000 0.005170
O O18 0.419876 0.744614 0.503399
O O19 0.413415 0.000000 0.423475
O O20 0.102456 0.000000 0.419829
#
# Coordination Sequence:
#
# PCOD8080592 Si02
#       8
#     8   8   8   8   8   8   8   8
#     4   9  19  36  55  75 100 129 165 212 258 298
#     4   9  17  31  52  77 103 129 161 205 254 299
#     4   9  18  32  48  69 102 139 165 195 243 297
#     4  10  18  28  49  79 104 129 163 202 246 295
#     4  11  23  35  50  74 101 133 172 211 249 294
#     4   9  19  36  56  75  98 131 169 210 254 297
#     4   9  18  32  52  76  99 129 169 207 245 294
#     4  10  21  36  50  69 104 141 168 199 248 302
#
# _framework density 17.506753
#
# number of rings (size 3 to 8) (size 9 to 14) (size 15 to 20)
#    0.000    2.500    1.250    2.625    0.000    5.500 
#    0.000    5.000    0.000    0.750    0.000    0.000 
#    0.000    0.000    0.000    0.000    0.000    0.000 
#
# Total GULP energy -396870.936147 kJ/mol
# GULP energy per Si atom -12402.216755 kJ/mol
# Density = 1.746691 g / cm^3
# Si number density = 17.506753 Si / 1000 Ang^3
#
#
#
# Elastic Constant Matrix: (Units=GPa)
#
#
# Indices 1 2 3 4 5 6 
#
# 1 46.1383 25.8956 25.3065 0.0000 -21.9711 0.0000
# 2 25.8956 68.3615 48.9757 0.0000 -15.1471 0.0000
# 3 25.3065 48.9757 102.0977 0.0000 -15.0678 0.0000
# 4 0.0000 0.0000 0.0000 30.5558 0.0000 -5.3809
# 5 -21.9711 -15.1471 -15.0678 0.0000 21.5289 0.0000
# 6 0.0000 0.0000 0.0000 -5.3809 0.0000 26.3306
#
#
#
# Elastic Compliance Matrix: (Units=1/GPa)
#
#
# Indices 1 2 3 4 5 6 
#
# 1 0.046098 -0.006951 -0.002086 0.000000 0.040694 0.000000
# 2 -0.006951 0.025075 -0.009757 0.000000 0.003720 0.000000
# 3 -0.002086 -0.009757 0.015238 0.000000 0.001672 0.000000
# 4 0.000000 0.000000 0.000000 0.033949 0.000000 0.006938
# 5 0.040694 0.003720 0.001672 0.000000 0.091767 0.000000
# 6 0.000000 0.000000 0.000000 0.006938 0.000000 0.039396
#
#
# Mechanical properties :
#
#
# Convention : Reuss Voigt Hill
#
# Bulk Modulus (GPa) = 20.48139 46.32814 33.40476
# Shear Modulus (GPa) = 16.37275 23.44437 19.90856
#
# Velocity S-wave (km/s) = 3.06146 3.66343 3.37589
# Velocity P-wave (km/s) = 4.92151 6.66444 5.85816
#
# Compressibility (1/GPa) = 0.04882482
#
# Stress axis : x y z
#
# Youngs Moduli (GPa) = 21.69290 39.88013 65.62330
#
# Poissons Ratio (x) = 0.27720 0.13690
# Poissons Ratio (y) = 0.15078 0.64025
# Poissons Ratio (z) = 0.04525 0.38909
#
# Static dielectric constant tensor:
#      x y z
#    x 3.192160 0.000000 -0.128920 
#    y 0.000000 3.183400 0.000000 
#    z -0.128920 0.000000 3.133910 
# 
# 
# High freq. dielectric constant tensor:
#      x y z
#    x 1.671460 0.000000 -0.019490 
#    y 0.000000 1.676600 0.000000 
#    z -0.019490 0.000000 1.660230 
# 
# From -- ./inp_files/187456.got.cif
#   From: 2010.06.25/outbox.cif.g09.slc.cpg/sg12_94_cif.got.tgz:187456.got - 2010.06.28 00:19:55.
