data_PCOD8080669
_publ_section_title
;
Structure prediction by ZEFSAII (Michael W. Deem and Ramdas Pophale) SiO2 
 PCOD8080669
Probable space group: C 2/M
;
_chemical_formula_sum "Si O2"
_cell_formula_units_Z 64
_cell_length_a 28.204894
_cell_length_b 9.228836
_cell_length_c 21.153102
_cell_angle_alpha 90.000000
_cell_angle_beta 48.161493
_cell_angle_gamma 90.000000
_cell_volume 4102.210901
_symmetry_space_group_name_H-M "C 2/M"
_symmetry_group_IT_number 12
_symmetry_cell_setting 'monoclinic'
loop_
_space_group_symop_operation_xyz
x,y,z
-x,y,-z
-x,-y,-z
x,-y,z
1/2+x,1/2+y,z
1/2-x,1/2+y,-z
1/2-x,1/2-y,-z
1/2+x,1/2-y,z
loop_
_atom_site_type_symbol
_atom_site_label
_atom_site_fract_x
_atom_site_fract_y
_atom_site_fract_z
Si Si1 0.350617 0.829267 0.182257
Si Si2 0.602924 0.332194 0.402560
Si Si3 0.995634 0.832729 0.402151
Si Si4 0.948710 0.328646 0.997849
Si Si5 0.202919 0.670108 0.495189
Si Si6 0.959592 0.671284 0.184117
Si Si7 0.775480 0.328855 0.668254
Si Si8 0.438548 0.171518 0.342393
O O1 0.400640 0.782325 0.192059
O O2 0.287563 0.737411 0.245983
O O3 0.335298 0.000000 0.200316
O O4 0.378876 0.787338 0.086938
O O5 0.622444 0.500000 0.391090
O O6 0.564487 0.304668 0.371934
O O7 0.559150 0.285250 0.500284
O O8 0.665185 0.233531 0.345586
O O9 0.990345 0.738514 0.343614
O O10 0.987469 0.000000 0.391648
O O11 0.954912 0.500000 0.994396
O O12 0.971957 0.276567 0.907166
O O13 0.000000 0.261072 0.000000
O O14 0.211120 0.500000 0.498359
O O15 0.250000 0.750000 0.500000
O O16 0.219377 0.717097 0.409425
O O17 0.131586 0.720493 0.574109
O O18 0.958596 0.500000 0.191417
O O19 0.951797 0.737568 0.260895
O O20 0.774515 0.500000 0.677394
O O21 0.446071 0.000000 0.337771
#
# Coordination Sequence:
#
# PCOD8080669 Si02
#       8
#     8   8   8   8   8   8   8   8
#     4   9  16  28  47  66  88 121 156 186 218 257
#     4   9  18  33  50  65  83 112 150 188 225 263
#     4   9  18  32  49  67  85 109 147 191 226 262
#     4   7  11  22  42  67  87 109 149 193 222 248
#     4  10  21  32  41  59  89 124 155 180 207 249
#     4   8  14  25  44  68  92 117 150 189 219 255
#     4  11  21  31  43  65  94 119 148 184 222 263
#     4  10  18  29  44  65  92 120 148 178 221 268
#
# _framework density 15.601342000000001
#
# number of rings (size 3 to 8) (size 9 to 14) (size 15 to 20)
#    0.000    2.875    1.250    3.375    0.000    3.000 
#    0.000    1.875    0.000    4.125    0.000    0.875 
#    0.000    0.000    0.000    0.000    0.000    0.000 
#
# Total GULP energy -396536.008922 kJ/mol
# GULP energy per Si atom -12391.750279 kJ/mol
# Density = 1.556583 g / cm^3
# Si number density = 15.601342 Si / 1000 Ang^3
#
#
#
# Elastic Constant Matrix: (Units=GPa)
#
#
# Indices 1 2 3 4 5 6 
#
# 1 89.6386 36.7879 51.9047 -0.0066 -5.4086 0.0039
# 2 36.7879 38.4047 36.2673 -0.0096 -5.4506 0.0063
# 3 51.9047 36.2673 126.1750 -0.0038 -10.5333 0.0063
# 4 -0.0066 -0.0096 -0.0038 14.7959 0.0016 1.0513
# 5 -5.4086 -5.4506 -10.5333 0.0016 12.4060 -0.0032
# 6 0.0039 0.0063 0.0063 1.0513 -0.0032 25.2077
#
#
#
# Elastic Compliance Matrix: (Units=1/GPa)
#
#
# Indices 1 2 3 4 5 6 
#
# 1 0.019556 -0.015407 -0.003734 -0.000002 -0.001414 0.000002
# 2 -0.015407 0.048540 -0.006883 0.000022 0.008766 -0.000008
# 3 -0.003734 -0.006883 0.011895 -0.000004 0.005447 0.000000
# 4 -0.000002 0.000022 -0.000004 0.067787 -0.000004 -0.002827
# 5 -0.001414 0.008766 0.005447 -0.000004 0.088466 0.000008
# 6 0.000002 -0.000008 0.000000 -0.002827 0.000008 0.039788
#
#
# Mechanical properties :
#
#
# Convention : Reuss Voigt Hill
#
# Bulk Modulus (GPa) = 35.78637 56.01533 45.90085
# Shear Modulus (GPa) = 14.81946 19.09915 16.95930
#
# Velocity S-wave (km/s) = 3.08536 3.50265 3.30061
# Velocity P-wave (km/s) = 5.97331 7.23465 6.63403
#
# Compressibility (1/GPa) = 0.02794360
#
# Stress axis : x y z
#
# Youngs Moduli (GPa) = 51.13545 20.60143 84.07090
#
# Poissons Ratio (x) = 0.31740 0.31394
# Poissons Ratio (y) = 0.78783 0.57862
# Poissons Ratio (z) = 0.19095 0.14179
#
# Static dielectric constant tensor:
#      x y z
#    x 2.844100 -0.000010 0.095790 
#    y -0.000010 2.707790 0.000010 
#    z 0.095790 0.000010 3.323990 
# 
# 
# High freq. dielectric constant tensor:
#      x y z
#    x 1.577530 0.000000 0.000080 
#    y 0.000000 1.575260 0.000000 
#    z 0.000080 0.000000 1.598250 
# 
# From -- ./inp_files/326856.got.cif
#   From: 2010.06.25/outbox.cif.g09.slc.cpg/sg12_164_cif.got.tgz:326856.got - 2010.06.28 00:19:55.
