data_PCOD8080638
_publ_section_title
;
Structure prediction by ZEFSAII (Michael W. Deem and Ramdas Pophale) SiO2 
 PCOD8080638
Probable space group: C 2/M
;
_chemical_formula_sum "Si O2"
_cell_formula_units_Z 64
_cell_length_a 31.452895
_cell_length_b 9.409786
_cell_length_c 34.307323
_cell_angle_alpha 90.000000
_cell_angle_beta 155.347411
_cell_angle_gamma 90.000000
_cell_volume 4235.290245
_symmetry_space_group_name_H-M "C 2/M"
_symmetry_group_IT_number 12
_symmetry_cell_setting 'monoclinic'
loop_
_space_group_symop_operation_xyz
x,y,z
-x,y,-z
-x,-y,-z
x,-y,z
1/2+x,1/2+y,z
1/2-x,1/2+y,-z
1/2-x,1/2-y,-z
1/2+x,1/2-y,z
loop_
_atom_site_type_symbol
_atom_site_label
_atom_site_fract_x
_atom_site_fract_y
_atom_site_fract_z
Si Si1 0.702896 0.833053 0.280602
Si Si2 0.557357 0.668348 0.107330
Si Si3 0.439989 0.165158 0.600651
Si Si4 0.602312 0.335136 0.608435
Si Si5 0.144549 0.832550 0.098331
Si Si6 0.369816 0.832356 0.289837
Si Si7 0.746993 0.665794 0.591355
Si Si8 0.839808 0.661632 0.592121
O O1 0.603822 0.750421 0.182730
O O2 0.802100 0.791004 0.338444
O O3 0.719521 0.779512 0.338540
O O4 0.680752 0.000000 0.260401
O O5 0.567890 0.500000 0.122944
O O6 0.617669 0.722069 0.119219
O O7 0.438967 0.717187 0.003206
O O8 0.550734 0.211849 0.677562
O O9 0.353577 0.252578 0.506250
O O10 0.438355 0.193600 0.646665
O O11 0.420454 0.000000 0.575074
O O12 0.500000 0.299715 0.500000
O O13 0.607390 0.500000 0.624335
O O14 0.599962 0.243200 0.645249
O O15 0.258195 0.780971 0.182014
O O16 0.136340 0.000000 0.093385
O O17 0.369528 0.000000 0.297698
O O18 0.717978 0.500000 0.569270
O O19 0.843166 0.693533 0.641506
O O20 0.807482 0.500000 0.559377
O O21 0.750000 0.750000 0.500000
#
# Coordination Sequence:
#
# PCOD8080638 Si02
#       8
#     8   8   8   8   8   8   8   8
#     4  10  19  29  41  61  84 108 140 173 201 235
#     4   9  16  29  47  61  77 105 138 172 210 249
#     4   9  17  27  42  65  87 105 135 177 206 233
#     4  10  20  31  40  54  83 117 143 165 191 233
#     4   8  15  28  45  62  79 103 136 171 210 250
#     4  10  18  29  44  62  83 107 136 170 206 243
#     4   9  17  29  44  59  83 117 142 163 200 248
#     4   8  14  26  42  60  81 106 136 169 205 239
#
# _framework density 15.111124999999999
#
# number of rings (size 3 to 8) (size 9 to 14) (size 15 to 20)
#    0.000    2.875    1.250    1.500    0.000    2.250 
#    0.000    1.875    0.000    0.000    0.000    0.875 
#    0.000    0.000    0.000    0.000    0.000    0.000 
#
# Total GULP energy -396456.979711 kJ/mol
# GULP energy per Si atom -12389.280616 kJ/mol
# Density = 1.507673 g / cm^3
# Si number density = 15.111125 Si / 1000 Ang^3
#
#
#
# Elastic Constant Matrix: (Units=GPa)
#
#
# Indices 1 2 3 4 5 6 
#
# 1 128.8718 27.9156 60.2422 -0.0009 8.0878 -0.0002
# 2 27.9156 26.3350 26.5217 -0.0018 3.0364 0.0000
# 3 60.2422 26.5217 100.1825 -0.0030 12.1677 -0.0007
# 4 -0.0009 -0.0018 -0.0030 19.4991 0.0003 -2.5518
# 5 8.0878 3.0364 12.1677 0.0003 13.2984 0.0001
# 6 -0.0002 0.0000 -0.0007 -2.5518 0.0001 16.9380
#
#
#
# Elastic Compliance Matrix: (Units=1/GPa)
#
#
# Indices 1 2 3 4 5 6 
#
# 1 0.011742 -0.007284 -0.005026 -0.000001 -0.000880 0.000000
# 2 -0.007284 0.056303 -0.010690 0.000003 0.001355 0.000000
# 3 -0.005026 -0.010690 0.017062 0.000002 -0.010114 0.000001
# 4 -0.000001 0.000003 0.000002 0.052316 -0.000003 0.007882
# 5 -0.000880 0.001355 -0.010114 -0.000003 0.084677 -0.000001
# 6 0.000000 0.000000 0.000001 0.007882 -0.000001 0.060226
#
#
# Mechanical properties :
#
#
# Convention : Reuss Voigt Hill
#
# Bulk Modulus (GPa) = 25.57009 53.86092 39.71551
# Shear Modulus (GPa) = 14.64726 19.32775 16.98751
#
# Velocity S-wave (km/s) = 3.11674 3.58025 3.35650
# Velocity P-wave (km/s) = 5.46902 7.26715 6.43124
#
# Compressibility (1/GPa) = 0.03910819
#
# Stress axis : x y z
#
# Youngs Moduli (GPa) = 85.16496 17.76106 58.60936
#
# Poissons Ratio (x) = 0.12937 0.29454
# Poissons Ratio (y) = 0.62035 0.62652
# Poissons Ratio (z) = 0.42800 0.18986
#
# Static dielectric constant tensor:
#      x y z
#    x 3.380390 0.000000 0.068750 
#    y 0.000000 2.766170 0.000010 
#    z 0.068750 0.000010 2.822840 
# 
# 
# High freq. dielectric constant tensor:
#      x y z
#    x 1.577990 0.000000 0.001770 
#    y 0.000000 1.569990 0.000000 
#    z 0.001770 0.000000 1.556490 
# 
# From -- ./inp_files/384596.got.cif
#   From: 2010.06.25/outbox.cif.g09.slc.cpg/sg12_193_cif.got.tgz:384596.got - 2010.06.28 00:19:55.
