data_PCOD8080689
_publ_section_title
;
Structure prediction by ZEFSAII (Michael W. Deem and Ramdas Pophale) SiO2 
 PCOD8080689
Probable space group: C 2/M
;
_chemical_formula_sum "Si O2"
_cell_formula_units_Z 64
_cell_length_a 23.646027
_cell_length_b 9.171764
_cell_length_c 17.796686
_cell_angle_alpha 90.000000
_cell_angle_beta 107.361723
_cell_angle_gamma 90.000000
_cell_volume 3683.823157
_symmetry_space_group_name_H-M "C 2/M"
_symmetry_group_IT_number 12
_symmetry_cell_setting 'monoclinic'
loop_
_space_group_symop_operation_xyz
x,y,z
-x,y,-z
-x,-y,-z
x,-y,z
1/2+x,1/2+y,z
1/2-x,1/2+y,-z
1/2-x,1/2-y,-z
1/2+x,1/2-y,z
loop_
_atom_site_type_symbol
_atom_site_label
_atom_site_fract_x
_atom_site_fract_y
_atom_site_fract_z
Si Si1 0.407420 0.826663 0.779274
Si Si2 0.920339 0.173624 0.316311
Si Si3 0.352841 0.827815 0.035508
Si Si4 0.687970 0.830114 0.141727
Si Si5 0.443805 0.326711 0.648752
Si Si6 0.013435 0.328130 0.923740
Si Si7 0.567078 0.328312 0.517932
Si Si8 0.819183 0.829165 0.166767
O O1 0.351005 0.768362 0.804747
O O2 0.405830 0.751924 0.697555
O O3 0.466525 0.769747 0.844611
O O4 0.406512 0.000000 0.768183
O O5 0.901177 0.230725 0.393121
O O6 0.872508 0.236695 0.238401
O O7 0.986984 0.223389 0.321180
O O8 0.917439 0.000000 0.314776
O O9 0.421123 0.784764 0.076452
O O10 0.315383 0.749596 0.085214
O O11 0.341999 0.000000 0.036862
O O12 0.332392 0.764730 0.946683
O O13 0.757076 0.798162 0.184478
O O14 0.673707 0.000000 0.131177
O O15 0.439694 0.500000 0.657071
O O16 0.412911 0.274679 0.557232
O O17 0.005960 0.500000 0.927584
O O18 0.000000 0.258337 0.000000
O O19 0.500000 0.279143 0.500000
O O20 0.572485 0.500000 0.519863
O O21 0.827779 0.000000 0.155525
#
# Coordination Sequence:
#
# PCOD8080689 Si02
#       8
#     8   8   8   8   8   8   8   8
#     4  10  18  29  45  63  85 114 148 178 206 246
#     4   8  14  26  45  67  89 111 137 171 211 256
#     4  10  18  30  47  64  83 110 147 182 212 248
#     4   9  18  31  45  60  82 117 152 176 202 248
#     4   9  16  27  45  69  91 108 134 174 217 256
#     4   9  15  26  45  63  79 108 147 177 201 240
#     4   7  11  22  42  65  86 110 137 165 203 255
#     4  10  19  30  45  65  87 110 141 180 217 249
#
# _framework density 17.373255
#
# number of rings (size 3 to 8) (size 9 to 14) (size 15 to 20)
#    0.000    3.000    1.250    2.625    0.000    0.000 
#    0.000    1.250    0.000    5.625    0.000    0.000 
#    0.000    0.000    0.000    0.000    0.000    0.000 
#
# Total GULP energy -396442.466651 kJ/mol
# GULP energy per Si atom -12388.827083 kJ/mol
# Density = 1.733371 g / cm^3
# Si number density = 17.373255 Si / 1000 Ang^3
#
#
#
# Elastic Constant Matrix: (Units=GPa)
#
#
# Indices 1 2 3 4 5 6 
#
# 1 85.8678 20.5729 52.0347 0.0000 -15.9222 0.0000
# 2 20.5729 19.5092 21.9354 0.0000 -6.9796 0.0000
# 3 52.0347 21.9354 130.9322 0.0000 -28.7493 0.0000
# 4 0.0000 0.0000 0.0000 19.0230 0.0000 -6.7893
# 5 -15.9222 -6.9796 -28.7493 0.0000 25.9319 0.0000
# 6 0.0000 0.0000 0.0000 -6.7893 0.0000 14.0030
#
#
#
# Elastic Compliance Matrix: (Units=1/GPa)
#
#
# Indices 1 2 3 4 5 6 
#
# 1 0.017894 -0.013034 -0.004343 0.000000 0.002664 0.000000
# 2 -0.013034 0.073613 -0.006027 0.000000 0.005129 0.000000
# 3 -0.004343 -0.006027 0.012466 0.000000 0.009532 0.000000
# 4 0.000000 0.000000 0.000000 0.063568 0.000000 0.030821
# 5 0.002664 0.005129 0.009532 0.000000 0.052146 0.000000
# 6 0.000000 0.000000 0.000000 0.030821 0.000000 0.086357
#
#
# Mechanical properties :
#
#
# Convention : Reuss Voigt Hill
#
# Bulk Modulus (GPa) = 17.49253 47.26614 32.37933
# Shear Modulus (GPa) = 13.44420 21.24264 17.34342
#
# Velocity S-wave (km/s) = 2.78482 3.50054 3.16299
# Velocity P-wave (km/s) = 4.52005 6.60331 5.65838
#
# Compressibility (1/GPa) = 0.05716726
#
# Stress axis : x y z
#
# Youngs Moduli (GPa) = 55.88361 13.58448 80.21763
#
# Poissons Ratio (x) = 0.17706 0.34838
# Poissons Ratio (y) = 0.72838 0.48344
# Poissons Ratio (z) = 0.24270 0.08187
#
# Static dielectric constant tensor:
#      x y z
#    x 3.176290 0.000000 -0.030300 
#    y 0.000000 2.664830 0.000000 
#    z -0.030300 0.000000 3.652310 
# 
# 
# High freq. dielectric constant tensor:
#      x y z
#    x 1.654500 0.000000 -0.010620 
#    y 0.000000 1.613000 0.000000 
#    z -0.010620 0.000000 1.682630 
# 
# From -- ./inp_files/239686.got.cif
#   From: 2010.06.25/outbox.cif.g09.slc.cpg/sg12_120_cif.got.tgz:239686.got - 2010.06.28 00:19:55.
