data_PCOD8080201
_publ_section_title
;
Structure prediction by ZEFSAII (Michael W. Deem and Ramdas Pophale) SiO2 
 PCOD8080201
Probable space group: C 2/M
;
_chemical_formula_sum "Si O2"
_cell_formula_units_Z 64
_cell_length_a 27.684336
_cell_length_b 9.329196
_cell_length_c 22.097905
_cell_angle_alpha 90.000000
_cell_angle_beta 46.494185
_cell_angle_gamma 90.000000
_cell_volume 4139.518296
_symmetry_space_group_name_H-M "C 2/M"
_symmetry_group_IT_number 12
_symmetry_cell_setting 'monoclinic'
loop_
_space_group_symop_operation_xyz
x,y,z
-x,y,-z
-x,-y,-z
x,-y,z
1/2+x,1/2+y,z
1/2-x,1/2+y,-z
1/2-x,1/2-y,-z
1/2+x,1/2-y,z
loop_
_atom_site_type_symbol
_atom_site_label
_atom_site_fract_x
_atom_site_fract_y
_atom_site_fract_z
Si Si1 0.904663 0.839961 0.037396
Si Si2 0.994996 0.841351 0.576421
Si Si3 0.881530 0.664224 0.526093
Si Si4 0.710091 0.837603 0.823704
Si Si5 0.353473 0.668506 0.670921
Si Si6 0.339993 0.833846 0.268724
Si Si7 0.042031 0.162559 0.873092
Si Si8 0.746567 0.833508 0.440709
O O1 0.837307 0.748378 0.089408
O O2 0.929325 0.834938 0.084466
O O3 0.885817 0.000000 0.034415
O O4 0.964752 0.784866 0.942106
O O5 0.048527 0.731374 0.557855
O O6 0.000000 0.842360 0.500000
O O7 0.918285 0.795576 0.656575
O O8 0.009998 0.000000 0.589532
O O9 0.894295 0.500000 0.532909
O O10 0.853737 0.745619 0.608264
O O11 0.828766 0.679033 0.517957
O O12 0.787073 0.789295 0.765433
O O13 0.691554 0.814232 0.769889
O O14 0.700219 0.000000 0.851695
O O15 0.352454 0.500000 0.654584
O O16 0.415338 0.771147 0.204915
O O17 0.297013 0.740825 0.351411
O O18 0.341616 0.000000 0.287279
O O19 0.046585 0.000000 0.843653
O O20 0.750000 0.750000 0.500000
O O21 0.766697 0.000000 0.431465
#
# Coordination Sequence:
#
# PCOD8080201 Si02
#       8
#     8   8   8   8   8   8   8   8
#     4   8  14  23  35  52  75 104 134 163 196 232
#     4   8  15  26  41  57  76 104 133 160 194 239
#     4  10  19  29  42  59  77  98 129 170 209 241
#     4   9  16  24  37  56  80 107 135 167 197 230
#     4   9  16  27  40  57  81 109 137 162 195 239
#     4  10  18  28  43  59  75 101 134 170 207 242
#     4   8  14  25  38  52  74 102 132 165 198 236
#     4  11  23  35  46  60  78 103 135 174 215 251
#
# _framework density 15.460737
#
# number of rings (size 3 to 8) (size 9 to 14) (size 15 to 20)
#    0.000    2.875    1.250    2.625    0.000    5.250 
#    0.000    2.500    0.000    0.000    0.000    0.000 
#    0.000    0.000    0.000    1.125    0.000   14.500 
#
# Total GULP energy -396553.147353 kJ/mol
# GULP energy per Si atom -12392.285855 kJ/mol
# Density = 1.542555 g / cm^3
# Si number density = 15.460737 Si / 1000 Ang^3
#
#
#
# Elastic Constant Matrix: (Units=GPa)
#
#
# Indices 1 2 3 4 5 6 
#
# 1 54.6577 44.0177 44.4804 -0.0008 -28.3077 0.0006
# 2 44.0177 98.7167 48.3162 0.0021 -24.2818 0.0023
# 3 44.4804 48.3162 69.1570 -0.0003 -41.5461 0.0013
# 4 -0.0008 0.0021 -0.0003 27.6365 0.0016 -8.1350
# 5 -28.3077 -24.2818 -41.5461 0.0016 32.6168 -0.0006
# 6 0.0006 0.0023 0.0013 -8.1350 -0.0006 20.0999
#
#
#
# Elastic Compliance Matrix: (Units=1/GPa)
#
#
# Indices 1 2 3 4 5 6 
#
# 1 0.044259 -0.009936 -0.012320 0.000002 0.015322 0.000002
# 2 -0.009936 0.018354 -0.014499 -0.000002 -0.013429 -0.000002
# 3 -0.012320 -0.014499 0.083504 -0.000004 0.084878 -0.000002
# 4 0.000002 -0.000002 -0.000004 0.041078 -0.000007 0.016625
# 5 0.015322 -0.013429 0.084878 -0.000007 0.142075 -0.000003
# 6 0.000002 -0.000002 -0.000002 0.016625 -0.000003 0.056480
#
#
# Mechanical properties :
#
#
# Convention : Reuss Voigt Hill
#
# Bulk Modulus (GPa) = 13.77282 55.12891 34.45087
# Shear Modulus (GPa) = 10.34204 21.78512 16.06358
#
# Velocity S-wave (km/s) = 2.58916 3.75782 3.22684
# Velocity P-wave (km/s) = 4.22681 7.38668 6.01785
#
# Compressibility (1/GPa) = 0.07260677
#
# Stress axis : x y z
#
# Youngs Moduli (GPa) = 22.59417 54.48347 11.97544
#
# Poissons Ratio (x) = 0.54137 0.14753
# Poissons Ratio (y) = 0.22451 0.17364
# Poissons Ratio (z) = 0.27835 0.78997
#
# Static dielectric constant tensor:
#      x y z
#    x 4.699370 0.000110 1.045530 
#    y 0.000110 3.127150 0.000110 
#    z 1.045530 0.000110 4.492230 
# 
# 
# High freq. dielectric constant tensor:
#      x y z
#    x 1.550220 0.000000 -0.051480 
#    y 0.000000 1.601330 0.000000 
#    z -0.051480 0.000000 1.571390 
# 
# From -- ./inp_files/326850.got.cif
#   From: 2010.06.25/outbox.cif.g09.slc.cpg/sg12_164_cif.got.tgz:326850.got - 2010.06.28 00:19:55.
