data_PCOD8080220
_publ_section_title
;
Structure prediction by ZEFSAII (Michael W. Deem and Ramdas Pophale) SiO2 
 PCOD8080220
Probable space group: C 2/M
;
_chemical_formula_sum "Si O2"
_cell_formula_units_Z 64
_cell_length_a 20.281980
_cell_length_b 9.714218
_cell_length_c 20.260197
_cell_angle_alpha 90.000000
_cell_angle_beta 101.841883
_cell_angle_gamma 90.000000
_cell_volume 3906.782881
_symmetry_space_group_name_H-M "C 2/M"
_symmetry_group_IT_number 12
_symmetry_cell_setting 'monoclinic'
loop_
_space_group_symop_operation_xyz
x,y,z
-x,y,-z
-x,-y,-z
x,-y,z
1/2+x,1/2+y,z
1/2-x,1/2+y,-z
1/2-x,1/2-y,-z
1/2+x,1/2-y,z
loop_
_atom_site_type_symbol
_atom_site_label
_atom_site_fract_x
_atom_site_fract_y
_atom_site_fract_z
Si Si1 0.366142 0.338771 0.836025
Si Si2 0.676650 0.654738 0.550207
Si Si3 0.307085 0.345939 0.301835
Si Si4 0.164006 0.345968 0.434371
Si Si5 0.852183 0.655051 0.714473
Si Si6 0.690600 0.158309 0.960207
Si Si7 0.291519 0.156620 0.183311
Si Si8 0.424613 0.842738 0.961550
O O1 0.384674 0.500000 0.836107
O O2 0.385332 0.266124 0.770490
O O3 0.288129 0.314990 0.836970
O O4 0.409581 0.264833 0.900892
O O5 0.650263 0.500000 0.534854
O O6 0.660694 0.704480 0.621914
O O7 0.756028 0.661274 0.555211
O O8 0.638446 0.748909 0.488624
O O9 0.332015 0.500000 0.290709
O O10 0.227315 0.344103 0.292297
O O11 0.328953 0.247495 0.246402
O O12 0.141106 0.500000 0.447280
O O13 0.131036 0.301133 0.357594
O O14 0.879292 0.500000 0.734350
O O15 0.676744 0.194776 0.880872
O O16 0.713816 0.000000 0.971236
O O17 0.750000 0.250000 0.000000
O O18 0.622542 0.188413 0.985587
O O19 0.305692 0.000000 0.206024
O O20 0.413672 0.000000 0.934324
O O21 0.500000 0.817773 0.000000
#
# Coordination Sequence:
#
# PCOD8080220 Si02
#       8
#     8   8   8   8   8   8   8   8
#     4  10  18  28  43  63  85 109 140 180 224 263
#     4   8  13  20  29  43  67  98 133 170 206 246
#     4   8  14  23  34  50  73 104 138 171 210 254
#     4   8  13  20  30  45  66  97 136 172 206 246
#     4   8  14  24  36  51  74 104 139 176 212 254
#     4  10  19  32  49  68  90 113 144 185 223 264
#     4   9  17  27  40  61  84 105 136 178 219 256
#     4  10  21  35  50  67  88 118 150 179 220 272
#
# _framework density 16.381764
#
# number of rings (size 3 to 8) (size 9 to 14) (size 15 to 20)
#    0.000    3.125    1.250    1.875    0.000    2.250 
#    0.000    5.000    0.000    0.000    0.000    0.000 
#    0.000    0.000    0.000    1.125    0.000   24.000 
#
# Total GULP energy -396593.924203 kJ/mol
# GULP energy per Si atom -12393.560131 kJ/mol
# Density = 1.634448 g / cm^3
# Si number density = 16.381764 Si / 1000 Ang^3
#
#
#
# Elastic Constant Matrix: (Units=GPa)
#
#
# Indices 1 2 3 4 5 6 
#
# 1 35.8868 25.9762 31.0631 0.0000 -4.5290 0.0000
# 2 25.9762 111.7864 100.8036 0.0000 -4.4362 0.0000
# 3 31.0631 100.8036 167.8141 0.0000 -10.8052 0.0000
# 4 0.0000 0.0000 0.0000 39.7621 0.0000 0.3720
# 5 -4.5290 -4.4362 -10.8052 0.0000 6.7962 0.0000
# 6 0.0000 0.0000 0.0000 0.3720 0.0000 8.7821
#
#
#
# Elastic Compliance Matrix: (Units=1/GPa)
#
#
# Indices 1 2 3 4 5 6 
#
# 1 0.036012 -0.005820 -0.002083 0.000000 0.016888 0.000000
# 2 -0.005820 0.020726 -0.011977 0.000000 -0.009392 0.000000
# 3 -0.002083 -0.011977 0.014423 0.000000 0.013724 0.000000
# 4 0.000000 0.000000 0.000000 0.025160 0.000000 -0.001066
# 5 0.016888 -0.009392 0.013724 0.000000 0.174086 0.000000
# 6 0.000000 0.000000 0.000000 -0.001066 0.000000 0.113913
#
#
# Mechanical properties :
#
#
# Convention : Reuss Voigt Hill
#
# Bulk Modulus (GPa) = 31.84606 70.13034 50.98820
# Shear Modulus (GPa) = 11.50630 21.57772 16.54201
#
# Velocity S-wave (km/s) = 2.65313 3.63323 3.18115
# Velocity P-wave (km/s) = 5.37286 7.77840 6.68472
#
# Compressibility (1/GPa) = 0.03140106
#
# Stress axis : x y z
#
# Youngs Moduli (GPa) = 27.76837 48.24941 69.33585
#
# Poissons Ratio (x) = 0.28082 0.14439
# Poissons Ratio (y) = 0.16162 0.83044
# Poissons Ratio (z) = 0.05783 0.57788
#
# Static dielectric constant tensor:
#      x y z
#    x 1.898570 0.000000 0.398160 
#    y 0.000000 3.273740 0.000000 
#    z 0.398160 0.000000 2.934760 
# 
# 
# High freq. dielectric constant tensor:
#      x y z
#    x 1.550300 0.000000 -0.011040 
#    y 0.000000 1.635350 0.000000 
#    z -0.011040 0.000000 1.646950 
# 
# From -- ./inp_files/323389.got.cif
#   From: 2010.06.25/outbox.cif.g09.slc.cpg/sg12_162_cif.got.tgz:323389.got - 2010.06.28 00:19:55.
