data_PCOD8080262
_publ_section_title
;
Structure prediction by ZEFSAII (Michael W. Deem and Ramdas Pophale) SiO2 
 PCOD8080262
Probable space group: C 2/M
;
_chemical_formula_sum "Si O2"
_cell_formula_units_Z 48
_cell_length_a 8.682992
_cell_length_b 22.380135
_cell_length_c 11.650800
_cell_angle_alpha 90.000000
_cell_angle_beta 97.816416
_cell_angle_gamma 90.000000
_cell_volume 2243.024004
_symmetry_space_group_name_H-M "C 2/M"
_symmetry_group_IT_number 12
_symmetry_cell_setting 'monoclinic'
loop_
_space_group_symop_operation_xyz
x,y,z
-x,y,-z
-x,-y,-z
x,-y,z
1/2+x,1/2+y,z
1/2-x,1/2+y,-z
1/2-x,1/2-y,-z
1/2+x,1/2-y,z
loop_
_atom_site_type_symbol
_atom_site_label
_atom_site_fract_x
_atom_site_fract_y
_atom_site_fract_z
Si Si1 0.567465 0.331035 0.858875
Si Si2 0.630541 0.764498 0.091313
Si Si3 0.051235 0.317630 0.324252
Si Si4 0.247160 0.432931 0.032598
Si Si5 0.113162 0.204296 0.611766
Si Si6 0.021509 0.431406 0.810103
O O1 0.402719 0.306716 0.889973
O O2 0.689785 0.279651 0.924619
O O3 0.602511 0.393842 0.920750
O O4 0.573218 0.334175 0.721864
O O5 0.613271 0.796368 0.209815
O O6 0.500000 0.796600 0.000000
O O7 0.210756 0.309639 0.415268
O O8 0.989924 0.385955 0.300669
O O9 0.916595 0.275190 0.363166
O O10 0.308021 0.500000 0.041409
O O11 0.122439 0.421503 0.119607
O O12 0.177249 0.418520 0.899770
O O13 0.000000 0.181921 0.500000
O O14 0.022805 0.500000 0.764256
#
# Coordination Sequence:
#
# PCOD8080262 Si02
#       6
#     8   8   8   8   8   8
#     4  10  19  30  47  70  96 124 160 193 236 282
#     4  10  18  28  43  71 100 123 146 187 238 288
#     4  10  19  31  49  73  96 123 158 195 240 286
#     4   9  16  28  47  71  98 127 156 190 227 276
#     4  10  20  33  48  69  96 127 161 200 241 277
#     4   9  16  28  47  72  98 124 156 192 228 276
#
# _framework density 21.399681000000001
#
# number of rings (size 3 to 8) (size 9 to 14) (size 15 to 20)
#    0.000    2.333    3.333    3.000    0.000    2.667 
#    0.000    0.000    0.000    3.000    0.000   21.000 
#    0.000    0.000    0.000    0.000    0.000    0.000 
#
# Total GULP energy -297384.224561 kJ/mol
# GULP energy per Si atom -12391.009357 kJ/mol
# Density = 2.135097 g / cm^3
# Si number density = 21.399681 Si / 1000 Ang^3
#
#
#
# Elastic Constant Matrix: (Units=GPa)
#
#
# Indices 1 2 3 4 5 6 
#
# 1 47.1436 33.5398 27.3621 0.0000 -0.2673 0.0000
# 2 33.5398 144.0398 51.4738 0.0000 17.5423 0.0000
# 3 27.3621 51.4738 104.1942 0.0000 25.2157 0.0000
# 4 0.0000 0.0000 0.0000 14.6728 0.0000 8.3015
# 5 -0.2673 17.5423 25.2157 0.0000 24.2441 0.0000
# 6 0.0000 0.0000 0.0000 8.3015 0.0000 9.6090
#
#
#
# Elastic Compliance Matrix: (Units=1/GPa)
#
#
# Indices 1 2 3 4 5 6 
#
# 1 0.030094 -0.005638 -0.008266 0.000000 0.013008 0.000000
# 2 -0.005638 0.009590 -0.002088 0.000000 -0.004829 0.000000
# 3 -0.008266 -0.002088 0.016646 0.000000 -0.015893 0.000000
# 4 0.000000 0.000000 0.000000 0.133319 0.000000 -0.115179
# 5 0.013008 -0.004829 -0.015893 0.000000 0.061415 0.000000
# 6 0.000000 0.000000 0.000000 -0.115179 0.000000 0.203577
#
#
# Mechanical properties :
#
#
# Convention : Reuss Voigt Hill
#
# Bulk Modulus (GPa) = 41.07465 57.79213 49.43339
# Shear Modulus (GPa) = 10.10633 21.90531 16.00582
#
# Velocity S-wave (km/s) = 2.17552 3.20289 2.73783
# Velocity P-wave (km/s) = 5.05433 6.38300 5.75712
#
# Compressibility (1/GPa) = 0.02434592
#
# Stress axis : x y z
#
# Youngs Moduli (GPa) = 33.22929 104.27882 60.07447
#
# Poissons Ratio (x) = 0.58790 0.49656
# Poissons Ratio (y) = 0.18734 0.12545
# Poissons Ratio (z) = 0.27466 0.21777
#
# Static dielectric constant tensor:
#      x y z
#    x 4.111430 0.000000 0.300320 
#    y 0.000000 3.950830 0.000000 
#    z 0.300320 0.000000 4.180560 
# 
# 
# High freq. dielectric constant tensor:
#      x y z
#    x 1.832780 0.000000 0.008950 
#    y 0.000000 1.818130 0.000000 
#    z 0.008950 0.000000 1.832040 
# 
# From -- ./inp_files/207016.got.cif
#   From: 2010.06.25/outbox.cif.g09.slc.cpg/sg12_104_cif.got.tgz:207016.got - 2010.06.28 00:19:55.
