data_PCOD8080627
_publ_section_title
;
Structure prediction by ZEFSAII (Michael W. Deem and Ramdas Pophale) SiO2 
 PCOD8080627
Probable space group: C 2/M
;
_chemical_formula_sum "Si O2"
_cell_formula_units_Z 64
_cell_length_a 24.357936
_cell_length_b 9.435372
_cell_length_c 26.461335
_cell_angle_alpha 90.000000
_cell_angle_beta 143.034638
_cell_angle_gamma 90.000000
_cell_volume 3657.005819
_symmetry_space_group_name_H-M "C 2/M"
_symmetry_group_IT_number 12
_symmetry_cell_setting 'monoclinic'
loop_
_space_group_symop_operation_xyz
x,y,z
-x,y,-z
-x,-y,-z
x,-y,z
1/2+x,1/2+y,z
1/2-x,1/2+y,-z
1/2-x,1/2-y,-z
1/2+x,1/2-y,z
loop_
_atom_site_type_symbol
_atom_site_label
_atom_site_fract_x
_atom_site_fract_y
_atom_site_fract_z
Si Si1 0.557668 0.669017 0.231392
Si Si2 0.409069 0.169385 0.406039
Si Si3 0.506333 0.332165 0.083372
Si Si4 0.849044 0.331628 0.253671
Si Si5 0.645036 0.331225 0.102615
Si Si6 0.327217 0.838231 0.530715
Si Si7 0.737288 0.835894 0.624946
Si Si8 0.507501 0.166217 0.721858
O O1 0.553613 0.500000 0.236453
O O2 0.512342 0.719101 0.145454
O O3 0.661640 0.729723 0.308232
O O4 0.499416 0.743542 0.232279
O O5 0.500000 0.230540 0.500000
O O6 0.401095 0.223458 0.342392
O O7 0.318987 0.227443 0.369213
O O8 0.411509 0.000000 0.410764
O O9 0.509560 0.500000 0.083797
O O10 0.593308 0.276530 0.115036
O O11 0.411916 0.278746 0.988488
O O12 0.845472 0.500000 0.254276
O O13 0.746936 0.266918 0.175846
O O14 0.902145 0.285612 0.242036
O O15 0.650479 0.500000 0.106925
O O16 0.250000 0.750000 0.500000
O O17 0.326329 0.809146 0.470381
O O18 0.424921 0.794879 0.623861
O O19 0.304264 0.000000 0.525776
O O20 0.754778 0.000000 0.648207
O O21 0.509217 0.000000 0.736655
#
# Coordination Sequence:
#
# PCOD8080627 Si02
#       8
#     8   8   8   8   8   8   8   8
#     4  10  18  29  45  66  90 116 149 185 222 260
#     4   9  15  23  37  59  86 113 141 179 225 266
#     4   8  14  24  42  68  92 111 139 185 229 267
#     4   9  16  26  40  59  87 121 149 177 222 272
#     4   8  13  24  42  65  91 115 141 179 231 275
#     4  10  18  29  43  61  87 117 149 182 216 258
#     4   9  16  25  40  62  86 110 141 182 223 260
#     4  10  20  31  43  63  92 122 152 183 216 263
#
# _framework density 17.500655999999999
#
# number of rings (size 3 to 8) (size 9 to 14) (size 15 to 20)
#    0.000    2.875    1.250    2.250    0.000    6.000 
#    0.000    0.625    0.000    0.000    0.000    6.125 
#    0.000    4.500    0.000    0.000    0.000    0.000 
#
# Total GULP energy -396589.850850 kJ/mol
# GULP energy per Si atom -12393.432839 kJ/mol
# Density = 1.746082 g / cm^3
# Si number density = 17.500656 Si / 1000 Ang^3
#
#
#
# Elastic Constant Matrix: (Units=GPa)
#
#
# Indices 1 2 3 4 5 6 
#
# 1 151.9231 23.4688 80.1898 0.0000 -4.2027 0.0000
# 2 23.4688 13.9666 18.9131 -0.0001 -4.0810 -0.0001
# 3 80.1898 18.9131 137.3524 0.0000 -3.8075 0.0000
# 4 0.0000 -0.0001 0.0000 10.4704 0.0000 -3.2530
# 5 -4.2027 -4.0810 -3.8075 0.0000 31.9909 0.0000
# 6 0.0000 -0.0001 0.0000 -3.2530 0.0000 19.5994
#
#
#
# Elastic Compliance Matrix: (Units=1/GPa)
#
#
# Indices 1 2 3 4 5 6 
#
# 1 0.010941 -0.012179 -0.004730 0.000000 -0.000679 0.000000
# 2 -0.012179 0.104751 -0.007011 0.000001 0.010928 0.000001
# 3 -0.004730 -0.007011 0.011001 0.000000 -0.000206 0.000000
# 4 0.000000 0.000001 0.000000 0.100700 0.000000 0.016714
# 5 -0.000679 0.010928 -0.000206 0.000000 0.032539 0.000000
# 6 0.000000 0.000001 0.000000 0.016714 0.000000 0.053796
#
#
# Mechanical properties :
#
#
# Convention : Reuss Voigt Hill
#
# Bulk Modulus (GPa) = 12.68146 60.93173 36.80659
# Shear Modulus (GPa) = 12.89150 24.45684 18.67417
#
# Velocity S-wave (km/s) = 2.71704 3.74235 3.27013
# Velocity P-wave (km/s) = 4.13583 7.31888 5.94437
#
# Compressibility (1/GPa) = 0.07885529
#
# Stress axis : x y z
#
# Youngs Moduli (GPa) = 91.39667 9.54645 90.89713
#
# Poissons Ratio (x) = 0.11627 0.42991
# Poissons Ratio (y) = 1.11312 0.63725
# Poissons Ratio (z) = 0.43227 0.06693
#
# Static dielectric constant tensor:
#      x y z
#    x 3.226510 0.000000 0.017020 
#    y 0.000000 2.588850 0.000000 
#    z 0.017020 0.000000 3.539580 
# 
# 
# High freq. dielectric constant tensor:
#      x y z
#    x 1.684380 0.000000 -0.002820 
#    y 0.000000 1.594850 0.000000 
#    z -0.002820 0.000000 1.684370 
# 
# From -- ./inp_files/349054.got.cif
#   From: 2010.06.25/outbox.cif.g09.slc.cpg/sg12_175_cif.got.tgz:349054.got - 2010.06.28 00:19:55.
