data_PCOD8080904
_publ_section_title
;
Structure prediction by ZEFSAII (Michael W. Deem and Ramdas Pophale) SiO2 
 PCOD8080904
Probable space group: C 2/M
;
_chemical_formula_sum "Si O2"
_cell_formula_units_Z 56
_cell_length_a 23.533379
_cell_length_b 9.565979
_cell_length_c 23.564894
_cell_angle_alpha 90.000000
_cell_angle_beta 143.210082
_cell_angle_gamma 90.000000
_cell_volume 3177.027417
_symmetry_space_group_name_H-M "C 2/M"
_symmetry_group_IT_number 12
_symmetry_cell_setting 'monoclinic'
loop_
_space_group_symop_operation_xyz
x,y,z
-x,y,-z
-x,-y,-z
x,-y,z
1/2+x,1/2+y,z
1/2-x,1/2+y,-z
1/2-x,1/2-y,-z
1/2+x,1/2-y,z
loop_
_atom_site_type_symbol
_atom_site_label
_atom_site_fract_x
_atom_site_fract_y
_atom_site_fract_z
Si Si1 0.840552 0.841267 0.583102
Si Si2 0.135554 0.835708 0.706180
Si Si3 0.622077 0.661086 0.931034
Si Si4 0.905169 0.162367 0.758079
Si Si5 0.215846 0.836709 0.888659
Si Si6 0.760164 0.164734 0.323678
Si Si7 0.928772 0.160666 0.535964
O O1 0.750000 0.750000 0.500000
O O2 0.891041 0.796075 0.681270
O O3 0.914652 0.819673 0.591716
O O4 0.805136 0.000000 0.557462
O O5 0.171866 0.775342 0.795238
O O6 0.211386 0.801944 0.718182
O O7 0.032267 0.771833 0.605981
O O8 0.119844 0.000000 0.701352
O O9 0.645611 0.500000 0.962969
O O10 0.513762 0.696555 0.859644
O O11 0.642083 0.692402 0.880619
O O12 0.685924 0.757120 0.022050
O O13 0.837851 0.255665 0.743596
O O14 0.881808 0.000000 0.750023
O O15 0.239806 0.000000 0.902067
O O16 0.842452 0.227955 0.430826
O O17 0.744031 0.000000 0.321176
O O18 0.929330 0.000000 0.517340
#
# Coordination Sequence:
#
# PCOD8080904 Si02
#       7
#     8   8   8   8   8   8   8
#     4  10  18  29  47  71  98 126 157 194 236 282
#     4   9  17  30  50  74  98 125 162 205 246 284
#     4   9  18  33  53  75  98 126 158 196 246 299
#     4  10  20  33  49  70 101 136 162 190 240 296
#     4   9  17  32  54  77  97 120 157 206 250 286
#     4  10  19  31  49  73  99 129 166 204 235 276
#     4   9  16  28  48  73  98 126 161 200 241 284
#
# _framework density 17.626539000000001
#
# number of rings (size 3 to 8) (size 9 to 14) (size 15 to 20)
#    0.000    2.571    1.429    1.286    0.000    5.714 
#    0.000    1.429    0.000   10.286    0.000    0.000 
#    0.000    0.000    0.000    0.000    0.000    0.000 
#
# Total GULP energy -347140.102744 kJ/mol
# GULP energy per Si atom -12397.860812 kJ/mol
# Density = 1.758642 g / cm^3
# Si number density = 17.626539 Si / 1000 Ang^3
#
#
#
# Elastic Constant Matrix: (Units=GPa)
#
#
# Indices 1 2 3 4 5 6 
#
# 1 95.5819 33.6758 56.7339 0.0000 13.6461 0.0000
# 2 33.6758 38.9203 37.5183 0.0000 11.7603 0.0000
# 3 56.7339 37.5183 111.9690 0.0000 15.0918 0.0000
# 4 0.0000 0.0000 0.0000 24.3773 0.0000 2.6711
# 5 13.6461 11.7603 15.0918 0.0000 29.7885 0.0000
# 6 0.0000 0.0000 0.0000 2.6711 0.0000 23.2204
#
#
#
# Elastic Compliance Matrix: (Units=1/GPa)
#
#
# Indices 1 2 3 4 5 6 
#
# 1 0.017101 -0.009140 -0.005402 0.000000 -0.001489 0.000000
# 2 -0.009140 0.045322 -0.009346 0.000000 -0.008971 0.000000
# 3 -0.005402 -0.009346 0.014993 0.000000 -0.001431 0.000000
# 4 0.000000 0.000000 0.000000 0.041545 0.000000 -0.004779
# 5 -0.001489 -0.008971 -0.001431 0.000000 0.038519 0.000000
# 6 0.000000 0.000000 0.000000 -0.004779 0.000000 0.043615
#
#
# Mechanical properties :
#
#
# Convention : Reuss Voigt Hill
#
# Bulk Modulus (GPa) = 33.73781 55.81412 44.77597
# Shear Modulus (GPa) = 19.32361 23.38014 21.35187
#
# Velocity S-wave (km/s) = 3.31460 3.64595 3.48422
# Velocity P-wave (km/s) = 5.81642 7.03260 6.45322
#
# Compressibility (1/GPa) = 0.02964034
#
# Stress axis : x y z
#
# Youngs Moduli (GPa) = 58.47504 22.06453 66.69885
#
# Poissons Ratio (x) = 0.20166 0.36030
# Poissons Ratio (y) = 0.53444 0.62338
# Poissons Ratio (z) = 0.31588 0.20622
#
# Static dielectric constant tensor:
#      x y z
#    x 3.326140 0.000000 0.191480 
#    y 0.000000 3.022320 0.000000 
#    z 0.191480 0.000000 3.379190 
# 
# 
# High freq. dielectric constant tensor:
#      x y z
#    x 1.683320 0.000000 0.002940 
#    y 0.000000 1.642050 0.000000 
#    z 0.002940 0.000000 1.683790 
# 
# From -- ./inp_files/164868.got.cif
#   From: 2010.06.25/outbox.cif.g09.slc.cpg/sg12_83_cif.got.tgz:164868.got - 2010.06.28 00:19:55.
