data_PCOD8080950
_publ_section_title
;
Structure prediction by ZEFSAII (Michael W. Deem and Ramdas Pophale) SiO2 
 PCOD8080950
Probable space group: C 2/M
;
_chemical_formula_sum "Si O2"
_cell_formula_units_Z 64
_cell_length_a 9.288268
_cell_length_b 19.545080
_cell_length_c 20.962135
_cell_angle_alpha 90.000000
_cell_angle_beta 60.760181
_cell_angle_gamma 90.000000
_cell_volume 3320.583156
_symmetry_space_group_name_H-M "C 2/M"
_symmetry_group_IT_number 12
_symmetry_cell_setting 'monoclinic'
loop_
_space_group_symop_operation_xyz
x,y,z
-x,y,-z
-x,-y,-z
x,-y,z
1/2+x,1/2+y,z
1/2-x,1/2+y,-z
1/2-x,1/2-y,-z
1/2+x,1/2-y,z
loop_
_atom_site_type_symbol
_atom_site_label
_atom_site_fract_x
_atom_site_fract_y
_atom_site_fract_z
Si Si1 0.183457 0.164231 0.460698
Si Si2 0.267528 0.183120 0.586074
Si Si3 0.077844 0.783124 0.050503
Si Si4 0.911977 0.301470 0.191277
Si Si5 0.473879 0.135107 0.650874
Si Si6 0.985750 0.074648 0.078205
Si Si7 0.883029 0.423400 0.799210
Si Si8 0.957386 0.776648 0.719688
O O1 0.255289 0.161890 0.515903
O O2 0.168579 0.238113 0.429229
O O3 0.326748 0.122586 0.392017
O O4 0.000000 0.130422 0.500000
O O5 0.392902 0.132635 0.597329
O O6 0.087959 0.173990 0.656972
O O7 0.964210 0.728654 0.111804
O O8 0.092213 0.859471 0.080015
O O9 0.250000 0.750000 0.000000
O O10 0.000000 0.799621 0.000000
O O11 0.995930 0.373453 0.188798
O O12 0.968678 0.244024 0.228524
O O13 0.716355 0.314912 0.234239
O O14 0.396273 0.083622 0.719206
O O15 0.427688 0.211323 0.682137
O O16 0.800585 0.093372 0.139077
O O17 0.038261 0.000000 0.096957
O O18 0.000000 0.066015 0.000000
O O19 0.933193 0.500000 0.807469
#
# Coordination Sequence:
#
# PCOD8080950 Si02
#       8
#     8   8   8   8   8   8   8   8
#     4  10  19  28  49  79 116 149 179 225 295 358
#     4  10  18  29  47  78 117 145 178 231 289 352
#     4  11  21  35  56  87 120 153 193 240 294 346
#     4  11  20  34  54  82 114 150 188 248 294 347
#     4  10  19  33  50  79 113 144 184 234 286 346
#     4   9  18  35  58  85 115 153 197 236 272 331
#     4  10  22  38  60  83 109 153 203 242 291 351
#     4  10  19  29  50  81 111 143 180 227 299 346
#
# _framework density 19.273723
#
# number of rings (size 3 to 8) (size 9 to 14) (size 15 to 20)
#    0.000    1.875    1.250    6.375    3.500    0.000 
#    0.000    0.000    0.000    6.375    0.000    0.000 
#    0.000    0.000    0.000    0.000    0.000    0.000 
#
# Total GULP energy -396483.510508 kJ/mol
# GULP energy per Si atom -12390.109703 kJ/mol
# Density = 1.922985 g / cm^3
# Si number density = 19.273723 Si / 1000 Ang^3
#
#
#
# Elastic Constant Matrix: (Units=GPa)
#
#
# Indices 1 2 3 4 5 6 
#
# 1 79.2985 31.1850 39.8353 0.0000 -25.9962 0.0000
# 2 31.1850 86.7782 31.1958 0.0000 -18.3732 0.0000
# 3 39.8353 31.1958 113.6786 0.0000 -27.5947 0.0000
# 4 0.0000 0.0000 0.0000 44.3668 0.0000 -6.7229
# 5 -25.9962 -18.3732 -27.5947 0.0000 44.7771 0.0000
# 6 0.0000 0.0000 0.0000 -6.7229 0.0000 17.6361
#
#
#
# Elastic Compliance Matrix: (Units=1/GPa)
#
#
# Indices 1 2 3 4 5 6 
#
# 1 0.018152 -0.003773 -0.003696 0.000000 0.006712 0.000000
# 2 -0.003773 0.014090 -0.001967 0.000000 0.002379 0.000000
# 3 -0.003696 -0.001967 0.011659 0.000000 0.004232 0.000000
# 4 0.000000 0.000000 0.000000 0.023921 0.000000 0.009119
# 5 0.006712 0.002379 0.004232 0.000000 0.029814 0.000000
# 6 0.000000 0.000000 0.000000 0.009119 0.000000 0.060178
#
#
# Mechanical properties :
#
#
# Convention : Reuss Voigt Hill
#
# Bulk Modulus (GPa) = 39.95419 53.79860 46.87639
# Shear Modulus (GPa) = 27.02277 33.19195 30.10736
#
# Velocity S-wave (km/s) = 3.74846 4.15436 3.95662
# Velocity P-wave (km/s) = 6.28566 7.14039 6.72661
#
# Compressibility (1/GPa) = 0.02502867
#
# Stress axis : x y z
#
# Youngs Moduli (GPa) = 55.09185 70.97043 85.77085
#
# Poissons Ratio (x) = 0.26779 0.31700
# Poissons Ratio (y) = 0.20787 0.16871
# Poissons Ratio (z) = 0.20361 0.13960
#
# Static dielectric constant tensor:
#      x y z
#    x 3.369640 0.000000 -0.126830 
#    y 0.000000 3.329180 0.000000 
#    z -0.126830 0.000000 3.984020 
# 
# 
# High freq. dielectric constant tensor:
#      x y z
#    x 1.733140 0.000000 -0.014810 
#    y 0.000000 1.697570 0.000000 
#    z -0.014810 0.000000 1.779470 
# 
# From -- ./inp_files/301708.got.cif
#   From: 2010.06.25/outbox.cif.g09.slc.cpg/sg12_151_cif.got.tgz:301708.got - 2010.06.28 00:19:55.
