data_PCOD8080590
_publ_section_title
;
Structure prediction by ZEFSAII (Michael W. Deem and Ramdas Pophale) SiO2 
 PCOD8080590
Probable space group: C 2/M
;
_chemical_formula_sum "Si O2"
_cell_formula_units_Z 44
_cell_length_a 11.923955
_cell_length_b 24.377043
_cell_length_c 9.434380
_cell_angle_alpha 90.000000
_cell_angle_beta 70.096027
_cell_angle_gamma 90.000000
_cell_volume 2578.485933
_symmetry_space_group_name_H-M "C 2/M"
_symmetry_group_IT_number 12
_symmetry_cell_setting 'monoclinic'
loop_
_space_group_symop_operation_xyz
x,y,z
-x,y,-z
-x,-y,-z
x,-y,z
1/2+x,1/2+y,z
1/2-x,1/2+y,-z
1/2-x,1/2-y,-z
1/2+x,1/2-y,z
loop_
_atom_site_type_symbol
_atom_site_label
_atom_site_fract_x
_atom_site_fract_y
_atom_site_fract_z
Si Si1 0.500000 0.689954 0.000000
Si Si2 0.700763 0.232630 0.804930
Si Si3 0.348604 0.166184 0.694734
Si Si4 0.876038 0.435591 0.130686
Si Si5 0.777052 0.857617 0.978583
Si Si6 0.618896 0.855756 0.628074
O O1 0.585122 0.728703 0.869657
O O2 0.420308 0.650654 0.931075
O O3 0.812501 0.269979 0.713827
O O4 0.722003 0.199277 0.941848
O O5 0.691139 0.189258 0.683700
O O6 0.323198 0.138249 0.552577
O O7 0.485932 0.165602 0.673120
O O8 0.274577 0.131861 0.842151
O O9 0.856710 0.500000 0.141413
O O10 0.761853 0.409108 0.100284
O O11 0.878920 0.413876 0.290748
O O12 0.000000 0.418965 0.000000
#
# Coordination Sequence:
#
# PCOD8080590 Si02
#       6
#     4   8   8   8   8   8
#     4  10  18  28  49  76  97 130 162 200 236 286
#     4  10  18  29  48  71 103 138 165 184 232 295
#     4  10  18  29  44  73 104 130 153 199 242 290
#     4  10  20  36  55  70  90 127 171 212 254 295
#     4  10  19  32  51  73 101 129 169 201 239 285
#     4  10  19  30  47  70 103 128 159 200 246 289
#
# _framework density 17.064278999999999
#
# number of rings (size 3 to 8) (size 9 to 14) (size 15 to 20)
#    0.000    2.000    1.818    4.909    2.545    0.000 
#    0.000    3.182    0.000    9.818    0.000    5.091 
#    0.000    0.000    0.000    0.000    0.000    0.000 
#
# Total GULP energy -272724.094951 kJ/mol
# GULP energy per Si atom -12396.549770 kJ/mol
# Density = 1.702544 g / cm^3
# Si number density = 17.064279 Si / 1000 Ang^3
#
#
#
# Elastic Constant Matrix: (Units=GPa)
#
#
# Indices 1 2 3 4 5 6 
#
# 1 103.0745 43.7865 37.5998 0.0000 8.7907 0.0000
# 2 43.7865 99.6528 43.0664 0.0000 9.2276 0.0000
# 3 37.5998 43.0664 115.8643 0.0000 12.9003 0.0000
# 4 0.0000 0.0000 0.0000 16.3290 0.0000 -2.9662
# 5 8.7907 9.2276 12.9003 0.0000 20.2774 0.0000
# 6 0.0000 0.0000 0.0000 -2.9662 0.0000 17.3580
#
#
#
# Elastic Compliance Matrix: (Units=1/GPa)
#
#
# Indices 1 2 3 4 5 6 
#
# 1 0.012538 -0.004361 -0.002221 0.000000 -0.002038 0.000000
# 2 -0.004361 0.013623 -0.003410 0.000000 -0.002139 0.000000
# 3 -0.002221 -0.003410 0.011127 0.000000 -0.004564 0.000000
# 4 0.000000 0.000000 0.000000 0.063202 0.000000 0.010800
# 5 -0.002038 -0.002139 -0.004564 0.000000 0.054077 0.000000
# 6 0.000000 0.000000 0.000000 0.010800 0.000000 0.059456
#
#
# Mechanical properties :
#
#
# Convention : Reuss Voigt Hill
#
# Bulk Modulus (GPa) = 57.78881 63.05523 60.42202
# Shear Modulus (GPa) = 20.85284 23.73546 22.29415
#
# Velocity S-wave (km/s) = 3.49953 3.73358 3.61845
# Velocity P-wave (km/s) = 7.08998 7.45775 7.27619
#
# Compressibility (1/GPa) = 0.01730439
#
# Stress axis : x y z
#
# Youngs Moduli (GPa) = 79.75667 73.40677 89.86868
#
# Poissons Ratio (x) = 0.32009 0.19961
# Poissons Ratio (y) = 0.34778 0.30648
# Poissons Ratio (z) = 0.17715 0.25034
#
# Static dielectric constant tensor:
#      x y z
#    x 3.347050 0.000000 0.155500 
#    y 0.000000 2.942760 0.000000 
#    z 0.155500 0.000000 3.364350 
# 
# 
# High freq. dielectric constant tensor:
#      x y z
#    x 1.659500 0.000000 0.016430 
#    y 0.000000 1.630970 0.000000 
#    z 0.016430 0.000000 1.656270 
# 
# From -- ./inp_files/50510.got.cif
#   From: 2010.06.25/outbox.cif.g09.slc.cpg/sg12_26_cif.got.tgz:50510.got - 2010.06.28 00:19:55.
