data_PCOD8080656
_publ_section_title
;
Structure prediction by ZEFSAII (Michael W. Deem and Ramdas Pophale) SiO2 
 PCOD8080656
Probable space group: C 2/M
;
_chemical_formula_sum "Si O2"
_cell_formula_units_Z 64
_cell_length_a 20.957737
_cell_length_b 14.155385
_cell_length_c 15.423141
_cell_angle_alpha 90.000000
_cell_angle_beta 58.128627
_cell_angle_gamma 90.000000
_cell_volume 3885.680578
_symmetry_space_group_name_H-M "C 2/M"
_symmetry_group_IT_number 12
_symmetry_cell_setting 'monoclinic'
loop_
_space_group_symop_operation_xyz
x,y,z
-x,y,-z
-x,-y,-z
x,-y,z
1/2+x,1/2+y,z
1/2-x,1/2+y,-z
1/2-x,1/2-y,-z
1/2+x,1/2-y,z
loop_
_atom_site_type_symbol
_atom_site_label
_atom_site_fract_x
_atom_site_fract_y
_atom_site_fract_z
Si Si1 0.060555 0.890489 0.223635
Si Si2 0.216251 0.105215 0.654866
Si Si3 0.010824 0.394254 0.594770
Si Si4 0.630340 0.219517 0.264496
Si Si5 0.853945 0.272437 0.542296
Si Si6 0.060965 0.889319 0.024726
Si Si7 0.220892 0.891324 0.852482
Si Si8 0.898959 0.894534 0.403694
O O1 0.122349 0.818274 0.217830
O O2 0.039013 0.866846 0.139570
O O3 0.987077 0.872955 0.334392
O O4 0.088472 0.000000 0.210895
O O5 0.274831 0.180732 0.576312
O O6 0.202100 0.118961 0.765539
O O7 0.136856 0.120948 0.665354
O O8 0.248695 0.000000 0.613995
O O9 0.022416 0.500000 0.623172
O O10 0.941269 0.348987 0.697775
O O11 0.000000 0.398990 0.500000
O O12 0.084524 0.331551 0.556017
O O13 0.633933 0.236032 0.364294
O O14 0.705812 0.169685 0.174658
O O15 0.856608 0.166809 0.505392
O O16 0.064639 0.000000 0.002656
O O17 0.146094 0.849894 0.951962
O O18 0.000000 0.845054 0.000000
O O19 0.237425 0.000000 0.866633
O O20 0.885833 0.000000 0.446159
#
# Coordination Sequence:
#
# PCOD8080656 Si02
#       8
#     8   8   8   8   8   8   8   8
#     4  10  20  32  46  66  94 125 155 188 225 270
#     4   9  17  29  46  68  91 116 150 193 239 275
#     4   9  16  27  43  62  87 119 152 185 222 263
#     4  10  19  30  44  66  95 123 154 185 223 273
#     4  10  18  29  44  64  90 125 157 189 225 268
#     4   9  17  31  51  72  93 116 146 187 236 281
#     4   9  17  30  49  71  94 117 143 187 240 282
#     4  10  19  30  44  63  91 127 160 190 223 263
#
# _framework density 16.47073
#
# number of rings (size 3 to 8) (size 9 to 14) (size 15 to 20)
#    0.000    2.500    1.250    1.875    0.000    7.000 
#    0.000    1.250    0.000    0.000    0.000    0.000 
#    0.000    2.500    0.000    0.000    0.000    0.000 
#
# Total GULP energy -396637.252861 kJ/mol
# GULP energy per Si atom -12394.914152 kJ/mol
# Density = 1.643324 g / cm^3
# Si number density = 16.470730 Si / 1000 Ang^3
#
#
#
# Elastic Constant Matrix: (Units=GPa)
#
#
# Indices 1 2 3 4 5 6 
#
# 1 53.9201 34.7232 14.5995 0.0000 -11.0833 0.0000
# 2 34.7232 88.8884 30.8723 0.0000 -4.7162 0.0000
# 3 14.5995 30.8723 57.4491 0.0000 -12.7183 0.0000
# 4 0.0000 0.0000 0.0000 16.6880 0.0000 0.2364
# 5 -11.0833 -4.7162 -12.7183 0.0000 21.3440 0.0000
# 6 0.0000 0.0000 0.0000 0.2364 0.0000 24.0431
#
#
#
# Elastic Compliance Matrix: (Units=1/GPa)
#
#
# Indices 1 2 3 4 5 6 
#
# 1 0.027642 -0.010655 0.001564 0.000000 0.012931 0.000000
# 2 -0.010655 0.017985 -0.008412 0.000000 -0.006571 0.000000
# 3 0.001564 -0.008412 0.024535 0.000000 0.013573 0.000000
# 4 0.000000 0.000000 0.000000 0.059932 0.000000 -0.000589
# 5 0.012931 -0.006571 0.013573 0.000000 0.060202 0.000000
# 6 0.000000 0.000000 0.000000 -0.000589 0.000000 0.041598
#
#
# Mechanical properties :
#
#
# Convention : Reuss Voigt Hill
#
# Bulk Modulus (GPa) = 28.44486 40.07194 34.25840
# Shear Modulus (GPa) = 17.94565 20.41919 19.18242
#
# Velocity S-wave (km/s) = 3.30441 3.52479 3.41638
# Velocity P-wave (km/s) = 5.64502 6.39903 6.03381
#
# Compressibility (1/GPa) = 0.03515573
#
# Stress axis : x y z
#
# Youngs Moduli (GPa) = 36.17659 55.60071 40.75875
#
# Poissons Ratio (x) = 0.59244 -0.06375
# Poissons Ratio (y) = 0.38547 0.34287
# Poissons Ratio (z) = -0.05658 0.46772
#
# Static dielectric constant tensor:
#      x y z
#    x 3.059250 0.000000 -0.186100 
#    y 0.000000 3.064450 0.000000 
#    z -0.186100 0.000000 2.977580 
# 
# 
# High freq. dielectric constant tensor:
#      x y z
#    x 1.625280 0.000000 -0.015530 
#    y 0.000000 1.619040 0.000000 
#    z -0.015530 0.000000 1.620690 
# 
# From -- ./inp_files/246338.got.cif
#   From: 2010.06.25/outbox.cif.g09.slc.cpg/sg12_124_cif.got.tgz:246338.got - 2010.06.28 00:19:55.
