data_PCOD8080980
_publ_section_title
;
Structure prediction by ZEFSAII (Michael W. Deem and Ramdas Pophale) SiO2 
 PCOD8080980
Probable space group: C 2/M
;
_chemical_formula_sum "Si O2"
_cell_formula_units_Z 48
_cell_length_a 18.925155
_cell_length_b 21.785079
_cell_length_c 9.975099
_cell_angle_alpha 90.000000
_cell_angle_beta 38.017199
_cell_angle_gamma 90.000000
_cell_volume 2532.938161
_symmetry_space_group_name_H-M "C 2/M"
_symmetry_group_IT_number 12
_symmetry_cell_setting 'monoclinic'
loop_
_space_group_symop_operation_xyz
x,y,z
-x,y,-z
-x,-y,-z
x,-y,z
1/2+x,1/2+y,z
1/2-x,1/2+y,-z
1/2-x,1/2-y,-z
1/2+x,1/2-y,z
loop_
_atom_site_type_symbol
_atom_site_label
_atom_site_fract_x
_atom_site_fract_y
_atom_site_fract_z
Si Si1 0.121410 0.357034 0.304665
Si Si2 0.655128 0.610536 0.182839
Si Si3 0.577857 0.431328 0.575454
Si Si4 0.388476 0.311137 0.331417
Si Si5 0.754925 0.221800 0.286622
Si Si6 0.402407 0.738349 0.827901
O O1 0.165408 0.333443 0.385623
O O2 0.000000 0.395181 0.500000
O O3 0.923739 0.299532 0.715404
O O4 0.221395 0.395255 0.077629
O O5 0.558011 0.570506 0.253511
O O6 0.659976 0.586241 0.327092
O O7 0.610024 0.680764 0.253883
O O8 0.608946 0.500000 0.576561
O O9 0.605088 0.383871 0.652972
O O10 0.288329 0.280977 0.569784
O O11 0.360923 0.305448 0.214497
O O12 0.500911 0.274128 0.205315
O O13 0.787516 0.244700 0.088361
#
# Coordination Sequence:
#
# PCOD8080980 Si02
#       6
#     8   8   8   8   8   8
#     4  11  19  30  49  75 108 141 174 205 258 321
#     4   9  18  29  50  76 103 132 170 222 258 297
#     4  10  19  34  56  77  98 130 178 227 264 303
#     4  10  19  31  49  76 109 135 170 206 267 314
#     4  10  19  31  47  74 111 142 162 209 260 323
#     4  10  18  29  48  72 107 139 167 204 258 318
#
# _framework density 18.950324999999999
#
# number of rings (size 3 to 8) (size 9 to 14) (size 15 to 20)
#    0.000    2.000    1.667    5.500    2.333    0.000 
#    0.000    0.000    0.000   24.000    0.000    1.167 
#    0.000    0.000    0.000    0.000    0.000    0.000 
#
# Total GULP energy -297375.609873 kJ/mol
# GULP energy per Si atom -12390.650411 kJ/mol
# Density = 1.890719 g / cm^3
# Si number density = 18.950325 Si / 1000 Ang^3
#
#
#
# Elastic Constant Matrix: (Units=GPa)
#
#
# Indices 1 2 3 4 5 6 
#
# 1 66.2754 8.4971 11.7624 0.0000 -8.8352 0.0000
# 2 8.4971 62.6600 18.6454 0.0000 3.2889 0.0000
# 3 11.7624 18.6454 85.9133 -0.0001 -12.7103 0.0000
# 4 0.0000 0.0000 -0.0001 15.7232 0.0000 -1.2591
# 5 -8.8352 3.2889 -12.7103 0.0000 30.3259 0.0000
# 6 0.0000 0.0000 0.0000 -1.2591 0.0000 13.2031
#
#
#
# Elastic Compliance Matrix: (Units=1/GPa)
#
#
# Indices 1 2 3 4 5 6 
#
# 1 0.016148 -0.002099 -0.001093 0.000000 0.004474 0.000000
# 2 -0.002099 0.017716 -0.004192 0.000000 -0.004290 0.000000
# 3 -0.001093 -0.004192 0.013560 0.000000 0.005820 0.000000
# 4 0.000000 0.000000 0.000000 0.064090 0.000000 0.006112
# 5 0.004474 -0.004290 0.005820 0.000000 0.037183 0.000000
# 6 0.000000 0.000000 0.000000 0.006112 0.000000 0.076323
#
#
# Mechanical properties :
#
#
# Convention : Reuss Voigt Hill
#
# Bulk Modulus (GPa) = 30.62309 32.51759 31.57034
# Shear Modulus (GPa) = 19.94617 23.58003 21.76310
#
# Velocity S-wave (km/s) = 3.24782 3.53130 3.39252
# Velocity P-wave (km/s) = 5.50084 5.81579 5.66050
#
# Compressibility (1/GPa) = 0.03265510
#
# Stress axis : x y z
#
# Youngs Moduli (GPa) = 61.92650 56.44471 73.74572
#
# Poissons Ratio (x) = 0.11849 0.08063
# Poissons Ratio (y) = 0.13000 0.30916
# Poissons Ratio (z) = 0.06771 0.23663
#
# Static dielectric constant tensor:
#      x y z
#    x 3.571490 0.000000 -0.195420 
#    y 0.000000 3.127330 0.000000 
#    z -0.195420 0.000000 3.673100 
# 
# 
# High freq. dielectric constant tensor:
#      x y z
#    x 1.732400 0.000000 -0.006000 
#    y 0.000000 1.686880 0.000000 
#    z -0.006000 0.000000 1.743870 
# 
# From -- ./inp_files/177689.got.cif
#   From: 2010.06.25/outbox.cif.g09.slc.cpg/sg12_89_cif.got.tgz:177689.got - 2010.06.28 00:19:55.
