data_PCOD8080905
_publ_section_title
;
Structure prediction by ZEFSAII (Michael W. Deem and Ramdas Pophale) SiO2 
 PCOD8080905
Probable space group: C 2/M
;
_chemical_formula_sum "Si O2"
_cell_formula_units_Z 56
_cell_length_a 32.650705
_cell_length_b 9.009943
_cell_length_c 18.264080
_cell_angle_alpha 90.000000
_cell_angle_beta 37.510339
_cell_angle_gamma 90.000000
_cell_volume 3271.610909
_symmetry_space_group_name_H-M "C 2/M"
_symmetry_group_IT_number 12
_symmetry_cell_setting 'monoclinic'
loop_
_space_group_symop_operation_xyz
x,y,z
-x,y,-z
-x,-y,-z
x,-y,z
1/2+x,1/2+y,z
1/2-x,1/2+y,-z
1/2-x,1/2-y,-z
1/2+x,1/2-y,z
loop_
_atom_site_type_symbol
_atom_site_label
_atom_site_fract_x
_atom_site_fract_y
_atom_site_fract_z
Si Si1 0.727384 0.673657 0.419938
Si Si2 0.016455 0.828367 0.893333
Si Si3 0.802568 0.832531 0.828227
Si Si4 0.611716 0.672196 0.021935
Si Si5 0.652436 0.166818 0.101848
Si Si6 0.755474 0.324967 0.757315
Si Si7 0.851342 0.326801 0.345552
O O1 0.716335 0.500000 0.423799
O O2 0.722708 0.755057 0.349704
O O3 0.799119 0.709623 0.354820
O O4 0.667792 0.735586 0.555021
O O5 0.075765 0.722622 0.783695
O O6 0.951510 0.787681 0.938019
O O7 0.037542 0.000000 0.853992
O O8 0.000000 0.791389 0.000000
O O9 0.853420 0.757371 0.814050
O O10 0.804161 0.740169 0.750850
O O11 0.826754 0.000000 0.778705
O O12 0.728385 0.830658 0.966382
O O13 0.615367 0.500000 0.036980
O O14 0.605021 0.760142 0.107598
O O15 0.678327 0.719469 0.883035
O O16 0.627469 0.000000 0.151532
O O17 0.765461 0.500000 0.739799
O O18 0.851112 0.500000 0.365197
#
# Coordination Sequence:
#
# PCOD8080905 Si02
#       7
#     8   8   8   8   8   8   8
#     4  10  20  34  51  70  94 124 158 197 241 286
#     4  10  20  34  51  71  97 129 162 195 235 283
#     4   9  16  26  41  63  93 125 156 192 236 284
#     4   9  18  30  45  67  96 130 162 193 235 285
#     4   9  16  26  41  62  90 124 160 196 234 278
#     4  10  18  29  47  71  98 126 159 197 236 280
#     4  10  21  35  51  71  94 123 160 200 240 280
#
# _framework density 17.116949999999999
#
# number of rings (size 3 to 8) (size 9 to 14) (size 15 to 20)
#    0.000    2.429    0.000    3.000    0.000    7.714 
#    0.000    0.000    0.000    0.000    0.000    1.000 
#    0.000    8.000    0.000    0.000    0.000    0.000 
#
# Total GULP energy -347264.172095 kJ/mol
# GULP energy per Si atom -12402.291861 kJ/mol
# Density = 1.707799 g / cm^3
# Si number density = 17.116950 Si / 1000 Ang^3
#
#
#
# Elastic Constant Matrix: (Units=GPa)
#
#
# Indices 1 2 3 4 5 6 
#
# 1 132.2654 63.2963 47.0509 -0.0008 25.3587 0.0001
# 2 63.2963 101.9931 37.9254 -0.0046 18.2785 0.0007
# 3 47.0509 37.9254 60.9681 -0.0037 14.5937 0.0018
# 4 -0.0008 -0.0046 -0.0037 27.1848 0.0011 5.6373
# 5 25.3587 18.2785 14.5937 0.0011 25.7271 -0.0002
# 6 0.0001 0.0007 0.0018 5.6373 -0.0002 31.7603
#
#
#
# Elastic Compliance Matrix: (Units=1/GPa)
#
#
# Indices 1 2 3 4 5 6 
#
# 1 0.013096 -0.004950 -0.005530 -0.000001 -0.006254 0.000001
# 2 -0.004950 0.015277 -0.004921 0.000002 -0.003183 0.000000
# 3 -0.005530 -0.004921 0.024981 0.000003 -0.005223 -0.000002
# 4 -0.000001 0.000002 0.000003 0.038191 -0.000004 -0.006779
# 5 -0.006254 -0.003183 -0.005223 -0.000004 0.050259 0.000001
# 6 0.000001 0.000000 -0.000002 -0.006779 0.000001 0.032689
#
#
# Mechanical properties :
#
#
# Convention : Reuss Voigt Hill
#
# Bulk Modulus (GPa) = 44.34270 65.75243 55.04757
# Shear Modulus (GPa) = 23.49487 26.73137 25.11312
#
# Velocity S-wave (km/s) = 3.70889 3.95611 3.83449
# Velocity P-wave (km/s) = 6.65606 7.70485 7.19958
#
# Compressibility (1/GPa) = 0.02255163
#
# Stress axis : x y z
#
# Youngs Moduli (GPa) = 76.36062 65.45877 40.03003
#
# Poissons Ratio (x) = 0.32402 0.22137
# Poissons Ratio (y) = 0.37798 0.19699
# Poissons Ratio (z) = 0.42229 0.32212
#
# Static dielectric constant tensor:
#      x y z
#    x 3.271880 0.000000 0.159300 
#    y 0.000000 3.315980 0.000000 
#    z 0.159300 0.000000 2.835420 
# 
# 
# High freq. dielectric constant tensor:
#      x y z
#    x 1.664470 0.000000 0.021560 
#    y 0.000000 1.674670 0.000000 
#    z 0.021560 0.000000 1.617510 
# 
# From -- ./inp_files/295057.got.cif
#   From: 2010.06.25/outbox.cif.g09.slc.cpg/sg12_148_cif.got.tgz:295057.got - 2010.06.28 00:19:55.
