data_PCOD8080780
_publ_section_title
;
Structure prediction by ZEFSAII (Michael W. Deem and Ramdas Pophale) SiO2 
 PCOD8080780
Probable space group: C 2/M
;
_chemical_formula_sum "Si O2"
_cell_formula_units_Z 56
_cell_length_a 28.444481
_cell_length_b 8.936994
_cell_length_c 17.016826
_cell_angle_alpha 90.000000
_cell_angle_beta 128.553253
_cell_angle_gamma 90.000000
_cell_volume 3382.914518
_symmetry_space_group_name_H-M "C 2/M"
_symmetry_group_IT_number 12
_symmetry_cell_setting 'monoclinic'
loop_
_space_group_symop_operation_xyz
x,y,z
-x,y,-z
-x,-y,-z
x,-y,z
1/2+x,1/2+y,z
1/2-x,1/2+y,-z
1/2-x,1/2-y,-z
1/2+x,1/2-y,z
loop_
_atom_site_type_symbol
_atom_site_label
_atom_site_fract_x
_atom_site_fract_y
_atom_site_fract_z
Si Si1 0.962114 0.174750 0.124401
Si Si2 0.205491 0.824429 0.392878
Si Si3 0.263981 0.327372 0.137747
Si Si4 0.404526 0.172136 0.922185
Si Si5 0.336794 0.672358 0.066066
Si Si6 0.719050 0.674450 0.229081
Si Si7 0.419214 0.171994 0.755489
O O1 0.906707 0.210139 0.125038
O O2 0.021394 0.255193 0.221291
O O3 0.975378 0.000000 0.131655
O O4 0.949399 0.237128 0.024289
O O5 0.250000 0.750000 0.500000
O O6 0.231161 0.787571 0.332696
O O7 0.139404 0.757629 0.336399
O O8 0.202259 0.000000 0.404895
O O9 0.258000 0.500000 0.154065
O O10 0.321596 0.298062 0.141959
O O11 0.272601 0.233542 0.228084
O O12 0.203643 0.277780 0.029948
O O13 0.338566 0.238799 0.863280
O O14 0.426458 0.190150 0.856224
O O15 0.404325 0.000000 0.948363
O O16 0.322670 0.500000 0.028967
O O17 0.708079 0.500000 0.205903
O O18 0.413578 0.000000 0.723980
#
# Coordination Sequence:
#
# PCOD8080780 Si02
#       7
#     8   8   8   8   8   8   8
#     4  11  20  30  45  66  96 132 166 199 238 282
#     4  10  21  37  56  76  98 123 155 197 246 294
#     4  10  18  29  46  67  93 129 169 204 239 280
#     4  10  19  30  44  65  93 128 166 200 233 277
#     4   9  19  31  43  64  96 132 168 205 239 276
#     4  10  19  31  48  71  98 127 159 198 242 288
#     4  10  21  34  48  68  96 126 161 200 237 286
#
# _framework density 16.553773
#
# number of rings (size 3 to 8) (size 9 to 14) (size 15 to 20)
#    0.000    2.000    1.429    3.000    0.000    6.286 
#    0.000    0.000    0.000    0.000    0.000    1.000 
#    0.000    8.000    0.000    0.000    0.000    0.000 
#
# Total GULP energy -347190.936967 kJ/mol
# GULP energy per Si atom -12399.676320 kJ/mol
# Density = 1.651610 g / cm^3
# Si number density = 16.553773 Si / 1000 Ang^3
#
#
#
# Elastic Constant Matrix: (Units=GPa)
#
#
# Indices 1 2 3 4 5 6 
#
# 1 98.9426 50.3247 52.3179 0.0000 10.6996 0.0000
# 2 50.3247 92.3823 44.6084 0.0000 6.8258 0.0000
# 3 52.3179 44.6084 83.8437 0.0000 7.3252 0.0000
# 4 0.0000 0.0000 0.0000 27.1047 0.0000 1.1952
# 5 10.6996 6.8258 7.3252 0.0000 15.7939 0.0000
# 6 0.0000 0.0000 0.0000 1.1952 0.0000 27.1999
#
#
#
# Elastic Compliance Matrix: (Units=1/GPa)
#
#
# Indices 1 2 3 4 5 6 
#
# 1 0.017497 -0.005475 -0.007479 0.000000 -0.006018 0.000000
# 2 -0.005475 0.016401 -0.005226 0.000000 -0.000955 0.000000
# 3 -0.007479 -0.005226 0.019526 0.000000 -0.001730 0.000000
# 4 0.000000 0.000000 0.000000 0.036966 0.000000 -0.001624
# 5 -0.006018 -0.000955 -0.001730 0.000000 0.068608 0.000000
# 6 0.000000 0.000000 0.000000 -0.001624 0.000000 0.036836
#
#
# Mechanical properties :
#
#
# Convention : Reuss Voigt Hill
#
# Bulk Modulus (GPa) = 58.60716 63.29671 60.95194
# Shear Modulus (GPa) = 21.01865 22.54754 21.78310
#
# Velocity S-wave (km/s) = 3.56718 3.69464 3.63147
# Velocity P-wave (km/s) = 7.24205 7.51801 7.38132
#
# Compressibility (1/GPa) = 0.01706276
#
# Stress axis : x y z
#
# Youngs Moduli (GPa) = 57.15110 60.97034 51.21448
#
# Poissons Ratio (x) = 0.33384 0.38305
# Poissons Ratio (y) = 0.31293 0.26766
# Poissons Ratio (z) = 0.42745 0.31864
#
# Static dielectric constant tensor:
#      x y z
#    x 3.425670 0.000000 0.008930 
#    y 0.000000 3.271760 0.000000 
#    z 0.008930 0.000000 2.778880 
# 
# 
# High freq. dielectric constant tensor:
#      x y z
#    x 1.641690 0.000000 0.002450 
#    y 0.000000 1.656720 0.000000 
#    z 0.002450 0.000000 1.587430 
# 
# From -- ./inp_files/291803.got.cif
#   From: 2010.06.25/outbox.cif.g09.slc.cpg/sg12_146_cif.got.tgz:291803.got - 2010.06.28 00:19:55.
