data_PCOD8080427
_publ_section_title
;
Structure prediction by ZEFSAII (Michael W. Deem and Ramdas Pophale) SiO2 
 PCOD8080427
Probable space group: C 2/M
;
_chemical_formula_sum "Si O2"
_cell_formula_units_Z 56
_cell_length_a 18.520013
_cell_length_b 9.356370
_cell_length_c 20.792052
_cell_angle_alpha 90.000000
_cell_angle_beta 60.822347
_cell_angle_gamma 90.000000
_cell_volume 3145.691502
_symmetry_space_group_name_H-M "C 2/M"
_symmetry_group_IT_number 12
_symmetry_cell_setting 'monoclinic'
loop_
_space_group_symop_operation_xyz
x,y,z
-x,y,-z
-x,-y,-z
x,-y,z
1/2+x,1/2+y,z
1/2-x,1/2+y,-z
1/2-x,1/2-y,-z
1/2+x,1/2-y,z
loop_
_atom_site_type_symbol
_atom_site_label
_atom_site_fract_x
_atom_site_fract_y
_atom_site_fract_z
Si Si1 0.126766 0.659173 0.912708
Si Si2 0.091273 0.331936 0.647415
Si Si3 0.448332 0.838474 0.925871
Si Si4 0.424513 0.166059 0.492971
Si Si5 0.810358 0.156778 0.219456
Si Si6 0.012627 0.160871 0.790474
Si Si7 0.751319 0.670474 0.620573
O O1 0.162001 0.500000 0.901972
O O2 0.194248 0.747385 0.842636
O O3 0.040427 0.660355 0.913362
O O4 0.113474 0.718858 0.991154
O O5 0.098720 0.500000 0.661257
O O6 0.060104 0.307477 0.588684
O O7 0.023110 0.257345 0.722366
O O8 0.179913 0.257088 0.615390
O O9 0.443493 0.733995 0.866401
O O10 0.424248 0.000000 0.915969
O O11 0.500000 0.237535 0.500000
O O12 0.336773 0.229392 0.554209
O O13 0.420644 0.000000 0.511680
O O14 0.901445 0.155331 0.209574
O O15 0.749151 0.208761 0.302904
O O16 0.784376 0.000000 0.207565
O O17 0.983985 0.000000 0.784866
O O18 0.736451 0.500000 0.617023
#
# Coordination Sequence:
#
# PCOD8080427 Si02
#       7
#     8   8   8   8   8   8   8
#     4   8  13  20  31  48  74 108 140 172 209 249
#     4  10  18  28  46  68  88 114 148 184 220 260
#     4   8  13  21  32  49  75 107 142 175 209 250
#     4   9  18  32  49  68  89 114 146 183 221 262
#     4   8  14  22  33  52  77 106 139 173 208 249
#     4   9  16  25  37  55  81 112 144 178 215 255
#     4   9  17  30  47  66  89 116 147 183 220 259
#
# _framework density 17.802126999999999
#
# number of rings (size 3 to 8) (size 9 to 14) (size 15 to 20)
#    0.000    3.286    0.000    3.000    0.000    4.000 
#    0.000    3.571    0.000    3.857    0.000    0.000 
#    0.000    1.143    0.000    2.286    0.000    5.857 
#
# Total GULP energy -346958.558658 kJ/mol
# GULP energy per Si atom -12391.377095 kJ/mol
# Density = 1.776161 g / cm^3
# Si number density = 17.802127 Si / 1000 Ang^3
#
#
#
# Elastic Constant Matrix: (Units=GPa)
#
#
# Indices 1 2 3 4 5 6 
#
# 1 37.4905 24.1246 28.2353 0.0000 9.6598 0.0001
# 2 24.1246 86.7706 61.7819 -0.0001 8.8724 0.0001
# 3 28.2353 61.7819 136.4234 0.0000 16.5182 0.0000
# 4 0.0000 -0.0001 0.0000 30.8147 0.0000 2.0349
# 5 9.6598 8.8724 16.5182 0.0000 5.6405 0.0000
# 6 0.0001 0.0001 0.0000 2.0349 0.0000 6.8734
#
#
#
# Elastic Compliance Matrix: (Units=1/GPa)
#
#
# Indices 1 2 3 4 5 6 
#
# 1 0.051094 -0.007851 0.003223 0.000000 -0.084591 0.000000
# 2 -0.007851 0.018371 -0.007474 0.000000 0.006435 0.000000
# 3 0.003223 -0.007474 0.014398 0.000000 -0.035927 0.000000
# 4 0.000000 0.000000 0.000000 0.033099 0.000000 -0.009799
# 5 -0.084591 0.006435 -0.035927 0.000000 0.417244 0.000001
# 6 0.000000 0.000000 0.000000 -0.009799 0.000001 0.148390
#
#
# Mechanical properties :
#
#
# Convention : Reuss Voigt Hill
#
# Bulk Modulus (GPa) = 16.76193 54.32978 35.54586
# Shear Modulus (GPa) = 6.88055 18.43523 12.65789
#
# Velocity S-wave (km/s) = 1.96810 3.22151 2.66941
# Velocity P-wave (km/s) = 3.82108 6.66502 5.43245
#
# Compressibility (1/GPa) = 0.05965900
#
# Stress axis : x y z
#
# Youngs Moduli (GPa) = 19.57185 54.43396 69.45471
#
# Poissons Ratio (x) = 0.42734 -0.22384
# Poissons Ratio (y) = 0.15365 0.51910
# Poissons Ratio (z) = -0.06308 0.40684
#
# Static dielectric constant tensor:
#      x y z
#    x 2.684420 0.000000 -0.027860 
#    y 0.000000 3.388710 0.000000 
#    z -0.027860 0.000000 3.711920 
# 
# 
# High freq. dielectric constant tensor:
#      x y z
#    x 1.610830 0.000000 0.003800 
#    y 0.000000 1.677010 0.000000 
#    z 0.003800 0.000000 1.712160 
# 
# From -- ./inp_files/319050.got.cif
#   From: 2010.06.25/outbox.cif.g09.slc.cpg/sg12_160_cif.got.tgz:319050.got - 2010.06.28 00:19:55.
