data_PCOD8080832
_publ_section_title
;
Structure prediction by ZEFSAII (Michael W. Deem and Ramdas Pophale) SiO2 
 PCOD8080832
Probable space group: C 2/M
;
_chemical_formula_sum "Si O2"
_cell_formula_units_Z 56
_cell_length_a 27.536688
_cell_length_b 8.684835
_cell_length_c 14.028491
_cell_angle_alpha 90.000000
_cell_angle_beta 83.075649
_cell_angle_gamma 90.000000
_cell_volume 3330.465699
_symmetry_space_group_name_H-M "C 2/M"
_symmetry_group_IT_number 12
_symmetry_cell_setting 'monoclinic'
loop_
_space_group_symop_operation_xyz
x,y,z
-x,y,-z
-x,-y,-z
x,-y,z
1/2+x,1/2+y,z
1/2-x,1/2+y,-z
1/2-x,1/2-y,-z
1/2+x,1/2-y,z
loop_
_atom_site_type_symbol
_atom_site_label
_atom_site_fract_x
_atom_site_fract_y
_atom_site_fract_z
Si Si1 0.841227 0.182114 0.833356
Si Si2 0.887247 0.179244 0.476969
Si Si3 0.289868 0.817729 0.420531
Si Si4 0.981373 0.330931 0.397581
Si Si5 0.801228 0.318957 0.017809
Si Si6 0.762586 0.680633 0.220745
Si Si7 0.414063 0.818091 0.671036
O O1 0.790881 0.244212 0.797306
O O2 0.886321 0.264021 0.771519
O O3 0.847104 0.000000 0.824994
O O4 0.842594 0.234238 0.944600
O O5 0.843634 0.270199 0.438452
O O6 0.936221 0.212800 0.403600
O O7 0.892030 0.231845 0.584841
O O8 0.875488 0.000000 0.477719
O O9 0.250000 0.750000 0.500000
O O10 0.279338 0.748759 0.317480
O O11 0.285590 0.000000 0.422385
O O12 0.963604 0.500000 0.366810
O O13 0.000000 0.345262 0.500000
O O14 0.028574 0.274179 0.326028
O O15 0.803048 0.500000 0.996892
O O16 0.804466 0.283674 0.130846
O O17 0.750000 0.250000 0.000000
O O18 0.756079 0.500000 0.232772
O O19 0.408524 0.000000 0.655386
#
# Coordination Sequence:
#
# PCOD8080832 Si02
#       7
#     8   8   8   8   8   8   8
#     4  10  18  29  46  71  98 121 149 188 235 283
#     4  11  21  32  46  67  95 126 158 191 231 279
#     4  11  21  34  49  67  93 126 163 198 230 265
#     4   8  16  31  48  66  89 118 154 192 230 274
#     4   9  16  29  46  65  89 119 155 192 232 275
#     4   8  17  31  46  63  88 123 159 192 222 263
#     4  10  19  31  48  70  94 122 155 192 233 275
#
# _framework density 16.814464999999998
#
# number of rings (size 3 to 8) (size 9 to 14) (size 15 to 20)
#    0.000    2.429    0.000    5.571    0.000    4.286 
#    0.000    7.857    0.000    0.000    0.000    1.000 
#    0.000    8.000    0.000    0.000    0.000    0.000 
#
# Total GULP energy -347015.229476 kJ/mol
# GULP energy per Si atom -12393.401053 kJ/mol
# Density = 1.677619 g / cm^3
# Si number density = 16.814465 Si / 1000 Ang^3
#
#
#
# Elastic Constant Matrix: (Units=GPa)
#
#
# Indices 1 2 3 4 5 6 
#
# 1 81.1440 20.7015 50.8575 0.0000 -19.8590 0.0000
# 2 20.7015 54.8396 26.9384 0.0000 -5.0053 0.0000
# 3 50.8575 26.9384 121.4119 0.0000 -21.7069 0.0000
# 4 0.0000 0.0000 0.0000 24.7370 0.0000 -6.6765
# 5 -19.8590 -5.0053 -21.7069 0.0000 28.1959 0.0000
# 6 0.0000 0.0000 0.0000 -6.6765 0.0000 20.3734
#
#
#
# Elastic Compliance Matrix: (Units=1/GPa)
#
#
# Indices 1 2 3 4 5 6 
#
# 1 0.018765 -0.003585 -0.005585 0.000000 0.008281 0.000000
# 2 -0.003585 0.021151 -0.003446 0.000000 -0.001423 0.000000
# 3 -0.005585 -0.003446 0.012208 0.000000 0.004853 0.000000
# 4 0.000000 0.000000 0.000000 0.044348 0.000000 0.014533
# 5 0.008281 -0.001423 0.004853 0.000000 0.044783 0.000000
# 6 0.000000 0.000000 0.000000 0.014533 0.000000 0.053846
#
#
# Mechanical properties :
#
#
# Convention : Reuss Voigt Hill
#
# Bulk Modulus (GPa) = 37.18264 50.48780 43.83522
# Shear Modulus (GPa) = 21.80599 25.25447 23.53023
#
# Velocity S-wave (km/s) = 3.60510 3.87970 3.74492
# Velocity P-wave (km/s) = 6.28415 7.08245 6.69520
#
# Compressibility (1/GPa) = 0.02689427
#
# Stress axis : x y z
#
# Youngs Moduli (GPa) = 53.29043 47.27923 81.91397
#
# Poissons Ratio (x) = 0.16948 0.45745
# Poissons Ratio (y) = 0.19103 0.28225
# Poissons Ratio (z) = 0.29760 0.16291
#
# Static dielectric constant tensor:
#      x y z
#    x 3.371720 0.000000 -0.297140 
#    y 0.000000 3.188660 0.000000 
#    z -0.297140 0.000000 3.561390 
# 
# 
# High freq. dielectric constant tensor:
#      x y z
#    x 1.622270 0.000000 -0.027850 
#    y 0.000000 1.650230 0.000000 
#    z -0.027850 0.000000 1.639000 
# 
# From -- ./inp_files/247835.got.cif
#   From: 2010.06.25/outbox.cif.g09.slc.cpg/sg12_124_cif.got.tgz:247835.got - 2010.06.28 00:19:55.
