data_PCOD8080342
_publ_section_title
;
Structure prediction by ZEFSAII (Michael W. Deem and Ramdas Pophale) SiO2 
 PCOD8080342
Probable space group: C 2/M
;
_chemical_formula_sum "Si O2"
_cell_formula_units_Z 56
_cell_length_a 28.048363
_cell_length_b 9.137436
_cell_length_c 13.806115
_cell_angle_alpha 90.000000
_cell_angle_beta 81.080019
_cell_angle_gamma 90.000000
_cell_volume 3495.577317
_symmetry_space_group_name_H-M "C 2/M"
_symmetry_group_IT_number 12
_symmetry_cell_setting 'monoclinic'
loop_
_space_group_symop_operation_xyz
x,y,z
-x,y,-z
-x,-y,-z
x,-y,z
1/2+x,1/2+y,z
1/2-x,1/2+y,-z
1/2-x,1/2-y,-z
1/2+x,1/2-y,z
loop_
_atom_site_type_symbol
_atom_site_label
_atom_site_fract_x
_atom_site_fract_y
_atom_site_fract_z
Si Si1 0.958558 0.326632 0.582507
Si Si2 0.838815 0.666267 0.323249
Si Si3 0.415259 0.672647 0.179454
Si Si4 0.488500 0.172784 0.786276
Si Si5 0.448087 0.661031 0.967647
Si Si6 0.644049 0.828710 0.458018
Si Si7 0.735337 0.331182 0.408141
O O1 0.958679 0.500000 0.572444
O O2 0.968237 0.277855 0.689059
O O3 0.906687 0.266697 0.564888
O O4 0.000000 0.260000 0.500000
O O5 0.855195 0.500000 0.296743
O O6 0.865592 0.775668 0.242673
O O7 0.852402 0.706666 0.429209
O O8 0.781230 0.683849 0.321644
O O9 0.422514 0.500000 0.191551
O O10 0.459645 0.753735 0.216714
O O11 0.412184 0.711551 0.065399
O O12 0.449358 0.225194 0.878546
O O13 0.494981 0.000000 0.792589
O O14 0.433565 0.500000 0.932683
O O15 0.500000 0.652056 0.000000
O O16 0.686385 0.745015 0.384804
O O17 0.650294 0.000000 0.435726
O O18 0.724813 0.500000 0.434508
O O19 0.750000 0.250000 0.500000
#
# Coordination Sequence:
#
# PCOD8080342 Si02
#       7
#     8   8   8   8   8   8   8
#     4   9  17  29  44  63  89 119 148 176 207 246
#     4   9  17  28  44  65  87 112 142 177 215 254
#     4  10  19  29  43  63  88 116 142 175 221 263
#     4  10  18  28  45  65  85 115 151 180 208 248
#     4   8  16  30  43  58  84 114 141 174 219 263
#     4   9  17  30  46  63  87 119 149 177 211 252
#     4   9  17  29  44  63  87 114 144 178 217 258
#
# _framework density 16.020244000000002
#
# number of rings (size 3 to 8) (size 9 to 14) (size 15 to 20)
#    0.000    2.857    0.000    3.857    0.000    8.286 
#    0.000    1.429    0.000    3.000    0.000    1.000 
#    0.000    0.000    0.000    0.000    0.000    0.000 
#
# Total GULP energy -347035.511714 kJ/mol
# GULP energy per Si atom -12394.125418 kJ/mol
# Density = 1.598378 g / cm^3
# Si number density = 16.020244 Si / 1000 Ang^3
#
#
#
# Elastic Constant Matrix: (Units=GPa)
#
#
# Indices 1 2 3 4 5 6 
#
# 1 108.9884 42.0396 54.9042 0.0000 -12.7137 0.0000
# 2 42.0396 72.3413 48.7088 0.0000 -10.4573 0.0000
# 3 54.9042 48.7088 103.6899 0.0000 -11.4343 0.0000
# 4 0.0000 0.0000 0.0000 22.1969 0.0000 -8.3792
# 5 -12.7137 -10.4573 -11.4343 0.0000 19.2831 0.0000
# 6 0.0000 0.0000 0.0000 -8.3792 0.0000 21.7763
#
#
#
# Elastic Compliance Matrix: (Units=1/GPa)
#
#
# Indices 1 2 3 4 5 6 
#
# 1 0.013669 -0.004090 -0.004887 0.000000 0.003897 0.000000
# 2 -0.004090 0.022046 -0.007671 0.000000 0.004710 0.000000
# 3 -0.004887 -0.007671 0.016072 0.000000 0.002148 0.000000
# 4 0.000000 0.000000 0.000000 0.052707 0.000000 0.020281
# 5 0.003897 0.004710 0.002148 0.000000 0.058256 0.000000
# 6 0.000000 0.000000 0.000000 0.020281 0.000000 0.053725
#
#
# Mechanical properties :
#
#
# Convention : Reuss Voigt Hill
#
# Bulk Modulus (GPa) = 54.07871 64.03610 59.05740
# Shear Modulus (GPa) = 19.53605 21.94237 20.73921
#
# Velocity S-wave (km/s) = 3.49587 3.70491 3.60191
# Velocity P-wave (km/s) = 7.07987 7.63941 7.36496
#
# Compressibility (1/GPa) = 0.01849157
#
# Stress axis : x y z
#
# Youngs Moduli (GPa) = 73.15671 45.35922 62.21858
#
# Poissons Ratio (x) = 0.18551 0.30406
# Poissons Ratio (y) = 0.29920 0.47730
# Poissons Ratio (z) = 0.35752 0.34797
#
# Static dielectric constant tensor:
#      x y z
#    x 3.327030 0.000000 -0.315590 
#    y 0.000000 3.043120 0.000000 
#    z -0.315590 0.000000 3.186350 
# 
# 
# High freq. dielectric constant tensor:
#      x y z
#    x 1.595450 0.000000 -0.022070 
#    y 0.000000 1.612710 0.000000 
#    z -0.022070 0.000000 1.598790 
# 
# From -- ./inp_files/186440.got.cif
#   From: 2010.06.25/outbox.cif.g09.slc.cpg/sg12_94_cif.got.tgz:186440.got - 2010.06.28 00:19:55.
