data_PCOD8080404
_publ_section_title
;
Structure prediction by ZEFSAII (Michael W. Deem and Ramdas Pophale) SiO2 
 PCOD8080404
Probable space group: C 2/M
;
_chemical_formula_sum "Si O2"
_cell_formula_units_Z 64
_cell_length_a 29.448608
_cell_length_b 8.916640
_cell_length_c 15.710498
_cell_angle_alpha 90.000000
_cell_angle_beta 117.224571
_cell_angle_gamma 90.000000
_cell_volume 3668.303907
_symmetry_space_group_name_H-M "C 2/M"
_symmetry_group_IT_number 12
_symmetry_cell_setting 'monoclinic'
loop_
_space_group_symop_operation_xyz
x,y,z
-x,y,-z
-x,-y,-z
x,-y,z
1/2+x,1/2+y,z
1/2-x,1/2+y,-z
1/2-x,1/2-y,-z
1/2+x,1/2-y,z
loop_
_atom_site_type_symbol
_atom_site_label
_atom_site_fract_x
_atom_site_fract_y
_atom_site_fract_z
Si Si1 0.059057 0.674276 0.937085
Si Si2 0.960778 0.822738 0.785521
Si Si3 0.822037 0.823011 0.226921
Si Si4 0.791155 0.323906 0.858496
Si Si5 0.422198 0.678683 0.399328
Si Si6 0.846332 0.822254 0.059584
Si Si7 0.021528 0.822008 0.388778
Si Si8 0.387310 0.828267 0.839266
O O1 0.056887 0.500000 0.912174
O O2 0.097451 0.755354 0.905446
O O3 0.003573 0.745981 0.880259
O O4 0.077226 0.699956 0.048713
O O5 0.964651 0.759428 0.692565
O O6 0.906063 0.776009 0.777901
O O7 0.967425 0.000000 0.794309
O O8 0.766522 0.777280 0.216405
O O9 0.867169 0.753922 0.324385
O O10 0.826964 0.765587 0.134590
O O11 0.828274 0.000000 0.232476
O O12 0.795919 0.500000 0.884036
O O13 0.829007 0.283288 0.813093
O O14 0.806283 0.236062 0.956213
O O15 0.420954 0.500000 0.398453
O O16 0.436894 0.736767 0.506511
O O17 0.465140 0.732937 0.368566
O O18 0.850167 0.000000 0.056883
O O19 0.022756 0.000000 0.388008
O O20 0.390402 0.000000 0.812125
#
# Coordination Sequence:
#
# PCOD8080404 Si02
#       8
#     8   8   8   8   8   8   8   8
#     4  10  20  33  47  65  93 126 156 183 218 270
#     4  11  20  29  46  71  93 114 149 193 233 270
#     4   9  16  26  45  70  92 119 156 193 224 263
#     4   9  18  32  46  63  91 125 159 190 222 265
#     4   8  13  25  44  66  94 120 142 176 225 273
#     4  10  18  28  45  71  98 120 149 188 228 267
#     4   8  15  26  42  68  97 118 138 177 231 277
#     4   9  19  33  45  59  86 124 159 187 220 267
#
# _framework density 17.446753999999999
#
# number of rings (size 3 to 8) (size 9 to 14) (size 15 to 20)
#    0.000    2.750    0.000    4.125    0.000    6.000 
#    0.000    0.625    0.000    0.750    0.000   20.125 
#    0.000    0.000    0.000    0.000    0.000    0.375 
#
# Total GULP energy -396683.046703 kJ/mol
# GULP energy per Si atom -12396.345209 kJ/mol
# Density = 1.740704 g / cm^3
# Si number density = 17.446754 Si / 1000 Ang^3
#
#
#
# Elastic Constant Matrix: (Units=GPa)
#
#
# Indices 1 2 3 4 5 6 
#
# 1 142.2554 30.1335 72.1817 0.0000 4.6436 0.0000
# 2 30.1335 43.2908 24.1537 0.0000 -2.1155 0.0000
# 3 72.1817 24.1537 84.2733 0.0000 5.2513 0.0000
# 4 0.0000 0.0000 0.0000 8.4469 0.0000 0.1693
# 5 4.6436 -2.1155 5.2513 0.0000 28.3423 0.0000
# 6 0.0000 0.0000 0.0000 0.1693 0.0000 22.7551
#
#
#
# Elastic Compliance Matrix: (Units=1/GPa)
#
#
# Indices 1 2 3 4 5 6 
#
# 1 0.012831 -0.003383 -0.009989 0.000000 -0.000504 0.000000
# 2 -0.003383 0.028747 -0.005574 0.000000 0.003733 0.000000
# 3 -0.009989 -0.005574 0.022200 0.000000 -0.002893 0.000000
# 4 0.000000 0.000000 0.000000 0.118405 0.000000 -0.000881
# 5 -0.000504 0.003733 -0.002893 0.000000 0.036180 0.000000
# 6 0.000000 0.000000 0.000000 -0.000881 0.000000 0.043953
#
#
# Mechanical properties :
#
#
# Convention : Reuss Voigt Hill
#
# Bulk Modulus (GPa) = 38.63187 58.08412 48.35800
# Shear Modulus (GPa) = 16.18975 21.46556 18.82765
#
# Velocity S-wave (km/s) = 3.04954 3.51144 3.28860
# Velocity P-wave (km/s) = 5.88136 7.05725 6.49596
#
# Compressibility (1/GPa) = 0.02588536
#
# Stress axis : x y z
#
# Youngs Moduli (GPa) = 77.93461 34.78649 45.04469
#
# Poissons Ratio (x) = 0.11767 0.44997
# Poissons Ratio (y) = 0.26363 0.25110
# Poissons Ratio (z) = 0.77851 0.19392
#
# Static dielectric constant tensor:
#      x y z
#    x 3.482120 0.000000 0.057420 
#    y 0.000000 2.932300 0.000000 
#    z 0.057420 0.000000 3.333600 
# 
# 
# High freq. dielectric constant tensor:
#      x y z
#    x 1.680460 0.000000 0.001560 
#    y 0.000000 1.642120 0.000000 
#    z 0.001560 0.000000 1.653670 
# 
# From -- ./inp_files/249201.got.cif
#   From: 2010.06.25/outbox.cif.g09.slc.cpg/sg12_125_cif.got.tgz:249201.got - 2010.06.28 00:19:55.
