data_PCOD8080241
_publ_section_title
;
Structure prediction by ZEFSAII (Michael W. Deem and Ramdas Pophale) SiO2 
 PCOD8080241
Probable space group: C 2/M
;
_chemical_formula_sum "Si O2"
_cell_formula_units_Z 64
_cell_length_a 19.414073
_cell_length_b 8.993783
_cell_length_c 20.881625
_cell_angle_alpha 90.000000
_cell_angle_beta 96.895881
_cell_angle_gamma 90.000000
_cell_volume 3619.680516
_symmetry_space_group_name_H-M "C 2/M"
_symmetry_group_IT_number 12
_symmetry_cell_setting 'monoclinic'
loop_
_space_group_symop_operation_xyz
x,y,z
-x,y,-z
-x,-y,-z
x,-y,z
1/2+x,1/2+y,z
1/2-x,1/2+y,-z
1/2-x,1/2-y,-z
1/2+x,1/2-y,z
loop_
_atom_site_type_symbol
_atom_site_label
_atom_site_fract_x
_atom_site_fract_y
_atom_site_fract_z
Si Si1 0.918352 0.175057 0.669702
Si Si2 0.997309 0.326302 0.427908
Si Si3 0.375243 0.829539 0.323429
Si Si4 0.770973 0.676156 0.851615
Si Si5 0.960744 0.175388 0.229797
Si Si6 0.874261 0.174643 0.108439
Si Si7 0.221461 0.171994 0.281958
Si Si8 0.315837 0.324073 0.974594
O O1 0.839277 0.219164 0.675842
O O2 0.942174 0.250397 0.606654
O O3 0.966289 0.235874 0.734271
O O4 0.927727 0.000000 0.662173
O O5 0.013645 0.500000 0.429826
O O6 0.920690 0.290995 0.391288
O O7 0.000000 0.261411 0.500000
O O8 0.397745 0.725341 0.267889
O O9 0.293869 0.799347 0.327153
O O10 0.388096 0.000000 0.304625
O O11 0.778165 0.500000 0.855647
O O12 0.696087 0.737502 0.866545
O O13 0.785980 0.729929 0.782023
O O14 0.828205 0.748493 0.906745
O O15 0.941832 0.234281 0.155604
O O16 0.963468 0.000000 0.230479
O O17 0.869734 0.000000 0.117800
O O18 0.878484 0.210795 0.032654
O O19 0.213412 0.000000 0.260978
O O20 0.305101 0.500000 0.965294
O O21 0.250000 0.250000 0.000000
#
# Coordination Sequence:
#
# PCOD8080241 Si02
#       8
#     8   8   8   8   8   8   8   8
#     4   9  19  32  49  72  98 125 153 189 233 280
#     4   9  18  34  54  73  95 125 158 189 224 271
#     4   9  17  29  47  70  94 121 154 191 230 273
#     4  10  18  28  43  65  91 123 159 196 239 283
#     4   9  15  28  47  67  91 119 154 195 235 276
#     4   8  14  24  41  64  88 113 150 196 235 273
#     4  10  19  31  46  69  98 125 153 191 239 284
#     4   9  16  26  39  61  92 123 155 197 244 288
#
# _framework density 17.681118999999999
#
# number of rings (size 3 to 8) (size 9 to 14) (size 15 to 20)
#    0.000    2.875    1.250    1.500    0.000    0.750 
#    0.000    1.250    0.000    0.750    0.000    5.250 
#    0.000    0.000    0.000    0.000    0.000    0.000 
#
# Total GULP energy -396463.189519 kJ/mol
# GULP energy per Si atom -12389.474672 kJ/mol
# Density = 1.764088 g / cm^3
# Si number density = 17.681119 Si / 1000 Ang^3
#
#
#
# Elastic Constant Matrix: (Units=GPa)
#
#
# Indices 1 2 3 4 5 6 
#
# 1 88.6870 17.3324 41.0855 0.0000 2.7045 0.0000
# 2 17.3324 38.8590 29.3250 0.0000 -1.3969 0.0000
# 3 41.0855 29.3250 125.9254 0.0000 10.3033 0.0000
# 4 0.0000 0.0000 0.0000 25.4305 0.0000 -3.1929
# 5 2.7045 -1.3969 10.3033 0.0000 18.8793 0.0000
# 6 0.0000 0.0000 0.0000 -3.1929 0.0000 16.2714
#
#
#
# Elastic Compliance Matrix: (Units=1/GPa)
#
#
# Indices 1 2 3 4 5 6 
#
# 1 0.013625 -0.003327 -0.003654 0.000000 -0.000204 0.000000
# 2 -0.003327 0.032832 -0.007116 0.000000 0.006789 0.000000
# 3 -0.003654 -0.007116 0.011295 0.000000 -0.006167 0.000000
# 4 0.000000 0.000000 0.000000 0.040316 0.000000 0.007911
# 5 -0.000204 0.006789 -0.006167 0.000000 0.056865 0.000000
# 6 0.000000 0.000000 0.000000 0.007911 0.000000 0.063010
#
#
# Mechanical properties :
#
#
# Convention : Reuss Voigt Hill
#
# Bulk Modulus (GPa) = 33.83126 47.66191 40.74658
# Shear Modulus (GPa) = 19.53205 23.16479 21.34842
#
# Velocity S-wave (km/s) = 3.32728 3.62352 3.47856
# Velocity P-wave (km/s) = 5.82553 6.67244 6.26331
#
# Compressibility (1/GPa) = 0.02955846
#
# Stress axis : x y z
#
# Youngs Moduli (GPa) = 73.39584 30.45809 88.53428
#
# Poissons Ratio (x) = 0.10134 0.32349
# Poissons Ratio (y) = 0.24419 0.62999
# Poissons Ratio (z) = 0.26818 0.21673
#
# Static dielectric constant tensor:
#      x y z
#    x 3.211770 0.000000 0.419140 
#    y 0.000000 3.175390 0.000000 
#    z 0.419140 0.000000 3.689460 
# 
# 
# High freq. dielectric constant tensor:
#      x y z
#    x 1.650940 0.000000 0.023640 
#    y 0.000000 1.671410 0.000000 
#    z 0.023640 0.000000 1.685160 
# 
# From -- ./inp_files/319246.got.cif
#   From: 2010.06.25/outbox.cif.g09.slc.cpg/sg12_160_cif.got.tgz:319246.got - 2010.06.28 00:19:55.
