data_PCOD8080679
_publ_section_title
;
Structure prediction by ZEFSAII (Michael W. Deem and Ramdas Pophale) SiO2 
 PCOD8080679
Probable space group: C 2/M
;
_chemical_formula_sum "Si O2"
_cell_formula_units_Z 56
_cell_length_a 18.032383
_cell_length_b 23.294530
_cell_length_c 24.491497
_cell_angle_alpha 90.000000
_cell_angle_beta 160.969837
_cell_angle_gamma 90.000000
_cell_volume 3354.499655
_symmetry_space_group_name_H-M "C 2/M"
_symmetry_group_IT_number 12
_symmetry_cell_setting 'monoclinic'
loop_
_space_group_symop_operation_xyz
x,y,z
-x,y,-z
-x,-y,-z
x,-y,z
1/2+x,1/2+y,z
1/2-x,1/2+y,-z
1/2-x,1/2-y,-z
1/2+x,1/2-y,z
loop_
_atom_site_type_symbol
_atom_site_label
_atom_site_fract_x
_atom_site_fract_y
_atom_site_fract_z
Si Si1 0.578874 0.247619 0.612931
Si Si2 0.914741 0.344329 0.581210
Si Si3 0.655874 0.799601 0.350488
Si Si4 0.732948 0.433498 0.131250
Si Si5 0.065285 0.257614 0.982303
Si Si6 0.230507 0.854417 0.033967
Si Si7 0.031033 0.176707 0.782991
O O1 0.500000 0.223278 0.500000
O O2 0.562545 0.194366 0.643188
O O3 0.422728 0.302778 0.521210
O O4 0.835605 0.271078 0.789010
O O5 0.876364 0.305357 0.607395
O O6 0.662426 0.360903 0.382627
O O7 0.056131 0.401550 0.692822
O O8 0.584757 0.736250 0.280891
O O9 0.501450 0.845938 0.210647
O O10 0.795863 0.500000 0.175009
O O11 0.500000 0.420546 0.000000
O O12 0.695567 0.413247 0.042676
O O13 0.167529 0.198199 0.030672
O O14 0.244555 0.309720 0.097389
O O15 0.000000 0.251520 0.000000
O O16 0.094698 0.856608 0.883011
#
# Coordination Sequence:
#
# PCOD8080679 Si02
#       7
#     8   8   8   8   8   8   8
#     4  11  18  25  41  68  98 125 155 184 215 261
#     4  10  19  32  47  63  93 130 157 180 223 272
#     4   9  17  29  42  62  94 131 158 177 210 271
#     4  10  21  36  52  68  86 114 157 200 230 263
#     4  11  18  26  43  69 100 129 154 179 218 270
#     4  10  18  31  47  64  94 130 158 184 227 270
#     4  10  18  29  44  67  95 126 157 186 221 271
#
# _framework density 16.693995000000001
#
# number of rings (size 3 to 8) (size 9 to 14) (size 15 to 20)
#    0.000    1.857    0.000   10.714    0.000    0.000 
#    0.000    0.714    0.000    2.143    0.000    0.000 
#    0.000   72.000    0.000    0.000    0.000    0.000 
#
# Total GULP energy -347014.102993 kJ/mol
# GULP energy per Si atom -12393.360821 kJ/mol
# Density = 1.665600 g / cm^3
# Si number density = 16.693995 Si / 1000 Ang^3
#
#
#
# Elastic Constant Matrix: (Units=GPa)
#
#
# Indices 1 2 3 4 5 6 
#
# 1 69.1966 25.7217 39.5187 -0.0392 -6.2923 0.0015
# 2 25.7217 61.7151 44.0196 -0.0638 3.3576 0.0059
# 3 39.5187 44.0196 143.0197 0.1327 -3.4583 -0.0185
# 4 -0.0392 -0.0638 0.1327 12.7047 -0.0129 4.5018
# 5 -6.2923 3.3576 -3.4583 -0.0129 34.7911 -0.0013
# 6 0.0015 0.0059 -0.0185 4.5018 -0.0013 15.5837
#
#
#
# Elastic Compliance Matrix: (Units=1/GPa)
#
#
# Indices 1 2 3 4 5 6 
#
# 1 0.018798 -0.005622 -0.003377 0.000078 0.003607 -0.000026
# 2 -0.005622 0.022689 -0.005521 0.000173 -0.003755 -0.000065
# 3 -0.003377 -0.005521 0.009646 -0.000159 0.000881 0.000060
# 4 0.000078 0.000173 -0.000159 0.087690 0.000013 -0.025332
# 5 0.003607 -0.003755 0.000881 0.000013 0.029845 0.000001
# 6 -0.000026 -0.000065 0.000060 -0.025332 0.000001 0.071487
#
#
# Mechanical properties :
#
#
# Convention : Reuss Voigt Hill
#
# Bulk Modulus (GPa) = 45.26265 54.71683 49.98974
# Shear Modulus (GPa) = 18.07933 23.59400 20.83666
#
# Velocity S-wave (km/s) = 3.29444 3.76350 3.53675
# Velocity P-wave (km/s) = 6.45315 7.19255 6.83286
#
# Compressibility (1/GPa) = 0.02209327
#
# Stress axis : x y z
#
# Youngs Moduli (GPa) = 53.19738 44.07395 103.67269
#
# Poissons Ratio (x) = 0.24780 0.35006
# Poissons Ratio (y) = 0.29910 0.57236
# Poissons Ratio (z) = 0.17962 0.24333
#
# Static dielectric constant tensor:
#      x y z
#    x 3.221390 -0.000070 0.152480 
#    y -0.000070 2.608580 -0.000210 
#    z 0.152480 -0.000210 3.763710 
# 
# 
# High freq. dielectric constant tensor:
#      x y z
#    x 1.650570 0.000000 -0.000920 
#    y 0.000000 1.566000 -0.000020 
#    z -0.000920 -0.000020 1.674720 
# 
# From -- ./inp_files/78688.got.cif
#   From: 2010.06.25/outbox.cif.g09.slc.cpg/sg12_40_cif.got.tgz:78688.got - 2010.06.28 00:19:55.
