data_PCOD8080715
_publ_section_title
;
Structure prediction by ZEFSAII (Michael W. Deem and Ramdas Pophale) SiO2 
 PCOD8080715
Probable space group: C 2/M
;
_chemical_formula_sum "Si O2"
_cell_formula_units_Z 56
_cell_length_a 27.006571
_cell_length_b 9.411002
_cell_length_c 17.033673
_cell_angle_alpha 90.000000
_cell_angle_beta 126.205022
_cell_angle_gamma 90.000000
_cell_volume 3493.316460
_symmetry_space_group_name_H-M "C 2/M"
_symmetry_group_IT_number 12
_symmetry_cell_setting 'monoclinic'
loop_
_space_group_symop_operation_xyz
x,y,z
-x,y,-z
-x,-y,-z
x,-y,z
1/2+x,1/2+y,z
1/2-x,1/2+y,-z
1/2-x,1/2-y,-z
1/2+x,1/2-y,z
loop_
_atom_site_type_symbol
_atom_site_label
_atom_site_fract_x
_atom_site_fract_y
_atom_site_fract_z
Si Si1 0.232425 0.338617 0.224003
Si Si2 0.589259 0.158358 0.112733
Si Si3 0.460685 0.334330 0.794953
Si Si4 0.728451 0.165480 0.598280
Si Si5 0.160116 0.836940 0.410208
Si Si6 0.787107 0.332944 0.969790
Si Si7 0.074074 0.662289 0.918795
O O1 0.254053 0.500000 0.259312
O O2 0.161658 0.321602 0.178476
O O3 0.271902 0.234290 0.315655
O O4 0.242322 0.296468 0.142413
O O5 0.560601 0.276572 0.141110
O O6 0.573204 0.000000 0.129333
O O7 0.561785 0.177080 0.000232
O O8 0.473298 0.500000 0.816037
O O9 0.408798 0.303246 0.681553
O O10 0.523632 0.258006 0.826818
O O11 0.793735 0.195845 0.618268
O O12 0.674328 0.236047 0.496859
O O13 0.714222 0.000000 0.593389
O O14 0.167741 0.000000 0.443963
O O15 0.783004 0.500000 0.981849
O O16 0.750000 0.250000 0.000000
O O17 0.857966 0.283139 0.039146
O O18 0.066166 0.500000 0.884415
#
# Coordination Sequence:
#
# PCOD8080715 Si02
#       7
#     8   8   8   8   8   8   8
#     4   9  17  30  48  68  93 125 156 189 234 280
#     4   9  17  29  44  61  88 127 161 186 219 269
#     4  11  20  29  42  65  94 124 158 194 229 264
#     4  10  18  29  45  66  90 122 163 199 230 268
#     4   9  19  31  41  60  94 128 159 196 231 267
#     4   9  19  35  53  73  95 120 153 193 236 282
#     4   9  19  33  46  64  91 123 157 188 225 279
#
# _framework density 16.030611
#
# number of rings (size 3 to 8) (size 9 to 14) (size 15 to 20)
#    0.000    2.571    1.429    3.000    0.000    5.143 
#    0.000    2.857    0.000    0.000    0.000    1.000 
#    0.000    8.000    0.000    0.000    0.000    0.000 
#
# Total GULP energy -347184.299382 kJ/mol
# GULP energy per Si atom -12399.439264 kJ/mol
# Density = 1.599412 g / cm^3
# Si number density = 16.030611 Si / 1000 Ang^3
#
#
#
# Elastic Constant Matrix: (Units=GPa)
#
#
# Indices 1 2 3 4 5 6 
#
# 1 59.6601 46.3973 49.0869 0.0000 -2.9212 0.0000
# 2 46.3973 96.8254 71.3866 0.0000 4.1424 0.0000
# 3 49.0869 71.3866 104.4858 0.0000 5.5644 0.0000
# 4 0.0000 0.0000 0.0000 31.5534 0.0000 0.4666
# 5 -2.9212 4.1424 5.5644 0.0000 17.9276 0.0000
# 6 0.0000 0.0000 0.0000 0.4666 0.0000 26.3939
#
#
#
# Elastic Compliance Matrix: (Units=1/GPa)
#
#
# Indices 1 2 3 4 5 6 
#
# 1 0.031886 -0.008606 -0.009642 0.000000 0.010177 0.000000
# 2 -0.008606 0.023136 -0.011596 0.000000 -0.003149 0.000000
# 3 -0.009642 -0.011596 0.022333 0.000000 -0.005824 0.000000
# 4 0.000000 0.000000 0.000000 0.031701 0.000000 -0.000560
# 5 0.010177 -0.003149 -0.005824 0.000000 0.059973 0.000000
# 6 0.000000 0.000000 0.000000 -0.000560 0.000000 0.037897
#
#
# Mechanical properties :
#
#
# Convention : Reuss Voigt Hill
#
# Bulk Modulus (GPa) = 56.60306 66.07920 61.34113
# Shear Modulus (GPa) = 18.34835 21.44833 19.89834
#
# Velocity S-wave (km/s) = 3.38684 3.66178 3.52699
# Velocity P-wave (km/s) = 7.11900 7.69340 7.41177
#
# Compressibility (1/GPa) = 0.01766689
#
# Stress axis : x y z
#
# Youngs Moduli (GPa) = 31.36179 43.22287 44.77588
#
# Poissons Ratio (x) = 0.37196 0.43174
# Poissons Ratio (y) = 0.26989 0.51923
# Poissons Ratio (z) = 0.30240 0.50122
#
# Static dielectric constant tensor:
#      x y z
#    x 2.763450 0.000000 0.140730 
#    y 0.000000 3.037160 0.000000 
#    z 0.140730 0.000000 3.035700 
# 
# 
# High freq. dielectric constant tensor:
#      x y z
#    x 1.577110 0.000000 0.016540 
#    y 0.000000 1.621260 0.000000 
#    z 0.016540 0.000000 1.610950 
# 
# From -- ./inp_files/244304.got.cif
#   From: 2010.06.25/outbox.cif.g09.slc.cpg/sg12_123_cif.got.tgz:244304.got - 2010.06.28 00:19:55.
