data_PCOD8080893
_publ_section_title
;
Structure prediction by ZEFSAII (Michael W. Deem and Ramdas Pophale) SiO2 
 PCOD8080893
Probable space group: C 2/M
;
_chemical_formula_sum "Si O2"
_cell_formula_units_Z 48
_cell_length_a 28.446055
_cell_length_b 8.682836
_cell_length_c 11.992768
_cell_angle_alpha 90.000000
_cell_angle_beta 69.729363
_cell_angle_gamma 90.000000
_cell_volume 2778.668600
_symmetry_space_group_name_H-M "C 2/M"
_symmetry_group_IT_number 12
_symmetry_cell_setting 'monoclinic'
loop_
_space_group_symop_operation_xyz
x,y,z
-x,y,-z
-x,-y,-z
x,-y,z
1/2+x,1/2+y,z
1/2-x,1/2+y,-z
1/2-x,1/2-y,-z
1/2+x,1/2-y,z
loop_
_atom_site_type_symbol
_atom_site_label
_atom_site_fract_x
_atom_site_fract_y
_atom_site_fract_z
Si Si1 0.253391 0.178168 0.174269
Si Si2 0.587748 0.817873 0.246013
Si Si3 0.980942 0.670388 0.390175
Si Si4 0.326285 0.321611 0.951279
Si Si5 0.282232 0.181536 0.572361
Si Si6 0.614058 0.680077 0.460723
O O1 0.207733 0.211242 0.128395
O O2 0.245074 0.280703 0.289481
O O3 0.256022 0.000000 0.206435
O O4 0.305381 0.227684 0.073943
O O5 0.528936 0.772607 0.278628
O O6 0.617861 0.737268 0.121241
O O7 0.608867 0.762988 0.346923
O O8 0.595122 0.000000 0.234215
O O9 0.963731 0.500000 0.365605
O O10 0.933747 0.785142 0.419966
O O11 0.000000 0.661843 0.500000
O O12 0.327179 0.500000 0.982297
O O13 0.250000 0.250000 0.500000
O O14 0.336666 0.258963 0.519093
O O15 0.287765 0.000000 0.554296
O O16 0.618627 0.500000 0.434946
#
# Coordination Sequence:
#
# PCOD8080893 Si02
#       6
#     8   8   8   8   8   8
#     4  10  20  34  50  72 101 132 169 207 250 300
#     4  10  18  29  47  71 101 135 167 202 249 301
#     4   8  16  29  44  66  96 131 166 200 246 299
#     4  10  19  30  49  74 103 135 167 204 250 302
#     4  12  24  38  55  73  99 133 172 212 252 296
#     4  11  20  31  47  70  99 131 167 207 251 297
#
# _framework density 17.274460999999999
#
# number of rings (size 3 to 8) (size 9 to 14) (size 15 to 20)
#    0.000    1.833    1.667    5.500    0.000    5.000 
#    0.000    0.000    0.000    0.000    0.000    1.167 
#    0.000    9.333    0.000    0.000    0.000    0.000 
#
# Total GULP energy -297597.202574 kJ/mol
# GULP energy per Si atom -12399.883441 kJ/mol
# Density = 1.723514 g / cm^3
# Si number density = 17.274461 Si / 1000 Ang^3
#
#
#
# Elastic Constant Matrix: (Units=GPa)
#
#
# Indices 1 2 3 4 5 6 
#
# 1 85.6456 12.2937 40.1285 0.0000 -23.5576 0.0000
# 2 12.2937 40.4380 15.6136 0.0000 -4.2738 0.0000
# 3 40.1285 15.6136 58.1664 0.0000 -22.7076 0.0000
# 4 0.0000 0.0000 0.0000 28.1200 0.0000 -6.8060
# 5 -23.5576 -4.2738 -22.7076 0.0000 33.0434 0.0000
# 6 0.0000 0.0000 0.0000 -6.8060 0.0000 27.3605
#
#
#
# Elastic Compliance Matrix: (Units=1/GPa)
#
#
# Indices 1 2 3 4 5 6 
#
# 1 0.018096 -0.001061 -0.009862 0.000000 0.005986 0.000000
# 2 -0.001061 0.027756 -0.007670 0.000000 -0.002437 0.000000
# 3 -0.009862 -0.007670 0.031327 0.000000 0.013505 0.000000
# 4 0.000000 0.000000 0.000000 0.037840 0.000000 0.009413
# 5 0.005986 -0.002437 0.013505 0.000000 0.043496 0.000000
# 6 0.000000 0.000000 0.000000 0.009413 0.000000 0.038891
#
#
# Mechanical properties :
#
#
# Convention : Reuss Voigt Hill
#
# Bulk Modulus (GPa) = 25.00502 35.59130 30.29816
# Shear Modulus (GPa) = 20.16754 25.45238 22.80996
#
# Velocity S-wave (km/s) = 3.42054 3.84267 3.63773
# Velocity P-wave (km/s) = 5.48696 6.35108 5.93477
#
# Compressibility (1/GPa) = 0.03999198
#
# Stress axis : x y z
#
# Youngs Moduli (GPa) = 55.26126 36.02871 31.92117
#
# Poissons Ratio (x) = 0.03821 0.31482
# Poissons Ratio (y) = 0.05861 0.24484
# Poissons Ratio (z) = 0.54501 0.27635
#
# Static dielectric constant tensor:
#      x y z
#    x 3.363420 0.000000 -0.499670 
#    y 0.000000 3.319490 0.000000 
#    z -0.499670 0.000000 3.117910 
# 
# 
# High freq. dielectric constant tensor:
#      x y z
#    x 1.650020 0.000000 -0.044240 
#    y 0.000000 1.682100 0.000000 
#    z -0.044240 0.000000 1.637430 
# 
# From -- ./inp_files/172134.got.cif
#   From: 2010.06.25/outbox.cif.g09.slc.cpg/sg12_87_cif.got.tgz:172134.got - 2010.06.28 00:19:55.
