data_PCOD8080990
_publ_section_title
;
Structure prediction by ZEFSAII (Michael W. Deem and Ramdas Pophale) SiO2 
 PCOD8080990
Probable space group: C 2/M
;
_chemical_formula_sum "Si O2"
_cell_formula_units_Z 56
_cell_length_a 21.163713
_cell_length_b 9.012351
_cell_length_c 19.007704
_cell_angle_alpha 90.000000
_cell_angle_beta 123.957012
_cell_angle_gamma 90.000000
_cell_volume 3007.138572
_symmetry_space_group_name_H-M "C 2/M"
_symmetry_group_IT_number 12
_symmetry_cell_setting 'monoclinic'
loop_
_space_group_symop_operation_xyz
x,y,z
-x,y,-z
-x,-y,-z
x,-y,z
1/2+x,1/2+y,z
1/2-x,1/2+y,-z
1/2-x,1/2-y,-z
1/2+x,1/2-y,z
loop_
_atom_site_type_symbol
_atom_site_label
_atom_site_fract_x
_atom_site_fract_y
_atom_site_fract_z
Si Si1 0.475446 0.168507 0.064636
Si Si2 0.062255 0.827281 0.232349
Si Si3 0.330552 0.171586 0.060556
Si Si4 0.488902 0.332498 0.415820
Si Si5 0.557517 0.824262 0.745970
Si Si6 0.840570 0.164894 0.523950
Si Si7 0.802501 0.667243 0.634606
O O1 0.528521 0.286088 0.136252
O O2 0.387042 0.205103 0.029077
O O3 0.491606 0.000000 0.100705
O O4 0.500000 0.186991 0.000000
O O5 0.151234 0.779389 0.286407
O O6 0.019567 0.739366 0.267735
O O7 0.053835 0.000000 0.241917
O O8 0.371670 0.222394 0.159198
O O9 0.311120 0.000000 0.052660
O O10 0.250000 0.250000 0.000000
O O11 0.500000 0.258816 0.500000
O O12 0.456062 0.500000 0.402662
O O13 0.433616 0.241893 0.327725
O O14 0.571589 0.332285 0.435411
O O15 0.550791 0.000000 0.736766
O O16 0.823299 0.297085 0.566726
O O17 0.789685 0.188864 0.420574
O O18 0.819462 0.000000 0.541129
O O19 0.826595 0.500000 0.669259
#
# Coordination Sequence:
#
# PCOD8080990 Si02
#       7
#     8   8   8   8   8   8   8
#     4   9  19  37  58  80 108 141 178 221 269 323
#     4  11  20  31  51  78 106 135 172 217 263 315
#     4   9  19  35  57  84 110 139 179 223 272 328
#     4  10  20  34  52  75 104 138 177 222 267 312
#     4  10  20  35  54  77 103 137 183 224 262 314
#     4   9  18  31  47  70  99 130 168 210 255 302
#     4  10  18  29  48  72  99 131 166 209 254 300
#
# _framework density 18.622354000000001
#
# number of rings (size 3 to 8) (size 9 to 14) (size 15 to 20)
#    0.000    2.286    1.429    3.000    0.000    4.000 
#    0.000    1.429    0.000    6.857    0.000    0.000 
#    0.000    0.000    0.000    0.000    0.000    0.000 
#
# Total GULP energy -346867.927784 kJ/mol
# GULP energy per Si atom -12388.140278 kJ/mol
# Density = 1.857997 g / cm^3
# Si number density = 18.622354 Si / 1000 Ang^3
#
#
#
# Elastic Constant Matrix: (Units=GPa)
#
#
# Indices 1 2 3 4 5 6 
#
# 1 47.7127 21.1609 51.5169 0.0000 4.2662 0.0000
# 2 21.1609 78.2587 51.1780 0.0000 5.1435 0.0000
# 3 51.5169 51.1780 127.2014 0.0000 5.9701 0.0000
# 4 0.0000 0.0000 0.0000 30.7401 0.0000 -0.3350
# 5 4.2662 5.1435 5.9701 0.0000 33.5985 0.0000
# 6 0.0000 0.0000 0.0000 -0.3350 0.0000 19.0741
#
#
#
# Elastic Compliance Matrix: (Units=1/GPa)
#
#
# Indices 1 2 3 4 5 6 
#
# 1 0.037391 -0.000183 -0.014973 0.000000 -0.002059 0.000000
# 2 -0.000183 0.017410 -0.006864 0.000000 -0.001422 0.000000
# 3 -0.014973 -0.006864 0.016688 0.000000 -0.000013 0.000000
# 4 0.000000 0.000000 0.000000 0.032537 0.000000 0.000571
# 5 -0.002059 -0.001422 -0.000013 0.000000 0.030245 0.000000
# 6 0.000000 0.000000 0.000000 0.000571 0.000000 0.052437
#
#
# Mechanical properties :
#
#
# Convention : Reuss Voigt Hill
#
# Bulk Modulus (GPa) = 36.43168 55.65381 46.04274
# Shear Modulus (GPa) = 20.84224 25.30365 23.07294
#
# Velocity S-wave (km/s) = 3.34908 3.69016 3.52375
# Velocity P-wave (km/s) = 5.87886 6.93590 6.42914
#
# Compressibility (1/GPa) = 0.02744864
#
# Stress axis : x y z
#
# Youngs Moduli (GPa) = 26.74429 57.43927 59.92391
#
# Poissons Ratio (x) = 0.01053 0.89725
# Poissons Ratio (y) = 0.00490 0.41129
# Poissons Ratio (z) = 0.40045 0.39424
#
# Static dielectric constant tensor:
#      x y z
#    x 3.290590 0.000000 0.151500 
#    y 0.000000 3.569400 0.000000 
#    z 0.151500 0.000000 3.730290 
# 
# 
# High freq. dielectric constant tensor:
#      x y z
#    x 1.687540 0.000000 0.018760 
#    y 0.000000 1.722570 0.000000 
#    z 0.018760 0.000000 1.728760 
# 
# From -- ./inp_files/288451.got.cif
#   From: 2010.06.25/outbox.cif.g09.slc.cpg/sg12_145_cif.got.tgz:288451.got - 2010.06.28 00:19:55.
