data_PCOD8080826
_publ_section_title
;
Structure prediction by ZEFSAII (Michael W. Deem and Ramdas Pophale) SiO2 
 PCOD8080826
Probable space group: C 2/M
;
_chemical_formula_sum "Si O2"
_cell_formula_units_Z 48
_cell_length_a 33.182117
_cell_length_b 9.287980
_cell_length_c 10.070208
_cell_angle_alpha 90.000000
_cell_angle_beta 115.996640
_cell_angle_gamma 90.000000
_cell_volume 2789.564520
_symmetry_space_group_name_H-M "C 2/M"
_symmetry_group_IT_number 12
_symmetry_cell_setting 'monoclinic'
loop_
_space_group_symop_operation_xyz
x,y,z
-x,y,-z
-x,-y,-z
x,-y,z
1/2+x,1/2+y,z
1/2-x,1/2+y,-z
1/2-x,1/2-y,-z
1/2+x,1/2-y,z
loop_
_atom_site_type_symbol
_atom_site_label
_atom_site_fract_x
_atom_site_fract_y
_atom_site_fract_z
Si Si1 0.632929 0.832238 0.363733
Si Si2 0.634888 0.166010 0.053968
Si Si3 0.449228 0.661044 0.079357
Si Si4 0.729982 0.833240 0.093849
Si Si5 0.047721 0.162869 0.231764
Si Si6 0.280757 0.330978 0.439046
O O1 0.639360 0.806545 0.216946
O O2 0.584695 0.772300 0.343216
O O3 0.670352 0.740290 0.493315
O O4 0.636814 0.000000 0.406933
O O5 0.679968 0.225780 0.051090
O O6 0.628367 0.000000 0.013979
O O7 0.591647 0.242550 0.926642
O O8 0.440502 0.500000 0.117612
O O9 0.497776 0.714271 0.204241
O O10 0.449995 0.665689 0.922690
O O11 0.760758 0.807138 0.265330
O O12 0.727871 0.000000 0.053808
O O13 0.750000 0.750000 0.000000
O O14 0.056994 0.000000 0.295552
O O15 0.283346 0.500000 0.479794
O O16 0.250000 0.250000 0.500000
#
# Coordination Sequence:
#
# PCOD8080826 Si02
#       6
#     8   8   8   8   8   8
#     4  10  18  29  46  71 100 129 165 203 245 297
#     4   9  17  30  45  66  98 128 161 205 246 289
#     4   8  14  24  40  63  92 126 164 198 237 293
#     4  10  22  38  52  72 101 132 169 211 249 296
#     4   8  14  25  39  62  96 128 159 199 242 287
#     4  11  21  35  53  74 101 131 168 209 251 298
#
# _framework density 17.206987000000002
#
# number of rings (size 3 to 8) (size 9 to 14) (size 15 to 20)
#    0.000    2.667    1.667    2.000    0.000    3.333 
#    0.000    3.333    0.000    0.000    0.000    1.167 
#    0.000    9.333    0.000    0.000    0.000    0.000 
#
# Total GULP energy -297490.509547 kJ/mol
# GULP energy per Si atom -12395.437898 kJ/mol
# Density = 1.716782 g / cm^3
# Si number density = 17.206987 Si / 1000 Ang^3
#
#
#
# Elastic Constant Matrix: (Units=GPa)
#
#
# Indices 1 2 3 4 5 6 
#
# 1 143.1650 75.5932 56.5539 0.0000 40.0804 0.0000
# 2 75.5932 103.3923 49.7839 0.0000 21.7293 0.0000
# 3 56.5539 49.7839 50.8342 0.0000 17.2952 0.0000
# 4 0.0000 0.0000 0.0000 24.2013 0.0000 7.9117
# 5 40.0804 21.7293 17.2952 0.0000 31.0600 0.0000
# 6 0.0000 0.0000 0.0000 7.9117 0.0000 35.7366
#
#
#
# Elastic Compliance Matrix: (Units=1/GPa)
#
#
# Indices 1 2 3 4 5 6 
#
# 1 0.017215 -0.005204 -0.009544 0.000000 -0.013259 0.000000
# 2 -0.005204 0.020187 -0.014138 0.000000 0.000466 0.000000
# 3 -0.009544 -0.014138 0.045131 0.000000 -0.002923 0.000000
# 4 0.000000 0.000000 0.000000 0.044544 0.000000 -0.009862
# 5 -0.013259 0.000466 -0.002923 0.000000 0.050608 0.000000
# 6 0.000000 0.000000 0.000000 -0.009862 0.000000 0.030166
#
#
# Mechanical properties :
#
#
# Convention : Reuss Voigt Hill
#
# Bulk Modulus (GPa) = 40.38946 73.47262 56.93104
# Shear Modulus (GPa) = 18.25641 25.89692 22.07667
#
# Velocity S-wave (km/s) = 3.26082 3.88367 3.58579
# Velocity P-wave (km/s) = 6.14010 7.93111 7.09237
#
# Compressibility (1/GPa) = 0.02475894
#
# Stress axis : x y z
#
# Youngs Moduli (GPa) = 58.08805 49.53775 22.15795
#
# Poissons Ratio (x) = 0.25781 0.21148
# Poissons Ratio (y) = 0.30231 0.31327
# Poissons Ratio (z) = 0.55440 0.70037
#
# Static dielectric constant tensor:
#      x y z
#    x 3.433040 0.000000 0.309740 
#    y 0.000000 3.332900 0.000000 
#    z 0.309740 0.000000 2.322780 
# 
# 
# High freq. dielectric constant tensor:
#      x y z
#    x 1.666360 0.000000 0.038500 
#    y 0.000000 1.667080 0.000000 
#    z 0.038500 0.000000 1.619710 
# 
# From -- ./inp_files/185724.got.cif
#   From: 2010.06.25/outbox.cif.g09.slc.cpg/sg12_93_cif.got.tgz:185724.got - 2010.06.28 00:19:55.
