data_PCOD8080741
_publ_section_title
;
Structure prediction by ZEFSAII (Michael W. Deem and Ramdas Pophale) SiO2 
 PCOD8080741
Probable space group: C 2/M
;
_chemical_formula_sum "Si O2"
_cell_formula_units_Z 56
_cell_length_a 23.551544
_cell_length_b 8.681830
_cell_length_c 19.313035
_cell_angle_alpha 90.000000
_cell_angle_beta 52.308601
_cell_angle_gamma 90.000000
_cell_volume 3124.861441
_symmetry_space_group_name_H-M "C 2/M"
_symmetry_group_IT_number 12
_symmetry_cell_setting 'monoclinic'
loop_
_space_group_symop_operation_xyz
x,y,z
-x,y,-z
-x,-y,-z
x,-y,z
1/2+x,1/2+y,z
1/2-x,1/2+y,-z
1/2-x,1/2-y,-z
1/2+x,1/2-y,z
loop_
_atom_site_type_symbol
_atom_site_label
_atom_site_fract_x
_atom_site_fract_y
_atom_site_fract_z
Si Si1 0.755831 0.318385 0.658623
Si Si2 0.382343 0.685130 0.316903
Si Si3 0.035243 0.168211 0.197439
Si Si4 0.969864 0.170545 0.634979
Si Si5 0.677758 0.819256 0.250107
Si Si6 0.189485 0.183669 0.093825
Si Si7 0.117019 0.683089 0.532776
O O1 0.757167 0.500000 0.649420
O O2 0.678828 0.255690 0.690074
O O3 0.766767 0.272259 0.730565
O O4 0.819778 0.252819 0.563416
O O5 0.385468 0.500000 0.320780
O O6 0.460195 0.748106 0.229615
O O7 0.365653 0.753895 0.404153
O O8 0.028575 0.153580 0.284314
O O9 0.111757 0.251658 0.125091
O O10 0.039131 0.000000 0.159718
O O11 0.901008 0.270667 0.664676
O O12 0.042477 0.254280 0.556276
O O13 0.965165 0.000000 0.604952
O O14 0.703871 0.732595 0.161889
O O15 0.677868 0.000000 0.234949
O O16 0.188576 0.000000 0.091426
O O17 0.250000 0.250000 0.000000
O O18 0.112900 0.500000 0.538380
#
# Coordination Sequence:
#
# PCOD8080741 Si02
#       7
#     8   8   8   8   8   8   8
#     4   9  19  31  46  68  98 133 167 201 246 294
#     4   9  16  31  50  68  94 131 168 205 242 284
#     4   7  13  26  47  69  90 115 151 193 233 275
#     4   9  17  31  47  66  93 128 165 204 245 290
#     4  10  19  33  50  71  98 129 160 197 245 298
#     4  10  19  33  53  79 101 121 151 193 243 298
#     4  10  18  29  45  69  96 127 169 214 248 282
#
# _framework density 17.920794000000001
#
# number of rings (size 3 to 8) (size 9 to 14) (size 15 to 20)
#    0.000    2.857    0.000    3.857    0.000    0.571 
#    0.000    8.571    0.000    0.857    0.000    6.000 
#    0.000    0.000    0.000    0.000    0.000    0.000 
#
# Total GULP energy -346903.382287 kJ/mol
# GULP energy per Si atom -12389.406510 kJ/mol
# Density = 1.788001 g / cm^3
# Si number density = 17.920794 Si / 1000 Ang^3
#
#
#
# Elastic Constant Matrix: (Units=GPa)
#
#
# Indices 1 2 3 4 5 6 
#
# 1 110.6234 27.6717 74.1828 -0.0004 -16.7032 -0.0001
# 2 27.6717 56.7571 26.9695 -0.0019 -4.2679 0.0006
# 3 74.1828 26.9695 120.8269 -0.0006 -26.1122 0.0003
# 4 -0.0004 -0.0019 -0.0006 21.2297 0.0005 -1.3392
# 5 -16.7032 -4.2679 -26.1122 0.0005 24.5305 0.0000
# 6 -0.0001 0.0006 0.0003 -1.3392 0.0000 20.5311
#
#
#
# Elastic Compliance Matrix: (Units=1/GPa)
#
#
# Indices 1 2 3 4 5 6 
#
# 1 0.015977 -0.003526 -0.008837 0.000000 0.000859 0.000000
# 2 -0.003526 0.020538 -0.002813 0.000002 -0.001822 0.000000
# 3 -0.008837 -0.002813 0.016785 0.000000 0.011361 0.000000
# 4 0.000000 0.000002 0.000000 0.047298 -0.000001 0.003085
# 5 0.000859 -0.001822 0.011361 -0.000001 0.053127 0.000000
# 6 0.000000 0.000000 0.000000 0.003085 0.000000 0.048908
#
#
# Mechanical properties :
#
#
# Convention : Reuss Voigt Hill
#
# Bulk Modulus (GPa) = 43.57677 60.65059 52.11368
# Shear Modulus (GPa) = 20.77850 23.88384 22.33117
#
# Velocity S-wave (km/s) = 3.40878 3.65464 3.53385
# Velocity P-wave (km/s) = 6.31365 7.19206 6.76712
#
# Compressibility (1/GPa) = 0.02294801
#
# Stress axis : x y z
#
# Youngs Moduli (GPa) = 62.58945 48.69079 59.57816
#
# Poissons Ratio (x) = 0.17169 0.52647
# Poissons Ratio (y) = 0.22070 0.16760
# Poissons Ratio (z) = 0.55308 0.13697
#
# Static dielectric constant tensor:
#      x y z
#    x 3.845610 0.000000 -0.502570 
#    y 0.000000 3.177070 0.000000 
#    z -0.502570 0.000000 3.319960 
# 
# 
# High freq. dielectric constant tensor:
#      x y z
#    x 1.695060 0.000000 -0.024200 
#    y 0.000000 1.675840 0.000000 
#    z -0.024200 0.000000 1.668540 
# 
# From -- ./inp_files/323547.got.cif
#   From: 2010.06.25/outbox.cif.g09.slc.cpg/sg12_162_cif.got.tgz:323547.got - 2010.06.28 00:19:55.
