data_PCOD8080633
_publ_section_title
;
Structure prediction by ZEFSAII (Michael W. Deem and Ramdas Pophale) SiO2 
 PCOD8080633
Probable space group: C 2/M
;
_chemical_formula_sum "Si O2"
_cell_formula_units_Z 56
_cell_length_a 27.592646
_cell_length_b 8.832596
_cell_length_c 14.316292
_cell_angle_alpha 90.000000
_cell_angle_beta 105.421306
_cell_angle_gamma 90.000000
_cell_volume 3363.471562
_symmetry_space_group_name_H-M "C 2/M"
_symmetry_group_IT_number 12
_symmetry_cell_setting 'monoclinic'
loop_
_space_group_symop_operation_xyz
x,y,z
-x,y,-z
-x,-y,-z
x,-y,z
1/2+x,1/2+y,z
1/2-x,1/2+y,-z
1/2-x,1/2-y,-z
1/2+x,1/2-y,z
loop_
_atom_site_type_symbol
_atom_site_label
_atom_site_fract_x
_atom_site_fract_y
_atom_site_fract_z
Si Si1 0.189332 0.175660 0.279653
Si Si2 0.370351 0.674239 0.576730
Si Si3 0.713114 0.322457 0.609586
Si Si4 0.861263 0.322017 0.292989
Si Si5 0.555602 0.177351 0.517791
Si Si6 0.820343 0.823218 0.103813
Si Si7 0.206425 0.676856 0.094529
O O1 0.139426 0.201814 0.317929
O O2 0.235691 0.227990 0.367821
O O3 0.185222 0.273184 0.183948
O O4 0.195730 0.000000 0.256936
O O5 0.380581 0.500000 0.559604
O O6 0.320398 0.726396 0.495779
O O7 0.418708 0.763662 0.564243
O O8 0.725576 0.500000 0.619817
O O9 0.684068 0.275551 0.688186
O O10 0.849984 0.500000 0.294877
O O11 0.912681 0.279730 0.373309
O O12 0.862399 0.267407 0.185839
O O13 0.500000 0.248966 0.500000
O O14 0.551394 0.000000 0.503226
O O15 0.765170 0.783125 0.115683
O O16 0.832258 0.000000 0.113523
O O17 0.824864 0.766339 0.999918
O O18 0.196958 0.500000 0.076077
#
# Coordination Sequence:
#
# PCOD8080633 Si02
#       7
#     8   8   8   8   8   8   8
#     4  11  20  30  44  65  95 129 162 195 232 275
#     4   9  20  33  46  67  94 125 160 195 234 282
#     4  10  18  29  43  63  93 127 163 196 226 271
#     4  10  18  29  48  70  95 126 158 195 238 282
#     4   9  19  35  53  74  97 122 156 198 241 284
#     4  10  19  31  46  66  94 126 162 201 234 275
#     4  10  20  31  45  65  93 129 165 199 232 273
#
# _framework density 16.649464999999999
#
# number of rings (size 3 to 8) (size 9 to 14) (size 15 to 20)
#    0.000    2.143    1.429    2.571    0.000    3.714 
#    0.000    0.000    0.000    0.000    0.000    1.000 
#    0.000    8.000    0.000    0.000    0.000    0.000 
#
# Total GULP energy -347163.899771 kJ/mol
# GULP energy per Si atom -12398.710706 kJ/mol
# Density = 1.661157 g / cm^3
# Si number density = 16.649465 Si / 1000 Ang^3
#
#
#
# Elastic Constant Matrix: (Units=GPa)
#
#
# Indices 1 2 3 4 5 6 
#
# 1 78.8934 21.4552 38.9338 0.0000 -4.3883 0.0000
# 2 21.4552 43.4344 24.3341 0.0000 -1.4298 0.0000
# 3 38.9338 24.3341 86.7103 0.0000 -13.1050 0.0000
# 4 0.0000 0.0000 0.0000 28.7671 0.0000 -4.1641
# 5 -4.3883 -1.4298 -13.1050 0.0000 17.0548 0.0000
# 6 0.0000 0.0000 0.0000 -4.1641 0.0000 18.8915
#
#
#
# Elastic Compliance Matrix: (Units=1/GPa)
#
#
# Indices 1 2 3 4 5 6 
#
# 1 0.017142 -0.004871 -0.006477 0.000000 -0.000975 0.000000
# 2 -0.004871 0.028955 -0.006518 0.000000 -0.003835 0.000000
# 3 -0.006477 -0.006518 0.018030 0.000000 0.011641 0.000000
# 4 0.000000 0.000000 0.000000 0.035908 0.000000 0.007915
# 5 -0.000975 -0.003835 0.011641 0.000000 0.067007 0.000000
# 6 0.000000 0.000000 0.000000 0.007915 0.000000 0.054678
#
#
# Mechanical properties :
#
#
# Convention : Reuss Voigt Hill
#
# Bulk Modulus (GPa) = 35.21898 42.05380 38.63639
# Shear Modulus (GPa) = 18.73233 21.23034 19.98133
#
# Velocity S-wave (km/s) = 3.35789 3.57478 3.46803
# Velocity P-wave (km/s) = 6.01939 6.50783 6.26837
#
# Compressibility (1/GPa) = 0.02839378
#
# Stress axis : x y z
#
# Youngs Moduli (GPa) = 58.33495 34.53641 55.46390
#
# Poissons Ratio (x) = 0.16822 0.35927
# Poissons Ratio (y) = 0.28414 0.36153
# Poissons Ratio (z) = 0.37786 0.22512
#
# Static dielectric constant tensor:
#      x y z
#    x 2.908930 0.000000 -0.037880 
#    y 0.000000 3.119020 0.000000 
#    z -0.037880 0.000000 3.210880 
# 
# 
# High freq. dielectric constant tensor:
#      x y z
#    x 1.593300 0.000000 -0.014830 
#    y 0.000000 1.652230 0.000000 
#    z -0.014830 0.000000 1.641030 
# 
# From -- ./inp_files/243018.got.cif
#   From: 2010.06.25/outbox.cif.g09.slc.cpg/sg12_122_cif.got.tgz:243018.got - 2010.06.28 00:19:55.
