data_PCOD8080958
_publ_section_title
;
Structure prediction by ZEFSAII (Michael W. Deem and Ramdas Pophale) SiO2 
 PCOD8080958
Probable space group: C 2/M
;
_chemical_formula_sum "Si O2"
_cell_formula_units_Z 48
_cell_length_a 19.098028
_cell_length_b 13.563277
_cell_length_c 26.950127
_cell_angle_alpha 90.000000
_cell_angle_beta 23.860826
_cell_angle_gamma 90.000000
_cell_volume 2823.905178
_symmetry_space_group_name_H-M "C 2/M"
_symmetry_group_IT_number 12
_symmetry_cell_setting 'monoclinic'
loop_
_space_group_symop_operation_xyz
x,y,z
-x,y,-z
-x,-y,-z
x,-y,z
1/2+x,1/2+y,z
1/2-x,1/2+y,-z
1/2-x,1/2-y,-z
1/2+x,1/2-y,z
loop_
_atom_site_type_symbol
_atom_site_label
_atom_site_fract_x
_atom_site_fract_y
_atom_site_fract_z
Si Si1 0.424427 0.892846 0.994721
Si Si2 0.627847 0.885038 0.346983
Si Si3 0.756554 0.615565 0.617763
Si Si4 0.436913 0.695336 0.097511
Si Si5 0.281810 0.388684 0.019992
Si Si6 0.892412 0.807012 0.843306
O O1 0.531752 0.804640 0.898600
O O2 0.442016 0.000000 0.956376
O O3 0.500000 0.905024 0.000000
O O4 0.223800 0.855634 0.125297
O O5 0.717084 0.860020 0.341539
O O6 0.427785 0.850439 0.476699
O O7 0.733675 0.829843 0.234754
O O8 0.634015 0.000000 0.332250
O O9 0.722604 0.500000 0.632575
O O10 0.594420 0.676149 0.701319
O O11 0.500000 0.693927 0.000000
O O12 0.546370 0.615954 0.057508
O O13 0.207315 0.500000 0.071498
O O14 0.139269 0.310620 0.131987
O O15 0.333691 0.364559 0.930437
#
# Coordination Sequence:
#
# PCOD8080958 Si02
#       6
#     8   8   8   8   8   8
#     4   9  18  31  47  68  94 123 158 198 235 274
#     4   9  17  28  44  69  97 125 155 190 233 278
#     4   9  16  28  47  68  94 124 157 195 231 273
#     4  10  19  30  47  71  99 128 154 187 237 288
#     4  10  19  29  44  70  98 123 154 191 236 283
#     4  10  18  29  48  70  93 123 156 197 237 273
#
# _framework density 16.997737999999998
#
# number of rings (size 3 to 8) (size 9 to 14) (size 15 to 20)
#    0.000    2.500    1.667    3.000    0.000    1.333 
#    0.000    0.000    0.000   10.000    0.000    7.000 
#    0.000    0.000    0.000    0.000    0.000    0.000 
#
# Total GULP energy -297375.531687 kJ/mol
# GULP energy per Si atom -12390.647154 kJ/mol
# Density = 1.695905 g / cm^3
# Si number density = 16.997738 Si / 1000 Ang^3
#
#
#
# Elastic Constant Matrix: (Units=GPa)
#
#
# Indices 1 2 3 4 5 6 
#
# 1 54.5072 28.3299 36.9692 -0.0023 -14.4294 -0.0005
# 2 28.3299 120.9470 59.5297 -0.0156 -9.2240 0.0027
# 3 36.9692 59.5297 150.7167 -0.0645 -15.2377 0.0167
# 4 -0.0023 -0.0156 -0.0645 22.8783 0.0092 -5.0958
# 5 -14.4294 -9.2240 -15.2377 0.0092 27.6191 -0.0057
# 6 -0.0005 0.0027 0.0167 -5.0958 -0.0057 16.5902
#
#
#
# Elastic Compliance Matrix: (Units=1/GPa)
#
#
# Indices 1 2 3 4 5 6 
#
# 1 0.025337 -0.003241 -0.003925 -0.000014 0.009989 0.000005
# 2 -0.003241 0.010720 -0.003440 -0.000003 -0.000011 0.000001
# 3 -0.003925 -0.003440 0.009143 0.000022 0.001845 -0.000001
# 4 -0.000014 -0.000003 0.000022 0.046920 -0.000008 0.014412
# 5 0.009989 -0.000011 0.001845 -0.000008 0.042440 0.000011
# 6 0.000005 0.000001 -0.000001 0.014412 0.000011 0.064703
#
#
# Mechanical properties :
#
#
# Convention : Reuss Voigt Hill
#
# Bulk Modulus (GPa) = 41.68829 63.98094 52.83461
# Shear Modulus (GPa) = 21.88465 26.84031 24.36248
#
# Velocity S-wave (km/s) = 3.59207 3.97804 3.78997
# Velocity P-wave (km/s) = 6.46398 7.66957 7.09244
#
# Compressibility (1/GPa) = 0.02398755
#
# Stress axis : x y z
#
# Youngs Moduli (GPa) = 39.46761 93.28661 109.37363
#
# Poissons Ratio (x) = 0.30236 0.42927
# Poissons Ratio (y) = 0.12792 0.37626
# Poissons Ratio (z) = 0.15490 0.32092
#
# Static dielectric constant tensor:
#      x y z
#    x 3.138270 -0.000040 -0.269890 
#    y -0.000040 3.506140 0.000060 
#    z -0.269890 0.000060 3.137180 
# 
# 
# High freq. dielectric constant tensor:
#      x y z
#    x 1.641080 0.000000 -0.024700 
#    y 0.000000 1.656040 0.000000 
#    z -0.024700 0.000000 1.628180 
# 
# From -- ./inp_files/289646.got.cif
#   From: 2010.06.25/outbox.cif.g09.slc.cpg/sg12_145_cif.got.tgz:289646.got - 2010.06.28 00:19:55.
