data_PCOD8080698
_publ_section_title
;
Structure prediction by ZEFSAII (Michael W. Deem and Ramdas Pophale) SiO2 
 PCOD8080698
Probable space group: C 2/M
;
_chemical_formula_sum "Si O2"
_cell_formula_units_Z 64
_cell_length_a 27.511353
_cell_length_b 9.097739
_cell_length_c 16.236868
_cell_angle_alpha 90.000000
_cell_angle_beta 86.382293
_cell_angle_gamma 90.000000
_cell_volume 4055.845381
_symmetry_space_group_name_H-M "C 2/M"
_symmetry_group_IT_number 12
_symmetry_cell_setting 'monoclinic'
loop_
_space_group_symop_operation_xyz
x,y,z
-x,y,-z
-x,-y,-z
x,-y,z
1/2+x,1/2+y,z
1/2-x,1/2+y,-z
1/2-x,1/2-y,-z
1/2+x,1/2-y,z
loop_
_atom_site_type_symbol
_atom_site_label
_atom_site_fract_x
_atom_site_fract_y
_atom_site_fract_z
Si Si1 0.008290 0.332314 0.766206
Si Si2 0.736037 0.167068 0.921291
Si Si3 0.961463 0.828458 0.075062
Si Si4 0.898566 0.667365 0.716378
Si Si5 0.571838 0.664882 0.437058
Si Si6 0.866356 0.672957 0.022838
Si Si7 0.537987 0.665034 0.612747
Si Si8 0.663126 0.327439 0.143646
O O1 0.022492 0.500000 0.784699
O O2 0.015557 0.229985 0.843638
O O3 0.043423 0.275843 0.688822
O O4 0.952255 0.317904 0.747468
O O5 0.679177 0.202680 0.908496
O O6 0.778226 0.201432 0.849412
O O7 0.739958 0.000000 0.946909
O O8 0.750000 0.250000 0.000000
O O9 0.912321 0.742414 0.061902
O O10 0.949856 0.000000 0.084614
O O11 0.000000 0.795809 0.000000
O O12 0.880577 0.500000 0.718835
O O13 0.896509 0.725514 0.622516
O O14 0.862096 0.765126 0.773038
O O15 0.593202 0.500000 0.427495
O O16 0.572474 0.716420 0.532907
O O17 0.517024 0.665298 0.411590
O O18 0.875196 0.500000 0.007428
O O19 0.857277 0.746850 0.935234
O O20 0.552470 0.500000 0.638965
O O21 0.651241 0.500000 0.136402
#
# Coordination Sequence:
#
# PCOD8080698 Si02
#       8
#     8   8   8   8   8   8   8   8
#     4  10  20  31  43  60  84 115 148 182 217 250
#     4   8  16  29  45  64  83 106 136 172 213 256
#     4  11  23  35  46  61  83 114 150 183 214 250
#     4  10  19  28  40  62  90 117 145 177 213 251
#     4   8  14  25  41  60  82 111 142 172 210 253
#     4  10  19  32  48  64  84 109 141 181 220 254
#     4   8  14  26  43  60  80 108 143 178 210 250
#     4  10  18  29  45  64  87 114 143 172 209 258
#
# _framework density 15.779695
#
# number of rings (size 3 to 8) (size 9 to 14) (size 15 to 20)
#    0.000    2.625    0.000    3.375    0.000    6.000 
#    0.000    2.500    0.000    0.000    0.000    0.000 
#    0.000    1.000    0.000    3.000    0.000    4.000 
#
# Total GULP energy -396494.869403 kJ/mol
# GULP energy per Si atom -12390.464669 kJ/mol
# Density = 1.574378 g / cm^3
# Si number density = 15.779695 Si / 1000 Ang^3
#
#
#
# Elastic Constant Matrix: (Units=GPa)
#
#
# Indices 1 2 3 4 5 6 
#
# 1 60.4189 43.0374 29.7575 0.0000 -14.3452 0.0000
# 2 43.0374 90.3868 47.6053 0.0000 -11.8758 0.0000
# 3 29.7575 47.6053 93.6732 0.0000 -19.8650 0.0000
# 4 0.0000 0.0000 0.0000 26.7672 0.0000 -2.6883
# 5 -14.3452 -11.8758 -19.8650 0.0000 16.1908 0.0000
# 6 0.0000 0.0000 0.0000 -2.6883 0.0000 16.4331
#
#
#
# Elastic Compliance Matrix: (Units=1/GPa)
#
#
# Indices 1 2 3 4 5 6 
#
# 1 0.028780 -0.011664 0.000511 0.000000 0.017571 0.000000
# 2 -0.011664 0.019895 -0.007438 0.000000 -0.004867 0.000000
# 3 0.000511 -0.007438 0.017886 0.000000 0.016942 0.000000
# 4 0.000000 0.000000 0.000000 0.037983 0.000000 0.006214
# 5 0.017571 -0.004867 0.016942 0.000000 0.094549 0.000000
# 6 0.000000 0.000000 0.000000 0.006214 0.000000 0.061869
#
#
# Mechanical properties :
#
#
# Convention : Reuss Voigt Hill
#
# Bulk Modulus (GPa) = 34.03676 53.91992 43.97834
# Shear Modulus (GPa) = 16.23718 20.15012 18.19365
#
# Velocity S-wave (km/s) = 3.21127 3.57734 3.39924
# Velocity P-wave (km/s) = 5.94697 7.16295 6.58309
#
# Compressibility (1/GPa) = 0.02938000
#
# Stress axis : x y z
#
# Youngs Moduli (GPa) = 34.74691 50.26349 55.91068
#
# Poissons Ratio (x) = 0.58627 -0.02860
# Poissons Ratio (y) = 0.40529 0.41584
# Poissons Ratio (z) = -0.01777 0.37384
#
# Static dielectric constant tensor:
#      x y z
#    x 3.429700 0.000000 -0.470290 
#    y 0.000000 3.203600 0.000000 
#    z -0.470290 0.000000 3.105030 
# 
# 
# High freq. dielectric constant tensor:
#      x y z
#    x 1.573240 0.000000 -0.028660 
#    y 0.000000 1.621800 0.000000 
#    z -0.028660 0.000000 1.590000 
# 
# From -- ./inp_files/248404.got.cif
#   From: 2010.06.25/outbox.cif.g09.slc.cpg/sg12_125_cif.got.tgz:248404.got - 2010.06.28 00:19:55.
