data_PCOD8080443
_publ_section_title
;
Structure prediction by ZEFSAII (Michael W. Deem and Ramdas Pophale) SiO2 
 PCOD8080443
Probable space group: C 2/M
;
_chemical_formula_sum "Si O2"
_cell_formula_units_Z 56
_cell_length_a 22.941776
_cell_length_b 8.865743
_cell_length_c 20.755388
_cell_angle_alpha 90.000000
_cell_angle_beta 135.886645
_cell_angle_gamma 90.000000
_cell_volume 2938.544608
_symmetry_space_group_name_H-M "C 2/M"
_symmetry_group_IT_number 12
_symmetry_cell_setting 'monoclinic'
loop_
_space_group_symop_operation_xyz
x,y,z
-x,y,-z
-x,-y,-z
x,-y,z
1/2+x,1/2+y,z
1/2-x,1/2+y,-z
1/2-x,1/2-y,-z
1/2+x,1/2-y,z
loop_
_atom_site_type_symbol
_atom_site_label
_atom_site_fract_x
_atom_site_fract_y
_atom_site_fract_z
Si Si1 0.954970 0.679540 0.121413
Si Si2 0.295779 0.678983 0.360493
Si Si3 0.490315 0.678867 0.283190
Si Si4 0.149385 0.179402 0.731926
Si Si5 0.116710 0.321029 0.176250
Si Si6 0.170649 0.179094 0.471618
Si Si7 0.172512 0.679100 0.084100
O O1 0.958378 0.500000 0.129915
O O2 0.950951 0.749633 0.188558
O O3 0.036019 0.745226 0.148449
O O4 0.872958 0.735547 0.017002
O O5 0.297582 0.500000 0.360198
O O6 0.348585 0.739695 0.340563
O O7 0.199817 0.735177 0.279399
O O8 0.333916 0.737417 0.458014
O O9 0.486124 0.500000 0.274040
O O10 0.434046 0.736772 0.298591
O O11 0.585561 0.733837 0.369516
O O12 0.231885 0.238735 0.835813
O O13 0.151464 0.000000 0.732569
O O14 0.111434 0.500000 0.172927
O O15 0.120443 0.263702 0.105288
O O16 0.250000 0.250000 0.500000
O O17 0.179831 0.000000 0.476486
O O18 0.172326 0.500000 0.085139
#
# Coordination Sequence:
#
# PCOD8080443 Si02
#       7
#     8   8   8   8   8   8   8
#     4  10  18  28  46  70  94 123 157 191 227 268
#     4   8  14  26  46  68  89 117 152 190 229 268
#     4  10  21  33  45  66  97 127 152 185 229 274
#     4   8  15  29  46  66  93 121 153 194 233 265
#     4   8  13  23  42  69  94 112 143 195 240 267
#     4  10  20  33  50  73  97 120 149 185 229 279
#     4   8  14  25  44  69  92 117 154 197 233 264
#
# _framework density 19.057053
#
# number of rings (size 3 to 8) (size 9 to 14) (size 15 to 20)
#    0.000    3.143    0.000    3.000    0.000    4.571 
#    0.000    2.857    0.000    2.571    0.000    6.000 
#    0.000    0.000    0.000    0.000    0.000    0.000 
#
# Total GULP energy -346983.426376 kJ/mol
# GULP energy per Si atom -12392.265228 kJ/mol
# Density = 1.901368 g / cm^3
# Si number density = 19.057053 Si / 1000 Ang^3
#
#
#
# Elastic Constant Matrix: (Units=GPa)
#
#
# Indices 1 2 3 4 5 6 
#
# 1 135.4634 15.9985 57.2457 0.0000 -4.2015 0.0000
# 2 15.9985 9.7454 16.3423 0.0000 -1.0282 0.0000
# 3 57.2457 16.3423 133.1812 0.0000 -19.1360 0.0000
# 4 0.0000 0.0000 0.0000 18.8229 0.0000 -3.7487
# 5 -4.2015 -1.0282 -19.1360 0.0000 28.3171 0.0000
# 6 0.0000 0.0000 0.0000 -3.7487 0.0000 17.7104
#
#
#
# Elastic Compliance Matrix: (Units=1/GPa)
#
#
# Indices 1 2 3 4 5 6 
#
# 1 0.009979 -0.011403 -0.003031 0.000000 -0.000982 0.000000
# 2 -0.011403 0.143375 -0.013497 0.000000 -0.005607 0.000000
# 3 -0.003031 -0.013497 0.011444 0.000000 0.006794 0.000000
# 4 0.000000 0.000000 0.000000 0.055465 0.000000 0.011740
# 5 -0.000982 -0.005607 0.006794 0.000000 0.039556 0.000000
# 6 0.000000 0.000000 0.000000 0.011740 0.000000 0.058949
#
#
# Mechanical properties :
#
#
# Convention : Reuss Voigt Hill
#
# Bulk Modulus (GPa) = 9.17979 50.84034 30.01007
# Shear Modulus (GPa) = 12.16713 25.55697 18.86205
#
# Velocity S-wave (km/s) = 2.52951 3.66604 3.14947
# Velocity P-wave (km/s) = 3.65496 6.68249 5.38584
#
# Compressibility (1/GPa) = 0.10893493
#
# Stress axis : x y z
#
# Youngs Moduli (GPa) = 100.20717 6.97472 87.38273
#
# Poissons Ratio (x) = 0.07953 0.26488
# Poissons Ratio (y) = 1.14265 1.17945
# Poissons Ratio (z) = 0.30376 0.09414
#
# Static dielectric constant tensor:
#      x y z
#    x 3.762360 0.000000 -0.032300 
#    y 0.000000 2.790480 0.000000 
#    z -0.032300 0.000000 3.845040 
# 
# 
# High freq. dielectric constant tensor:
#      x y z
#    x 1.747020 0.000000 -0.003470 
#    y 0.000000 1.665750 0.000000 
#    z -0.003470 0.000000 1.752220 
# 
# From -- ./inp_files/282965.got.cif
#   From: 2010.06.25/outbox.cif.g09.slc.cpg/sg12_142_cif.got.tgz:282965.got - 2010.06.28 00:19:55.
