data_PCOD8080433
_publ_section_title
;
Structure prediction by ZEFSAII (Michael W. Deem and Ramdas Pophale) SiO2 
 PCOD8080433
Probable space group: C 2/M
;
_chemical_formula_sum "Si O2"
_cell_formula_units_Z 56
_cell_length_a 28.553671
_cell_length_b 9.431994
_cell_length_c 21.290263
_cell_angle_alpha 90.000000
_cell_angle_beta 34.941507
_cell_angle_gamma 90.000000
_cell_volume 3284.005753
_symmetry_space_group_name_H-M "C 2/M"
_symmetry_group_IT_number 12
_symmetry_cell_setting 'monoclinic'
loop_
_space_group_symop_operation_xyz
x,y,z
-x,y,-z
-x,-y,-z
x,-y,z
1/2+x,1/2+y,z
1/2-x,1/2+y,-z
1/2-x,1/2-y,-z
1/2+x,1/2-y,z
loop_
_atom_site_type_symbol
_atom_site_label
_atom_site_fract_x
_atom_site_fract_y
_atom_site_fract_z
Si Si1 0.935458 0.167503 0.434921
Si Si2 0.172666 0.838987 0.102942
Si Si3 0.301428 0.667899 0.677474
Si Si4 0.867320 0.167912 0.138444
Si Si5 0.509728 0.667857 0.891295
Si Si6 0.097189 0.838318 0.317932
Si Si7 0.003491 0.168646 0.232817
O O1 0.847590 0.204051 0.561138
O O2 0.941541 0.223689 0.355932
O O3 0.009496 0.232360 0.396314
O O4 0.951462 0.000000 0.415362
O O5 0.158894 0.824656 0.192160
O O6 0.094388 0.781038 0.151057
O O7 0.189909 0.000000 0.064645
O O8 0.250000 0.750000 0.000000
O O9 0.285437 0.500000 0.702090
O O10 0.216627 0.748669 0.772631
O O11 0.358847 0.730488 0.669946
O O12 0.913524 0.217075 0.151235
O O13 0.850400 0.000000 0.156851
O O14 0.923854 0.214098 0.017330
O O15 0.510008 0.500000 0.888361
O O16 0.518761 0.733301 0.811140
O O17 0.080477 0.000000 0.354839
O O18 0.000224 0.000000 0.233041
#
# Coordination Sequence:
#
# PCOD8080433 Si02
#       7
#     8   8   8   8   8   8   8
#     4   8  14  26  44  66  88 115 152 184 209 252
#     4   9  17  27  41  64  91 114 141 177 214 257
#     4  10  18  28  46  69  92 116 145 182 221 259
#     4   9  18  31  47  67  88 113 148 187 222 261
#     4   8  15  30  48  63  84 116 152 184 218 261
#     4   8  15  27  42  63  91 120 146 174 212 256
#     4   8  14  26  46  66  83 111 151 187 214 248
#
# _framework density 17.052344999999999
#
# number of rings (size 3 to 8) (size 9 to 14) (size 15 to 20)
#    0.000    3.429    0.000    3.000    2.000    1.714 
#    0.000    2.143    0.000    6.000    0.000    0.000 
#    0.000    0.000    0.000    0.000    0.000    0.000 
#
# Total GULP energy -346908.677202 kJ/mol
# GULP energy per Si atom -12389.595614 kJ/mol
# Density = 1.701353 g / cm^3
# Si number density = 17.052345 Si / 1000 Ang^3
#
#
#
# Elastic Constant Matrix: (Units=GPa)
#
#
# Indices 1 2 3 4 5 6 
#
# 1 127.5206 14.2738 66.0452 -0.0044 18.7360 0.0024
# 2 14.2738 20.5112 23.9681 -0.0109 -1.3992 0.0034
# 3 66.0452 23.9681 105.5655 -0.0163 1.0585 0.0105
# 4 -0.0044 -0.0109 -0.0163 24.0177 0.0044 -6.3270
# 5 18.7360 -1.3992 1.0585 0.0044 22.7829 -0.0012
# 6 0.0024 0.0034 0.0105 -6.3270 -0.0012 14.1456
#
#
#
# Elastic Compliance Matrix: (Units=1/GPa)
#
#
# Indices 1 2 3 4 5 6 
#
# 1 0.013921 -0.000540 -0.008476 -0.000001 -0.011088 0.000003
# 2 -0.000540 0.066905 -0.014905 0.000020 0.005245 0.000005
# 3 -0.008476 -0.014905 0.018107 0.000001 0.005214 -0.000007
# 4 -0.000001 0.000020 0.000001 0.047197 -0.000006 0.021110
# 5 -0.011088 0.005245 0.005214 -0.000006 0.053091 -0.000002
# 6 0.000003 0.000005 -0.000007 0.021110 -0.000002 0.080136
#
#
# Mechanical properties :
#
#
# Convention : Reuss Voigt Hill
#
# Bulk Modulus (GPa) = 19.57274 51.35238 35.46256
# Shear Modulus (GPa) = 14.52523 22.14326 18.33424
#
# Velocity S-wave (km/s) = 2.92173 3.60744 3.28254
# Velocity P-wave (km/s) = 4.78382 6.89431 5.93365
#
# Compressibility (1/GPa) = 0.05109148
#
# Stress axis : x y z
#
# Youngs Moduli (GPa) = 71.83342 14.94666 55.22602
#
# Poissons Ratio (x) = 0.00807 0.46808
# Poissons Ratio (y) = 0.03877 0.82316
# Poissons Ratio (z) = 0.60884 0.22278
#
# Static dielectric constant tensor:
#      x y z
#    x 3.783540 0.000000 0.366650 
#    y 0.000000 2.593170 0.000030 
#    z 0.366650 0.000030 3.282660 
# 
# 
# High freq. dielectric constant tensor:
#      x y z
#    x 1.662710 0.000000 0.012000 
#    y 0.000000 1.589540 0.000000 
#    z 0.012000 0.000000 1.662820 
# 
# From -- ./inp_files/287906.got.cif
#   From: 2010.06.25/outbox.cif.g09.slc.cpg/sg12_144_cif.got.tgz:287906.got - 2010.06.28 00:19:55.
