data_PCOD8080535
_publ_section_title
;
Structure prediction by ZEFSAII (Michael W. Deem and Ramdas Pophale) SiO2 
 PCOD8080535
Probable space group: C 2/M
;
_chemical_formula_sum "Si O2"
_cell_formula_units_Z 52
_cell_length_a 10.659572
_cell_length_b 25.483799
_cell_length_c 12.428689
_cell_angle_alpha 90.000000
_cell_angle_beta 51.656938
_cell_angle_gamma 90.000000
_cell_volume 2647.995236
_symmetry_space_group_name_H-M "C 2/M"
_symmetry_group_IT_number 12
_symmetry_cell_setting 'monoclinic'
loop_
_space_group_symop_operation_xyz
x,y,z
-x,y,-z
-x,-y,-z
x,-y,z
1/2+x,1/2+y,z
1/2-x,1/2+y,-z
1/2-x,1/2-y,-z
1/2+x,1/2-y,z
loop_
_atom_site_type_symbol
_atom_site_label
_atom_site_fract_x
_atom_site_fract_y
_atom_site_fract_z
Si Si1 0.905339 0.392993 0.943021
Si Si2 0.720136 0.729807 0.635900
Si Si3 0.928089 0.271366 0.920715
Si Si4 0.367434 0.561511 0.789304
Si Si5 0.500000 0.702756 0.500000
Si Si6 0.341922 0.373057 0.416878
Si Si7 0.171465 0.560209 0.678599
O O1 0.918998 0.332940 0.902308
O O2 0.987188 0.428374 0.807038
O O3 0.724099 0.410810 0.062459
O O4 0.000000 0.406270 0.000000
O O5 0.750000 0.750000 0.500000
O O6 0.545556 0.745411 0.771607
O O7 0.860315 0.759998 0.626170
O O8 0.739419 0.665904 0.628332
O O9 0.750000 0.250000 0.000000
O O10 0.000000 0.259105 0.000000
O O11 0.370141 0.500000 0.809028
O O12 0.546760 0.583528 0.697872
O O13 0.289662 0.574427 0.714447
O O14 0.550211 0.666150 0.570975
O O15 0.210624 0.402756 0.557348
O O16 0.192724 0.500000 0.632927
#
# Coordination Sequence:
#
# PCOD8080535 Si02
#       7
#     8   8   8   8   4   8   8
#     4   9  18  30  49  71 111 146 177 223 281 341
#     4  10  23  35  57  79 110 154 199 237 285 348
#     4  11  24  39  59  86 121 161 200 243 294 351
#     4  10  18  28  47  75 107 142 177 221 282 351
#     4  10  20  34  53  74 111 148 192 230 282 340
#     4  11  19  32  51  74 108 143 183 227 284 330
#     4  10  18  30  48  75 108 144 180 223 285 350
#
# _framework density 19.637498000000001
#
# number of rings (size 3 to 8) (size 9 to 14) (size 15 to 20)
#    0.000    1.846    1.538    3.692    8.615    3.077 
#    0.000    0.000    0.000    0.000    0.000    2.154 
#    0.000    4.923    0.000    0.000    0.000    0.000 
#
# Total GULP energy -322277.442802 kJ/mol
# GULP energy per Si atom -12395.286262 kJ/mol
# Density = 1.959280 g / cm^3
# Si number density = 19.637498 Si / 1000 Ang^3
#
#
#
# Elastic Constant Matrix: (Units=GPa)
#
#
# Indices 1 2 3 4 5 6 
#
# 1 41.9066 15.1255 20.2507 0.0000 -11.9778 0.0000
# 2 15.1255 112.1598 64.8492 0.0000 -4.8381 0.0000
# 3 20.2507 64.8492 139.0552 0.0000 -33.0973 0.0000
# 4 0.0000 0.0000 0.0000 41.2671 0.0000 -7.0050
# 5 -11.9778 -4.8381 -33.0973 0.0000 24.5184 0.0000
# 6 0.0000 0.0000 0.0000 -7.0050 0.0000 32.7659
#
#
#
# Elastic Compliance Matrix: (Units=1/GPa)
#
#
# Indices 1 2 3 4 5 6 
#
# 1 0.028999 -0.003950 0.001187 0.000000 0.014989 0.000000
# 2 -0.003950 0.013842 -0.008382 0.000000 -0.010514 0.000000
# 3 0.001187 -0.008382 0.015724 0.000000 0.020151 0.000000
# 4 0.000000 0.000000 0.000000 0.025145 0.000000 0.005376
# 5 0.014989 -0.010514 0.020151 0.000000 0.073236 0.000000
# 6 0.000000 0.000000 0.000000 0.005376 0.000000 0.031669
#
#
# Mechanical properties :
#
#
# Convention : Reuss Voigt Hill
#
# Bulk Modulus (GPa) = 27.56861 54.84138 41.20500
# Shear Modulus (GPa) = 22.42186 32.57005 27.49595
#
# Velocity S-wave (km/s) = 3.38270 4.07697 3.74595
# Velocity P-wave (km/s) = 5.41536 7.08164 6.30380
#
# Compressibility (1/GPa) = 0.03627313
#
# Stress axis : x y z
#
# Youngs Moduli (GPa) = 34.48383 72.24648 63.59705
#
# Poissons Ratio (x) = 0.28539 -0.07547
# Poissons Ratio (y) = 0.13622 0.53308
# Poissons Ratio (z) = -0.04092 0.60558
#
# Static dielectric constant tensor:
#      x y z
#    x 4.554490 0.000000 -0.355550 
#    y 0.000000 4.010780 0.000000 
#    z -0.355550 0.000000 3.711780 
# 
# 
# High freq. dielectric constant tensor:
#      x y z
#    x 1.706150 0.000000 -0.032460 
#    y 0.000000 1.781740 0.000000 
#    z -0.032460 0.000000 1.773600 
# 
# From -- ./inp_files/135854.got.cif
#   From: 2010.06.25/outbox.cif.g09.slc.cpg/sg12_68_cif.got.tgz:135854.got - 2010.06.28 00:19:55.
