data_PCOD8080217
_publ_section_title
;
Structure prediction by ZEFSAII (Michael W. Deem and Ramdas Pophale) SiO2 
 PCOD8080217
Probable space group: C 2/M
;
_chemical_formula_sum "Si O2"
_cell_formula_units_Z 64
_cell_length_a 27.411254
_cell_length_b 9.032814
_cell_length_c 20.533895
_cell_angle_alpha 90.000000
_cell_angle_beta 127.336658
_cell_angle_gamma 90.000000
_cell_volume 4042.380582
_symmetry_space_group_name_H-M "C 2/M"
_symmetry_group_IT_number 12
_symmetry_cell_setting 'monoclinic'
loop_
_space_group_symop_operation_xyz
x,y,z
-x,y,-z
-x,-y,-z
x,-y,z
1/2+x,1/2+y,z
1/2-x,1/2+y,-z
1/2-x,1/2-y,-z
1/2+x,1/2-y,z
loop_
_atom_site_type_symbol
_atom_site_label
_atom_site_fract_x
_atom_site_fract_y
_atom_site_fract_z
Si Si1 0.389878 0.172897 0.756681
Si Si2 0.841317 0.833520 0.598407
Si Si3 0.301427 0.671132 0.083010
Si Si4 0.790888 0.332907 0.442873
Si Si5 0.376557 0.668146 0.023718
Si Si6 0.738891 0.826455 0.282345
Si Si7 0.994262 0.675310 0.068199
Si Si8 0.251785 0.326041 0.847479
O O1 0.388051 0.257750 0.686601
O O2 0.330478 0.207430 0.752137
O O3 0.448441 0.233669 0.843350
O O4 0.394458 0.000000 0.744598
O O5 0.841097 0.742381 0.530755
O O6 0.774022 0.834011 0.574106
O O7 0.863736 0.000000 0.602339
O O8 0.284108 0.500000 0.079258
O O9 0.363769 0.685928 0.091061
O O10 0.303427 0.752862 0.154580
O O11 0.250000 0.750000 0.000000
O O12 0.811865 0.500000 0.443546
O O13 0.786598 0.237350 0.373678
O O14 0.395450 0.500000 0.023035
O O15 0.431326 0.775721 0.049852
O O16 0.316982 0.712203 0.933217
O O17 0.751274 0.743361 0.225730
O O18 0.750763 0.000000 0.283616
O O19 0.995279 0.500000 0.066478
O O20 0.000000 0.740900 0.000000
O O21 0.240275 0.500000 0.834118
#
# Coordination Sequence:
#
# PCOD8080217 Si02
#       8
#     8   8   8   8   8   8   8   8
#     4   9  18  30  42  59  84 115 150 184 217 253
#     4   9  16  26  41  59  79 108 145 179 213 254
#     4   9  17  30  46  64  84 107 139 177 218 262
#     4   9  16  26  40  59  84 111 139 174 214 256
#     4   9  19  32  45  62  84 111 144 182 219 255
#     4  10  18  28  43  62  87 117 146 177 214 256
#     4  10  20  32  45  62  85 115 151 185 216 252
#     4  10  19  30  44  64  88 113 143 177 217 263
#
# _framework density 15.832255
#
# number of rings (size 3 to 8) (size 9 to 14) (size 15 to 20)
#    0.000    2.625    0.000    3.375    0.000    8.250 
#    0.000    0.000    0.000    0.000    0.000    0.000 
#    0.000    1.000    0.000   10.500    0.000    6.250 
#
# Total GULP energy -396724.075306 kJ/mol
# GULP energy per Si atom -12397.627353 kJ/mol
# Density = 1.579622 g / cm^3
# Si number density = 15.832255 Si / 1000 Ang^3
#
#
#
# Elastic Constant Matrix: (Units=GPa)
#
#
# Indices 1 2 3 4 5 6 
#
# 1 66.2379 37.7949 44.3401 0.0000 -16.8945 0.0000
# 2 37.7949 90.9429 52.5689 0.0000 -15.5408 0.0000
# 3 44.3401 52.5689 118.8676 0.0000 -20.4637 0.0000
# 4 0.0000 0.0000 0.0000 27.3228 0.0000 -5.5585
# 5 -16.8945 -15.5408 -20.4637 0.0000 19.1063 0.0000
# 6 0.0000 0.0000 0.0000 -5.5585 0.0000 24.1978
#
#
#
# Elastic Compliance Matrix: (Units=1/GPa)
#
#
# Indices 1 2 3 4 5 6 
#
# 1 0.024369 -0.005373 -0.004606 0.000000 0.012245 0.000000
# 2 -0.005373 0.016571 -0.004686 0.000000 0.003709 0.000000
# 3 -0.004606 -0.004686 0.013298 0.000000 0.006358 0.000000
# 4 0.000000 0.000000 0.000000 0.038394 0.000000 0.008819
# 5 0.012245 0.003709 0.006358 0.000000 0.072993 0.000000
# 6 0.000000 0.000000 0.000000 0.008819 0.000000 0.043352
#
#
# Mechanical properties :
#
#
# Convention : Reuss Voigt Hill
#
# Bulk Modulus (GPa) = 40.14640 60.60627 50.37633
# Shear Modulus (GPa) = 20.27500 23.54834 21.91167
#
# Velocity S-wave (km/s) = 3.58245 3.86082 3.72424
# Velocity P-wave (km/s) = 6.52107 7.63138 7.09797
#
# Compressibility (1/GPa) = 0.02490884
#
# Stress axis : x y z
#
# Youngs Moduli (GPa) = 41.03548 60.34561 75.19997
#
# Poissons Ratio (x) = 0.32421 0.34639
# Poissons Ratio (y) = 0.22046 0.35238
# Poissons Ratio (z) = 0.18902 0.28278
#
# Static dielectric constant tensor:
#      x y z
#    x 2.857880 0.000000 -0.245380 
#    y 0.000000 3.171220 0.000000 
#    z -0.245380 0.000000 3.044010 
# 
# 
# High freq. dielectric constant tensor:
#      x y z
#    x 1.569490 0.000000 -0.028140 
#    y 0.000000 1.622360 0.000000 
#    z -0.028140 0.000000 1.595250 
# 
# From -- ./inp_files/326934.got.cif
#   From: 2010.06.25/outbox.cif.g09.slc.cpg/sg12_164_cif.got.tgz:326934.got - 2010.06.28 00:19:55.
