data_PCOD8080587
_publ_section_title
;
Structure prediction by ZEFSAII (Michael W. Deem and Ramdas Pophale) SiO2 
 PCOD8080587
Probable space group: C 2/M
;
_chemical_formula_sum "Si O2"
_cell_formula_units_Z 64
_cell_length_a 22.186719
_cell_length_b 18.582589
_cell_length_c 18.404018
_cell_angle_alpha 90.000000
_cell_angle_beta 30.660563
_cell_angle_gamma 90.000000
_cell_volume 3869.370926
_symmetry_space_group_name_H-M "C 2/M"
_symmetry_group_IT_number 12
_symmetry_cell_setting 'monoclinic'
loop_
_space_group_symop_operation_xyz
x,y,z
-x,y,-z
-x,-y,-z
x,-y,z
1/2+x,1/2+y,z
1/2-x,1/2+y,-z
1/2-x,1/2-y,-z
1/2+x,1/2-y,z
loop_
_atom_site_type_symbol
_atom_site_label
_atom_site_fract_x
_atom_site_fract_y
_atom_site_fract_z
Si Si1 0.656474 0.415496 0.107044
Si Si2 0.589162 0.418373 0.706492
Si Si3 0.244126 0.582791 0.599698
Si Si4 0.597782 0.304941 0.295442
Si Si5 0.160417 0.692040 0.122574
Si Si6 0.328589 0.692591 0.622779
Si Si7 0.090933 0.680513 0.678067
Si Si8 0.276469 0.699681 0.369144
O O1 0.672251 0.500000 0.110576
O O2 0.549537 0.404876 0.161212
O O3 0.632266 0.369589 0.205110
O O4 0.773404 0.385356 0.944309
O O5 0.617044 0.500000 0.698177
O O6 0.652229 0.397290 0.564979
O O7 0.642004 0.371964 0.718972
O O8 0.239277 0.500000 0.624642
O O9 0.264817 0.623987 0.653548
O O10 0.120825 0.607282 0.690901
O O11 0.620608 0.224061 0.241455
O O12 0.678024 0.314427 0.283812
O O13 0.461357 0.308106 0.456402
O O14 0.049193 0.686187 0.184090
O O15 0.250000 0.750000 0.000000
O O16 0.257882 0.765346 0.672565
O O17 0.152053 0.680287 0.535879
O O18 0.143216 0.746983 0.667597
#
# Coordination Sequence:
#
# PCOD8080587 Si02
#       8
#     8   8   8   8   8   8   8   8
#     4  10  20  33  50  71  99 129 162 200 234 277
#     4   9  16  28  47  72  96 121 158 202 245 276
#     4   9  17  28  45  71 102 126 152 196 243 289
#     4  10  19  31  46  73 101 129 160 191 231 298
#     4  10  19  31  49  68  95 129 166 201 233 272
#     4  10  18  28  49  72 102 132 151 187 248 289
#     4   9  16  26  45  69  90 122 164 201 240 273
#     4   9  15  27  47  69  96 120 154 203 245 279
#
# _framework density 16.540156
#
# number of rings (size 3 to 8) (size 9 to 14) (size 15 to 20)
#    0.000    2.500    2.500    2.250    0.000    1.000 
#    0.000    1.250    0.000   19.500    0.000   10.500 
#    0.000    0.000    0.000    0.000    0.000    0.000 
#
# Total GULP energy -396540.130005 kJ/mol
# GULP energy per Si atom -12391.879063 kJ/mol
# Density = 1.650251 g / cm^3
# Si number density = 16.540156 Si / 1000 Ang^3
#
#
#
# Elastic Constant Matrix: (Units=GPa)
#
#
# Indices 1 2 3 4 5 6 
#
# 1 94.2907 59.9522 28.5388 -0.0005 -14.9747 0.0004
# 2 59.9522 98.5381 23.9806 -0.0004 -2.2607 0.0004
# 3 28.5388 23.9806 53.5530 -0.0009 -17.1700 0.0009
# 4 -0.0005 -0.0004 -0.0009 19.0112 0.0006 -6.3611
# 5 -14.9747 -2.2607 -17.1700 0.0006 24.7355 -0.0005
# 6 0.0004 0.0004 0.0009 -6.3611 -0.0005 21.9408
#
#
#
# Elastic Compliance Matrix: (Units=1/GPa)
#
#
# Indices 1 2 3 4 5 6 
#
# 1 0.020123 -0.011387 -0.002640 0.000000 0.009309 0.000000
# 2 -0.011387 0.018036 -0.004746 0.000000 -0.008540 0.000000
# 3 -0.002640 -0.004746 0.027724 0.000000 0.017212 0.000000
# 4 0.000000 0.000000 0.000000 0.058251 -0.000001 0.016888
# 5 0.009309 -0.008540 0.017212 -0.000001 0.057231 0.000000
# 6 0.000000 0.000000 0.000000 0.016888 0.000000 0.050473
#
#
# Mechanical properties :
#
#
# Convention : Reuss Voigt Hill
#
# Bulk Modulus (GPa) = 35.29040 52.36945 43.82992
# Shear Modulus (GPa) = 17.93212 22.06487 19.99849
#
# Velocity S-wave (km/s) = 3.29623 3.65638 3.48097
# Velocity P-wave (km/s) = 5.98910 7.03962 6.53550
#
# Compressibility (1/GPa) = 0.02833632
#
# Stress axis : x y z
#
# Youngs Moduli (GPa) = 49.69371 55.44591 36.07029
#
# Poissons Ratio (x) = 0.63138 0.09523
# Poissons Ratio (y) = 0.56588 0.17118
# Poissons Ratio (z) = 0.13119 0.26313
#
# Static dielectric constant tensor:
#      x y z
#    x 3.104920 0.000000 -0.172550 
#    y 0.000000 3.366080 0.000000 
#    z -0.172550 0.000000 3.113850 
# 
# 
# High freq. dielectric constant tensor:
#      x y z
#    x 1.622270 0.000000 -0.028160 
#    y 0.000000 1.638540 0.000000 
#    z -0.028160 0.000000 1.610930 
# 
# From -- ./inp_files/176855.got.cif
#   From: 2010.06.25/outbox.cif.g09.slc.cpg/sg12_89_cif.got.tgz:176855.got - 2010.06.28 00:19:55.
