data_PCOD8080132
_publ_section_title
;
Structure prediction by ZEFSAII (Michael W. Deem and Ramdas Pophale) SiO2 
 PCOD8080132
Probable space group: C 2/M
;
_chemical_formula_sum "Si O2"
_cell_formula_units_Z 52
_cell_length_a 11.614130
_cell_length_b 22.942364
_cell_length_c 11.184358
_cell_angle_alpha 90.000000
_cell_angle_beta 83.449467
_cell_angle_gamma 90.000000
_cell_volume 2960.679370
_symmetry_space_group_name_H-M "C 2/M"
_symmetry_group_IT_number 12
_symmetry_cell_setting 'monoclinic'
loop_
_space_group_symop_operation_xyz
x,y,z
-x,y,-z
-x,-y,-z
x,-y,z
1/2+x,1/2+y,z
1/2-x,1/2+y,-z
1/2-x,1/2-y,-z
1/2+x,1/2-y,z
loop_
_atom_site_type_symbol
_atom_site_label
_atom_site_fract_x
_atom_site_fract_y
_atom_site_fract_z
Si Si1 0.701794 0.295902 0.347928
Si Si2 0.791138 0.230403 0.122238
Si Si3 0.229144 0.884505 0.753386
Si Si4 0.500000 0.678079 0.000000
Si Si5 0.134614 0.672961 0.463041
Si Si6 0.820014 0.000000 0.110845
Si Si7 0.587327 0.500000 0.152243
Si Si8 0.541918 0.620636 0.229664
O O1 0.773041 0.280474 0.220696
O O2 0.791497 0.328496 0.423786
O O3 0.645292 0.237908 0.408960
O O4 0.597580 0.338432 0.323483
O O5 0.733307 0.168797 0.164895
O O6 0.927527 0.219773 0.095020
O O7 0.750000 0.250000 0.000000
O O8 0.311762 0.877809 0.627827
O O9 0.246128 0.944435 0.823931
O O10 0.095415 0.878812 0.728010
O O11 0.569809 0.638186 0.086995
O O12 0.000000 0.658148 0.500000
O O13 0.955362 0.000000 0.122490
O O14 0.816803 0.000000 0.966228
O O15 0.600738 0.556938 0.234365
#
# Coordination Sequence:
#
# PCOD8080132 Si02
#       8
#     8   8   8   4   8   4   4   8
#     4  10  22  33  53  76 107 143 172 228 268 315
#     4  10  18  29  46  77 108 135 169 206 267 318
#     4   9  20  33  53  80 105 142 178 221 261 316
#     4  10  18  27  48  76 112 141 162 206 256 336
#     4  10  23  38  53  73 102 144 192 219 265 315
#     4   9  16  32  54  80 112 142 180 208 268 323
#     4   9  16  28  53  84 113 142 163 213 270 335
#     4  10  18  31  52  83 113 137 170 212 274 323
#
# _framework density 17.563537
#
# number of rings (size 3 to 8) (size 9 to 14) (size 15 to 20)
#    0.000    2.308    1.538    2.769    8.615    0.000 
#    0.000    1.154    0.000    2.769    0.000    1.077 
#    0.000    0.000    0.000    0.000    0.000    0.000 
#
# Total GULP energy -322178.830816 kJ/mol
# GULP energy per Si atom -12391.493493 kJ/mol
# Density = 1.752356 g / cm^3
# Si number density = 17.563537 Si / 1000 Ang^3
#
#
#
# Elastic Constant Matrix: (Units=GPa)
#
#
# Indices 1 2 3 4 5 6 
#
# 1 66.3752 31.8117 41.6739 0.0000 -5.7693 0.0000
# 2 31.8117 93.2049 41.0030 0.0000 0.3510 0.0000
# 3 41.6739 41.0030 109.4537 0.0000 -8.7482 0.0000
# 4 0.0000 0.0000 0.0000 20.1702 0.0000 -2.1753
# 5 -5.7693 0.3510 -8.7482 0.0000 35.0063 0.0000
# 6 0.0000 0.0000 0.0000 -2.1753 0.0000 19.9161
#
#
#
# Elastic Compliance Matrix: (Units=1/GPa)
#
#
# Indices 1 2 3 4 5 6 
#
# 1 0.021350 -0.004536 -0.006270 0.000000 0.001997 0.000000
# 2 -0.004536 0.013874 -0.003613 0.000000 -0.001790 0.000000
# 3 -0.006270 -0.003613 0.013058 0.000000 0.002266 0.000000
# 4 0.000000 0.000000 0.000000 0.050169 0.000000 0.005480
# 5 0.001997 -0.001790 0.002266 0.000000 0.029480 0.000000
# 6 0.000000 0.000000 0.000000 0.005480 0.000000 0.050809
#
#
# Mechanical properties :
#
#
# Convention : Reuss Voigt Hill
#
# Bulk Modulus (GPa) = 51.43178 55.33457 53.38318
# Shear Modulus (GPa) = 23.35797 25.32154 24.33975
#
# Velocity S-wave (km/s) = 3.65075 3.80111 3.72669
# Velocity P-wave (km/s) = 6.86422 7.13010 6.99842
#
# Compressibility (1/GPa) = 0.01944323
#
# Stress axis : x y z
#
# Youngs Moduli (GPa) = 46.83795 72.07961 76.58005
#
# Poissons Ratio (x) = 0.32697 0.48016
# Poissons Ratio (y) = 0.21247 0.27669
# Poissons Ratio (z) = 0.29367 0.26043
#
# Static dielectric constant tensor:
#      x y z
#    x 2.875180 0.000000 -0.081630 
#    y 0.000000 58.886580 0.000000 
#    z -0.081630 0.000000 3.432200 
# 
# 
# High freq. dielectric constant tensor:
#      x y z
#    x 1.639180 0.000000 -0.007920 
#    y 0.000000 1.671270 0.000000 
#    z -0.007920 0.000000 1.687300 
# 
# From -- ./inp_files/134800.got.cif
#   From: 2010.06.25/outbox.cif.g09.slc.cpg/sg12_68_cif.got.tgz:134800.got - 2010.06.28 00:19:55.
