data_PCOD8080528
_publ_section_title
;
Structure prediction by ZEFSAII (Michael W. Deem and Ramdas Pophale) SiO2 
 PCOD8080528
Probable space group: C 2/M
;
_chemical_formula_sum "Si O2"
_cell_formula_units_Z 48
_cell_length_a 28.052199
_cell_length_b 9.098063
_cell_length_c 11.219361
_cell_angle_alpha 90.000000
_cell_angle_beta 76.639165
_cell_angle_gamma 90.000000
_cell_volume 2785.911925
_symmetry_space_group_name_H-M "C 2/M"
_symmetry_group_IT_number 12
_symmetry_cell_setting 'monoclinic'
loop_
_space_group_symop_operation_xyz
x,y,z
-x,y,-z
-x,-y,-z
x,-y,z
1/2+x,1/2+y,z
1/2-x,1/2+y,-z
1/2-x,1/2-y,-z
1/2+x,1/2-y,z
loop_
_atom_site_type_symbol
_atom_site_label
_atom_site_fract_x
_atom_site_fract_y
_atom_site_fract_z
Si Si1 0.815420 0.832862 0.894373
Si Si2 0.004704 0.662266 0.638852
Si Si3 0.608992 0.172619 0.527384
Si Si4 0.771209 0.170520 0.169664
Si Si5 0.708304 0.826202 0.601007
Si Si6 0.910894 0.831023 0.703281
O O1 0.783156 0.723430 0.833307
O O2 0.872413 0.807185 0.832458
O O3 0.799480 0.000000 0.873105
O O4 0.807905 0.801446 0.038440
O O5 0.996330 0.500000 0.697729
O O6 0.060340 0.717676 0.632075
O O7 0.000000 0.658857 0.500000
O O8 0.963155 0.767597 0.717358
O O9 0.656154 0.216905 0.575662
O O10 0.610969 0.254282 0.400553
O O11 0.606943 0.000000 0.500112
O O12 0.791808 0.265420 0.265739
O O13 0.768193 0.000000 0.208099
O O14 0.750000 0.750000 0.500000
O O15 0.717122 0.000000 0.596453
O O16 0.918805 0.000000 0.667220
#
# Coordination Sequence:
#
# PCOD8080528 Si02
#       6
#     8   8   8   8   8   8
#     4   9  19  34  50  70  98 128 158 196 238 282
#     4   8  15  29  46  65  92 124 156 191 233 278
#     4   9  19  33  47  66  96 130 157 188 233 283
#     4  10  20  34  51  71  96 127 162 197 236 280
#     4  11  22  35  51  72  98 127 160 195 235 284
#     4  10  18  28  47  74  98 120 153 196 237 278
#
# _framework density 17.229547
#
# number of rings (size 3 to 8) (size 9 to 14) (size 15 to 20)
#    0.000    2.500    0.000    3.500    0.000    9.000 
#    0.000    0.000    0.000    1.000    0.000    7.000 
#    0.000    0.000    0.000    0.000    0.000    0.000 
#
# Total GULP energy -297564.205611 kJ/mol
# GULP energy per Si atom -12398.508567 kJ/mol
# Density = 1.719033 g / cm^3
# Si number density = 17.229547 Si / 1000 Ang^3
#
#
#
# Elastic Constant Matrix: (Units=GPa)
#
#
# Indices 1 2 3 4 5 6 
#
# 1 149.3866 61.3093 62.0766 0.0000 -15.2457 0.0000
# 2 61.3093 82.5701 45.5515 0.0000 -5.9546 0.0000
# 3 62.0766 45.5515 78.5715 0.0000 -8.5799 0.0000
# 4 0.0000 0.0000 0.0000 25.7477 0.0000 -1.5051
# 5 -15.2457 -5.9546 -8.5799 0.0000 25.8859 0.0000
# 6 0.0000 0.0000 0.0000 -1.5051 0.0000 29.6720
#
#
#
# Elastic Compliance Matrix: (Units=1/GPa)
#
#
# Indices 1 2 3 4 5 6 
#
# 1 0.011582 -0.005157 -0.005754 0.000000 0.003728 0.000000
# 2 -0.005157 0.020114 -0.007692 0.000000 -0.000960 0.000000
# 3 -0.005754 -0.007692 0.021964 0.000000 0.002122 0.000000
# 4 0.000000 0.000000 0.000000 0.038954 0.000000 0.001976
# 5 0.003728 -0.000960 0.002122 0.000000 0.041309 0.000000
# 6 0.000000 0.000000 0.000000 0.001976 0.000000 0.033802
#
#
# Mechanical properties :
#
#
# Convention : Reuss Voigt Hill
#
# Bulk Modulus (GPa) = 60.76955 72.04477 66.40716
# Shear Modulus (GPa) = 23.76271 25.70051 24.73161
#
# Velocity S-wave (km/s) = 3.71776 3.86638 3.79280
# Velocity P-wave (km/s) = 7.33322 7.86367 7.60307
#
# Compressibility (1/GPa) = 0.01645561
#
# Stress axis : x y z
#
# Youngs Moduli (GPa) = 86.34320 49.71710 45.52901
#
# Poissons Ratio (x) = 0.25637 0.26196
# Poissons Ratio (y) = 0.44523 0.35020
# Poissons Ratio (z) = 0.49679 0.38241
#
# Static dielectric constant tensor:
#      x y z
#    x 3.544540 0.000000 -0.201820 
#    y 0.000000 3.338250 0.000000 
#    z -0.201820 0.000000 3.034710 
# 
# 
# High freq. dielectric constant tensor:
#      x y z
#    x 1.668220 0.000000 -0.020120 
#    y 0.000000 1.674510 0.000000 
#    z -0.020120 0.000000 1.637270 
# 
# From -- ./inp_files/179155.got.cif
#   From: 2010.06.25/outbox.cif.g09.slc.cpg/sg12_90_cif.got.tgz:179155.got - 2010.06.28 00:19:55.
