data_PCOD8080827
_publ_section_title
;
Structure prediction by ZEFSAII (Michael W. Deem and Ramdas Pophale) SiO2 
 PCOD8080827
Probable space group: C 2/M
;
_chemical_formula_sum "Si O2"
_cell_formula_units_Z 40
_cell_length_a 13.080046
_cell_length_b 23.904266
_cell_length_c 8.754952
_cell_angle_alpha 90.000000
_cell_angle_beta 45.936867
_cell_angle_gamma 90.000000
_cell_volume 1967.025152
_symmetry_space_group_name_H-M "C 2/M"
_symmetry_group_IT_number 12
_symmetry_cell_setting 'monoclinic'
loop_
_space_group_symop_operation_xyz
x,y,z
-x,y,-z
-x,-y,-z
x,-y,z
1/2+x,1/2+y,z
1/2-x,1/2+y,-z
1/2-x,1/2-y,-z
1/2+x,1/2-y,z
loop_
_atom_site_type_symbol
_atom_site_label
_atom_site_fract_x
_atom_site_fract_y
_atom_site_fract_z
Si Si1 0.196021 0.563301 0.648266
Si Si2 0.292067 0.669038 0.396598
Si Si3 0.526367 0.232192 0.796494
Si Si4 0.861683 0.339156 0.741577
Si Si5 0.635914 0.062982 0.052155
O O1 0.236582 0.500000 0.559337
O O2 0.299299 0.604366 0.443641
O O3 0.031616 0.575609 0.784207
O O4 0.216535 0.571741 0.808031
O O5 0.439119 0.702383 0.276853
O O6 0.165287 0.695642 0.623660
O O7 0.263623 0.677677 0.244426
O O8 0.396942 0.211649 0.822352
O O9 0.500000 0.221133 0.000000
O O10 0.801634 0.393138 0.892608
O O11 0.000000 0.356027 0.500000
O O12 0.661623 0.000000 0.084520
#
# Coordination Sequence:
#
# PCOD8080827 Si02
#       5
#     8   8   8   8   8
#     4   9  16  28  47  69  96 128 156 185 237 295
#     4  10  20  32  49  73  96 127 162 195 238 279
#     4  10  20  34  49  65  98 131 161 198 235 279
#     4  10  18  29  46  71 101 124 159 195 232 282
#     4   9  16  26  45  71 100 130 148 180 244 300
#
# _framework density 20.335274999999999
#
# number of rings (size 3 to 8) (size 9 to 14) (size 15 to 20)
#    0.000    2.400    4.000    2.400    0.000    2.000 
#    0.000    4.000    0.000    0.600    0.000    0.000 
#    0.000   24.800    0.000    0.000    0.000    0.000 
#
# Total GULP energy -247891.234546 kJ/mol
# GULP energy per Si atom -12394.561727 kJ/mol
# Density = 2.028899 g / cm^3
# Si number density = 20.335275 Si / 1000 Ang^3
#
#
#
# Elastic Constant Matrix: (Units=GPa)
#
#
# Indices 1 2 3 4 5 6 
#
# 1 49.3130 61.5430 39.4746 0.0000 23.6402 0.0000
# 2 61.5430 152.6673 54.0628 0.0000 23.2343 0.0000
# 3 39.4746 54.0628 67.1041 0.0000 34.3022 0.0000
# 4 0.0000 0.0000 0.0000 31.4735 0.0000 12.1700
# 5 23.6402 23.2343 34.3022 0.0000 22.4226 0.0000
# 6 0.0000 0.0000 0.0000 12.1700 0.0000 12.8818
#
#
#
# Elastic Compliance Matrix: (Units=1/GPa)
#
#
# Indices 1 2 3 4 5 6 
#
# 1 0.074778 -0.023367 0.012663 0.000000 -0.073998 0.000000
# 2 -0.023367 0.016812 -0.015997 0.000000 0.031687 0.000000
# 3 0.012663 -0.015997 0.085747 0.000000 -0.127951 0.000000
# 4 0.000000 0.000000 0.000000 0.050060 0.000000 -0.047294
# 5 -0.073998 0.031687 -0.127951 0.000000 0.285520 0.000000
# 6 0.000000 0.000000 0.000000 -0.047294 0.000000 0.122309
#
#
# Mechanical properties :
#
#
# Convention : Reuss Voigt Hill
#
# Bulk Modulus (GPa) = 8.06870 64.36057 36.21463
# Shear Modulus (GPa) = 6.84988 20.95586 13.90287
#
# Velocity S-wave (km/s) = 1.83733 3.21365 2.61757
# Velocity P-wave (km/s) = 2.91161 6.74452 5.19452
#
# Compressibility (1/GPa) = 0.12393571
#
# Stress axis : x y z
#
# Youngs Moduli (GPa) = 13.37294 59.48053 11.66225
#
# Poissons Ratio (x) = 1.38988 -0.14768
# Poissons Ratio (y) = 0.31248 0.18656
# Poissons Ratio (z) = -0.16934 0.95150
#
# Static dielectric constant tensor:
#      x y z
#    x 3.411100 0.000000 0.373450 
#    y 0.000000 4.006920 0.000000 
#    z 0.373450 0.000000 3.533770 
# 
# 
# High freq. dielectric constant tensor:
#      x y z
#    x 1.745660 0.000000 0.038610 
#    y 0.000000 1.804020 0.000000 
#    z 0.038610 0.000000 1.778400 
# 
# From -- ./inp_files/50121.got.cif
#   From: 2010.06.25/outbox.cif.g09.slc.cpg/sg12_26_cif.got.tgz:50121.got - 2010.06.28 00:19:55.
