data_PCOD8080672
_publ_section_title
;
Structure prediction by ZEFSAII (Michael W. Deem and Ramdas Pophale) SiO2 
 PCOD8080672
Probable space group: C 2/M
;
_chemical_formula_sum "Si O2"
_cell_formula_units_Z 56
_cell_length_a 20.614290
_cell_length_b 9.001150
_cell_length_c 18.953820
_cell_angle_alpha 90.000000
_cell_angle_beta 112.435551
_cell_angle_gamma 90.000000
_cell_volume 3250.727057
_symmetry_space_group_name_H-M "C 2/M"
_symmetry_group_IT_number 12
_symmetry_cell_setting 'monoclinic'
loop_
_space_group_symop_operation_xyz
x,y,z
-x,y,-z
-x,-y,-z
x,-y,z
1/2+x,1/2+y,z
1/2-x,1/2+y,-z
1/2-x,1/2-y,-z
1/2+x,1/2-y,z
loop_
_atom_site_type_symbol
_atom_site_label
_atom_site_fract_x
_atom_site_fract_y
_atom_site_fract_z
Si Si1 0.866707 0.667920 0.853592
Si Si2 0.041150 0.827962 0.303346
Si Si3 0.308014 0.672796 0.701076
Si Si4 0.981048 0.333175 0.152487
Si Si5 0.445283 0.323640 0.533787
Si Si6 0.076202 0.832384 0.996715
Si Si7 0.786579 0.176708 0.448431
O O1 0.838473 0.500000 0.848984
O O2 0.814769 0.762728 0.782759
O O3 0.869257 0.742528 0.931788
O O4 0.943490 0.669064 0.852277
O O5 0.120904 0.801781 0.312813
O O6 0.034024 0.765701 0.379759
O O7 0.986373 0.739770 0.231853
O O8 0.021163 0.000000 0.289157
O O9 0.288271 0.500000 0.697126
O O10 0.246724 0.763184 0.637352
O O11 0.952716 0.500000 0.148824
O O12 0.926461 0.242655 0.081451
O O13 0.500000 0.256427 0.500000
O O14 0.448905 0.500000 0.536096
O O15 0.367405 0.272615 0.480893
O O16 0.103647 0.000000 0.999678
O O17 0.000000 0.830564 0.000000
O O18 0.750000 0.250000 0.500000
O O19 0.778106 0.000000 0.450103
#
# Coordination Sequence:
#
# PCOD8080672 Si02
#       7
#     8   8   8   8   8   8   8
#     4   9  16  25  37  57  85 118 151 189 232 277
#     4   9  16  28  44  63  86 116 154 193 233 278
#     4  10  18  29  44  66  91 120 156 195 235 280
#     4   9  16  24  36  56  82 115 151 189 229 275
#     4   9  18  33  51  70  93 123 160 200 241 285
#     4   9  15  23  35  53  80 117 153 187 226 275
#     4  11  20  32  50  72  94 122 158 199 241 286
#
# _framework density 17.226915999999999
#
# number of rings (size 3 to 8) (size 9 to 14) (size 15 to 20)
#    0.000    2.571    1.429    2.143    0.000    5.714 
#    0.000    0.000    0.000    3.857    0.000    0.000 
#    0.000    1.143    0.000    3.143    0.000    4.571 
#
# Total GULP energy -347173.712595 kJ/mol
# GULP energy per Si atom -12399.061164 kJ/mol
# Density = 1.718771 g / cm^3
# Si number density = 17.226916 Si / 1000 Ang^3
#
#
#
# Elastic Constant Matrix: (Units=GPa)
#
#
# Indices 1 2 3 4 5 6 
#
# 1 51.4148 28.6267 43.5148 0.0000 -0.3371 0.0000
# 2 28.6267 110.6240 70.4527 0.0000 -2.6716 0.0000
# 3 43.5148 70.4527 180.2738 0.0000 -8.0105 0.0000
# 4 0.0000 0.0000 0.0000 38.7042 0.0000 1.1256
# 5 -0.3371 -2.6716 -8.0105 0.0000 11.6579 0.0000
# 6 0.0000 0.0000 0.0000 1.1256 0.0000 8.2030
#
#
#
# Elastic Compliance Matrix: (Units=1/GPa)
#
#
# Indices 1 2 3 4 5 6 
#
# 1 0.025590 -0.003560 -0.004940 0.000000 -0.003470 0.000000
# 2 -0.003560 0.012533 -0.004039 0.000000 -0.000006 0.000000
# 3 -0.004940 -0.004039 0.008531 0.000000 0.004793 0.000000
# 4 0.000000 0.000000 0.000000 0.025941 0.000000 -0.003560
# 5 -0.003470 -0.000006 0.004793 0.000000 0.088971 0.000000
# 6 0.000000 0.000000 0.000000 -0.003560 0.000000 0.122394
#
#
# Mechanical properties :
#
#
# Convention : Reuss Voigt Hill
#
# Bulk Modulus (GPa) = 46.34690 69.72234 58.03462
# Shear Modulus (GPa) = 15.81133 25.02758 20.41946
#
# Velocity S-wave (km/s) = 3.03285 3.81572 3.44659
# Velocity P-wave (km/s) = 6.26310 7.74427 7.04273
#
# Compressibility (1/GPa) = 0.02157642
#
# Stress axis : x y z
#
# Youngs Moduli (GPa) = 39.07807 79.78965 117.21936
#
# Poissons Ratio (x) = 0.28403 0.57906
# Poissons Ratio (y) = 0.13911 0.47345
# Poissons Ratio (z) = 0.19304 0.32227
#
# Static dielectric constant tensor:
#      x y z
#    x 2.706530 0.000000 -0.044230 
#    y 0.000000 3.265000 0.000000 
#    z -0.044230 0.000000 3.527320 
# 
# 
# High freq. dielectric constant tensor:
#      x y z
#    x 1.585590 0.000000 -0.003080 
#    y 0.000000 1.667600 0.000000 
#    z -0.003080 0.000000 1.688130 
# 
# From -- ./inp_files/319342.got.cif
#   From: 2010.06.25/outbox.cif.g09.slc.cpg/sg12_160_cif.got.tgz:319342.got - 2010.06.28 00:19:55.
