data_PCOD8080162
_publ_section_title
;
Structure prediction by ZEFSAII (Michael W. Deem and Ramdas Pophale) SiO2 
 PCOD8080162
Probable space group: C 2/M
;
_chemical_formula_sum "Si O2"
_cell_formula_units_Z 64
_cell_length_a 21.597313
_cell_length_b 13.034211
_cell_length_c 15.417109
_cell_angle_alpha 90.000000
_cell_angle_beta 92.671773
_cell_angle_gamma 90.000000
_cell_volume 4335.259120
_symmetry_space_group_name_H-M "C 2/M"
_symmetry_group_IT_number 12
_symmetry_cell_setting 'monoclinic'
loop_
_space_group_symop_operation_xyz
x,y,z
-x,y,-z
-x,-y,-z
x,-y,z
1/2+x,1/2+y,z
1/2-x,1/2+y,-z
1/2-x,1/2-y,-z
1/2+x,1/2-y,z
loop_
_atom_site_type_symbol
_atom_site_label
_atom_site_fract_x
_atom_site_fract_y
_atom_site_fract_z
Si Si1 0.936430 0.616806 0.252478
Si Si2 0.971922 0.114489 0.403407
Si Si3 0.621941 0.882924 0.216775
Si Si4 0.044040 0.699267 0.355741
Si Si5 0.015018 0.619685 0.093880
Si Si6 0.263284 0.883674 0.676788
Si Si7 0.145094 0.752408 0.641675
Si Si8 0.145231 0.380075 0.477065
O O1 0.913431 0.500000 0.240083
O O2 0.968836 0.660514 0.166388
O O3 0.879438 0.689206 0.276327
O O4 0.986841 0.622178 0.333506
O O5 0.903712 0.164505 0.397576
O O6 0.000000 0.108481 0.500000
O O7 0.019500 0.184280 0.352794
O O8 0.968291 0.000000 0.362819
O O9 0.593376 0.803967 0.282449
O O10 0.588325 0.860688 0.122127
O O11 0.696178 0.869157 0.230885
O O12 0.605012 0.000000 0.244456
O O13 0.077554 0.665004 0.446729
O O14 0.001771 0.500000 0.085437
O O15 0.000000 0.672789 0.000000
O O16 0.205831 0.808795 0.679843
O O17 0.304721 0.858530 0.594917
O O18 0.238944 0.000000 0.669296
O O19 0.165606 0.675822 0.566378
O O20 0.139063 0.500000 0.495891
#
# Coordination Sequence:
#
# PCOD8080162 Si02
#       8
#     8   8   8   8   8   8   8   8
#     4   9  17  26  40  63  88 108 128 163 208 253
#     4  10  19  29  37  51  76 106 141 176 209 239
#     4   8  14  26  45  65  84 103 128 167 204 242
#     4   9  15  27  42  58  78 105 134 168 213 245
#     4   8  13  24  44  69  91 106 121 149 201 259
#     4   9  18  30  42  55  76 108 146 177 201 229
#     4  11  19  28  40  56  79 112 144 172 207 239
#     4  10  18  28  42  59  77 103 141 180 210 243
#
# _framework density 14.762669000000001
#
# number of rings (size 3 to 8) (size 9 to 14) (size 15 to 20)
#    0.000    2.750    1.250    3.750    0.000    0.000 
#    0.000    1.875    0.000    3.750    0.000    0.000 
#    0.000   50.000    0.000    0.000    0.000    0.000 
#
# Total GULP energy -396433.689936 kJ/mol
# GULP energy per Si atom -12388.552811 kJ/mol
# Density = 1.472907 g / cm^3
# Si number density = 14.762669 Si / 1000 Ang^3
#
#
#
# Elastic Constant Matrix: (Units=GPa)
#
#
# Indices 1 2 3 4 5 6 
#
# 1 95.7538 47.7347 42.1637 0.0000 10.7185 0.0000
# 2 47.7347 79.0389 27.5586 0.0000 3.5747 0.0000
# 3 42.1637 27.5586 78.2778 0.0000 11.9753 0.0000
# 4 0.0000 0.0000 0.0000 8.7845 0.0000 -0.5634
# 5 10.7185 3.5747 11.9753 0.0000 16.6275 0.0000
# 6 0.0000 0.0000 0.0000 -0.5634 0.0000 25.5593
#
#
#
# Elastic Compliance Matrix: (Units=1/GPa)
#
#
# Indices 1 2 3 4 5 6 
#
# 1 0.017848 -0.008518 -0.005771 0.000000 -0.005518 0.000000
# 2 -0.008518 0.018493 -0.002421 0.000000 0.003259 0.000000
# 3 -0.005771 -0.002421 0.018079 0.000000 -0.008780 0.000000
# 4 0.000000 0.000000 0.000000 0.113998 0.000000 0.002513
# 5 -0.005518 0.003259 -0.008780 0.000000 0.069321 0.000000
# 6 0.000000 0.000000 0.000000 0.002513 0.000000 0.039180
#
#
# Mechanical properties :
#
#
# Convention : Reuss Voigt Hill
#
# Bulk Modulus (GPa) = 47.61723 54.22050 50.91887
# Shear Modulus (GPa) = 15.75598 19.23517 17.49557
#
# Velocity S-wave (km/s) = 3.27048 3.61357 3.44630
# Velocity P-wave (km/s) = 6.82543 7.36331 7.09947
#
# Compressibility (1/GPa) = 0.02100080
#
# Stress axis : x y z
#
# Youngs Moduli (GPa) = 56.02713 54.07458 55.31229
#
# Poissons Ratio (x) = 0.46059 0.31921
# Poissons Ratio (y) = 0.47722 0.13392
# Poissons Ratio (z) = 0.32334 0.13093
#
# Static dielectric constant tensor:
#      x y z
#    x 2.868920 0.000000 0.151400 
#    y 0.000000 2.854390 0.000000 
#    z 0.151400 0.000000 2.867060 
# 
# 
# High freq. dielectric constant tensor:
#      x y z
#    x 1.558050 0.000000 0.012710 
#    y 0.000000 1.548210 0.000000 
#    z 0.012710 0.000000 1.534820 
# 
# From -- ./inp_files/282565.got.cif
#   From: 2010.06.25/outbox.cif.g09.slc.cpg/sg12_142_cif.got.tgz:282565.got - 2010.06.28 00:19:55.
