data_PCOD8080650
_publ_section_title
;
Structure prediction by ZEFSAII (Michael W. Deem and Ramdas Pophale) SiO2 
 PCOD8080650
Probable space group: C 2/M
;
_chemical_formula_sum "Si O2"
_cell_formula_units_Z 56
_cell_length_a 27.539092
_cell_length_b 9.099389
_cell_length_c 14.277753
_cell_angle_alpha 90.000000
_cell_angle_beta 104.810643
_cell_angle_gamma 90.000000
_cell_volume 3458.975918
_symmetry_space_group_name_H-M "C 2/M"
_symmetry_group_IT_number 12
_symmetry_cell_setting 'monoclinic'
loop_
_space_group_symop_operation_xyz
x,y,z
-x,y,-z
-x,-y,-z
x,-y,z
1/2+x,1/2+y,z
1/2-x,1/2+y,-z
1/2-x,1/2-y,-z
1/2+x,1/2-y,z
loop_
_atom_site_type_symbol
_atom_site_label
_atom_site_fract_x
_atom_site_fract_y
_atom_site_fract_z
Si Si1 0.057947 0.173265 0.038632
Si Si2 0.206800 0.167221 0.114804
Si Si3 0.682152 0.170516 0.786357
Si Si4 0.819474 0.829452 0.605636
Si Si5 0.869199 0.325582 0.792928
Si Si6 0.632287 0.334768 0.916984
Si Si7 0.204844 0.670277 0.589836
O O1 0.086865 0.226734 0.958972
O O2 0.067359 0.000000 0.058466
O O3 0.079585 0.259016 0.138972
O O4 0.000000 0.213596 0.000000
O O5 0.264713 0.213340 0.140847
O O6 0.177806 0.279527 0.166874
O O7 0.200867 0.000000 0.151903
O O8 0.184440 0.176576 0.999726
O O9 0.637625 0.247067 0.822598
O O10 0.681558 0.219385 0.677675
O O11 0.671851 0.000000 0.789322
O O12 0.860733 0.740370 0.685379
O O13 0.821474 0.770044 0.500879
O O14 0.764561 0.801981 0.622834
O O15 0.833900 0.000000 0.612221
O O16 0.873486 0.500000 0.789539
O O17 0.619826 0.500000 0.881787
O O18 0.194071 0.500000 0.562128
#
# Coordination Sequence:
#
# PCOD8080650 Si02
#       7
#     8   8   8   8   8   8   8
#     4   9  19  37  56  71  92 123 156 194 241 287
#     4   9  17  31  44  60  91 130 165 193 223 269
#     4  10  18  29  44  63  94 131 160 190 231 274
#     4  10  18  31  47  64  92 128 164 199 233 275
#     4  11  20  29  47  73  98 123 156 198 239 281
#     4   9  18  29  45  68  92 118 156 196 229 278
#     4   9  18  30  44  64  92 127 166 202 230 265
#
# _framework density 16.189762999999999
#
# number of rings (size 3 to 8) (size 9 to 14) (size 15 to 20)
#    0.000    2.429    1.429    3.000    0.000    4.286 
#    0.000    0.000    0.000    0.000    0.000    1.000 
#    0.000    8.000    0.000    0.000    0.000    0.000 
#
# Total GULP energy -347169.189254 kJ/mol
# GULP energy per Si atom -12398.899616 kJ/mol
# Density = 1.615291 g / cm^3
# Si number density = 16.189763 Si / 1000 Ang^3
#
#
#
# Elastic Constant Matrix: (Units=GPa)
#
#
# Indices 1 2 3 4 5 6 
#
# 1 77.1393 36.7706 56.4736 0.0000 -2.9763 0.0000
# 2 36.7706 83.6808 59.5822 0.0000 -0.2200 0.0000
# 3 56.4736 59.5822 105.0031 0.0000 -6.5546 0.0000
# 4 0.0000 0.0000 0.0000 29.2862 0.0000 -4.8912
# 5 -2.9763 -0.2200 -6.5546 0.0000 18.6026 0.0000
# 6 0.0000 0.0000 0.0000 -4.8912 0.0000 20.3317
#
#
#
# Elastic Compliance Matrix: (Units=1/GPa)
#
#
# Indices 1 2 3 4 5 6 
#
# 1 0.021591 -0.002028 -0.010478 0.000000 -0.000261 0.000000
# 2 -0.002028 0.020516 -0.010794 0.000000 -0.003885 0.000000
# 3 -0.010478 -0.010794 0.021647 0.000000 0.005823 0.000000
# 4 0.000000 0.000000 0.000000 0.035575 0.000000 0.008558
# 5 -0.000261 -0.003885 0.005823 0.000000 0.055720 0.000000
# 6 0.000000 0.000000 0.000000 0.008558 0.000000 0.051243
#
#
# Mechanical properties :
#
#
# Convention : Reuss Voigt Hill
#
# Bulk Modulus (GPa) = 58.28929 63.49734 60.89331
# Shear Modulus (GPa) = 19.33423 21.17723 20.25573
#
# Velocity S-wave (km/s) = 3.45951 3.62064 3.54099
# Velocity P-wave (km/s) = 7.21384 7.53555 7.37645
#
# Compressibility (1/GPa) = 0.01715581
#
# Stress axis : x y z
#
# Youngs Moduli (GPa) = 46.31581 48.74238 46.19576
#
# Poissons Ratio (x) = 0.09883 0.48404
# Poissons Ratio (y) = 0.09391 0.49861
# Poissons Ratio (z) = 0.48530 0.52610
#
# Static dielectric constant tensor:
#      x y z
#    x 2.769170 0.000000 -0.068380 
#    y 0.000000 3.004650 0.000000 
#    z -0.068380 0.000000 3.058570 
# 
# 
# High freq. dielectric constant tensor:
#      x y z
#    x 1.581760 0.000000 -0.013250 
#    y 0.000000 1.622570 0.000000 
#    z -0.013250 0.000000 1.618240 
# 
# From -- ./inp_files/243013.got.cif
#   From: 2010.06.25/outbox.cif.g09.slc.cpg/sg12_122_cif.got.tgz:243013.got - 2010.06.28 00:19:55.
