data_PCOD8080770
_publ_section_title
;
Structure prediction by ZEFSAII (Michael W. Deem and Ramdas Pophale) SiO2 
 PCOD8080770
Probable space group: C 2/M
;
_chemical_formula_sum "Si O2"
_cell_formula_units_Z 64
_cell_length_a 27.822464
_cell_length_b 9.180277
_cell_length_c 14.630737
_cell_angle_alpha 90.000000
_cell_angle_beta 90.612618
_cell_angle_gamma 90.000000
_cell_volume 3736.738897
_symmetry_space_group_name_H-M "C 2/M"
_symmetry_group_IT_number 12
_symmetry_cell_setting 'monoclinic'
loop_
_space_group_symop_operation_xyz
x,y,z
-x,y,-z
-x,-y,-z
x,-y,z
1/2+x,1/2+y,z
1/2-x,1/2+y,-z
1/2-x,1/2-y,-z
1/2+x,1/2-y,z
loop_
_atom_site_type_symbol
_atom_site_label
_atom_site_fract_x
_atom_site_fract_y
_atom_site_fract_z
Si Si1 0.306220 0.669482 0.257643
Si Si2 0.906090 0.669479 0.676466
Si Si3 0.008033 0.331617 0.601904
Si Si4 0.900901 0.163700 0.337241
Si Si5 0.163899 0.835102 0.208100
Si Si6 0.238283 0.838465 0.375545
Si Si7 0.237826 0.673798 0.093878
Si Si8 0.650109 0.333689 0.474410
O O1 0.298884 0.500000 0.271862
O O2 0.363587 0.707851 0.254859
O O3 0.282165 0.737296 0.347963
O O4 0.280660 0.720336 0.164037
O O5 0.893780 0.500000 0.689960
O O6 0.886430 0.759717 0.763085
O O7 0.882941 0.722898 0.581835
O O8 0.963030 0.695522 0.667298
O O9 0.019422 0.500000 0.588197
O O10 0.053314 0.265676 0.655819
O O11 0.000000 0.261961 0.500000
O O12 0.865939 0.176754 0.422722
O O13 0.920382 0.000000 0.325285
O O14 0.198336 0.834510 0.295363
O O15 0.187375 0.739002 0.127956
O O16 0.154311 0.000000 0.172967
O O17 0.207057 0.788469 0.464513
O O18 0.259525 0.000000 0.389005
O O19 0.233643 0.500000 0.082642
O O20 0.250000 0.750000 0.000000
O O21 0.644070 0.500000 0.436717
#
# Coordination Sequence:
#
# PCOD8080770 Si02
#       8
#     8   8   8   8   8   8   8   8
#     4   9  19  33  46  66  95 124 155 196 238 283
#     4  10  18  29  46  66  94 127 163 206 247 282
#     4  10  20  33  46  66  94 126 168 214 251 283
#     4  10  20  32  46  64  90 125 166 205 243 284
#     4   9  17  30  48  72 100 125 157 196 238 287
#     4   8  15  27  42  61  88 122 157 192 229 274
#     4  10  19  33  54  78 104 129 156 190 236 290
#     4   9  17  28  42  62  88 121 163 204 238 277
#
# _framework density 17.127233
#
# number of rings (size 3 to 8) (size 9 to 14) (size 15 to 20)
#    0.000    2.625    1.250    1.875    0.000    5.750 
#    0.000    0.000    0.000    0.000    0.000    0.875 
#    0.000    7.000    0.000    0.000    0.000    0.000 
#
# Total GULP energy -396599.732670 kJ/mol
# GULP energy per Si atom -12393.741646 kJ/mol
# Density = 1.708825 g / cm^3
# Si number density = 17.127233 Si / 1000 Ang^3
#
#
#
# Elastic Constant Matrix: (Units=GPa)
#
#
# Indices 1 2 3 4 5 6 
#
# 1 106.7580 50.6258 25.9990 0.0000 -1.2378 0.0000
# 2 50.6258 74.6331 21.5789 0.0000 -5.5069 0.0000
# 3 25.9990 21.5789 45.5144 0.0000 -9.4435 0.0000
# 4 0.0000 0.0000 0.0000 19.7291 0.0000 -7.1022
# 5 -1.2378 -5.5069 -9.4435 0.0000 18.3337 0.0000
# 6 0.0000 0.0000 0.0000 -7.1022 0.0000 29.9959
#
#
#
# Elastic Compliance Matrix: (Units=1/GPa)
#
#
# Indices 1 2 3 4 5 6 
#
# 1 0.014762 -0.008848 -0.005131 0.000000 -0.004304 0.000000
# 2 -0.008848 0.020846 -0.004091 0.000000 0.003557 0.000000
# 3 -0.005131 -0.004091 0.029688 0.000000 0.013717 0.000000
# 4 0.000000 0.000000 0.000000 0.055409 0.000000 0.013119
# 5 -0.004304 0.003557 0.013717 0.000000 0.062388 0.000000
# 6 0.000000 0.000000 0.000000 0.013119 0.000000 0.036444
#
#
# Mechanical properties :
#
#
# Convention : Reuss Voigt Hill
#
# Bulk Modulus (GPa) = 34.29791 47.03475 40.66633
# Shear Modulus (GPa) = 18.83985 22.19187 20.51586
#
# Velocity S-wave (km/s) = 3.32021 3.60350 3.46475
# Velocity P-wave (km/s) = 5.89638 6.69591 6.30882
#
# Compressibility (1/GPa) = 0.02915629
#
# Stress axis : x y z
#
# Youngs Moduli (GPa) = 67.74018 47.97104 33.68416
#
# Poissons Ratio (x) = 0.42444 0.17282
# Poissons Ratio (y) = 0.59935 0.13781
# Poissons Ratio (z) = 0.34756 0.19626
#
# Static dielectric constant tensor:
#      x y z
#    x 3.297280 0.000000 -0.089090 
#    y 0.000000 3.287450 0.000000 
#    z -0.089090 0.000000 2.986510 
# 
# 
# High freq. dielectric constant tensor:
#      x y z
#    x 1.655980 0.000000 -0.012500 
#    y 0.000000 1.666700 0.000000 
#    z -0.012500 0.000000 1.621200 
# 
# From -- ./inp_files/248413.got.cif
#   From: 2010.06.25/outbox.cif.g09.slc.cpg/sg12_125_cif.got.tgz:248413.got - 2010.06.28 00:19:55.
