data_PCOD8080972
_publ_section_title
;
Structure prediction by ZEFSAII (Michael W. Deem and Ramdas Pophale) SiO2 
 PCOD8080972
Probable space group: C 2/M
;
_chemical_formula_sum "Si O2"
_cell_formula_units_Z 48
_cell_length_a 30.132541
_cell_length_b 9.062652
_cell_length_c 10.146660
_cell_angle_alpha 90.000000
_cell_angle_beta 101.020872
_cell_angle_gamma 90.000000
_cell_volume 2719.756116
_symmetry_space_group_name_H-M "C 2/M"
_symmetry_group_IT_number 12
_symmetry_cell_setting 'monoclinic'
loop_
_space_group_symop_operation_xyz
x,y,z
-x,y,-z
-x,-y,-z
x,-y,z
1/2+x,1/2+y,z
1/2-x,1/2+y,-z
1/2-x,1/2-y,-z
1/2+x,1/2-y,z
loop_
_atom_site_type_symbol
_atom_site_label
_atom_site_fract_x
_atom_site_fract_y
_atom_site_fract_z
Si Si1 0.469231 0.826115 0.859931
Si Si2 0.517906 0.330425 0.654446
Si Si3 0.383165 0.330787 0.208158
Si Si4 0.117865 0.826540 0.096145
Si Si5 0.707918 0.166835 0.137927
Si Si6 0.204532 0.334027 0.822110
O O1 0.493408 0.779108 0.739809
O O2 0.421321 0.744729 0.838781
O O3 0.460974 0.000000 0.855734
O O4 0.500000 0.775926 0.000000
O O5 0.500000 0.294897 0.500000
O O6 0.508429 0.500000 0.690502
O O7 0.571472 0.299019 0.684803
O O8 0.367763 0.500000 0.207560
O O9 0.343117 0.235377 0.250080
O O10 0.391904 0.286937 0.061448
O O11 0.165412 0.757675 0.169596
O O12 0.119264 0.000000 0.122712
O O13 0.753971 0.242127 0.216080
O O14 0.705790 0.000000 0.190052
O O15 0.707334 0.170173 0.980536
O O16 0.207372 0.500000 0.769666
#
# Coordination Sequence:
#
# PCOD8080972 Si02
#       6
#     8   8   8   8   8   8
#     4  11  22  34  51  75 103 135 172 212 257 306
#     4  10  21  37  55  75 101 135 175 216 257 303
#     4   9  17  29  46  69  96 129 166 207 253 298
#     4  10  18  29  48  71  98 131 168 208 252 301
#     4   9  16  26  40  63  97 129 160 202 250 298
#     4   9  16  25  40  63  93 129 165 200 244 299
#
# _framework density 17.648643
#
# number of rings (size 3 to 8) (size 9 to 14) (size 15 to 20)
#    0.000    2.333    1.667    2.000    0.000    6.333 
#    0.000    0.000    0.000    0.000    0.000    1.167 
#    0.000    0.000    0.000    0.000    0.000    0.000 
#
# Total GULP energy -297649.996375 kJ/mol
# GULP energy per Si atom -12402.083182 kJ/mol
# Density = 1.760847 g / cm^3
# Si number density = 17.648643 Si / 1000 Ang^3
#
#
#
# Elastic Constant Matrix: (Units=GPa)
#
#
# Indices 1 2 3 4 5 6 
#
# 1 147.4168 70.7349 36.1527 0.0000 5.6206 0.0000
# 2 70.7349 111.0998 27.1638 0.0000 -1.4266 0.0000
# 3 36.1527 27.1638 45.0999 0.0000 5.4169 0.0000
# 4 0.0000 0.0000 0.0000 12.2229 0.0000 -4.9747
# 5 5.6206 -1.4266 5.4169 0.0000 14.8030 0.0000
# 6 0.0000 0.0000 0.0000 -4.9747 0.0000 39.0662
#
#
#
# Elastic Compliance Matrix: (Units=1/GPa)
#
#
# Indices 1 2 3 4 5 6 
#
# 1 0.010852 -0.005751 -0.004889 0.000000 -0.002886 0.000000
# 2 -0.005751 0.013779 -0.004300 0.000000 0.005085 0.000000
# 3 -0.004889 -0.004300 0.029819 0.000000 -0.009470 0.000000
# 4 0.000000 0.000000 0.000000 0.086286 0.000000 0.010988
# 5 -0.002886 0.005085 -0.009470 0.000000 0.072605 0.000000
# 6 0.000000 0.000000 0.000000 0.010988 0.000000 0.026997
#
#
# Mechanical properties :
#
#
# Convention : Reuss Voigt Hill
#
# Bulk Modulus (GPa) = 40.69824 63.52437 52.11131
# Shear Modulus (GPa) = 17.95936 24.52276 21.24106
#
# Velocity S-wave (km/s) = 3.19345 3.73164 3.47299
# Velocity P-wave (km/s) = 6.05870 7.39181 6.75821
#
# Compressibility (1/GPa) = 0.02457108
#
# Stress axis : x y z
#
# Youngs Moduli (GPa) = 92.15012 72.57407 33.53568
#
# Poissons Ratio (x) = 0.41737 0.16394
# Poissons Ratio (y) = 0.52995 0.14420
# Poissons Ratio (z) = 0.45048 0.31206
#
# Static dielectric constant tensor:
#      x y z
#    x 3.456520 0.000000 0.094030 
#    y 0.000000 3.371460 0.000000 
#    z 0.094030 0.000000 2.688660 
# 
# 
# High freq. dielectric constant tensor:
#      x y z
#    x 1.701140 0.000000 0.004080 
#    y 0.000000 1.694140 0.000000 
#    z 0.004080 0.000000 1.611640 
# 
# From -- ./inp_files/108741.got.cif
#   From: 2010.06.25/outbox.cif.g09.slc.cpg/sg12_55_cif.got.tgz:108741.got - 2010.06.28 00:19:55.
