data_PCOD8080738
_publ_section_title
;
Structure prediction by ZEFSAII (Michael W. Deem and Ramdas Pophale) SiO2 
 PCOD8080738
Probable space group: C 2/M
;
_chemical_formula_sum "Si O2"
_cell_formula_units_Z 52
_cell_length_a 22.579907
_cell_length_b 9.438360
_cell_length_c 26.253782
_cell_angle_alpha 90.000000
_cell_angle_beta 32.822889
_cell_angle_gamma 90.000000
_cell_volume 3032.809098
_symmetry_space_group_name_H-M "C 2/M"
_symmetry_group_IT_number 12
_symmetry_cell_setting 'monoclinic'
loop_
_space_group_symop_operation_xyz
x,y,z
-x,y,-z
-x,-y,-z
x,-y,z
1/2+x,1/2+y,z
1/2-x,1/2+y,-z
1/2-x,1/2-y,-z
1/2+x,1/2-y,z
loop_
_atom_site_type_symbol
_atom_site_label
_atom_site_fract_x
_atom_site_fract_y
_atom_site_fract_z
Si Si1 0.180525 0.663297 0.010075
Si Si2 0.565298 0.340030 0.505452
Si Si3 0.267072 0.844694 0.142184
Si Si4 0.500000 0.746366 0.000000
Si Si5 0.111039 0.659599 0.320118
Si Si6 0.478072 0.659028 0.127768
Si Si7 0.761297 0.341474 0.667290
O O1 0.168924 0.500000 0.035580
O O2 0.240572 0.675984 0.912695
O O3 0.250000 0.750000 0.000000
O O4 0.060709 0.730923 0.093144
O O5 0.500000 0.340419 0.500000
O O6 0.584451 0.500000 0.510971
O O7 0.498380 0.253873 0.596760
O O8 0.682927 0.264985 0.413185
O O9 0.392318 0.841309 0.070569
O O10 0.193010 0.723220 0.219473
O O11 0.221922 0.000000 0.190335
O O12 0.483778 0.652231 0.062202
O O13 0.080152 0.500000 0.325568
O O14 0.169441 0.657448 0.331684
O O15 0.502969 0.500000 0.129228
O O16 0.359861 0.711363 0.232056
O O17 0.759976 0.500000 0.644979
#
# Coordination Sequence:
#
# PCOD8080738 Si02
#       7
#     8   8   8   4   8   8   8
#     4  10  22  38  53  71  95 128 168 209 250 289
#     4   9  17  28  42  63  92 131 166 199 238 281
#     4  10  20  32  48  71  99 129 162 202 246 290
#     4  10  18  30  46  72 100 132 162 196 240 292
#     4  10  18  29  45  68  97 131 165 198 238 289
#     4  10  19  31  50  73 100 131 164 201 242 290
#     4   9  17  29  43  67  98 131 164 197 236 285
#
# _framework density 17.145820000000001
#
# number of rings (size 3 to 8) (size 9 to 14) (size 15 to 20)
#    0.000    2.308    1.538    1.846    0.000    6.769 
#    0.000    0.000    0.000    0.000    0.000    1.077 
#    0.000    0.000    0.000    0.000    0.000    0.000 
#
# Total GULP energy -322336.580533 kJ/mol
# GULP energy per Si atom -12397.560790 kJ/mol
# Density = 1.710680 g / cm^3
# Si number density = 17.145820 Si / 1000 Ang^3
#
#
#
# Elastic Constant Matrix: (Units=GPa)
#
#
# Indices 1 2 3 4 5 6 
#
# 1 55.5067 33.8326 25.1854 -0.0001 -6.1758 0.0000
# 2 33.8326 150.2511 77.3364 -0.0001 -2.3865 0.0001
# 3 25.1854 77.3364 134.3336 0.0001 -5.3650 0.0001
# 4 -0.0001 -0.0001 0.0001 32.5232 0.0001 -0.5674
# 5 -6.1758 -2.3865 -5.3650 0.0001 12.0855 -0.0001
# 6 0.0000 0.0001 0.0001 -0.5674 -0.0001 16.8321
#
#
#
# Elastic Compliance Matrix: (Units=1/GPa)
#
#
# Indices 1 2 3 4 5 6 
#
# 1 0.022280 -0.004140 -0.001396 0.000000 0.009948 0.000000
# 2 -0.004140 0.010231 -0.005210 0.000000 -0.002408 0.000000
# 3 -0.001396 -0.005210 0.010828 0.000000 0.003064 0.000000
# 4 0.000000 0.000000 0.000000 0.030765 0.000000 0.001037
# 5 0.009948 -0.002408 0.003064 0.000000 0.088712 0.000001
# 6 0.000000 0.000000 0.000000 0.001037 0.000001 0.059445
#
#
# Mechanical properties :
#
#
# Convention : Reuss Voigt Hill
#
# Bulk Modulus (GPa) = 45.77572 68.08891 56.93231
# Shear Modulus (GPa) = 19.91748 25.87065 22.89406
#
# Velocity S-wave (km/s) = 3.41200 3.88862 3.65808
# Velocity P-wave (km/s) = 6.50217 7.74336 7.14975
#
# Compressibility (1/GPa) = 0.02184564
#
# Stress axis : x y z
#
# Youngs Moduli (GPa) = 44.88393 97.73984 92.35468
#
# Poissons Ratio (x) = 0.40465 0.12896
# Poissons Ratio (y) = 0.18582 0.48118
# Poissons Ratio (z) = 0.06267 0.50924
#
# Static dielectric constant tensor:
#      x y z
#    x 2.755940 0.000000 0.020040 
#    y 0.000000 3.393160 0.000000 
#    z 0.020040 0.000000 3.442550 
# 
# 
# High freq. dielectric constant tensor:
#      x y z
#    x 1.602100 0.000000 0.000050 
#    y 0.000000 1.677230 0.000000 
#    z 0.000050 0.000000 1.668240 
# 
# From -- ./inp_files/236744.got.cif
#   From: 2010.06.25/outbox.cif.g09.slc.cpg/sg12_119_cif.got.tgz:236744.got - 2010.06.28 00:19:55.
