data_PCOD8080261
_publ_section_title
;
Structure prediction by ZEFSAII (Michael W. Deem and Ramdas Pophale) SiO2 
 PCOD8080261
Probable space group: C 2/M
;
_chemical_formula_sum "Si O2"
_cell_formula_units_Z 56
_cell_length_a 19.367597
_cell_length_b 9.187737
_cell_length_c 18.347679
_cell_angle_alpha 90.000000
_cell_angle_beta 78.541218
_cell_angle_gamma 90.000000
_cell_volume 3199.790773
_symmetry_space_group_name_H-M "C 2/M"
_symmetry_group_IT_number 12
_symmetry_cell_setting 'monoclinic'
loop_
_space_group_symop_operation_xyz
x,y,z
-x,y,-z
-x,-y,-z
x,-y,z
1/2+x,1/2+y,z
1/2-x,1/2+y,-z
1/2-x,1/2-y,-z
1/2+x,1/2-y,z
loop_
_atom_site_type_symbol
_atom_site_label
_atom_site_fract_x
_atom_site_fract_y
_atom_site_fract_z
Si Si1 0.538828 0.327592 0.598616
Si Si2 0.758828 0.169682 0.922587
Si Si3 0.952118 0.170677 0.242056
Si Si4 0.183392 0.667698 0.309648
Si Si5 0.682646 0.669232 0.811667
Si Si6 0.109318 0.832772 0.199178
Si Si7 0.107253 0.828629 0.440211
O O1 0.535237 0.500000 0.603958
O O2 0.555384 0.261034 0.674945
O O3 0.598806 0.282812 0.527118
O O4 0.462524 0.274714 0.587626
O O5 0.704120 0.236016 0.876575
O O6 0.839101 0.196120 0.879562
O O7 0.742008 0.000000 0.935583
O O8 0.750000 0.250000 0.000000
O O9 0.892354 0.232166 0.200441
O O10 0.029266 0.205007 0.192468
O O11 0.938393 0.000000 0.251066
O O12 0.164857 0.500000 0.322650
O O13 0.263006 0.691586 0.266114
O O14 0.129398 0.734066 0.262883
O O15 0.173509 0.746147 0.389922
O O16 0.679673 0.500000 0.836056
O O17 0.114579 0.000000 0.224323
O O18 0.119321 0.000000 0.430190
#
# Coordination Sequence:
#
# PCOD8080261 Si02
#       7
#     8   8   8   8   8   8   8
#     4   8  14  24  45  71  91 118 164 215 247 269
#     4  10  20  35  56  79 101 125 155 192 233 282
#     4   9  15  29  52  74  94 121 164 210 240 272
#     4  10  18  28  43  68  99 129 159 196 245 294
#     4   9  19  33  51  73  99 129 158 193 241 290
#     4   9  17  31  54  76  91 120 167 205 229 267
#     4   9  15  26  45  68  91 122 169 213 242 275
#
# _framework density 17.501144
#
# number of rings (size 3 to 8) (size 9 to 14) (size 15 to 20)
#    0.000    2.857    1.429    1.714    0.000    1.143 
#    0.000    3.571    0.000    4.286    0.000    0.000 
#    0.000    0.000    0.000    0.000    0.000    0.000 
#
# Total GULP energy -347055.193158 kJ/mol
# GULP energy per Si atom -12394.828327 kJ/mol
# Density = 1.746131 g / cm^3
# Si number density = 17.501144 Si / 1000 Ang^3
#
#
#
# Elastic Constant Matrix: (Units=GPa)
#
#
# Indices 1 2 3 4 5 6 
#
# 1 116.5698 36.9228 58.5038 0.0000 5.0129 0.0000
# 2 36.9228 62.4031 47.8505 0.0000 -3.4214 0.0000
# 3 58.5038 47.8505 128.8221 0.0000 -3.4007 0.0000
# 4 0.0000 0.0000 0.0000 27.5660 0.0000 -4.0302
# 5 5.0129 -3.4214 -3.4007 0.0000 20.8042 0.0000
# 6 0.0000 0.0000 0.0000 -4.0302 0.0000 17.5593
#
#
#
# Elastic Compliance Matrix: (Units=1/GPa)
#
#
# Indices 1 2 3 4 5 6 
#
# 1 0.012158 -0.004347 -0.004021 0.000000 -0.004302 0.000000
# 2 -0.004347 0.024074 -0.006866 0.000000 0.003884 0.000000
# 3 -0.004021 -0.006866 0.012187 0.000000 0.001832 0.000000
# 4 0.000000 0.000000 0.000000 0.037536 0.000000 0.008615
# 5 -0.004302 0.003884 0.001832 0.000000 0.050042 0.000000
# 6 0.000000 0.000000 0.000000 0.008615 0.000000 0.058927
#
#
# Mechanical properties :
#
#
# Convention : Reuss Voigt Hill
#
# Bulk Modulus (GPa) = 55.69890 66.03878 60.86884
# Shear Modulus (GPa) = 21.60991 24.15377 22.88184
#
# Velocity S-wave (km/s) = 3.51774 3.71903 3.61979
# Velocity P-wave (km/s) = 6.95660 7.50050 7.23367
#
# Compressibility (1/GPa) = 0.01795368
#
# Stress axis : x y z
#
# Youngs Moduli (GPa) = 82.24945 41.53806 82.05350
#
# Poissons Ratio (x) = 0.18055 0.32990
# Poissons Ratio (y) = 0.35751 0.56336
# Poissons Ratio (z) = 0.33069 0.28519
#
# Static dielectric constant tensor:
#      x y z
#    x 3.291400 0.000000 -0.086340 
#    y 0.000000 3.046630 0.000000 
#    z -0.086340 0.000000 3.376110 
# 
# 
# High freq. dielectric constant tensor:
#      x y z
#    x 1.660480 0.000000 -0.014380 
#    y 0.000000 1.648390 0.000000 
#    z -0.014380 0.000000 1.674750 
# 
# From -- ./inp_files/280171.got.cif
#   From: 2010.06.25/outbox.cif.g09.slc.cpg/sg12_141_cif.got.tgz:280171.got - 2010.06.28 00:19:55.
