data_PCOD8080339
_publ_section_title
;
Structure prediction by ZEFSAII (Michael W. Deem and Ramdas Pophale) SiO2 
 PCOD8080339
Probable space group: C 2/M
;
_chemical_formula_sum "Si O2"
_cell_formula_units_Z 44
_cell_length_a 15.248882
_cell_length_b 37.297927
_cell_length_c 5.192200
_cell_angle_alpha 90.000000
_cell_angle_beta 64.556164
_cell_angle_gamma 90.000000
_cell_volume 2666.644730
_symmetry_space_group_name_H-M "C 2/M"
_symmetry_group_IT_number 12
_symmetry_cell_setting 'monoclinic'
loop_
_space_group_symop_operation_xyz
x,y,z
-x,y,-z
-x,-y,-z
x,-y,z
1/2+x,1/2+y,z
1/2-x,1/2+y,-z
1/2-x,1/2-y,-z
1/2+x,1/2-y,z
loop_
_atom_site_type_symbol
_atom_site_label
_atom_site_fract_x
_atom_site_fract_y
_atom_site_fract_z
Si Si1 0.614468 0.960165 0.853958
Si Si2 0.689079 0.838766 0.239641
Si Si3 0.500000 0.198214 0.500000
Si Si4 0.615557 0.916355 0.352229
Si Si5 0.406852 0.745888 0.250614
Si Si6 0.251137 0.799197 0.314970
O O1 0.647666 0.938441 0.561844
O O2 0.661309 0.000000 0.791387
O O3 0.500000 0.964172 0.000000
O O4 0.647632 0.939344 0.066154
O O5 0.582982 0.826738 0.275802
O O6 0.684166 0.881481 0.262444
O O7 0.718480 0.823068 0.478751
O O8 0.760090 0.823779 0.925519
O O9 0.545857 0.221402 0.662912
O O10 0.500000 0.907337 0.500000
O O11 0.324869 0.765239 0.173067
O O12 0.355902 0.716932 0.498928
O O13 0.500000 0.726636 0.000000
#
# Coordination Sequence:
#
# PCOD8080339 Si02
#       6
#     8   8   4   8   8   8
#     4   9  17  28  42  63  88 115 153 193 217 254
#     4  11  20  34  44  70  90 120 153 199 237 274
#     4  10  20  30  52  62  89 116 158 204 235 276
#     4  10  18  28  45  63  86 121 155 185 229 269
#     4  10  20  34  49  67  86 119 153 202 248 285
#     4  10  23  32  49  66  93 113 156 199 248 280
#
# _framework density 16.500135
#
# number of rings (size 3 to 8) (size 9 to 14) (size 15 to 20)
#    0.000    2.000    2.727    1.636    2.545    4.364 
#    0.000    0.000    0.000    0.000    0.000    0.000 
#    0.000    0.000    0.000    0.000    0.000   63.636 
#
# Total GULP energy -272659.265354 kJ/mol
# GULP energy per Si atom -12393.602971 kJ/mol
# Density = 1.646258 g / cm^3
# Si number density = 16.500135 Si / 1000 Ang^3
#
#
#
# Elastic Constant Matrix: (Units=GPa)
#
#
# Indices 1 2 3 4 5 6 
#
# 1 26.3644 10.7967 22.6992 0.0000 -8.2027 0.0000
# 2 10.7967 98.4136 46.9164 0.0000 -3.9035 0.0000
# 3 22.6992 46.9164 106.6190 0.0000 5.1360 0.0000
# 4 0.0000 0.0000 0.0000 32.5379 0.0000 4.9884
# 5 -8.2027 -3.9035 5.1360 0.0000 28.7839 0.0000
# 6 0.0000 0.0000 0.0000 4.9884 0.0000 49.0325
#
#
#
# Elastic Compliance Matrix: (Units=1/GPa)
#
#
# Indices 1 2 3 4 5 6 
#
# 1 0.054099 0.000849 -0.012749 0.000000 0.017807 0.000000
# 2 0.000849 0.013096 -0.006093 0.000000 0.003105 0.000000
# 3 -0.012749 -0.006093 0.015119 0.000000 -0.007157 0.000000
# 4 0.000000 0.000000 0.000000 0.031220 0.000000 -0.003176
# 5 0.017807 0.003105 -0.007157 0.000000 0.041514 0.000000
# 6 0.000000 0.000000 0.000000 -0.003176 0.000000 0.020718
#
#
# Mechanical properties :
#
#
# Convention : Reuss Voigt Hill
#
# Bulk Modulus (GPa) = 21.58510 43.58018 32.58264
# Shear Modulus (GPa) = 22.00744 32.13650 27.07197
#
# Velocity S-wave (km/s) = 3.65605 4.41801 4.05496
# Velocity P-wave (km/s) = 5.56169 7.24530 6.45859
#
# Compressibility (1/GPa) = 0.04632825
#
# Stress axis : x y z
#
# Youngs Moduli (GPa) = 18.48461 76.35953 66.14001
#
# Poissons Ratio (x) = -0.06483 0.84323
# Poissons Ratio (y) = -0.01569 0.40300
# Poissons Ratio (z) = 0.23566 0.46526
#
# Static dielectric constant tensor:
#      x y z
#    x 3.069790 0.000000 -0.080950 
#    y 0.000000 3.137450 0.000000 
#    z -0.080950 0.000000 3.262750 
# 
# 
# High freq. dielectric constant tensor:
#      x y z
#    x 1.587710 0.000000 0.023610 
#    y 0.000000 1.626770 0.000000 
#    z 0.023610 0.000000 1.639450 
# 
# From -- ./inp_files/13229.got.cif
#   From: 2010.06.25/outbox.cif.g09.slc.cpg/sg12_7_cif.got.tgz:13229.got - 2010.06.28 00:19:55.
