data_PCOD8080772
_publ_section_title
;
Structure prediction by ZEFSAII (Michael W. Deem and Ramdas Pophale) SiO2 
 PCOD8080772
Probable space group: C 2/M
;
_chemical_formula_sum "Si O2"
_cell_formula_units_Z 56
_cell_length_a 27.555526
_cell_length_b 8.913973
_cell_length_c 18.422602
_cell_angle_alpha 90.000000
_cell_angle_beta 48.866651
_cell_angle_gamma 90.000000
_cell_volume 3408.239752
_symmetry_space_group_name_H-M "C 2/M"
_symmetry_group_IT_number 12
_symmetry_cell_setting 'monoclinic'
loop_
_space_group_symop_operation_xyz
x,y,z
-x,y,-z
-x,-y,-z
x,-y,z
1/2+x,1/2+y,z
1/2-x,1/2+y,-z
1/2-x,1/2-y,-z
1/2+x,1/2-y,z
loop_
_atom_site_type_symbol
_atom_site_label
_atom_site_fract_x
_atom_site_fract_y
_atom_site_fract_z
Si Si1 0.501402 0.677744 0.580396
Si Si2 0.623152 0.829333 0.525955
Si Si3 0.125873 0.824803 0.220899
Si Si4 0.758923 0.823906 0.318412
Si Si5 0.808473 0.824023 0.984169
Si Si6 0.757012 0.321712 0.165486
Si Si7 0.307638 0.826271 0.401631
O O1 0.500000 0.741297 0.500000
O O2 0.498037 0.500000 0.583447
O O3 0.566685 0.722502 0.555692
O O4 0.439847 0.747721 0.683515
O O5 0.688627 0.784863 0.419588
O O6 0.630597 0.809278 0.606055
O O7 0.605057 0.000000 0.525051
O O8 0.130209 0.795083 0.129457
O O9 0.188097 0.761633 0.203150
O O10 0.124741 0.000000 0.237998
O O11 0.768655 0.742066 0.233190
O O12 0.814332 0.758695 0.317943
O O13 0.769487 0.000000 0.298872
O O14 0.796376 0.000000 0.007111
O O15 0.750000 0.750000 0.000000
O O16 0.813854 0.743335 0.057137
O O17 0.761520 0.500000 0.161824
O O18 0.250000 0.750000 0.500000
O O19 0.291767 0.000000 0.403290
#
# Coordination Sequence:
#
# PCOD8080772 Si02
#       7
#     8   8   8   8   8   8   8
#     4  10  19  30  45  65  89 121 158 186 211 251
#     4   9  19  32  44  63  91 120 149 183 220 259
#     4   8  16  29  43  62  89 121 154 185 216 257
#     4  10  19  30  45  67  93 118 147 182 225 272
#     4   9  16  28  44  62  88 118 150 187 225 266
#     4  10  18  29  46  67  91 117 148 186 229 270
#     4   9  17  30  46  64  88 116 148 184 223 267
#
# _framework density 16.430769000000002
#
# number of rings (size 3 to 8) (size 9 to 14) (size 15 to 20)
#    0.000    2.714    0.000    4.286    0.000    4.857 
#    0.000    4.286    0.000    0.000    0.000    1.000 
#    0.000    8.000    0.000    0.000    0.000    0.000 
#
# Total GULP energy -346971.718585 kJ/mol
# GULP energy per Si atom -12391.847092 kJ/mol
# Density = 1.639337 g / cm^3
# Si number density = 16.430769 Si / 1000 Ang^3
#
#
#
# Elastic Constant Matrix: (Units=GPa)
#
#
# Indices 1 2 3 4 5 6 
#
# 1 81.5476 32.9874 51.5186 0.0002 22.1972 -0.0001
# 2 32.9874 71.0742 43.4284 0.0004 12.7648 0.0005
# 3 51.5186 43.4284 120.7333 0.0018 24.0945 -0.0016
# 4 0.0002 0.0004 0.0018 23.0696 -0.0005 6.0614
# 5 22.1972 12.7648 24.0945 -0.0005 27.9305 0.0001
# 6 -0.0001 0.0005 -0.0016 6.0614 0.0001 26.2984
#
#
#
# Elastic Compliance Matrix: (Units=1/GPa)
#
#
# Indices 1 2 3 4 5 6 
#
# 1 0.019748 -0.004454 -0.004951 0.000000 -0.009387 0.000000
# 2 -0.004454 0.019277 -0.004810 0.000000 -0.001121 -0.000001
# 3 -0.004951 -0.004810 0.013169 -0.000001 -0.005227 0.000001
# 4 0.000000 0.000000 -0.000001 0.046141 0.000002 -0.010635
# 5 -0.009387 -0.001121 -0.005227 0.000002 0.048285 -0.000001
# 6 0.000000 -0.000001 0.000001 -0.010635 -0.000001 0.040476
#
#
# Mechanical properties :
#
#
# Convention : Reuss Voigt Hill
#
# Bulk Modulus (GPa) = 42.08096 58.80266 50.44181
# Shear Modulus (GPa) = 22.37660 25.15442 23.76551
#
# Velocity S-wave (km/s) = 3.69436 3.91696 3.80729
# Velocity P-wave (km/s) = 6.62302 7.50484 7.07768
#
# Compressibility (1/GPa) = 0.02376372
#
# Stress axis : x y z
#
# Youngs Moduli (GPa) = 50.63891 51.87426 75.93803
#
# Poissons Ratio (x) = 0.23106 0.37597
# Poissons Ratio (y) = 0.22556 0.36524
# Poissons Ratio (z) = 0.25071 0.24950
#
# Static dielectric constant tensor:
#      x y z
#    x 3.117430 0.000000 0.274230 
#    y 0.000000 3.193300 0.000010 
#    z 0.274230 0.000010 3.455290 
# 
# 
# High freq. dielectric constant tensor:
#      x y z
#    x 1.606200 0.000000 0.029170 
#    y 0.000000 1.633320 0.000000 
#    z 0.029170 0.000000 1.621880 
# 
# From -- ./inp_files/291811.got.cif
#   From: 2010.06.25/outbox.cif.g09.slc.cpg/sg12_146_cif.got.tgz:291811.got - 2010.06.28 00:19:55.
