data_PCOD8080090
_publ_section_title
;
Structure prediction by ZEFSAII (Michael W. Deem and Ramdas Pophale) SiO2 
 PCOD8080090
Probable space group: C 2/M
;
_chemical_formula_sum "Si O2"
_cell_formula_units_Z 48
_cell_length_a 18.611237
_cell_length_b 9.281696
_cell_length_c 24.600999
_cell_angle_alpha 90.000000
_cell_angle_beta 39.510079
_cell_angle_gamma 90.000000
_cell_volume 2703.700051
_symmetry_space_group_name_H-M "C 2/M"
_symmetry_group_IT_number 12
_symmetry_cell_setting 'monoclinic'
loop_
_space_group_symop_operation_xyz
x,y,z
-x,y,-z
-x,-y,-z
x,-y,z
1/2+x,1/2+y,z
1/2-x,1/2+y,-z
1/2-x,1/2-y,-z
1/2+x,1/2-y,z
loop_
_atom_site_type_symbol
_atom_site_label
_atom_site_fract_x
_atom_site_fract_y
_atom_site_fract_z
Si Si1 0.000909 0.159445 0.832428
Si Si2 0.171743 0.170631 0.646357
Si Si3 0.925792 0.669427 0.494667
Si Si4 0.164404 0.668232 0.011233
Si Si5 0.165839 0.159160 0.172297
Si Si6 0.002849 0.669200 0.666712
O O1 0.913735 0.161233 0.833708
O O2 0.121245 0.205195 0.735994
O O3 0.008384 0.000000 0.853689
O O4 0.960861 0.267381 0.904005
O O5 0.298788 0.231499 0.570623
O O6 0.103080 0.252271 0.639822
O O7 0.163393 0.000000 0.639071
O O8 0.916455 0.500000 0.508850
O O9 0.985539 0.707542 0.403260
O O10 0.000000 0.738186 0.500000
O O11 0.164488 0.500000 0.025747
O O12 0.206771 0.693571 0.924066
O O13 0.250000 0.750000 0.000000
O O14 0.120796 0.274805 0.242115
O O15 0.162971 0.000000 0.200703
O O16 0.011021 0.500000 0.673237
#
# Coordination Sequence:
#
# PCOD8080090 Si02
#       6
#     8   8   8   8   8   8
#     4   8  14  23  36  57  83 111 141 172 211 254
#     4   9  17  30  47  65  89 120 147 176 219 265
#     4   9  18  32  48  66  88 115 148 183 220 263
#     4   9  15  22  34  54  82 115 143 170 209 252
#     4   8  15  26  38  56  86 119 145 172 214 262
#     4  10  18  27  45  70  90 113 147 185 219 253
#
# _framework density 17.753450000000001
#
# number of rings (size 3 to 8) (size 9 to 14) (size 15 to 20)
#    0.000    3.167    0.000    3.500    0.000    6.667 
#    0.000    0.833    0.000    4.500    0.000    1.167 
#    0.000    9.333    0.000    0.000    0.000    0.000 
#
# Total GULP energy -297354.598542 kJ/mol
# GULP energy per Si atom -12389.774939 kJ/mol
# Density = 1.771304 g / cm^3
# Si number density = 17.753450 Si / 1000 Ang^3
#
#
#
# Elastic Constant Matrix: (Units=GPa)
#
#
# Indices 1 2 3 4 5 6 
#
# 1 47.5123 29.8072 39.6469 0.0000 9.2302 -0.0001
# 2 29.8072 83.8339 68.9360 0.0000 3.7955 -0.0004
# 3 39.6469 68.9360 154.9696 0.0000 7.5084 0.0000
# 4 0.0000 0.0000 0.0000 30.5204 0.0000 0.8193
# 5 9.2302 3.7955 7.5084 0.0000 4.2277 0.0000
# 6 -0.0001 -0.0004 0.0000 0.8193 0.0000 8.6001
#
#
#
# Elastic Compliance Matrix: (Units=1/GPa)
#
#
# Indices 1 2 3 4 5 6 
#
# 1 0.047316 -0.010074 -0.003345 0.000000 -0.088318 0.000000
# 2 -0.010074 0.020972 -0.007555 0.000000 0.016585 0.000001
# 3 -0.003345 -0.007555 0.010927 0.000000 -0.005322 0.000000
# 4 0.000000 0.000000 0.000000 0.032849 0.000000 -0.003130
# 5 -0.088318 0.016585 -0.005322 0.000000 0.423914 -0.000001
# 6 0.000000 0.000001 0.000000 -0.003130 -0.000001 0.116576
#
#
# Mechanical properties :
#
#
# Convention : Reuss Voigt Hill
#
# Bulk Modulus (GPa) = 26.83367 62.56622 44.69994
# Shear Modulus (GPa) = 7.07288 18.53136 12.80212
#
# Velocity S-wave (km/s) = 1.99815 3.23432 2.68825
# Velocity P-wave (km/s) = 4.52448 7.01897 5.90495
#
# Compressibility (1/GPa) = 0.03726662
#
# Stress axis : x y z
#
# Youngs Moduli (GPa) = 21.13454 47.68238 91.51430
#
# Poissons Ratio (x) = 0.48037 0.30608
# Poissons Ratio (y) = 0.21292 0.69142
# Poissons Ratio (z) = 0.07069 0.36025
#
# Static dielectric constant tensor:
#      x y z
#    x 2.791030 0.000000 -0.248980 
#    y 0.000000 3.335590 0.000000 
#    z -0.248980 0.000000 4.264770 
# 
# 
# High freq. dielectric constant tensor:
#      x y z
#    x 1.611960 0.000000 -0.009040 
#    y 0.000000 1.674070 0.000000 
#    z -0.009040 0.000000 1.715780 
# 
# From -- ./inp_files/345410.got.cif
#   From: 2010.06.25/outbox.cif.g09.slc.cpg/sg12_173_cif.got.tgz:345410.got - 2010.06.28 00:19:55.
