data_PCOD8080001
_publ_section_title
;
Structure prediction by ZEFSAII (Michael W. Deem and Ramdas Pophale) SiO2 
 PCOD8080001
Probable space group: C 2/M
;
_chemical_formula_sum "Si O2"
_cell_formula_units_Z 48
_cell_length_a 23.823543
_cell_length_b 9.440997
_cell_length_c 15.190117
_cell_angle_alpha 90.000000
_cell_angle_beta 120.982079
_cell_angle_gamma 90.000000
_cell_volume 2929.088641
_symmetry_space_group_name_H-M "C 2/M"
_symmetry_group_IT_number 12
_symmetry_cell_setting 'monoclinic'
loop_
_space_group_symop_operation_xyz
x,y,z
-x,y,-z
-x,-y,-z
x,-y,z
1/2+x,1/2+y,z
1/2-x,1/2+y,-z
1/2-x,1/2-y,-z
1/2+x,1/2-y,z
loop_
_atom_site_type_symbol
_atom_site_label
_atom_site_fract_x
_atom_site_fract_y
_atom_site_fract_z
Si Si1 0.356447 0.161877 0.086831
Si Si2 0.819539 0.833627 0.219236
Si Si3 0.518262 0.337671 0.789684
Si Si4 0.960445 0.834652 0.387516
Si Si5 0.820886 0.658435 0.860429
Si Si6 0.060126 0.162740 0.107603
O O1 0.314285 0.246693 0.124338
O O2 0.426596 0.234352 0.128937
O O3 0.365997 0.000000 0.125561
O O4 0.319994 0.169679 0.964840
O O5 0.884986 0.781154 0.323287
O O6 0.754708 0.804159 0.226170
O O7 0.824715 0.000000 0.199784
O O8 0.543663 0.500000 0.816402
O O9 0.502726 0.300142 0.675156
O O10 0.455055 0.317364 0.800799
O O11 0.000000 0.760202 0.500000
O O12 0.959065 0.000000 0.404636
O O13 0.839185 0.500000 0.844671
O O14 0.871586 0.761129 0.854675
O O15 0.070492 0.000000 0.090097
O O16 0.000000 0.223971 0.000000
#
# Coordination Sequence:
#
# PCOD8080001 Si02
#       6
#     8   8   8   8   8   8
#     4  10  18  27  42  65  91 119 151 181 217 262
#     4   9  18  31  45  64  91 118 148 184 225 267
#     4   9  17  30  46  66  91 117 149 185 221 261
#     4   8  14  27  50  72  85 105 144 192 230 260
#     4  10  20  30  42  63  92 125 152 180 217 261
#     4  10  19  30  45  64  89 124 157 182 214 256
#
# _framework density 16.387350000000001
#
# number of rings (size 3 to 8) (size 9 to 14) (size 15 to 20)
#    0.000    2.667    1.667    2.000    0.000    2.333 
#    0.000    0.000    0.000    9.000    0.000    0.000 
#    0.000    0.000    0.000    0.000    0.000    0.000 
#
# Total GULP energy -297424.400773 kJ/mol
# GULP energy per Si atom -12392.683366 kJ/mol
# Density = 1.635005 g / cm^3
# Si number density = 16.387350 Si / 1000 Ang^3
#
#
#
# Elastic Constant Matrix: (Units=GPa)
#
#
# Indices 1 2 3 4 5 6 
#
# 1 131.0889 45.3150 50.7962 0.0000 9.7499 0.0000
# 2 45.3150 59.5278 20.0048 0.0000 5.1608 0.0000
# 3 50.7962 20.0048 81.4236 0.0000 0.8162 0.0000
# 4 0.0000 0.0000 0.0000 9.2200 0.0000 0.7331
# 5 9.7499 5.1608 0.8162 0.0000 16.5809 0.0000
# 6 0.0000 0.0000 0.0000 0.7331 0.0000 28.8209
#
#
#
# Elastic Compliance Matrix: (Units=1/GPa)
#
#
# Indices 1 2 3 4 5 6 
#
# 1 0.012949 -0.007329 -0.006227 0.000000 -0.005026 0.000000
# 2 -0.007329 0.022970 -0.001044 0.000000 -0.002789 0.000000
# 3 -0.006227 -0.001044 0.016391 0.000000 0.003180 0.000000
# 4 0.000000 0.000000 0.000000 0.108679 0.000000 -0.002764
# 5 -0.005026 -0.002789 0.003180 0.000000 0.063977 0.000000
# 6 0.000000 0.000000 0.000000 -0.002764 0.000000 0.034767
#
#
# Mechanical properties :
#
#
# Convention : Reuss Voigt Hill
#
# Bulk Modulus (GPa) = 43.26937 56.03025 49.64981
# Shear Modulus (GPa) = 16.85569 21.31932 19.08751
#
# Velocity S-wave (km/s) = 3.21063 3.61080 3.41658
# Velocity P-wave (km/s) = 6.34079 7.18674 6.77698
#
# Compressibility (1/GPa) = 0.02311104
#
# Stress axis : x y z
#
# Youngs Moduli (GPa) = 77.22875 43.53475 61.01010
#
# Poissons Ratio (x) = 0.31905 0.37991
# Poissons Ratio (y) = 0.56597 0.06367
# Poissons Ratio (z) = 0.48091 0.04543
#
# Static dielectric constant tensor:
#      x y z
#    x 3.107970 0.000000 0.036000 
#    y 0.000000 2.985920 0.000000 
#    z 0.036000 0.000000 3.112090 
# 
# 
# High freq. dielectric constant tensor:
#      x y z
#    x 1.630770 0.000000 0.004610 
#    y 0.000000 1.615720 0.000000 
#    z 0.004610 0.000000 1.598760 
# 
# From -- ./inp_files/229929.got.cif
#   From: 2010.06.25/outbox.cif.g09.slc.cpg/sg12_115_cif.got.tgz:229929.got - 2010.06.28 00:19:55.
