data_PCOD8080096
_publ_section_title
;
Structure prediction by ZEFSAII (Michael W. Deem and Ramdas Pophale) SiO2 
 PCOD8080096
Probable space group: C 2/M
;
_chemical_formula_sum "Si O2"
_cell_formula_units_Z 56
_cell_length_a 19.488640
_cell_length_b 9.101358
_cell_length_c 21.887315
_cell_angle_alpha 90.000000
_cell_angle_beta 125.772097
_cell_angle_gamma 90.000000
_cell_volume 3149.834304
_symmetry_space_group_name_H-M "C 2/M"
_symmetry_group_IT_number 12
_symmetry_cell_setting 'monoclinic'
loop_
_space_group_symop_operation_xyz
x,y,z
-x,y,-z
-x,-y,-z
x,-y,z
1/2+x,1/2+y,z
1/2-x,1/2+y,-z
1/2-x,1/2-y,-z
1/2+x,1/2-y,z
loop_
_atom_site_type_symbol
_atom_site_label
_atom_site_fract_x
_atom_site_fract_y
_atom_site_fract_z
Si Si1 0.962362 0.668968 0.313445
Si Si2 0.766318 0.330767 0.597418
Si Si3 0.835596 0.327265 0.760942
Si Si4 0.707117 0.672139 0.792654
Si Si5 0.483774 0.829555 0.182897
Si Si6 0.882677 0.831094 0.563792
Si Si7 0.812998 0.172462 0.078557
O O1 0.952762 0.500000 0.325810
O O2 0.872604 0.744955 0.277099
O O3 0.994127 0.691466 0.260744
O O4 0.030157 0.741417 0.394411
O O5 0.795528 0.500000 0.602310
O O6 0.776023 0.282974 0.672880
O O7 0.825357 0.225826 0.589011
O O8 0.668493 0.311058 0.526422
O O9 0.846614 0.500000 0.767923
O O10 0.790681 0.272667 0.799830
O O11 0.930891 0.264650 0.803834
O O12 0.691731 0.500000 0.774544
O O13 0.719141 0.709944 0.870004
O O14 0.406680 0.734880 0.116551
O O15 0.467052 0.000000 0.158209
O O16 0.904643 0.000000 0.587885
O O17 0.814003 0.000000 0.066297
O O18 0.750000 0.250000 0.000000
#
# Coordination Sequence:
#
# PCOD8080096 Si02
#       7
#     8   8   8   8   8   8   8
#     4  10  18  31  50  71  99 134 172 210 251 299
#     4   9  17  30  47  70  99 133 169 209 256 297
#     4   9  16  32  54  75 100 131 167 208 251 296
#     4   9  19  34  54  77 100 127 166 210 247 290
#     4   9  17  31  54  77  97 129 167 202 243 291
#     4  10  18  27  45  72 100 130 171 216 252 290
#     4  10  20  35  55  79 103 128 160 199 242 292
#
# _framework density 17.778711999999999
#
# number of rings (size 3 to 8) (size 9 to 14) (size 15 to 20)
#    0.000    2.571    1.429    1.286    0.000    1.714 
#    0.000    2.857    0.000    8.571    0.000    0.000 
#    0.000    0.000    0.000    0.000    0.000    0.000 
#
# Total GULP energy -347156.136307 kJ/mol
# GULP energy per Si atom -12398.433440 kJ/mol
# Density = 1.773825 g / cm^3
# Si number density = 17.778712 Si / 1000 Ang^3
#
#
#
# Elastic Constant Matrix: (Units=GPa)
#
#
# Indices 1 2 3 4 5 6 
#
# 1 133.8282 40.9863 63.9451 0.0000 11.3803 0.0000
# 2 40.9863 69.1833 49.5843 0.0000 11.6197 0.0000
# 3 63.9451 49.5843 119.3464 0.0000 20.6551 0.0000
# 4 0.0000 0.0000 0.0000 27.6815 0.0000 7.9364
# 5 11.3803 11.6197 20.6551 0.0000 22.5455 0.0000
# 6 0.0000 0.0000 0.0000 7.9364 0.0000 23.7571
#
#
#
# Elastic Compliance Matrix: (Units=1/GPa)
#
#
# Indices 1 2 3 4 5 6 
#
# 1 0.010497 -0.003136 -0.004378 0.000000 0.000329 0.000000
# 2 -0.003136 0.021729 -0.006754 0.000000 -0.003428 0.000000
# 3 -0.004378 -0.006754 0.014910 0.000000 -0.007969 0.000000
# 4 0.000000 0.000000 0.000000 0.039952 0.000000 -0.013346
# 5 0.000329 -0.003428 -0.007969 0.000000 0.053256 0.000000
# 6 0.000000 0.000000 0.000000 -0.013346 0.000000 0.046551
#
#
# Mechanical properties :
#
#
# Convention : Reuss Voigt Hill
#
# Bulk Modulus (GPa) = 53.76581 70.15437 61.96009
# Shear Modulus (GPa) = 22.56014 25.98632 24.27323
#
# Velocity S-wave (km/s) = 3.56608 3.82731 3.69900
# Velocity P-wave (km/s) = 6.87483 7.68612 7.29177
#
# Compressibility (1/GPa) = 0.01859918
#
# Stress axis : x y z
#
# Youngs Moduli (GPa) = 95.26871 46.02243 67.06949
#
# Poissons Ratio (x) = 0.14432 0.29364
# Poissons Ratio (y) = 0.29876 0.45298
# Poissons Ratio (z) = 0.41709 0.31083
#
# Static dielectric constant tensor:
#      x y z
#    x 3.402100 0.000000 0.121040 
#    y 0.000000 3.242080 0.000000 
#    z 0.121040 0.000000 3.298720 
# 
# 
# High freq. dielectric constant tensor:
#      x y z
#    x 1.674310 0.000000 0.017080 
#    y 0.000000 1.679840 0.000000 
#    z 0.017080 0.000000 1.679280 
# 
# From -- ./inp_files/280418.got.cif
#   From: 2010.06.25/outbox.cif.g09.slc.cpg/sg12_141_cif.got.tgz:280418.got - 2010.06.28 00:19:55.
