data_PCOD8080775
_publ_section_title
;
Structure prediction by ZEFSAII (Michael W. Deem and Ramdas Pophale) SiO2 
 PCOD8080775
Probable space group: C 2/M
;
_chemical_formula_sum "Si O2"
_cell_formula_units_Z 64
_cell_length_a 17.195873
_cell_length_b 13.800453
_cell_length_c 15.923696
_cell_angle_alpha 90.000000
_cell_angle_beta 89.983141
_cell_angle_gamma 90.000000
_cell_volume 3778.865464
_symmetry_space_group_name_H-M "C 2/M"
_symmetry_group_IT_number 12
_symmetry_cell_setting 'monoclinic'
loop_
_space_group_symop_operation_xyz
x,y,z
-x,y,-z
-x,-y,-z
x,-y,z
1/2+x,1/2+y,z
1/2-x,1/2+y,-z
1/2-x,1/2-y,-z
1/2+x,1/2-y,z
loop_
_atom_site_type_symbol
_atom_site_label
_atom_site_fract_x
_atom_site_fract_y
_atom_site_fract_z
Si Si1 0.344662 0.890644 0.428824
Si Si2 0.502969 0.891400 0.667734
Si Si3 0.564521 0.393021 0.349815
Si Si4 0.643168 0.207888 0.402222
Si Si5 0.058758 0.208257 0.752150
Si Si6 0.980406 0.114030 0.906220
Si Si7 0.668929 0.393308 0.185280
Si Si8 0.774220 0.269756 0.286033
O O1 0.435889 0.882085 0.408536
O O2 0.323941 0.822227 0.507277
O O3 0.295631 0.857575 0.348292
O O4 0.319833 0.000000 0.450013
O O5 0.419169 0.870219 0.628912
O O6 0.524993 0.817402 0.742451
O O7 0.504072 0.000000 0.705417
O O8 0.559014 0.500000 0.392262
O O9 0.603854 0.314765 0.412010
O O10 0.478731 0.358224 0.321194
O O11 0.616715 0.398011 0.267807
O O12 0.711798 0.202933 0.333607
O O13 0.038362 0.171102 0.844664
O O14 0.151694 0.205768 0.740062
O O15 0.889606 0.140169 0.888946
O O16 0.994363 0.000000 0.892006
O O17 0.000000 0.147100 0.000000
O O18 0.703786 0.500000 0.165352
O O19 0.738107 0.316582 0.200724
#
# Coordination Sequence:
#
# PCOD8080775 Si02
#       8
#     8   8   8   8   8   8   8   8
#     4  10  19  31  47  65  89 122 164 210 240 264
#     4   9  18  32  50  67  85 120 166 201 227 262
#     4   8  15  29  48  65  85 121 163 199 232 270
#     4  10  18  29  46  67  92 121 161 206 243 274
#     4   9  17  30  49  71  96 121 150 188 230 281
#     4   9  17  32  56  79  94 115 151 191 226 265
#     4   8  14  27  47  68  89 115 152 191 222 264
#     4  10  19  29  43  67  97 127 152 184 237 290
#
# _framework density 16.936299999999999
#
# number of rings (size 3 to 8) (size 9 to 14) (size 15 to 20)
#    0.000    2.875    0.000    3.375    0.000    2.000 
#    0.000    3.125    0.000   16.875    0.000    0.000 
#    0.000    0.000    0.000    0.000    0.000    0.000 
#
# Total GULP energy -396691.240292 kJ/mol
# GULP energy per Si atom -12396.601259 kJ/mol
# Density = 1.689775 g / cm^3
# Si number density = 16.936300 Si / 1000 Ang^3
#
#
#
# Elastic Constant Matrix: (Units=GPa)
#
#
# Indices 1 2 3 4 5 6 
#
# 1 81.8992 20.5659 18.5026 0.0000 4.5814 0.0000
# 2 20.5659 88.6900 32.6828 0.0000 0.5963 0.0000
# 3 18.5026 32.6828 77.0890 0.0000 11.5651 0.0000
# 4 0.0000 0.0000 0.0000 22.3222 0.0000 1.2617
# 5 4.5814 0.5963 11.5651 0.0000 19.7953 0.0000
# 6 0.0000 0.0000 0.0000 1.2617 0.0000 20.7756
#
#
#
# Elastic Compliance Matrix: (Units=1/GPa)
#
#
# Indices 1 2 3 4 5 6 
#
# 1 0.013345 -0.002378 -0.001910 0.000000 -0.001901 0.000000
# 2 -0.002378 0.013973 -0.005889 0.000000 0.003570 0.000000
# 3 -0.001910 -0.005889 0.017355 0.000000 -0.009520 0.000000
# 4 0.000000 0.000000 0.000000 0.044953 0.000000 -0.002730
# 5 -0.001901 0.003570 -0.009520 0.000000 0.056411 0.000000
# 6 0.000000 0.000000 0.000000 -0.002730 0.000000 0.048299
#
#
# Mechanical properties :
#
#
# Convention : Reuss Voigt Hill
#
# Bulk Modulus (GPa) = 41.11793 43.46452 42.29123
# Shear Modulus (GPa) = 22.44209 24.30708 23.37459
#
# Velocity S-wave (km/s) = 3.64412 3.79252 3.71906
# Velocity P-wave (km/s) = 6.48359 6.70051 6.59294
#
# Compressibility (1/GPa) = 0.02432029
#
# Stress axis : x y z
#
# Youngs Moduli (GPa) = 74.93413 71.56838 57.61984
#
# Poissons Ratio (x) = 0.17019 0.11003
# Poissons Ratio (y) = 0.17820 0.33930
# Poissons Ratio (z) = 0.14309 0.42144
#
# Static dielectric constant tensor:
#      x y z
#    x 3.326870 0.000000 0.227640 
#    y 0.000000 3.327780 0.000000 
#    z 0.227640 0.000000 2.905340 
# 
# 
# High freq. dielectric constant tensor:
#      x y z
#    x 1.655920 0.000000 0.020140 
#    y 0.000000 1.649750 0.000000 
#    z 0.020140 0.000000 1.610860 
# 
# From -- ./inp_files/224787.got.cif
#   From: 2010.06.25/outbox.cif.g09.slc.cpg/sg12_113_cif.got.tgz:224787.got - 2010.06.28 00:19:55.
