data_PCOD8080843
_publ_section_title
;
Structure prediction by ZEFSAII (Michael W. Deem and Ramdas Pophale) SiO2 
 PCOD8080843
Probable space group: C 2/M
;
_chemical_formula_sum "Si O2"
_cell_formula_units_Z 64
_cell_length_a 31.677173
_cell_length_b 9.354860
_cell_length_c 15.975706
_cell_angle_alpha 90.000000
_cell_angle_beta 53.628275
_cell_angle_gamma 90.000000
_cell_volume 3811.889287
_symmetry_space_group_name_H-M "C 2/M"
_symmetry_group_IT_number 12
_symmetry_cell_setting 'monoclinic'
loop_
_space_group_symop_operation_xyz
x,y,z
-x,y,-z
-x,-y,-z
x,-y,z
1/2+x,1/2+y,z
1/2-x,1/2+y,-z
1/2-x,1/2-y,-z
1/2+x,1/2-y,z
loop_
_atom_site_type_symbol
_atom_site_label
_atom_site_fract_x
_atom_site_fract_y
_atom_site_fract_z
Si Si1 0.673674 0.833727 0.917240
Si Si2 0.604615 0.663853 0.418455
Si Si3 0.024318 0.831298 0.848195
Si Si4 0.418688 0.669379 0.055535
Si Si5 0.464231 0.334626 0.351376
Si Si6 0.444733 0.165374 0.666580
Si Si7 0.290274 0.664877 0.789105
Si Si8 0.664421 0.836019 0.117865
O O1 0.635464 0.744983 0.903133
O O2 0.733268 0.803947 0.816520
O O3 0.658656 0.000000 0.928200
O O4 0.668808 0.779434 0.018296
O O5 0.595438 0.500000 0.401403
O O6 0.590372 0.683575 0.533324
O O7 0.565471 0.762219 0.411086
O O8 0.665158 0.708741 0.331162
O O9 0.064595 0.775843 0.871503
O O10 0.043126 0.777806 0.734840
O O11 0.024878 0.000000 0.853650
O O12 0.964665 0.781359 0.937339
O O13 0.409859 0.500000 0.062854
O O14 0.482417 0.500000 0.329482
O O15 0.507445 0.240501 0.344940
O O16 0.395042 0.187083 0.784264
O O17 0.457891 0.000000 0.635748
O O18 0.295056 0.500000 0.808301
O O19 0.296613 0.749317 0.868243
O O20 0.681894 0.000000 0.103065
#
# Coordination Sequence:
#
# PCOD8080843 Si02
#       8
#     8   8   8   8   8   8   8   8
#     4  10  19  30  45  66  91 116 144 179 218 258
#     4   9  18  31  45  62  85 117 154 183 209 247
#     4   8  16  31  49  69  90 111 139 178 219 257
#     4   9  17  31  50  69  89 112 140 175 217 265
#     4  10  18  29  47  66  85 113 149 183 213 253
#     4  10  19  29  42  64  94 120 142 175 218 259
#     4   9  18  31  45  62  87 118 150 183 214 246
#     4   9  18  30  43  63  91 119 146 177 213 256
#
# _framework density 16.789573000000001
#
# number of rings (size 3 to 8) (size 9 to 14) (size 15 to 20)
#    0.000    2.750    0.000    2.625    0.000    3.500 
#    0.000    1.875    0.000    0.750    0.000    0.000 
#    0.000    0.000    0.000    0.000    0.000    0.000 
#
# Total GULP energy -396710.824801 kJ/mol
# GULP energy per Si atom -12397.213275 kJ/mol
# Density = 1.675136 g / cm^3
# Si number density = 16.789573 Si / 1000 Ang^3
#
#
#
# Elastic Constant Matrix: (Units=GPa)
#
#
# Indices 1 2 3 4 5 6 
#
# 1 120.2814 44.0595 64.4131 0.0000 -0.8640 0.0000
# 2 44.0595 50.5720 34.1662 0.0000 -0.2587 -0.0001
# 3 64.4131 34.1662 114.4371 0.0000 14.6344 0.0000
# 4 0.0000 0.0000 0.0000 15.8231 0.0000 -2.4927
# 5 -0.8640 -0.2587 14.6344 0.0000 14.3299 0.0000
# 6 0.0000 -0.0001 0.0000 -2.4927 0.0000 26.6634
#
#
#
# Elastic Compliance Matrix: (Units=1/GPa)
#
#
# Indices 1 2 3 4 5 6 
#
# 1 0.015273 -0.008475 -0.007091 0.000000 0.008009 0.000000
# 2 -0.008475 0.030574 -0.005019 0.000000 0.005166 0.000000
# 3 -0.007091 -0.005019 0.016441 0.000000 -0.017309 0.000000
# 4 0.000000 0.000000 0.000000 0.064143 0.000000 0.005997
# 5 0.008009 0.005166 -0.017309 0.000000 0.088037 0.000000
# 6 0.000000 0.000000 0.000000 0.005997 0.000000 0.038065
#
#
# Mechanical properties :
#
#
# Convention : Reuss Voigt Hill
#
# Bulk Modulus (GPa) = 47.34776 63.39644 55.37210
# Shear Modulus (GPa) = 16.62553 20.87341 18.74947
#
# Velocity S-wave (km/s) = 3.15021 3.52978 3.34538
# Velocity P-wave (km/s) = 6.44156 7.37929 6.92631
#
# Compressibility (1/GPa) = 0.02112033
#
# Stress axis : x y z
#
# Youngs Moduli (GPa) = 65.47555 32.70727 60.82210
#
# Poissons Ratio (x) = 0.27719 0.43127
# Poissons Ratio (y) = 0.55489 0.30525
# Poissons Ratio (z) = 0.46426 0.16415
#
# Static dielectric constant tensor:
#      x y z
#    x 3.081830 0.000000 -0.008470 
#    y 0.000000 3.045640 0.000000 
#    z -0.008470 0.000000 3.504390 
# 
# 
# High freq. dielectric constant tensor:
#      x y z
#    x 1.628020 0.000000 -0.009380 
#    y 0.000000 1.634700 0.000000 
#    z -0.009380 0.000000 1.649260 
# 
# From -- ./inp_files/248956.got.cif
#   From: 2010.06.25/outbox.cif.g09.slc.cpg/sg12_125_cif.got.tgz:248956.got - 2010.06.28 00:19:55.
