data_PCOD8080705
_publ_section_title
;
Structure prediction by ZEFSAII (Michael W. Deem and Ramdas Pophale) SiO2 
 PCOD8080705
Probable space group: C 2/M
;
_chemical_formula_sum "Si O2"
_cell_formula_units_Z 64
_cell_length_a 26.621702
_cell_length_b 9.552435
_cell_length_c 28.207512
_cell_angle_alpha 90.000000
_cell_angle_beta 151.319242
_cell_angle_gamma 90.000000
_cell_volume 3442.639812
_symmetry_space_group_name_H-M "C 2/M"
_symmetry_group_IT_number 12
_symmetry_cell_setting 'monoclinic'
loop_
_space_group_symop_operation_xyz
x,y,z
-x,y,-z
-x,-y,-z
x,-y,z
1/2+x,1/2+y,z
1/2-x,1/2+y,-z
1/2-x,1/2-y,-z
1/2+x,1/2-y,z
loop_
_atom_site_type_symbol
_atom_site_label
_atom_site_fract_x
_atom_site_fract_y
_atom_site_fract_z
Si Si1 0.786674 0.334242 0.372749
Si Si2 0.100592 0.167371 0.056001
Si Si3 0.015429 0.666504 0.405151
Si Si4 0.302985 0.167122 0.278517
Si Si5 0.518803 0.833988 0.299709
Si Si6 0.799142 0.348932 0.078649
Si Si7 0.916974 0.846761 0.059244
Si Si8 0.087958 0.833915 0.271193
O O1 0.791946 0.500000 0.375401
O O2 0.887718 0.275339 0.484091
O O3 0.789983 0.275430 0.321665
O O4 0.682879 0.288114 0.315414
O O5 0.205611 0.225812 0.167393
O O6 0.109131 0.000000 0.059193
O O7 0.075832 0.236017 0.984133
O O8 0.000000 0.218840 0.000000
O O9 0.011020 0.500000 0.401497
O O10 0.033001 0.717604 0.365550
O O11 0.908887 0.724005 0.341208
O O12 0.303359 0.000000 0.279939
O O13 0.400585 0.789356 0.188683
O O14 0.595571 0.749267 0.327541
O O15 0.539452 0.000000 0.311886
O O16 0.826030 0.500000 0.077833
O O17 0.750000 0.250000 0.000000
O O18 0.706967 0.365895 0.039709
O O19 0.980342 0.779233 0.155971
O O20 0.971321 0.000000 0.099431
O O21 0.088646 0.000000 0.282943
#
# Coordination Sequence:
#
# PCOD8080705 Si02
#       8
#     8   8   8   8   8   8   8   8
#     4   9  17  28  44  66  91 121 158 197 240 287
#     4   9  15  22  35  58  89 121 149 181 226 280
#     4   9  17  29  44  64  92 124 156 197 243 283
#     4   9  15  25  42  64  91 122 156 193 238 288
#     4  10  20  32  47  69  97 128 162 194 231 282
#     4  10  18  29  45  65  89 119 154 187 222 267
#     4   9  16  26  40  60  89 121 150 184 228 272
#     4  10  19  31  47  68  96 129 161 195 235 279
#
# _framework density 18.590384
#
# number of rings (size 3 to 8) (size 9 to 14) (size 15 to 20)
#    0.000    2.625    1.250    1.875    0.000    8.000 
#    0.000    0.000    0.000    0.000    0.000    0.875 
#    0.000   13.000    0.000    0.000    0.000    0.000 
#
# Total GULP energy -396422.424219 kJ/mol
# GULP energy per Si atom -12388.200757 kJ/mol
# Density = 1.854807 g / cm^3
# Si number density = 18.590384 Si / 1000 Ang^3
#
#
#
# Elastic Constant Matrix: (Units=GPa)
#
#
# Indices 1 2 3 4 5 6 
#
# 1 151.2880 21.9310 46.1487 0.0000 -13.2743 0.0000
# 2 21.9310 18.6709 7.7645 0.0001 -3.8577 0.0002
# 3 46.1487 7.7645 99.1501 0.0002 -7.1498 0.0001
# 4 0.0000 0.0001 0.0002 10.4197 0.0000 -2.3573
# 5 -13.2743 -3.8577 -7.1498 0.0000 37.2725 0.0000
# 6 0.0000 0.0002 0.0001 -2.3573 0.0000 16.5381
#
#
#
# Elastic Compliance Matrix: (Units=1/GPa)
#
#
# Indices 1 2 3 4 5 6 
#
# 1 0.009089 -0.008913 -0.003413 0.000000 0.001660 0.000000
# 2 -0.008913 0.065026 -0.000697 -0.000001 0.003422 -0.000001
# 3 -0.003413 -0.000697 0.011799 0.000000 0.000976 0.000000
# 4 0.000000 -0.000001 0.000000 0.099170 0.000000 0.014135
# 5 0.001660 0.003422 0.000976 0.000000 0.027962 0.000000
# 6 0.000000 -0.000001 0.000000 0.014135 0.000000 0.062481
#
#
# Mechanical properties :
#
#
# Convention : Reuss Voigt Hill
#
# Bulk Modulus (GPa) = 16.70338 46.75526 31.72932
# Shear Modulus (GPa) = 15.55073 25.73038 20.64055
#
# Velocity S-wave (km/s) = 2.89536 3.72434 3.33570
# Velocity P-wave (km/s) = 4.49243 6.61053 5.65160
#
# Compressibility (1/GPa) = 0.05986813
#
# Stress axis : x y z
#
# Youngs Moduli (GPa) = 110.02797 15.37846 84.75305
#
# Poissons Ratio (x) = 0.13708 0.28922
# Poissons Ratio (y) = 0.98073 0.05905
# Poissons Ratio (z) = 0.37547 0.01071
#
# Static dielectric constant tensor:
#      x y z
#    x -1.001550 0.000000 -5.531250 
#    y 0.000000 2.692820 0.000000 
#    z -5.531250 0.000000 -2.832020 
# 
# 
# High freq. dielectric constant tensor:
#      x y z
#    x 1.738330 0.000000 -0.001970 
#    y 0.000000 1.632490 0.000000 
#    z -0.001970 0.000000 1.733820 
# 
# From -- ./inp_files/367850.got.cif
#   From: 2010.06.25/outbox.cif.g09.slc.cpg/sg12_184_cif.got.tgz:367850.got - 2010.06.28 00:19:55.
