data_PCOD8080394
_publ_section_title
;
Structure prediction by ZEFSAII (Michael W. Deem and Ramdas Pophale) SiO2 
 PCOD8080394
Probable space group: C 2/M
;
_chemical_formula_sum "Si O2"
_cell_formula_units_Z 64
_cell_length_a 24.878867
_cell_length_b 9.336155
_cell_length_c 18.905701
_cell_angle_alpha 90.000000
_cell_angle_beta 116.596774
_cell_angle_gamma 90.000000
_cell_volume 3926.595094
_symmetry_space_group_name_H-M "C 2/M"
_symmetry_group_IT_number 12
_symmetry_cell_setting 'monoclinic'
loop_
_space_group_symop_operation_xyz
x,y,z
-x,y,-z
-x,-y,-z
x,-y,z
1/2+x,1/2+y,z
1/2-x,1/2+y,-z
1/2-x,1/2-y,-z
1/2+x,1/2-y,z
loop_
_atom_site_type_symbol
_atom_site_label
_atom_site_fract_x
_atom_site_fract_y
_atom_site_fract_z
Si Si1 0.007037 0.332581 0.827831
Si Si2 0.948440 0.832787 0.913740
Si Si3 0.001099 0.334221 0.663605
Si Si4 0.105970 0.164924 0.653573
Si Si5 0.208246 0.835993 0.820675
Si Si6 0.324708 0.664813 0.913134
Si Si7 0.433635 0.841664 0.492938
Si Si8 0.630592 0.667069 0.907298
O O1 0.012936 0.500000 0.848757
O O2 0.070913 0.259631 0.877982
O O3 0.957605 0.260395 0.848862
O O4 0.984012 0.306271 0.734535
O O5 0.885324 0.786128 0.909975
O O6 0.950379 0.000000 0.895120
O O7 0.000000 0.794896 0.000000
O O8 0.018858 0.500000 0.660651
O O9 0.942792 0.294779 0.580534
O O10 0.058388 0.239584 0.677117
O O11 0.171505 0.182933 0.726415
O O12 0.107849 0.233152 0.575958
O O13 0.087379 0.000000 0.635626
O O14 0.269652 0.751138 0.848152
O O15 0.169053 0.777881 0.863397
O O16 0.224598 0.000000 0.844966
O O17 0.311860 0.500000 0.890234
O O18 0.329926 0.693753 0.999738
O O19 0.500000 0.841070 0.500000
O O20 0.404734 0.000000 0.470827
O O21 0.612324 0.500000 0.889190
#
# Coordination Sequence:
#
# PCOD8080394 Si02
#       8
#     8   8   8   8   8   8   8   8
#     4  11  21  31  50  77  99 126 165 206 243 285
#     4  10  20  37  55  69  94 129 163 203 251 295
#     4   9  18  31  45  67  99 130 160 195 239 286
#     4  10  18  28  45  70  98 129 161 193 237 287
#     4  10  21  33  48  71 102 132 160 202 246 284
#     4  10  21  35  53  70  90 129 172 203 238 292
#     4   8  15  28  44  63  94 131 159 190 234 285
#     4  10  19  35  51  68  98 134 165 196 244 291
#
# _framework density 16.299109999999999
#
# number of rings (size 3 to 8) (size 9 to 14) (size 15 to 20)
#    0.000    2.250    2.500    1.875    0.000    5.500 
#    0.000    0.000    0.000    0.000    0.000    0.875 
#    0.000    0.000    0.000    0.000    0.000    0.000 
#
# Total GULP energy -396792.002540 kJ/mol
# GULP energy per Si atom -12399.750079 kJ/mol
# Density = 1.626201 g / cm^3
# Si number density = 16.299110 Si / 1000 Ang^3
#
#
#
# Elastic Constant Matrix: (Units=GPa)
#
#
# Indices 1 2 3 4 5 6 
#
# 1 73.4224 40.1525 41.3746 0.0000 5.2960 0.0000
# 2 40.1525 75.9461 52.4083 0.0000 0.9162 0.0000
# 3 41.3746 52.4083 103.8174 0.0000 -3.3885 0.0000
# 4 0.0000 0.0000 0.0000 29.0895 0.0000 1.6391
# 5 5.2960 0.9162 -3.3885 0.0000 17.5763 0.0000
# 6 0.0000 0.0000 0.0000 1.6391 0.0000 26.4585
#
#
#
# Elastic Compliance Matrix: (Units=1/GPa)
#
#
# Indices 1 2 3 4 5 6 
#
# 1 0.021005 -0.007815 -0.004648 0.000000 -0.006818 0.000000
# 2 -0.007815 0.023277 -0.008653 0.000000 -0.000527 0.000000
# 3 -0.004648 -0.008653 0.016014 0.000000 0.004939 0.000000
# 4 0.000000 0.000000 0.000000 0.034497 0.000000 -0.002137
# 5 -0.006818 -0.000527 0.004939 0.000000 0.059929 0.000000
# 6 0.000000 0.000000 0.000000 -0.002137 0.000000 0.037927
#
#
# Mechanical properties :
#
#
# Convention : Reuss Voigt Hill
#
# Bulk Modulus (GPa) = 55.36316 57.89520 56.62918
# Shear Modulus (GPa) = 20.75523 22.57489 21.66506
#
# Velocity S-wave (km/s) = 3.57234 3.72565 3.64980
# Velocity P-wave (km/s) = 7.14536 7.35560 7.25124
#
# Compressibility (1/GPa) = 0.01806255
#
# Stress axis : x y z
#
# Youngs Moduli (GPa) = 47.60768 42.96164 62.44483
#
# Poissons Ratio (x) = 0.33576 0.29027
# Poissons Ratio (y) = 0.37207 0.54033
# Poissons Ratio (z) = 0.22130 0.37174
#
# Static dielectric constant tensor:
#      x y z
#    x 2.830790 0.000000 -0.192900 
#    y 0.000000 3.124040 0.000000 
#    z -0.192900 0.000000 3.381250 
# 
# 
# High freq. dielectric constant tensor:
#      x y z
#    x 1.587750 0.000000 -0.009000 
#    y 0.000000 1.631290 0.000000 
#    z -0.009000 0.000000 1.634120 
# 
# From -- ./inp_files/323781.got.cif
#   From: 2010.06.25/outbox.cif.g09.slc.cpg/sg12_162_cif.got.tgz:323781.got - 2010.06.28 00:19:55.
