data_PCOD8080384
_publ_section_title
;
Structure prediction by ZEFSAII (Michael W. Deem and Ramdas Pophale) SiO2 
 PCOD8080384
Probable space group: C 2/M
;
_chemical_formula_sum "Si O2"
_cell_formula_units_Z 64
_cell_length_a 24.716711
_cell_length_b 9.347155
_cell_length_c 23.266255
_cell_angle_alpha 90.000000
_cell_angle_beta 133.177468
_cell_angle_gamma 90.000000
_cell_volume 3919.816753
_symmetry_space_group_name_H-M "C 2/M"
_symmetry_group_IT_number 12
_symmetry_cell_setting 'monoclinic'
loop_
_space_group_symop_operation_xyz
x,y,z
-x,y,-z
-x,-y,-z
x,-y,z
1/2+x,1/2+y,z
1/2-x,1/2+y,-z
1/2-x,1/2-y,-z
1/2+x,1/2-y,z
loop_
_atom_site_type_symbol
_atom_site_label
_atom_site_fract_x
_atom_site_fract_y
_atom_site_fract_z
Si Si1 0.838057 0.666562 0.340620
Si Si2 0.050325 0.835904 0.655690
Si Si3 0.685644 0.336045 0.178205
Si Si4 0.222810 0.334364 0.092593
Si Si5 0.020918 0.164598 0.080234
Si Si6 0.914660 0.666675 0.085540
Si Si7 0.942815 0.341519 0.510861
Si Si8 0.115149 0.835762 0.824560
O O1 0.856631 0.500000 0.342391
O O2 0.880871 0.757881 0.324172
O O3 0.750804 0.699383 0.271064
O O4 0.864287 0.706274 0.424862
O O5 0.059485 0.821714 0.730516
O O6 0.971037 0.766913 0.580335
O O7 0.050646 0.000000 0.635976
O O8 0.689179 0.500000 0.160534
O O9 0.692559 0.244618 0.126127
O O10 0.608075 0.304410 0.153210
O O11 0.228339 0.500000 0.113179
O O12 0.303443 0.276312 0.132939
O O13 0.166764 0.306201 0.999586
O O14 0.977163 0.267699 0.090466
O O15 0.000644 0.000000 0.079210
O O16 0.000000 0.203097 0.000000
O O17 0.931700 0.500000 0.105045
O O18 0.919427 0.740510 0.150689
O O19 0.936672 0.500000 0.533677
O O20 0.000000 0.340945 0.500000
O O21 0.121226 0.000000 0.849679
#
# Coordination Sequence:
#
# PCOD8080384 Si02
#       8
#     8   8   8   8   8   8   8   8
#     4   9  17  29  45  68  97 127 160 195 233 280
#     4  10  18  28  45  69  96 128 160 191 235 286
#     4  10  19  31  51  74  95 128 167 198 235 288
#     4  10  20  34  49  70  99 128 160 200 244 283
#     4  10  20  35  53  72  95 126 163 202 246 289
#     4  11  23  35  51  72  94 127 168 206 242 284
#     4   8  15  27  42  63  95 129 156 189 232 280
#     4  10  21  35  49  68  99 132 162 199 241 287
#
# _framework density 16.327293000000001
#
# number of rings (size 3 to 8) (size 9 to 14) (size 15 to 20)
#    0.000    2.250    2.500    1.875    0.000    5.000 
#    0.000    0.000    0.000    0.000    0.000    0.875 
#    0.000    0.000    0.000    0.000    0.000    0.000 
#
# Total GULP energy -396779.453251 kJ/mol
# GULP energy per Si atom -12399.357914 kJ/mol
# Density = 1.629013 g / cm^3
# Si number density = 16.327293 Si / 1000 Ang^3
#
#
#
# Elastic Constant Matrix: (Units=GPa)
#
#
# Indices 1 2 3 4 5 6 
#
# 1 65.8437 43.9633 37.2552 0.0000 -4.4619 0.0000
# 2 43.9633 83.2744 52.0446 0.0000 -5.4233 0.0000
# 3 37.2552 52.0446 110.6872 0.0000 5.6164 0.0000
# 4 0.0000 0.0000 0.0000 27.2624 0.0000 -3.7077
# 5 -4.4619 -5.4233 5.6164 0.0000 17.1898 0.0000
# 6 0.0000 0.0000 0.0000 -3.7077 0.0000 22.1552
#
#
#
# Elastic Compliance Matrix: (Units=1/GPa)
#
#
# Indices 1 2 3 4 5 6 
#
# 1 0.024426 -0.010407 -0.003542 0.000000 0.004214 0.000000
# 2 -0.010407 0.022631 -0.007487 0.000000 0.006885 0.000000
# 3 -0.003542 -0.007487 0.014148 0.000000 -0.007904 0.000000
# 4 0.000000 0.000000 0.000000 0.037535 0.000000 0.006282
# 5 0.004214 0.006885 -0.007904 0.000000 0.064023 0.000000
# 6 0.000000 0.000000 0.000000 0.006282 0.000000 0.046187
#
#
# Mechanical properties :
#
#
# Convention : Reuss Voigt Hill
#
# Bulk Modulus (GPa) = 54.54916 58.48129 56.51523
# Shear Modulus (GPa) = 19.38495 21.75763 20.57129
#
# Velocity S-wave (km/s) = 3.44942 3.65443 3.55340
# Velocity P-wave (km/s) = 7.02474 7.32819 7.17807
#
# Compressibility (1/GPa) = 0.01833209
#
# Stress axis : x y z
#
# Youngs Moduli (GPa) = 40.94030 44.18799 70.68135
#
# Poissons Ratio (x) = 0.45988 0.25032
# Poissons Ratio (y) = 0.42608 0.52921
# Poissons Ratio (z) = 0.14499 0.33084
#
# Static dielectric constant tensor:
#      x y z
#    x 2.767850 0.000000 0.213630 
#    y 0.000000 3.149150 0.000000 
#    z 0.213630 0.000000 3.492700 
# 
# 
# High freq. dielectric constant tensor:
#      x y z
#    x 1.585580 0.000000 0.009910 
#    y 0.000000 1.633130 0.000000 
#    z 0.009910 0.000000 1.638440 
# 
# From -- ./inp_files/326619.got.cif
#   From: 2010.06.25/outbox.cif.g09.slc.cpg/sg12_164_cif.got.tgz:326619.got - 2010.06.28 00:19:55.
