data_PCOD8080041
_publ_section_title
;
Structure prediction by ZEFSAII (Michael W. Deem and Ramdas Pophale) SiO2 
 PCOD8080041
Probable space group: C 2/M
;
_chemical_formula_sum "Si O2"
_cell_formula_units_Z 64
_cell_length_a 9.704174
_cell_length_b 17.382828
_cell_length_c 24.314507
_cell_angle_alpha 90.000000
_cell_angle_beta 52.301130
_cell_angle_gamma 90.000000
_cell_volume 3245.265941
_symmetry_space_group_name_H-M "C 2/M"
_symmetry_group_IT_number 12
_symmetry_cell_setting 'monoclinic'
loop_
_space_group_symop_operation_xyz
x,y,z
-x,y,-z
-x,-y,-z
x,-y,z
1/2+x,1/2+y,z
1/2-x,1/2+y,-z
1/2-x,1/2-y,-z
1/2+x,1/2-y,z
loop_
_atom_site_type_symbol
_atom_site_label
_atom_site_fract_x
_atom_site_fract_y
_atom_site_fract_z
Si Si1 0.656759 0.328952 0.244084
Si Si2 0.549720 0.345074 0.148983
Si Si3 0.638929 0.090772 0.510546
Si Si4 0.170566 0.649408 0.224847
Si Si5 0.474208 0.590811 0.620673
Si Si6 0.336641 0.827180 0.000890
Si Si7 0.960427 0.664780 0.857549
Si Si8 0.146104 0.589061 0.631073
O O1 0.608172 0.359536 0.196290
O O2 0.643049 0.236906 0.251219
O O3 0.532077 0.366013 0.319580
O O4 0.849022 0.362147 0.207777
O O5 0.360743 0.384773 0.191722
O O6 0.530055 0.256235 0.137924
O O7 0.695324 0.377356 0.070401
O O8 0.500000 0.126019 0.500000
O O9 0.837087 0.112631 0.448348
O O10 0.608820 0.125195 0.579540
O O11 0.611133 0.000000 0.517651
O O12 0.168037 0.640726 0.159546
O O13 0.022738 0.599498 0.289899
O O14 0.453579 0.500000 0.635281
O O15 0.321162 0.622799 0.617488
O O16 0.401163 0.872773 0.930367
O O17 0.500000 0.806657 0.000000
O O18 0.250000 0.750000 0.000000
O O19 0.183917 0.500000 0.612937
#
# Coordination Sequence:
#
# PCOD8080041 Si02
#       8
#     8   8   8   8   8   8   8   8
#     4  10  18  33  50  75 107 139 168 209 257 309
#     4   9  19  28  46  71 102 137 171 211 260 299
#     4   9  19  35  54  78 106 132 166 213 258 298
#     4  10  20  33  50  77 106 140 169 207 263 306
#     4  10  20  35  57  80 102 135 173 210 253 304
#     4  10  18  27  43  69 101 137 174 216 260 304
#     4   9  17  30  47  68 105 136 172 212 252 308
#     4  10  20  36  57  79 103 134 173 212 251 305
#
# _framework density 19.721034
#
# number of rings (size 3 to 8) (size 9 to 14) (size 15 to 20)
#    0.000    2.375    2.500    0.375    7.000    1.500 
#    0.000    0.625    0.000    0.000    0.000    5.250 
#    0.000    0.000    0.000    0.000    0.000    0.000 
#
# Total GULP energy -396537.283441 kJ/mol
# GULP energy per Si atom -12391.790108 kJ/mol
# Density = 1.967615 g / cm^3
# Si number density = 19.721034 Si / 1000 Ang^3
#
#
#
# Elastic Constant Matrix: (Units=GPa)
#
#
# Indices 1 2 3 4 5 6 
#
# 1 111.7543 12.0518 46.5161 0.0000 -7.3227 -0.0002
# 2 12.0518 9.4257 13.8583 -0.0006 6.0021 0.0001
# 3 46.5161 13.8583 137.5541 -0.0024 7.3653 0.0007
# 4 0.0000 -0.0006 -0.0024 7.4229 0.0009 -2.6661
# 5 -7.3227 6.0021 7.3653 0.0009 33.6409 -0.0002
# 6 -0.0002 0.0001 0.0007 -2.6661 -0.0002 12.8156
#
#
#
# Elastic Compliance Matrix: (Units=1/GPa)
#
#
# Indices 1 2 3 4 5 6 
#
# 1 0.012184 -0.015096 -0.002920 -0.000003 0.005985 0.000000
# 2 -0.015096 0.157647 -0.009203 0.000015 -0.029398 0.000002
# 3 -0.002920 -0.009203 0.009239 0.000002 -0.001016 0.000000
# 4 -0.000003 0.000015 0.000002 0.145598 -0.000008 0.030290
# 5 0.005985 -0.029398 -0.001016 -0.000008 0.036496 -0.000001
# 6 0.000000 0.000002 0.000000 0.030290 -0.000001 0.084331
#
#
# Mechanical properties :
#
#
# Convention : Reuss Voigt Hill
#
# Bulk Modulus (GPa) = 8.02370 44.84293 26.43332
# Shear Modulus (GPa) = 9.23399 23.19641 16.21520
#
# Velocity S-wave (km/s) = 2.16621 3.43334 2.87056
# Velocity P-wave (km/s) = 3.21466 6.20525 4.94162
#
# Compressibility (1/GPa) = 0.12463073
#
# Stress axis : x y z
#
# Youngs Moduli (GPa) = 82.07737 6.34327 108.23898
#
# Poissons Ratio (x) = 0.09576 0.31601
# Poissons Ratio (y) = 1.23908 0.99617
# Poissons Ratio (z) = 0.23963 0.05838
#
# Static dielectric constant tensor:
#      x y z
#    x 3.986190 0.000000 -0.191630 
#    y 0.000000 2.876350 0.000000 
#    z -0.191630 0.000000 4.363910 
# 
# 
# High freq. dielectric constant tensor:
#      x y z
#    x 1.789210 0.000000 0.002560 
#    y 0.000000 1.687430 0.000000 
#    z 0.002560 0.000000 1.790070 
# 
# From -- ./inp_files/301697.got.cif
#   From: 2010.06.25/outbox.cif.g09.slc.cpg/sg12_151_cif.got.tgz:301697.got - 2010.06.28 00:19:55.
