data_PCOD8080969
_publ_section_title
;
Structure prediction by ZEFSAII (Michael W. Deem and Ramdas Pophale) SiO2 
 PCOD8080969
Probable space group: C 2/M
;
_chemical_formula_sum "Si O2"
_cell_formula_units_Z 24
_cell_length_a 13.265252
_cell_length_b 5.289267
_cell_length_c 17.548081
_cell_angle_alpha 90.000000
_cell_angle_beta 125.793791
_cell_angle_gamma 90.000000
_cell_volume 998.687452
_symmetry_space_group_name_H-M "C 2/M"
_symmetry_group_IT_number 12
_symmetry_cell_setting 'monoclinic'
loop_
_space_group_symop_operation_xyz
x,y,z
-x,y,-z
-x,-y,-z
x,-y,z
1/2+x,1/2+y,z
1/2-x,1/2+y,-z
1/2-x,1/2-y,-z
1/2+x,1/2-y,z
loop_
_atom_site_type_symbol
_atom_site_label
_atom_site_fract_x
_atom_site_fract_y
_atom_site_fract_z
Si Si1 0.290974 0.000000 0.113384
Si Si2 0.866592 0.000000 0.571450
Si Si3 0.220674 0.000000 0.642199
Si Si4 0.860169 0.500000 0.412330
Si Si5 0.361644 0.000000 0.972179
Si Si6 0.967858 0.500000 0.683858
O O1 0.361682 0.000000 0.063722
O O2 0.394268 0.000000 0.223748
O O3 0.207500 0.750880 0.088023
O O4 0.737713 0.000000 0.561391
O O5 0.947318 0.249013 0.624350
O O6 0.829800 0.000000 0.467475
O O7 0.165640 0.743224 0.653851
O O8 0.370051 0.000000 0.711069
O O9 0.000000 0.500000 0.500000
O O10 0.500000 0.000000 0.000000
#
# Coordination Sequence:
#
# PCOD8080969 Si02
#       6
#     4   4   4   4   4   4
#     4  10  21  37  65  90 116 159 184 235 306 341
#     4  10  19  33  55  72 104 155 185 227 264 322
#     4  10  19  33  53  72 102 153 190 221 267 321
#     4  10  18  29  48  71  96 135 188 233 263 314
#     4  10  21  40  65  91 118 149 190 234 292 375
#     4  10  18  32  56  78 110 138 189 228 268 338
#
# _framework density 24.031542000000002
#
# number of rings (size 3 to 8) (size 9 to 14) (size 15 to 20)
#    0.000    2.000    0.000    7.000    0.000    0.000 
#    0.000    0.000   58.667    0.000    0.000    0.000 
#    0.000    0.000    0.000    0.000    0.000    0.000 
#
# Total GULP energy -148692.211417 kJ/mol
# GULP energy per Si atom -12391.017618 kJ/mol
# Density = 2.397685 g / cm^3
# Si number density = 24.031542 Si / 1000 Ang^3
#
#
#
# Elastic Constant Matrix: (Units=GPa)
#
#
# Indices 1 2 3 4 5 6 
#
# 1 144.0707 39.1143 48.8234 0.0000 35.2476 0.0000
# 2 39.1143 267.6740 54.5089 0.0000 28.8633 0.0000
# 3 48.8234 54.5089 109.2081 0.0000 34.1713 0.0000
# 4 0.0000 0.0000 0.0000 2.2148 0.0000 53.0144
# 5 35.2476 28.8633 34.1713 0.0000 29.7275 0.0000
# 6 0.0000 0.0000 0.0000 53.0144 0.0000 -105.8925
#
#
#
# Elastic Compliance Matrix: (Units=1/GPa)
#
#
# Indices 1 2 3 4 5 6 
#
# 1 0.009875 -0.000100 -0.001143 0.000000 -0.010298 0.000000
# 2 -0.000100 0.004290 -0.001297 0.000000 -0.002556 0.000000
# 3 -0.001143 -0.001297 0.014832 0.000000 -0.014435 0.000000
# 4 0.000000 0.000000 0.000000 0.034775 0.000000 0.017410
# 5 -0.010298 -0.002556 -0.014435 0.000000 0.064924 0.000000
# 6 0.000000 0.000000 0.000000 0.017410 0.000000 -0.000727
#
#
# Mechanical properties :
#
#
# Convention : Reuss Voigt Hill
#
# Bulk Modulus (GPa) = 41.80922 89.53844 65.67383
# Shear Modulus (GPa) = 35.45599 10.44370 22.94985
#
# Velocity S-wave (km/s) = 3.84525 2.08693 3.09364
# Velocity P-wave (km/s) = 6.09508 6.56861 6.33627
#
# Compressibility (1/GPa) = 0.02391817
#
# Stress axis : x y z
#
# Youngs Moduli (GPa) = 101.26732 233.08820 67.42363
#
# Poissons Ratio (x) = 0.02327 0.07704
# Poissons Ratio (y) = 0.01011 0.08744
# Poissons Ratio (z) = 0.11571 0.30227
#
# Static dielectric constant tensor:
#      x y z
#    x 4.485400 0.000000 0.223320 
#    y 0.000000 8.598670 0.000000 
#    z 0.223320 0.000000 3.837220 
# 
# 
# High freq. dielectric constant tensor:
#      x y z
#    x 1.968470 0.000000 0.026380 
#    y 0.000000 2.000500 0.000000 
#    z 0.026380 0.000000 1.905940 
# 
# From -- ./inp_files/307686.got.cif
#   From: 2010.06.25/outbox.cif.g09.slc.cpg/sg12_154_cif.got.tgz:307686.got - 2010.06.28 00:19:55.
