data_PCOD8080328
_publ_section_title
;
Structure prediction by ZEFSAII (Michael W. Deem and Ramdas Pophale) SiO2 
 PCOD8080328
Probable space group: C 2/M
;
_chemical_formula_sum "Si O2"
_cell_formula_units_Z 64
_cell_length_a 25.053841
_cell_length_b 9.010499
_cell_length_c 27.656084
_cell_angle_alpha 90.000000
_cell_angle_beta 38.276688
_cell_angle_gamma 90.000000
_cell_volume 3867.469412
_symmetry_space_group_name_H-M "C 2/M"
_symmetry_group_IT_number 12
_symmetry_cell_setting 'monoclinic'
loop_
_space_group_symop_operation_xyz
x,y,z
-x,y,-z
-x,-y,-z
x,-y,z
1/2+x,1/2+y,z
1/2-x,1/2+y,-z
1/2-x,1/2-y,-z
1/2+x,1/2-y,z
loop_
_atom_site_type_symbol
_atom_site_label
_atom_site_fract_x
_atom_site_fract_y
_atom_site_fract_z
Si Si1 0.592501 0.324843 0.416513
Si Si2 0.939756 0.828122 0.825616
Si Si3 0.625553 0.672675 0.659165
Si Si4 0.687399 0.825563 0.157837
Si Si5 0.311774 0.329636 0.992317
Si Si6 0.902728 0.824458 0.697154
Si Si7 0.804717 0.326941 0.576244
Si Si8 0.420733 0.824664 0.403473
O O1 0.500000 0.263201 0.500000
O O2 0.595602 0.500000 0.419839
O O3 0.607528 0.273855 0.350844
O O4 0.668613 0.257405 0.394249
O O5 0.887394 0.725798 0.825808
O O6 0.040505 0.790001 0.750841
O O7 0.922869 0.000000 0.823511
O O8 0.909238 0.798465 0.903631
O O9 0.629987 0.500000 0.641107
O O10 0.706601 0.716777 0.634461
O O11 0.629820 0.770375 0.607855
O O12 0.782964 0.784638 0.067568
O O13 0.678329 0.738702 0.214975
O O14 0.676834 0.000000 0.175092
O O15 0.288528 0.500000 0.003729
O O16 0.250000 0.250000 0.000000
O O17 0.988075 0.756417 0.659900
O O18 0.907866 0.000000 0.698369
O O19 0.814909 0.500000 0.578771
O O20 0.865457 0.276053 0.489077
O O21 0.434616 0.000000 0.391263
#
# Coordination Sequence:
#
# PCOD8080328 Si02
#       8
#     8   8   8   8   8   8   8   8
#     4  10  21  37  54  70  89 121 164 205 245 288
#     4   9  16  28  46  66  95 132 161 185 229 282
#     4  10  20  33  49  71 100 132 163 193 230 284
#     4  10  18  28  44  69  99 123 156 197 236 282
#     4   8  15  26  41  64  93 126 156 188 227 278
#     4  11  21  33  50  70  94 125 161 199 243 290
#     4  10  22  36  50  71  97 127 162 201 243 280
#     4  11  21  32  48  71  98 128 162 197 236 280
#
# _framework density 16.548287999999999
#
# number of rings (size 3 to 8) (size 9 to 14) (size 15 to 20)
#    0.000    2.125    2.500    1.500    0.000    2.750 
#    0.000    0.000    0.000    0.000    0.000    0.875 
#    0.000    7.000    0.000    0.000    0.000    0.000 
#
# Total GULP energy -396619.449845 kJ/mol
# GULP energy per Si atom -12394.357808 kJ/mol
# Density = 1.651062 g / cm^3
# Si number density = 16.548288 Si / 1000 Ang^3
#
#
#
# Elastic Constant Matrix: (Units=GPa)
#
#
# Indices 1 2 3 4 5 6 
#
# 1 81.9527 25.8983 43.9355 0.0004 13.1066 0.0018
# 2 25.8983 45.1879 34.4750 0.0000 9.6721 0.0019
# 3 43.9355 34.4750 127.8691 0.0006 21.7776 0.0026
# 4 0.0004 0.0000 0.0006 22.6308 -0.0005 4.2156
# 5 13.1066 9.6721 21.7776 -0.0005 18.0436 -0.0015
# 6 0.0018 0.0019 0.0026 4.2156 -0.0015 24.6391
#
#
#
# Elastic Compliance Matrix: (Units=1/GPa)
#
#
# Indices 1 2 3 4 5 6 
#
# 1 0.016631 -0.005989 -0.003259 0.000000 -0.004937 -0.000001
# 2 -0.005989 0.030822 -0.005261 0.000000 -0.005822 -0.000002
# 3 -0.003259 -0.005261 0.011927 0.000000 -0.009208 -0.000001
# 4 0.000000 0.000000 0.000000 0.045642 0.000001 -0.007809
# 5 -0.004937 -0.005822 -0.009208 0.000001 0.073242 0.000006
# 6 -0.000001 -0.000002 -0.000001 -0.007809 0.000006 0.041922
#
#
# Mechanical properties :
#
#
# Convention : Reuss Voigt Hill
#
# Bulk Modulus (GPa) = 32.93442 51.51413 42.22428
# Shear Modulus (GPa) = 19.28091 23.10944 21.19518
#
# Velocity S-wave (km/s) = 3.41710 3.74101 3.58272
# Velocity P-wave (km/s) = 5.95936 7.06098 6.53343
#
# Compressibility (1/GPa) = 0.03036337
#
# Stress axis : x y z
#
# Youngs Moduli (GPa) = 60.12690 32.44463 83.84492
#
# Poissons Ratio (x) = 0.19430 0.27325
# Poissons Ratio (y) = 0.36008 0.44107
# Poissons Ratio (z) = 0.19596 0.17068
#
# Static dielectric constant tensor:
#      x y z
#    x 2.790670 0.000000 0.057960 
#    y 0.000000 3.045160 0.000000 
#    z 0.057960 0.000000 3.781360 
# 
# 
# High freq. dielectric constant tensor:
#      x y z
#    x 1.590270 0.000000 0.007260 
#    y 0.000000 1.642180 0.000000 
#    z 0.007260 0.000000 1.654950 
# 
# From -- ./inp_files/346047.got.cif
#   From: 2010.06.25/outbox.cif.g09.slc.cpg/sg12_174_cif.got.tgz:346047.got - 2010.06.28 00:19:55.
