data_PCOD8080678
_publ_section_title
;
Structure prediction by ZEFSAII (Michael W. Deem and Ramdas Pophale) SiO2 
 PCOD8080678
Probable space group: C 2/M
;
_chemical_formula_sum "Si O2"
_cell_formula_units_Z 64
_cell_length_a 22.017137
_cell_length_b 24.897779
_cell_length_c 17.681816
_cell_angle_alpha 90.000000
_cell_angle_beta 24.976274
_cell_angle_gamma 90.000000
_cell_volume 4092.707451
_symmetry_space_group_name_H-M "C 2/M"
_symmetry_group_IT_number 12
_symmetry_cell_setting 'monoclinic'
loop_
_space_group_symop_operation_xyz
x,y,z
-x,y,-z
-x,-y,-z
x,-y,z
1/2+x,1/2+y,z
1/2-x,1/2+y,-z
1/2-x,1/2-y,-z
1/2+x,1/2-y,z
loop_
_atom_site_type_symbol
_atom_site_label
_atom_site_fract_x
_atom_site_fract_y
_atom_site_fract_z
Si Si1 0.192669 0.662096 0.997519
Si Si2 0.111196 0.754800 0.980309
Si Si3 0.783517 0.757057 0.298298
Si Si4 0.715727 0.652129 0.456202
Si Si5 0.445673 0.694732 0.813316
Si Si6 0.177046 0.938747 0.221362
Si Si7 0.088743 0.308309 0.631713
Si Si8 0.842583 0.939131 0.584102
O O1 0.327742 0.693342 0.880804
O O2 0.227130 0.601152 0.936636
O O3 0.145570 0.696481 0.977531
O O4 0.062751 0.659965 0.206412
O O5 0.133628 0.803532 0.015532
O O6 0.947039 0.756406 0.139748
O O7 0.220473 0.765214 0.787668
O O8 0.710792 0.700314 0.400718
O O9 0.691870 0.805510 0.441486
O O10 0.558663 0.646439 0.673901
O O11 0.834083 0.661736 0.386120
O O12 0.744497 0.597782 0.376786
O O13 0.547359 0.747596 0.700271
O O14 0.216340 0.930013 0.264846
O O15 0.011103 0.925263 0.393482
O O16 0.211512 0.000000 0.158553
O O17 0.815754 0.000000 0.588660
#
# Coordination Sequence:
#
# PCOD8080678 Si02
#       8
#     8   8   8   8   8   8   8   8
#     4  11  19  31  48  69  92 127 160 190 233 279
#     4  10  18  29  44  67  94 123 159 187 226 275
#     4  10  18  29  45  65  94 128 155 185 226 283
#     4  11  16  31  48  64  92 124 160 183 230 282
#     4  10  18  31  45  66  92 122 158 192 226 275
#     4   9  18  33  47  68  96 123 160 201 239 267
#     4  10  19  31  45  66  94 124 155 189 232 274
#     4   9  18  31  49  69  93 124 162 204 230 267
#
# _framework density 15.63757
#
# number of rings (size 3 to 8) (size 9 to 14) (size 15 to 20)
#    0.000    2.000    5.000    3.750    0.000    0.000 
#    0.000    3.750    0.000    1.500    0.000    0.000 
#    0.000    6.000    0.000    0.000    0.000    0.000 
#
# Total GULP energy -396479.842367 kJ/mol
# GULP energy per Si atom -12389.995074 kJ/mol
# Density = 1.560198 g / cm^3
# Si number density = 15.637570 Si / 1000 Ang^3
#
#
#
# Elastic Constant Matrix: (Units=GPa)
#
#
# Indices 1 2 3 4 5 6 
#
# 1 69.7711 34.8904 35.8881 0.0215 7.1555 -0.0049
# 2 34.8904 66.8846 27.5678 0.0223 7.2705 -0.0016
# 3 35.8881 27.5678 74.8689 0.0184 8.4131 0.0011
# 4 0.0215 0.0223 0.0184 15.3974 -0.0012 0.8604
# 5 7.1555 7.2705 8.4131 -0.0012 27.8956 0.0052
# 6 -0.0049 -0.0016 0.0011 0.8604 0.0052 26.6258
#
#
#
# Elastic Compliance Matrix: (Units=1/GPa)
#
#
# Indices 1 2 3 4 5 6 
#
# 1 0.022625 -0.008549 -0.007552 -0.000011 -0.001298 0.000005
# 2 -0.008549 0.021059 -0.003401 -0.000015 -0.002270 0.000001
# 3 -0.007552 -0.003401 0.018540 -0.000007 -0.002768 -0.000002
# 4 -0.000011 -0.000015 -0.000007 0.065064 0.000012 -0.002103
# 5 -0.001298 -0.002270 -0.002768 0.000012 0.037607 -0.000008
# 6 0.000005 0.000001 -0.000002 -0.002103 -0.000008 0.037626
#
#
# Mechanical properties :
#
#
# Convention : Reuss Voigt Hill
#
# Bulk Modulus (GPa) = 43.06487 45.35748 44.21117
# Shear Modulus (GPa) = 20.05902 21.52897 20.79400
#
# Velocity S-wave (km/s) = 3.58543 3.71448 3.65052
# Velocity P-wave (km/s) = 6.68876 6.88948 6.78986
#
# Compressibility (1/GPa) = 0.02322078
#
# Stress axis : x y z
#
# Youngs Moduli (GPa) = 44.19907 47.48503 53.93747
#
# Poissons Ratio (x) = 0.40593 0.40731
# Poissons Ratio (y) = 0.37784 0.18347
# Poissons Ratio (z) = 0.33377 0.16152
#
# Static dielectric constant tensor:
#      x y z
#    x 3.032550 -0.000010 0.215790 
#    y -0.000010 2.748220 0.000080 
#    z 0.215790 0.000080 3.317290 
# 
# 
# High freq. dielectric constant tensor:
#      x y z
#    x 1.591730 0.000000 -0.004060 
#    y 0.000000 1.558750 0.000010 
#    z -0.004060 0.000010 1.605620 
# 
# From -- ./inp_files/279394.got.cif
#   From: 2010.06.25/outbox.cif.g09.slc.cpg/sg12_140_cif.got.tgz:279394.got - 2010.06.28 00:19:55.
