data_PCOD8080015
_publ_section_title
;
Structure prediction by ZEFSAII (Michael W. Deem and Ramdas Pophale) SiO2 
 PCOD8080015
Probable space group: C 2/M
;
_chemical_formula_sum "Si O2"
_cell_formula_units_Z 44
_cell_length_a 22.176140
_cell_length_b 16.640213
_cell_length_c 14.108646
_cell_angle_alpha 90.000000
_cell_angle_beta 31.432625
_cell_angle_gamma 90.000000
_cell_volume 2715.068535
_symmetry_space_group_name_H-M "C 2/M"
_symmetry_group_IT_number 12
_symmetry_cell_setting 'monoclinic'
loop_
_space_group_symop_operation_xyz
x,y,z
-x,y,-z
-x,-y,-z
x,-y,z
1/2+x,1/2+y,z
1/2-x,1/2+y,-z
1/2-x,1/2-y,-z
1/2+x,1/2-y,z
loop_
_atom_site_type_symbol
_atom_site_label
_atom_site_fract_x
_atom_site_fract_y
_atom_site_fract_z
Si Si1 0.882669 0.095494 0.319381
Si Si2 0.865753 0.592559 0.277880
Si Si3 0.186892 0.904703 0.235789
Si Si4 0.988987 0.094609 0.368450
Si Si5 0.000000 0.191627 0.000000
Si Si6 0.600080 0.836179 0.967230
O O1 0.752390 0.123968 0.516715
O O2 0.965720 0.126563 0.293583
O O3 0.921588 0.135837 0.170469
O O4 0.890087 0.000000 0.298200
O O5 0.882574 0.500000 0.278306
O O6 0.863485 0.605042 0.167746
O O7 0.973998 0.640345 0.177826
O O8 0.109045 0.874334 0.428060
O O9 0.303868 0.850823 0.080514
O O10 0.117601 0.882280 0.232129
O O11 0.214862 0.000000 0.202088
O O12 0.975586 0.000000 0.387800
O O13 0.910793 0.245326 0.057471
#
# Coordination Sequence:
#
# PCOD8080015 Si02
#       6
#     8   8   8   8   4   8
#     4  10  18  33  49  65  85 118 160 195 216 248
#     4   9  16  26  45  67  89 117 146 181 226 269
#     4   9  14  26  45  71  96 114 139 179 227 278
#     4   8  15  25  46  70  89 113 147 186 224 258
#     4  10  23  32  41  64  92 128 160 180 213 256
#     4  10  18  27  42  69 100 118 137 172 235 284
#
# _framework density 16.205853000000001
#
# number of rings (size 3 to 8) (size 9 to 14) (size 15 to 20)
#    0.000    2.909    1.818    3.545    0.000    2.909 
#    0.000    0.909    0.000    0.000    0.000    0.000 
#    0.000    7.273    0.000    0.000    0.000    0.000 
#
# Total GULP energy -272625.181442 kJ/mol
# GULP energy per Si atom -12392.053702 kJ/mol
# Density = 1.616897 g / cm^3
# Si number density = 16.205853 Si / 1000 Ang^3
#
#
#
# Elastic Constant Matrix: (Units=GPa)
#
#
# Indices 1 2 3 4 5 6 
#
# 1 92.9773 37.5268 65.3228 0.0000 -25.5913 0.0000
# 2 37.5268 43.7313 36.6354 0.0000 -5.8634 0.0000
# 3 65.3228 36.6354 105.7107 0.0000 -11.9847 0.0000
# 4 0.0000 0.0000 0.0000 9.9359 0.0000 3.4574
# 5 -25.5913 -5.8634 -11.9847 0.0000 27.8148 0.0000
# 6 0.0000 0.0000 0.0000 3.4574 0.0000 13.4357
#
#
#
# Elastic Compliance Matrix: (Units=1/GPa)
#
#
# Indices 1 2 3 4 5 6 
#
# 1 0.029385 -0.013031 -0.011448 0.000000 0.019357 0.000000
# 2 -0.013031 0.038115 -0.005893 0.000000 -0.006493 0.000000
# 3 -0.011448 -0.005893 0.018127 0.000000 -0.003965 0.000000
# 4 0.000000 0.000000 0.000000 0.110543 0.000000 -0.028446
# 5 0.019357 -0.006493 -0.003965 0.000000 0.050684 0.000000
# 6 0.000000 0.000000 0.000000 -0.028446 0.000000 0.081748
#
#
# Mechanical properties :
#
#
# Convention : Reuss Voigt Hill
#
# Bulk Modulus (GPa) = 40.18703 57.93215 49.05959
# Shear Modulus (GPa) = 12.57414 17.09958 14.83686
#
# Velocity S-wave (km/s) = 2.78852 3.25183 3.02905
# Velocity P-wave (km/s) = 5.93460 7.06572 6.52472
#
# Compressibility (1/GPa) = 0.02488365
#
# Stress axis : x y z
#
# Youngs Moduli (GPa) = 34.03063 26.23622 55.16675
#
# Poissons Ratio (x) = 0.34187 0.63154
# Poissons Ratio (y) = 0.44344 0.32512
# Poissons Ratio (z) = 0.38958 0.15462
#
# Static dielectric constant tensor:
#      x y z
#    x 3.239130 0.000000 -0.233240 
#    y 0.000000 2.747180 0.000000 
#    z -0.233240 0.000000 3.003980 
# 
# 
# High freq. dielectric constant tensor:
#      x y z
#    x 1.608550 0.000000 -0.023180 
#    y 0.000000 1.594480 0.000000 
#    z -0.023180 0.000000 1.609310 
# 
# From -- ./inp_files/240338.got.cif
#   From: 2010.06.25/outbox.cif.g09.slc.cpg/sg12_121_cif.got.tgz:240338.got - 2010.06.28 00:19:55.
