data_PCOD8080088
_publ_section_title
;
Structure prediction by ZEFSAII (Michael W. Deem and Ramdas Pophale) SiO2 
 PCOD8080088
Probable space group: C 2/M
;
_chemical_formula_sum "Si O2"
_cell_formula_units_Z 56
_cell_length_a 20.287456
_cell_length_b 9.316077
_cell_length_c 18.924632
_cell_angle_alpha 90.000000
_cell_angle_beta 112.683049
_cell_angle_gamma 90.000000
_cell_volume 3300.092662
_symmetry_space_group_name_H-M "C 2/M"
_symmetry_group_IT_number 12
_symmetry_cell_setting 'monoclinic'
loop_
_space_group_symop_operation_xyz
x,y,z
-x,y,-z
-x,-y,-z
x,-y,z
1/2+x,1/2+y,z
1/2-x,1/2+y,-z
1/2-x,1/2-y,-z
1/2+x,1/2-y,z
loop_
_atom_site_type_symbol
_atom_site_label
_atom_site_fract_x
_atom_site_fract_y
_atom_site_fract_z
Si Si1 0.727890 0.159496 0.648591
Si Si2 0.611871 0.658576 0.343901
Si Si3 0.930926 0.336173 0.797657
Si Si4 0.805470 0.832260 0.974742
Si Si5 0.695428 0.666028 0.186445
Si Si6 0.050565 0.336376 0.956378
Si Si7 0.314962 0.668107 0.491294
O O1 0.807396 0.163774 0.650367
O O2 0.737018 0.205719 0.734763
O O3 0.675403 0.267162 0.583866
O O4 0.695150 0.000000 0.628516
O O5 0.579351 0.500000 0.319395
O O6 0.564289 0.769222 0.279282
O O7 0.615244 0.694215 0.429778
O O8 0.906549 0.500000 0.780024
O O9 0.873962 0.258548 0.824124
O O10 0.008263 0.323093 0.865249
O O11 0.884031 0.771811 0.020795
O O12 0.805102 0.000000 0.993487
O O13 0.750000 0.750000 0.000000
O O14 0.781571 0.804982 0.884172
O O15 0.674267 0.500000 0.190032
O O16 0.077539 0.500000 0.978984
O O17 0.000000 0.289915 0.000000
O O18 0.297112 0.500000 0.478604
O O19 0.250000 0.750000 0.500000
#
# Coordination Sequence:
#
# PCOD8080088 Si02
#       7
#     8   8   8   8   8   8   8
#     4   8  14  24  37  54  79 112 149 188 226 271
#     4   8  15  25  35  52  85 120 149 187 230 276
#     4  10  18  27  45  69  91 120 157 198 237 277
#     4  11  23  37  54  73  97 130 165 203 247 295
#     4   9  18  31  45  64  91 122 156 194 239 287
#     4  10  20  35  52  73 101 127 159 205 248 288
#     4   9  15  22  32  50  78 114 150 183 225 272
#
# _framework density 16.969218999999999
#
# number of rings (size 3 to 8) (size 9 to 14) (size 15 to 20)
#    0.000    2.714    1.429    3.000    0.000    7.714 
#    0.000    0.000    0.000    0.000    0.000    0.000 
#    0.000    1.143    0.000   12.857    0.000    8.429 
#
# Total GULP energy -346988.238046 kJ/mol
# GULP energy per Si atom -12392.437073 kJ/mol
# Density = 1.693060 g / cm^3
# Si number density = 16.969219 Si / 1000 Ang^3
#
#
#
# Elastic Constant Matrix: (Units=GPa)
#
#
# Indices 1 2 3 4 5 6 
#
# 1 48.2590 41.0160 37.2643 0.0000 -1.6557 0.0000
# 2 41.0160 118.5359 77.5681 0.0000 3.2716 0.0000
# 3 37.2643 77.5681 148.2422 0.0000 10.0560 0.0000
# 4 0.0000 0.0000 0.0000 33.5941 0.0000 3.7482
# 5 -1.6557 3.2716 10.0560 0.0000 10.9069 0.0000
# 6 0.0000 0.0000 0.0000 3.7482 0.0000 19.0206
#
#
#
# Elastic Compliance Matrix: (Units=1/GPa)
#
#
# Indices 1 2 3 4 5 6 
#
# 1 0.031592 -0.008433 -0.004294 0.000000 0.011285 0.000000
# 2 -0.008433 0.015144 -0.005770 0.000000 -0.000502 0.000000
# 3 -0.004294 -0.005770 0.011490 0.000000 -0.009515 0.000000
# 4 0.000000 0.000000 0.000000 0.030436 0.000000 -0.005998
# 5 0.011285 -0.000502 -0.009515 0.000000 0.102321 0.000000
# 6 0.000000 0.000000 0.000000 -0.005998 0.000000 0.053757
#
#
# Mechanical properties :
#
#
# Convention : Reuss Voigt Hill
#
# Bulk Modulus (GPa) = 47.10102 69.63708 58.36905
# Shear Modulus (GPa) = 17.31230 23.31688 20.31459
#
# Velocity S-wave (km/s) = 3.19755 3.71087 3.46373
# Velocity P-wave (km/s) = 6.43812 7.71279 7.10410
#
# Compressibility (1/GPa) = 0.02123096
#
# Stress axis : x y z
#
# Youngs Moduli (GPa) = 31.65378 66.03270 87.03232
#
# Poissons Ratio (x) = 0.55683 0.37376
# Poissons Ratio (y) = 0.26693 0.50220
# Poissons Ratio (z) = 0.13594 0.38103
#
# Static dielectric constant tensor:
#      x y z
#    x 2.615780 0.000000 0.082050 
#    y 0.000000 3.376000 0.000000 
#    z 0.082050 0.000000 4.199310 
# 
# 
# High freq. dielectric constant tensor:
#      x y z
#    x 1.569130 0.000000 0.014550 
#    y 0.000000 1.664980 0.000000 
#    z 0.014550 0.000000 1.681280 
# 
# From -- ./inp_files/280386.got.cif
#   From: 2010.06.25/outbox.cif.g09.slc.cpg/sg12_141_cif.got.tgz:280386.got - 2010.06.28 00:19:55.
