data_PCOD8080570
_publ_section_title
;
Structure prediction by ZEFSAII (Michael W. Deem and Ramdas Pophale) SiO2 
 PCOD8080570
Probable space group: C 2/M
;
_chemical_formula_sum "Si O2"
_cell_formula_units_Z 40
_cell_length_a 28.547441
_cell_length_b 9.262837
_cell_length_c 12.466345
_cell_angle_alpha 90.000000
_cell_angle_beta 135.887125
_cell_angle_gamma 90.000000
_cell_volume 2294.593997
_symmetry_space_group_name_H-M "C 2/M"
_symmetry_group_IT_number 12
_symmetry_cell_setting 'monoclinic'
loop_
_space_group_symop_operation_xyz
x,y,z
-x,y,-z
-x,-y,-z
x,-y,z
1/2+x,1/2+y,z
1/2-x,1/2+y,-z
1/2-x,1/2-y,-z
1/2+x,1/2-y,z
loop_
_atom_site_type_symbol
_atom_site_label
_atom_site_fract_x
_atom_site_fract_y
_atom_site_fract_z
Si Si1 0.042544 0.335164 0.794674
Si Si2 0.092816 0.832497 0.453519
Si Si3 0.422213 0.659626 0.340297
Si Si4 0.319476 0.331335 0.602208
Si Si5 0.425811 0.835246 0.914098
O O1 0.028578 0.500000 0.740797
O O2 0.089458 0.266584 0.778578
O O3 0.970938 0.258434 0.690068
O O4 0.082359 0.321729 0.971422
O O5 0.116202 0.790512 0.613607
O O6 0.154532 0.802623 0.475668
O O7 0.070605 0.000000 0.415012
O O8 0.500000 0.659481 0.500000
O O9 0.398466 0.500000 0.265882
O O10 0.309002 0.500000 0.607332
O O11 0.250000 0.250000 0.500000
O O12 0.372360 0.271434 0.774508
O O13 0.412360 0.000000 0.854286
O O14 0.500000 0.786554 0.000000
#
# Coordination Sequence:
#
# PCOD8080570 Si02
#       5
#     8   8   8   8   8
#     4  10  18  28  48  77 105 132 166 211 257 299
#     4   9  18  32  49  71 101 137 171 207 253 307
#     4   8  15  28  45  68 101 134 165 205 254 304
#     4  11  23  37  55  77 104 139 178 215 258 312
#     4  10  20  35  53  76 108 140 170 213 263 305
#
# _framework density 17.432276999999999
#
# number of rings (size 3 to 8) (size 9 to 14) (size 15 to 20)
#    0.000    2.400    2.000    2.400    0.000    6.400 
#    0.000    0.000    0.000    1.200    0.000    0.000 
#    0.000    0.000    0.000    0.000    0.000    0.000 
#
# Total GULP energy -247949.251331 kJ/mol
# GULP energy per Si atom -12397.462567 kJ/mol
# Density = 1.739260 g / cm^3
# Si number density = 17.432277 Si / 1000 Ang^3
#
#
#
# Elastic Constant Matrix: (Units=GPa)
#
#
# Indices 1 2 3 4 5 6 
#
# 1 117.9939 68.4710 61.3691 0.0000 -17.2565 0.0000
# 2 68.4710 111.8534 56.1158 0.0000 -4.9969 0.0000
# 3 61.3691 56.1158 75.9530 0.0000 -8.3590 0.0000
# 4 0.0000 0.0000 0.0000 30.0512 0.0000 -3.8593
# 5 -17.2565 -4.9969 -8.3590 0.0000 28.8484 0.0000
# 6 0.0000 0.0000 0.0000 -3.8593 0.0000 27.4931
#
#
#
# Elastic Compliance Matrix: (Units=1/GPa)
#
#
# Indices 1 2 3 4 5 6 
#
# 1 0.017681 -0.005925 -0.009149 0.000000 0.006899 0.000000
# 2 -0.005925 0.016201 -0.007503 0.000000 -0.002912 0.000000
# 3 -0.009149 -0.007503 0.026192 0.000000 0.000817 0.000000
# 4 0.000000 0.000000 0.000000 0.033887 0.000000 0.004757
# 5 0.006899 -0.002912 0.000817 0.000000 0.038523 0.000000
# 6 0.000000 0.000000 0.000000 0.004757 0.000000 0.037041
#
#
# Mechanical properties :
#
#
# Convention : Reuss Voigt Hill
#
# Bulk Modulus (GPa) = 67.02616 75.30134 71.16375
# Shear Modulus (GPa) = 22.76326 25.26815 24.01570
#
# Velocity S-wave (km/s) = 3.61752 3.81137 3.71571
# Velocity P-wave (km/s) = 7.48208 7.91574 7.70196
#
# Compressibility (1/GPa) = 0.01491955
#
# Stress axis : x y z
#
# Youngs Moduli (GPa) = 56.55894 61.72290 38.18016
#
# Poissons Ratio (x) = 0.36571 0.34931
# Poissons Ratio (y) = 0.33512 0.28647
# Poissons Ratio (z) = 0.51745 0.46311
#
# Static dielectric constant tensor:
#      x y z
#    x 3.671860 0.000000 -0.404460 
#    y 0.000000 3.350440 0.000000 
#    z -0.404460 0.000000 3.104030 
# 
# 
# High freq. dielectric constant tensor:
#      x y z
#    x 1.670910 0.000000 -0.038010 
#    y 0.000000 1.681190 0.000000 
#    z -0.038010 0.000000 1.640640 
# 
# From -- ./inp_files/162653.got.cif
#   From: 2010.06.25/outbox.cif.g09.slc.cpg/sg12_82_cif.got.tgz:162653.got - 2010.06.28 00:19:55.
