data_PCOD8080895
_publ_section_title
;
Structure prediction by ZEFSAII (Michael W. Deem and Ramdas Pophale) SiO2 
 PCOD8080895
Probable space group: C 2/M
;
_chemical_formula_sum "Si O2"
_cell_formula_units_Z 64
_cell_length_a 24.885043
_cell_length_b 9.702202
_cell_length_c 15.194602
_cell_angle_alpha 90.000000
_cell_angle_beta 108.272894
_cell_angle_gamma 90.000000
_cell_volume 3483.588226
_symmetry_space_group_name_H-M "C 2/M"
_symmetry_group_IT_number 12
_symmetry_cell_setting 'monoclinic'
loop_
_space_group_symop_operation_xyz
x,y,z
-x,y,-z
-x,-y,-z
x,-y,z
1/2+x,1/2+y,z
1/2-x,1/2+y,-z
1/2-x,1/2-y,-z
1/2+x,1/2-y,z
loop_
_atom_site_type_symbol
_atom_site_label
_atom_site_fract_x
_atom_site_fract_y
_atom_site_fract_z
Si Si1 0.438908 0.341906 0.499439
Si Si2 0.612820 0.659412 0.169618
Si Si3 0.894377 0.348555 0.995040
Si Si4 0.360951 0.154249 0.346049
Si Si5 0.757685 0.844958 0.773504
Si Si6 0.072635 0.339838 0.793226
Si Si7 0.964599 0.158155 0.708916
Si Si8 0.237655 0.348818 0.072325
O O1 0.500000 0.285283 0.500000
O O2 0.432588 0.500000 0.466319
O O3 0.389223 0.258042 0.428095
O O4 0.431760 0.324555 0.600188
O O5 0.603067 0.500000 0.142039
O O6 0.587911 0.742991 0.073036
O O7 0.678857 0.687307 0.227956
O O8 0.577668 0.706800 0.236285
O O9 0.922813 0.500000 0.994861
O O10 0.828356 0.368668 0.953305
O O11 0.908968 0.289688 0.099612
O O12 0.292546 0.164356 0.324395
O O13 0.377728 0.186289 0.252680
O O14 0.381423 0.000000 0.380267
O O15 0.738195 0.728463 0.831028
O O16 0.757166 0.000000 0.814956
O O17 0.056018 0.500000 0.788015
O O18 0.019224 0.252947 0.735085
O O19 0.983741 0.000000 0.731963
O O20 0.266555 0.500000 0.076954
O O21 0.250000 0.250000 0.000000
#
# Coordination Sequence:
#
# PCOD8080895 Si02
#       8
#     8   8   8   8   8   8   8   8
#     4  10  20  36  56  78 106 137 169 211 264 315
#     4   9  19  36  56  75 101 140 180 213 253 304
#     4   9  19  34  50  72 105 140 175 215 257 302
#     4  10  20  34  55  81 108 134 168 216 263 312
#     4   9  18  34  53  74 102 136 173 214 259 307
#     4  10  20  33  51  77 106 137 171 212 262 308
#     4  10  21  37  55  76 103 136 174 217 260 309
#     4  10  18  29  47  71 102 139 177 217 259 306
#
# _framework density 18.371860999999999
#
# number of rings (size 3 to 8) (size 9 to 14) (size 15 to 20)
#    0.000    2.375    1.250    1.125    0.000    5.250 
#    0.000    4.375    0.000    0.000    0.000    0.000 
#    0.000    0.000    0.000    0.000    0.000    0.000 
#
# Total GULP energy -396591.471609 kJ/mol
# GULP energy per Si atom -12393.483488 kJ/mol
# Density = 1.833005 g / cm^3
# Si number density = 18.371861 Si / 1000 Ang^3
#
#
#
# Elastic Constant Matrix: (Units=GPa)
#
#
# Indices 1 2 3 4 5 6 
#
# 1 44.8199 18.3653 16.3662 0.0000 2.4757 0.0000
# 2 18.3653 72.7637 30.7745 0.0000 2.7550 0.0000
# 3 16.3662 30.7745 86.1405 0.0000 0.7923 0.0000
# 4 0.0000 0.0000 0.0000 33.3675 0.0000 2.4030
# 5 2.4757 2.7550 0.7923 0.0000 30.4917 0.0000
# 6 0.0000 0.0000 0.0000 2.4030 0.0000 19.6436
#
#
#
# Elastic Compliance Matrix: (Units=1/GPa)
#
#
# Indices 1 2 3 4 5 6 
#
# 1 0.025599 -0.005127 -0.003018 0.000000 -0.001537 0.000000
# 2 -0.005127 0.017269 -0.005186 0.000000 -0.001009 0.000000
# 3 -0.003018 -0.005186 0.014032 0.000000 0.000349 0.000000
# 4 0.000000 0.000000 0.000000 0.030236 0.000000 -0.003699
# 5 -0.001537 -0.001009 0.000349 0.000000 0.033003 0.000000
# 6 0.000000 0.000000 0.000000 -0.003699 0.000000 0.051360
#
#
# Mechanical properties :
#
#
# Convention : Reuss Voigt Hill
#
# Bulk Modulus (GPa) = 33.07056 37.19290 35.13173
# Shear Modulus (GPa) = 24.01094 25.91510 24.96302
#
# Velocity S-wave (km/s) = 3.61909 3.75985 3.69014
# Velocity P-wave (km/s) = 5.95848 6.25596 6.10903
#
# Compressibility (1/GPa) = 0.03023838
#
# Stress axis : x y z
#
# Youngs Moduli (GPa) = 39.06383 57.90845 71.26605
#
# Poissons Ratio (x) = 0.29687 0.21509
# Poissons Ratio (y) = 0.20026 0.36959
# Poissons Ratio (z) = 0.11790 0.30032
#
# Static dielectric constant tensor:
#      x y z
#    x 3.352090 0.000000 -0.080270 
#    y 0.000000 3.750810 0.000000 
#    z -0.080270 0.000000 3.322270 
# 
# 
# High freq. dielectric constant tensor:
#      x y z
#    x 1.700070 0.000000 0.004050 
#    y 0.000000 1.718390 0.000000 
#    z 0.004050 0.000000 1.699700 
# 
# From -- ./inp_files/244173.got.cif
#   From: 2010.06.25/outbox.cif.g09.slc.cpg/sg12_123_cif.got.tgz:244173.got - 2010.06.28 00:19:55.
