data_PCOD8080514
_publ_section_title
;
Structure prediction by ZEFSAII (Michael W. Deem and Ramdas Pophale) SiO2 
 PCOD8080514
Probable space group: C 2/M
;
_chemical_formula_sum "Si O2"
_cell_formula_units_Z 32
_cell_length_a 9.276523
_cell_length_b 30.401669
_cell_length_c 5.348180
_cell_angle_alpha 90.000000
_cell_angle_beta 81.410654
_cell_angle_gamma 90.000000
_cell_volume 1491.386379
_symmetry_space_group_name_H-M "C 2/M"
_symmetry_group_IT_number 12
_symmetry_cell_setting 'monoclinic'
loop_
_space_group_symop_operation_xyz
x,y,z
-x,y,-z
-x,-y,-z
x,-y,z
1/2+x,1/2+y,z
1/2-x,1/2+y,-z
1/2-x,1/2-y,-z
1/2+x,1/2-y,z
loop_
_atom_site_type_symbol
_atom_site_label
_atom_site_fract_x
_atom_site_fract_y
_atom_site_fract_z
Si Si1 0.590260 0.276181 0.234502
Si Si2 0.830237 0.587940 0.782418
Si Si3 0.153420 0.682896 0.082211
Si Si4 0.345455 0.051660 0.280400
O O1 0.500000 0.291781 0.500000
O O2 0.644463 0.225823 0.263537
O O3 0.500000 0.278353 0.000000
O O4 0.729597 0.307862 0.169086
O O5 0.800598 0.640213 0.770583
O O6 0.758101 0.565327 0.555485
O O7 0.001060 0.576671 0.747468
O O8 0.758679 0.568116 0.055678
O O9 0.000000 0.671461 0.000000
O O10 0.372664 0.000000 0.262291
#
# Coordination Sequence:
#
# PCOD8080514 Si02
#       4
#     8   8   8   8
#     4  10  24  40  56  78 116 152 185 238 278 328
#     4  10  18  28  47  73 103 144 171 217 261 344
#     4  10  21  37  59  84 109 148 197 229 278 326
#     4  10  18  29  44  73 115 142 161 219 292 331
#
# _framework density 21.456547
#
# number of rings (size 3 to 8) (size 9 to 14) (size 15 to 20)
#    0.000    2.000    2.500    3.750    3.500   11.000 
#    0.000    0.000    0.000    0.000    0.000    0.000 
#    0.000   34.000    0.000    0.000    0.000    0.000 
#
# Total GULP energy -198290.179990 kJ/mol
# GULP energy per Si atom -12393.136249 kJ/mol
# Density = 2.140771 g / cm^3
# Si number density = 21.456547 Si / 1000 Ang^3
#
#
#
# Elastic Constant Matrix: (Units=GPa)
#
#
# Indices 1 2 3 4 5 6 
#
# 1 39.4681 23.8748 42.0493 0.0000 -13.3060 0.0000
# 2 23.8748 149.8473 50.0751 0.0000 -3.0186 0.0000
# 3 42.0493 50.0751 195.1942 0.0000 12.5434 0.0000
# 4 0.0000 0.0000 0.0000 27.1554 0.0000 -5.3748
# 5 -13.3060 -3.0186 12.5434 0.0000 28.7004 0.0000
# 6 0.0000 0.0000 0.0000 -5.3748 0.0000 9.7618
#
#
#
# Elastic Compliance Matrix: (Units=1/GPa)
#
#
# Indices 1 2 3 4 5 6 
#
# 1 0.048647 -0.003411 -0.011350 0.000000 0.027155 0.000000
# 2 -0.003411 0.007613 -0.001202 0.000000 -0.000255 0.000000
# 3 -0.011350 -0.001202 0.008460 0.000000 -0.009086 0.000000
# 4 0.000000 0.000000 0.000000 0.041329 0.000000 0.022756
# 5 0.027155 -0.000255 -0.009086 0.000000 0.051376 0.000000
# 6 0.000000 0.000000 0.000000 0.022756 0.000000 0.114969
#
#
# Mechanical properties :
#
#
# Convention : Reuss Voigt Hill
#
# Bulk Modulus (GPa) = 30.49196 68.50090 49.49643
# Shear Modulus (GPa) = 15.86031 31.02420 23.44226
#
# Velocity S-wave (km/s) = 2.72174 3.80664 3.30895
# Velocity P-wave (km/s) = 4.91111 7.16347 6.14143
#
# Compressibility (1/GPa) = 0.03279553
#
# Stress axis : x y z
#
# Youngs Moduli (GPa) = 20.55625 131.34660 118.19931
#
# Poissons Ratio (x) = 0.44803 1.34152
# Poissons Ratio (y) = 0.07012 0.14207
# Poissons Ratio (z) = 0.23331 0.15787
#
# Static dielectric constant tensor:
#      x y z
#    x 3.445500 0.000000 0.614750 
#    y 0.000000 3.859450 0.000000 
#    z 0.614750 0.000000 6.154570 
# 
# 
# High freq. dielectric constant tensor:
#      x y z
#    x 1.762590 0.000000 0.012240 
#    y 0.000000 1.847910 0.000000 
#    z 0.012240 0.000000 1.859090 
# 
# From -- ./inp_files/3735.got.cif
#   From: 2010.06.25/outbox.cif.g09.slc.cpg/sg12_2_cif.got.tgz:3735.got - 2010.06.28 00:19:55.
