data_PCOD8080230
_publ_section_title
;
Structure prediction by ZEFSAII (Michael W. Deem and Ramdas Pophale) SiO2 
 PCOD8080230
Probable space group: C 2/M
;
_chemical_formula_sum "Si O2"
_cell_formula_units_Z 64
_cell_length_a 27.429479
_cell_length_b 8.954260
_cell_length_c 19.560160
_cell_angle_alpha 90.000000
_cell_angle_beta 121.685520
_cell_angle_gamma 90.000000
_cell_volume 4088.091259
_symmetry_space_group_name_H-M "C 2/M"
_symmetry_group_IT_number 12
_symmetry_cell_setting 'monoclinic'
loop_
_space_group_symop_operation_xyz
x,y,z
-x,y,-z
-x,-y,-z
x,-y,z
1/2+x,1/2+y,z
1/2-x,1/2+y,-z
1/2-x,1/2-y,-z
1/2+x,1/2-y,z
loop_
_atom_site_type_symbol
_atom_site_label
_atom_site_fract_x
_atom_site_fract_y
_atom_site_fract_z
Si Si1 0.798975 0.826939 0.993204
Si Si2 0.209151 0.326670 0.523357
Si Si3 0.039197 0.328367 0.679347
Si Si4 0.287892 0.823805 0.319220
Si Si5 0.750525 0.175516 0.162841
Si Si6 0.082194 0.328534 0.447876
Si Si7 0.632299 0.329132 0.829303
Si Si8 0.091665 0.176678 0.592902
O O1 0.801001 0.745395 0.921109
O O2 0.784089 0.000000 0.971595
O O3 0.750000 0.750000 0.000000
O O4 0.856692 0.808492 0.081073
O O5 0.216486 0.500000 0.516673
O O6 0.250000 0.250000 0.500000
O O7 0.228133 0.282607 0.614440
O O8 0.143045 0.277232 0.460586
O O9 0.055025 0.500000 0.675972
O O10 0.077379 0.271292 0.770571
O O11 0.048466 0.227430 0.619694
O O12 0.970599 0.313449 0.644644
O O13 0.244239 0.747481 0.233607
O O14 0.349162 0.756752 0.346364
O O15 0.288507 0.000000 0.308187
O O16 0.811864 0.217307 0.173939
O O17 0.741206 0.000000 0.160677
O O18 0.089094 0.500000 0.478309
O O19 0.067322 0.227112 0.502120
O O20 0.617258 0.500000 0.801090
O O21 0.099964 0.000000 0.600637
#
# Coordination Sequence:
#
# PCOD8080230 Si02
#       8
#     8   8   8   8   8   8   8   8
#     4   9  17  28  41  57  83 119 155 190 224 260
#     4   9  19  35  52  68  88 112 143 184 228 272
#     4  11  20  29  44  61  85 121 154 183 217 259
#     4  10  19  31  47  66  89 119 151 183 222 269
#     4  10  18  28  43  64  89 116 151 192 224 259
#     4   9  20  35  46  62  86 114 149 183 219 267
#     4   9  18  29  40  59  88 119 154 190 221 252
#     4  11  20  29  42  62  88 116 149 187 222 256
#
# _framework density 15.655229
#
# number of rings (size 3 to 8) (size 9 to 14) (size 15 to 20)
#    0.000    2.250    1.250    4.500    0.000    7.500 
#    0.000    0.000    0.000    0.000    0.000    0.000 
#    0.000    1.000    0.000   11.250    0.000    5.000 
#
# Total GULP energy -396595.456979 kJ/mol
# GULP energy per Si atom -12393.608031 kJ/mol
# Density = 1.561960 g / cm^3
# Si number density = 15.655229 Si / 1000 Ang^3
#
#
#
# Elastic Constant Matrix: (Units=GPa)
#
#
# Indices 1 2 3 4 5 6 
#
# 1 62.4751 33.8412 48.1053 0.0000 -2.7130 0.0000
# 2 33.8412 85.8797 55.5019 0.0000 -4.7398 0.0000
# 3 48.1053 55.5019 117.0378 0.0000 -0.8622 0.0000
# 4 0.0000 0.0000 0.0000 29.6320 0.0000 -3.2422
# 5 -2.7130 -4.7398 -0.8622 0.0000 12.0456 0.0000
# 6 0.0000 0.0000 0.0000 -3.2422 0.0000 18.4698
#
#
#
# Elastic Compliance Matrix: (Units=1/GPa)
#
#
# Indices 1 2 3 4 5 6 
#
# 1 0.024720 -0.004339 -0.008079 0.000000 0.003282 0.000000
# 2 -0.004339 0.018002 -0.006712 0.000000 0.005626 0.000000
# 3 -0.008079 -0.006712 0.015023 0.000000 -0.003386 0.000000
# 4 0.000000 0.000000 0.000000 0.034408 0.000000 0.006040
# 5 0.003282 0.005626 -0.003386 0.000000 0.085728 0.000000
# 6 0.000000 0.000000 0.000000 0.006040 0.000000 0.055203
#
#
# Mechanical properties :
#
#
# Convention : Reuss Voigt Hill
#
# Bulk Modulus (GPa) = 51.32011 60.03215 55.67613
# Shear Modulus (GPa) = 17.99604 20.55910 19.27757
#
# Velocity S-wave (km/s) = 3.39414 3.62780 3.51291
# Velocity P-wave (km/s) = 6.94355 7.48181 7.21770
#
# Compressibility (1/GPa) = 0.01948554
#
# Stress axis : x y z
#
# Youngs Moduli (GPa) = 40.45379 55.54811 66.56453
#
# Poissons Ratio (x) = 0.24100 0.53775
# Poissons Ratio (y) = 0.17551 0.44681
# Poissons Ratio (z) = 0.32681 0.37286
#
# Static dielectric constant tensor:
#      x y z
#    x 2.570080 0.000000 -0.012230 
#    y 0.000000 3.085940 0.000000 
#    z -0.012230 0.000000 3.378150 
# 
# 
# High freq. dielectric constant tensor:
#      x y z
#    x 1.533840 0.000000 0.001050 
#    y 0.000000 1.615320 0.000000 
#    z 0.001050 0.000000 1.609850 
# 
# From -- ./inp_files/326594.got.cif
#   From: 2010.06.25/outbox.cif.g09.slc.cpg/sg12_164_cif.got.tgz:326594.got - 2010.06.28 00:19:55.
