data_PCOD8080429
_publ_section_title
;
Structure prediction by ZEFSAII (Michael W. Deem and Ramdas Pophale) SiO2 
 PCOD8080429
Probable space group: C 2/M
;
_chemical_formula_sum "Si O2"
_cell_formula_units_Z 64
_cell_length_a 23.640811
_cell_length_b 9.115579
_cell_length_c 17.340541
_cell_angle_alpha 90.000000
_cell_angle_beta 93.936349
_cell_angle_gamma 90.000000
_cell_volume 3728.065472
_symmetry_space_group_name_H-M "C 2/M"
_symmetry_group_IT_number 12
_symmetry_cell_setting 'monoclinic'
loop_
_space_group_symop_operation_xyz
x,y,z
-x,y,-z
-x,-y,-z
x,-y,z
1/2+x,1/2+y,z
1/2-x,1/2+y,-z
1/2-x,1/2-y,-z
1/2+x,1/2-y,z
loop_
_atom_site_type_symbol
_atom_site_label
_atom_site_fract_x
_atom_site_fract_y
_atom_site_fract_z
Si Si1 0.395629 0.832387 0.682932
Si Si2 0.621446 0.829498 0.099263
Si Si3 0.694752 0.171771 0.964452
Si Si4 0.965444 0.826789 0.815288
Si Si5 0.318744 0.172286 0.210192
Si Si6 0.442639 0.173845 0.264206
Si Si7 0.790296 0.666795 0.759676
Si Si8 0.988810 0.669454 0.581838
O O1 0.424882 0.715449 0.740901
O O2 0.327665 0.810838 0.684256
O O3 0.422339 0.808031 0.600097
O O4 0.410609 0.000000 0.711417
O O5 0.564329 0.736584 0.110195
O O6 0.671638 0.785682 0.163500
O O7 0.606561 0.000000 0.107627
O O8 0.641774 0.791129 0.014970
O O9 0.680180 0.229610 0.877753
O O10 0.707491 0.000000 0.966386
O O11 0.750000 0.250000 0.000000
O O12 0.026535 0.752698 0.805201
O O13 0.972504 0.000000 0.823258
O O14 0.376850 0.219918 0.257233
O O15 0.266107 0.237738 0.252360
O O16 0.311329 0.000000 0.210987
O O17 0.469915 0.231601 0.347237
O O18 0.450483 0.000000 0.254592
O O19 0.770577 0.500000 0.767116
O O20 0.004214 0.500000 0.574077
O O21 0.000000 0.747891 0.500000
#
# Coordination Sequence:
#
# PCOD8080429 Si02
#       8
#     8   8   8   8   8   8   8   8
#     4   8  15  28  45  68  97 121 147 186 229 271
#     4   9  17  30  46  64  89 120 152 192 238 274
#     4  10  19  31  46  66  91 119 156 196 234 272
#     4  10  18  28  46  69  89 116 155 194 229 271
#     4  10  20  31  46  67  91 122 156 190 230 274
#     4   9  18  33  48  66  95 123 149 186 230 277
#     4   9  16  27  44  65  90 122 153 187 230 267
#     4   8  13  25  50  76  91 112 151 192 223 260
#
# _framework density 17.167079999999999
#
# number of rings (size 3 to 8) (size 9 to 14) (size 15 to 20)
#    0.000    2.875    1.250    2.625    0.000    3.000 
#    0.000    0.625    0.000   10.500    0.000    0.000 
#    0.000    0.000    0.000    0.000    0.000    1.000 
#
# Total GULP energy -396520.620392 kJ/mol
# GULP energy per Si atom -12391.269387 kJ/mol
# Density = 1.712801 g / cm^3
# Si number density = 17.167080 Si / 1000 Ang^3
#
#
#
# Elastic Constant Matrix: (Units=GPa)
#
#
# Indices 1 2 3 4 5 6 
#
# 1 138.3409 37.8006 59.5345 0.0000 -20.8222 0.0000
# 2 37.8006 43.6765 19.6155 0.0000 -5.8848 0.0000
# 3 59.5345 19.6155 90.6136 0.0000 -22.7035 0.0000
# 4 0.0000 0.0000 0.0000 10.0299 0.0000 -4.2966
# 5 -20.8222 -5.8848 -22.7035 0.0000 26.9060 0.0000
# 6 0.0000 0.0000 0.0000 -4.2966 0.0000 27.9922
#
#
#
# Elastic Compliance Matrix: (Units=1/GPa)
#
#
# Indices 1 2 3 4 5 6 
#
# 1 0.012171 -0.007615 -0.005586 0.000000 0.003039 0.000000
# 2 -0.007615 0.030154 -0.001710 0.000000 -0.000741 0.000000
# 3 -0.005586 -0.001710 0.017626 0.000000 0.010176 0.000000
# 4 0.000000 0.000000 0.000000 0.106718 0.000000 0.016380
# 5 0.003039 -0.000741 0.010176 0.000000 0.047943 0.000000
# 6 0.000000 0.000000 0.000000 0.016380 0.000000 0.038239
#
#
# Mechanical properties :
#
#
# Convention : Reuss Voigt Hill
#
# Bulk Modulus (GPa) = 33.19161 56.28136 44.73649
# Shear Modulus (GPa) = 17.08135 23.36432 20.22283
#
# Velocity S-wave (km/s) = 3.15779 3.69317 3.43593
# Velocity P-wave (km/s) = 5.71594 7.14434 6.46968
#
# Compressibility (1/GPa) = 0.03012809
#
# Stress axis : x y z
#
# Youngs Moduli (GPa) = 82.16336 33.16265 56.73449
#
# Poissons Ratio (x) = 0.25254 0.31694
# Poissons Ratio (y) = 0.62568 0.09702
# Poissons Ratio (z) = 0.45900 0.05671
#
# Static dielectric constant tensor:
#      x y z
#    x 3.359190 0.000000 -0.388940 
#    y 0.000000 2.953370 0.000000 
#    z -0.388940 0.000000 3.298920 
# 
# 
# High freq. dielectric constant tensor:
#      x y z
#    x 1.660170 0.000000 -0.033920 
#    y 0.000000 1.639920 0.000000 
#    z -0.033920 0.000000 1.631960 
# 
# From -- ./inp_files/287635.got.cif
#   From: 2010.06.25/outbox.cif.g09.slc.cpg/sg12_144_cif.got.tgz:287635.got - 2010.06.28 00:19:55.
