data_PCOD8080028
_publ_section_title
;
Structure prediction by ZEFSAII (Michael W. Deem and Ramdas Pophale) SiO2 
 PCOD8080028
Probable space group: C 2/M
;
_chemical_formula_sum "Si O2"
_cell_formula_units_Z 48
_cell_length_a 22.858541
_cell_length_b 9.230251
_cell_length_c 24.072180
_cell_angle_alpha 90.000000
_cell_angle_beta 34.622755
_cell_angle_gamma 90.000000
_cell_volume 2885.733388
_symmetry_space_group_name_H-M "C 2/M"
_symmetry_group_IT_number 12
_symmetry_cell_setting 'monoclinic'
loop_
_space_group_symop_operation_xyz
x,y,z
-x,y,-z
-x,-y,-z
x,-y,z
1/2+x,1/2+y,z
1/2-x,1/2+y,-z
1/2-x,1/2-y,-z
1/2+x,1/2-y,z
loop_
_atom_site_type_symbol
_atom_site_label
_atom_site_fract_x
_atom_site_fract_y
_atom_site_fract_z
Si Si1 0.456165 0.171990 0.092200
Si Si2 0.420940 0.168800 0.682149
Si Si3 0.224016 0.172021 0.289016
Si Si4 0.831521 0.667498 0.867103
Si Si5 0.907596 0.339812 0.528655
Si Si6 0.872653 0.670144 0.957957
O O1 0.340860 0.228020 0.192634
O O2 0.527706 0.227539 0.086838
O O3 0.455913 0.000000 0.090075
O O4 0.500000 0.235023 0.000000
O O5 0.337884 0.263858 0.714373
O O6 0.411301 0.201258 0.755200
O O7 0.538268 0.208517 0.571811
O O8 0.399130 0.000000 0.685456
O O9 0.179452 0.228147 0.382984
O O10 0.215107 0.000000 0.294766
O O11 0.799733 0.500000 0.893114
O O12 0.885316 0.712086 0.883150
O O13 0.728162 0.757034 0.937364
O O14 0.858069 0.500000 0.561972
O O15 0.000000 0.342527 0.500000
O O16 0.859067 0.500000 0.977157
#
# Coordination Sequence:
#
# PCOD8080028 Si02
#       6
#     8   8   8   8   8   8
#     4   9  17  28  42  62  88 115 140 166 204 256
#     4   9  17  29  44  63  87 113 141 173 212 256
#     4  10  18  27  43  66  88 111 141 176 210 247
#     4   9  17  29  46  66  85 108 143 181 210 245
#     4   8  15  28  43  59  84 115 141 170 212 255
#     4   9  17  30  46  63  86 115 142 172 213 252
#
# _framework density 16.633552999999999
#
# number of rings (size 3 to 8) (size 9 to 14) (size 15 to 20)
#    0.000    3.000    0.000    2.500    0.000    5.000 
#    0.000    1.667    0.000    5.500    0.000    0.000 
#    0.000    0.000    0.000    0.000    0.000    1.667 
#
# Total GULP energy -297476.594145 kJ/mol
# GULP energy per Si atom -12394.858089 kJ/mol
# Density = 1.659569 g / cm^3
# Si number density = 16.633553 Si / 1000 Ang^3
#
#
#
# Elastic Constant Matrix: (Units=GPa)
#
#
# Indices 1 2 3 4 5 6 
#
# 1 83.5083 27.2389 65.4176 -0.0001 6.2339 0.0001
# 2 27.2389 44.2311 41.2318 -0.0009 1.7080 0.0007
# 3 65.4176 41.2318 153.5317 -0.0002 17.9596 0.0001
# 4 -0.0001 -0.0009 -0.0002 25.2450 0.0000 1.6832
# 5 6.2339 1.7080 17.9596 0.0000 28.5264 0.0000
# 6 0.0001 0.0007 0.0001 1.6832 0.0000 13.9143
#
#
#
# Elastic Compliance Matrix: (Units=1/GPa)
#
#
# Indices 1 2 3 4 5 6 
#
# 1 0.018938 -0.005489 -0.006638 0.000000 0.000370 0.000000
# 2 -0.005489 0.032087 -0.006687 0.000001 0.003488 -0.000002
# 3 -0.006638 -0.006687 0.011789 0.000000 -0.005571 0.000000
# 4 0.000000 0.000001 0.000000 0.039934 0.000000 -0.004831
# 5 0.000370 0.003488 -0.005571 0.000000 0.038273 0.000000
# 6 0.000000 -0.000002 0.000000 -0.004831 0.000000 0.072453
#
#
# Mechanical properties :
#
#
# Convention : Reuss Voigt Hill
#
# Bulk Modulus (GPa) = 39.70282 61.00529 50.35405
# Shear Modulus (GPa) = 19.26806 23.36266 21.31536
#
# Velocity S-wave (km/s) = 3.40720 3.75180 3.58364
# Velocity P-wave (km/s) = 6.27691 7.45142 6.88924
#
# Compressibility (1/GPa) = 0.02518713
#
# Stress axis : x y z
#
# Youngs Moduli (GPa) = 52.80444 31.16523 84.82309
#
# Poissons Ratio (x) = 0.17105 0.56309
# Poissons Ratio (y) = 0.28982 0.56718
# Poissons Ratio (z) = 0.35054 0.20839
#
# Static dielectric constant tensor:
#      x y z
#    x 3.095980 0.000000 0.258200 
#    y 0.000000 2.992170 0.000000 
#    z 0.258200 0.000000 3.527610 
# 
# 
# High freq. dielectric constant tensor:
#      x y z
#    x 1.614140 0.000000 0.020920 
#    y 0.000000 1.625750 0.000000 
#    z 0.020920 0.000000 1.646680 
# 
# From -- ./inp_files/172095.got.cif
#   From: 2010.06.25/outbox.cif.g09.slc.cpg/sg12_87_cif.got.tgz:172095.got - 2010.06.28 00:19:55.
