data_PCOD8080334
_publ_section_title
;
Structure prediction by ZEFSAII (Michael W. Deem and Ramdas Pophale) SiO2 
 PCOD8080334
Probable space group: C 2/M
;
_chemical_formula_sum "Si O2"
_cell_formula_units_Z 64
_cell_length_a 25.325044
_cell_length_b 8.642441
_cell_length_c 17.220403
_cell_angle_alpha 90.000000
_cell_angle_beta 90.104725
_cell_angle_gamma 90.000000
_cell_volume 3769.026729
_symmetry_space_group_name_H-M "C 2/M"
_symmetry_group_IT_number 12
_symmetry_cell_setting 'monoclinic'
loop_
_space_group_symop_operation_xyz
x,y,z
-x,y,-z
-x,-y,-z
x,-y,z
1/2+x,1/2+y,z
1/2-x,1/2+y,-z
1/2-x,1/2-y,-z
1/2+x,1/2-y,z
loop_
_atom_site_type_symbol
_atom_site_label
_atom_site_fract_x
_atom_site_fract_y
_atom_site_fract_z
Si Si1 0.946014 0.318816 0.415801
Si Si2 0.306763 0.679319 0.997301
Si Si3 0.696865 0.680258 0.835215
Si Si4 0.558651 0.318344 0.421330
Si Si5 0.148186 0.318341 0.321366
Si Si6 0.146386 0.819082 0.676702
Si Si7 0.311745 0.681413 0.830516
Si Si8 0.250449 0.682570 0.414861
O O1 0.957827 0.500000 0.416494
O O2 0.923667 0.267560 0.499605
O O3 0.903868 0.278805 0.349722
O O4 0.999723 0.228745 0.396809
O O5 0.298195 0.500000 0.987254
O O6 0.334599 0.732847 0.916614
O O7 0.250000 0.750000 0.000000
O O8 0.332870 0.717027 0.081803
O O9 0.713762 0.500000 0.830315
O O10 0.655376 0.718684 0.767451
O O11 0.749626 0.779952 0.824290
O O12 0.561272 0.500000 0.436449
O O13 0.597400 0.271145 0.352528
O O14 0.139597 0.500000 0.331893
O O15 0.154613 0.278370 0.230955
O O16 0.199572 0.257729 0.367715
O O17 0.197328 0.760901 0.629294
O O18 0.135785 0.000000 0.662215
O O19 0.319632 0.500000 0.814177
O O20 0.249308 0.500000 0.419836
O O21 0.250000 0.750000 0.500000
#
# Coordination Sequence:
#
# PCOD8080334 Si02
#       8
#     8   8   8   8   8   8   8   8
#     4  11  22  37  55  76  99 129 165 208 253 297
#     4   8  15  26  43  66  94 129 167 203 242 288
#     4   9  16  30  48  67  97 135 169 205 247 292
#     4  11  22  38  57  76  96 126 166 213 254 292
#     4  11  21  35  51  72 100 134 168 203 248 298
#     4  10  19  33  50  71  98 133 171 206 246 293
#     4  10  18  28  44  71 102 132 167 205 244 293
#     4  10  21  33  46  66  95 131 165 197 239 292
#
# _framework density 16.980509999999999
#
# number of rings (size 3 to 8) (size 9 to 14) (size 15 to 20)
#    0.000    2.000    1.250    4.500    0.000    4.500 
#    0.000    0.000    0.000    0.000    0.000    0.875 
#    0.000    7.000    0.000    0.000    0.000    0.000 
#
# Total GULP energy -396639.382439 kJ/mol
# GULP energy per Si atom -12394.980701 kJ/mol
# Density = 1.694186 g / cm^3
# Si number density = 16.980510 Si / 1000 Ang^3
#
#
#
# Elastic Constant Matrix: (Units=GPa)
#
#
# Indices 1 2 3 4 5 6 
#
# 1 65.1075 15.8199 48.8017 0.0000 -0.4275 0.0000
# 2 15.8199 43.9810 21.8029 0.0000 0.3609 0.0000
# 3 48.8017 21.8029 147.4787 0.0000 0.8014 0.0000
# 4 0.0000 0.0000 0.0000 24.0693 0.0000 -1.6430
# 5 -0.4275 0.3609 0.8014 0.0000 18.5462 0.0000
# 6 0.0000 0.0000 0.0000 -1.6430 0.0000 23.1962
#
#
#
# Elastic Compliance Matrix: (Units=1/GPa)
#
#
# Indices 1 2 3 4 5 6 
#
# 1 0.021226 -0.004487 -0.006365 0.000000 0.000852 0.000000
# 2 -0.004487 0.025485 -0.002280 0.000000 -0.000501 0.000000
# 3 -0.006365 -0.002280 0.009227 0.000000 -0.000501 0.000000
# 4 0.000000 0.000000 0.000000 0.041749 0.000000 0.002957
# 5 0.000852 -0.000501 -0.000501 0.000000 0.053970 0.000000
# 6 0.000000 0.000000 0.000000 0.002957 0.000000 0.043320
#
#
# Mechanical properties :
#
#
# Convention : Reuss Voigt Hill
#
# Bulk Modulus (GPa) = 33.69944 47.71290 40.70617
# Shear Modulus (GPa) = 21.63260 24.50519 23.06890
#
# Velocity S-wave (km/s) = 3.57314 3.80298 3.68985
# Velocity P-wave (km/s) = 6.07554 6.88790 6.49443
#
# Compressibility (1/GPa) = 0.02967408
#
# Stress axis : x y z
#
# Youngs Moduli (GPa) = 47.11201 39.23811 108.38036
#
# Poissons Ratio (x) = 0.17604 0.68986
# Poissons Ratio (y) = 0.21137 0.24715
# Poissons Ratio (z) = 0.29988 0.08948
#
# Static dielectric constant tensor:
#      x y z
#    x 2.900830 0.000000 0.007980 
#    y 0.000000 3.347350 0.000000 
#    z 0.007980 0.000000 3.692880 
# 
# 
# High freq. dielectric constant tensor:
#      x y z
#    x 1.613310 0.000000 -0.001300 
#    y 0.000000 1.660840 0.000000 
#    z -0.001300 0.000000 1.669380 
# 
# From -- ./inp_files/287688.got.cif
#   From: 2010.06.25/outbox.cif.g09.slc.cpg/sg12_144_cif.got.tgz:287688.got - 2010.06.28 00:19:55.
