data_PCOD8080446
_publ_section_title
;
Structure prediction by ZEFSAII (Michael W. Deem and Ramdas Pophale) SiO2 
 PCOD8080446
Probable space group: C 2/M
;
_chemical_formula_sum "Si O2"
_cell_formula_units_Z 48
_cell_length_a 27.635201
_cell_length_b 9.016936
_cell_length_c 11.739336
_cell_angle_alpha 90.000000
_cell_angle_beta 70.549724
_cell_angle_gamma 90.000000
_cell_volume 2758.322127
_symmetry_space_group_name_H-M "C 2/M"
_symmetry_group_IT_number 12
_symmetry_cell_setting 'monoclinic'
loop_
_space_group_symop_operation_xyz
x,y,z
-x,y,-z
-x,-y,-z
x,-y,z
1/2+x,1/2+y,z
1/2-x,1/2+y,-z
1/2-x,1/2-y,-z
1/2+x,1/2-y,z
loop_
_atom_site_type_symbol
_atom_site_label
_atom_site_fract_x
_atom_site_fract_y
_atom_site_fract_z
Si Si1 0.212132 0.169556 0.858199
Si Si2 0.355661 0.175118 0.262973
Si Si3 0.121833 0.833332 0.100843
Si Si4 0.311742 0.327989 0.751883
Si Si5 0.556785 0.175029 0.976203
Si Si6 0.802919 0.825511 0.496763
O O1 0.193600 0.276765 0.771370
O O2 0.268816 0.225147 0.844404
O O3 0.213216 0.000000 0.813996
O O4 0.176005 0.187146 0.995082
O O5 0.407084 0.227862 0.156568
O O6 0.350710 0.258862 0.387332
O O7 0.354769 0.000000 0.283307
O O8 0.134536 0.794943 0.223139
O O9 0.101092 0.000000 0.104041
O O10 0.078202 0.729662 0.081105
O O11 0.296741 0.500000 0.781245
O O12 0.317540 0.287739 0.615034
O O13 0.555532 0.000000 0.983467
O O14 0.500000 0.240217 0.000000
O O15 0.750000 0.750000 0.500000
O O16 0.797930 0.000000 0.479867
#
# Coordination Sequence:
#
# PCOD8080446 Si02
#       6
#     8   8   8   8   8   8
#     4  10  18  28  46  70  98 130 166 203 238 292
#     4  10  19  32  50  72 100 131 165 206 249 293
#     4   9  19  33  48  72 100 127 162 203 250 299
#     4  10  20  32  46  66 100 138 166 199 243 289
#     4   9  19  36  57  78  98 123 159 208 262 306
#     4  11  21  32  48  70 101 139 175 205 236 285
#
# _framework density 17.401883000000002
#
# number of rings (size 3 to 8) (size 9 to 14) (size 15 to 20)
#    0.000    2.167    1.667    2.000    0.000    3.000 
#    0.000    0.000    0.000    1.000    0.000    7.000 
#    0.000    0.000    0.000    0.000    0.000    0.000 
#
# Total GULP energy -297542.538913 kJ/mol
# GULP energy per Si atom -12397.605788 kJ/mol
# Density = 1.736228 g / cm^3
# Si number density = 17.401883 Si / 1000 Ang^3
#
#
#
# Elastic Constant Matrix: (Units=GPa)
#
#
# Indices 1 2 3 4 5 6 
#
# 1 112.0326 35.5350 56.0288 0.0000 9.5815 0.0000
# 2 35.5350 56.0491 34.4184 0.0000 3.3622 0.0000
# 3 56.0288 34.4184 87.8033 0.0000 17.8345 0.0000
# 4 0.0000 0.0000 0.0000 25.2994 0.0000 2.0063
# 5 9.5815 3.3622 17.8345 0.0000 23.1996 0.0000
# 6 0.0000 0.0000 0.0000 2.0063 0.0000 22.5665
#
#
#
# Elastic Compliance Matrix: (Units=1/GPa)
#
#
# Indices 1 2 3 4 5 6 
#
# 1 0.013902 -0.004394 -0.007243 0.000000 0.000463 0.000000
# 2 -0.004394 0.025264 -0.007968 0.000000 0.004279 0.000000
# 3 -0.007243 -0.007968 0.021677 0.000000 -0.012518 0.000000
# 4 0.000000 0.000000 0.000000 0.039807 0.000000 -0.003539
# 5 0.000463 0.004279 -0.012518 0.000000 0.051916 0.000000
# 6 0.000000 0.000000 0.000000 -0.003539 0.000000 0.044628
#
#
# Mechanical properties :
#
#
# Convention : Reuss Voigt Hill
#
# Bulk Modulus (GPa) = 46.22705 56.42770 51.32738
# Shear Modulus (GPa) = 20.52403 22.87329 21.69866
#
# Velocity S-wave (km/s) = 3.43799 3.62942 3.53500
# Velocity P-wave (km/s) = 6.51013 7.07532 6.79860
#
# Compressibility (1/GPa) = 0.02163236
#
# Stress axis : x y z
#
# Youngs Moduli (GPa) = 71.93001 39.58205 46.13153
#
# Poissons Ratio (x) = 0.17393 0.33413
# Poissons Ratio (y) = 0.31607 0.36760
# Poissons Ratio (z) = 0.52098 0.31541
#
# Static dielectric constant tensor:
#      x y z
#    x 3.138640 0.000000 0.088340 
#    y 0.000000 3.247110 0.000000 
#    z 0.088340 0.000000 3.444740 
# 
# 
# High freq. dielectric constant tensor:
#      x y z
#    x 1.643210 0.000000 0.015810 
#    y 0.000000 1.677310 0.000000 
#    z 0.015810 0.000000 1.666740 
# 
# From -- ./inp_files/172155.got.cif
#   From: 2010.06.25/outbox.cif.g09.slc.cpg/sg12_87_cif.got.tgz:172155.got - 2010.06.28 00:19:55.
