data_PCOD8080019
_publ_section_title
;
Structure prediction by ZEFSAII (Michael W. Deem and Ramdas Pophale) SiO2 
 PCOD8080019
Probable space group: C 2/M
;
_chemical_formula_sum "Si O2"
_cell_formula_units_Z 64
_cell_length_a 24.197561
_cell_length_b 9.473553
_cell_length_c 18.645478
_cell_angle_alpha 90.000000
_cell_angle_beta 77.446133
_cell_angle_gamma 90.000000
_cell_volume 4172.043200
_symmetry_space_group_name_H-M "C 2/M"
_symmetry_group_IT_number 12
_symmetry_cell_setting 'monoclinic'
loop_
_space_group_symop_operation_xyz
x,y,z
-x,y,-z
-x,-y,-z
x,-y,z
1/2+x,1/2+y,z
1/2-x,1/2+y,-z
1/2-x,1/2-y,-z
1/2+x,1/2-y,z
loop_
_atom_site_type_symbol
_atom_site_label
_atom_site_fract_x
_atom_site_fract_y
_atom_site_fract_z
Si Si1 0.043144 0.164390 0.550125
Si Si2 0.015788 0.656770 0.149972
Si Si3 0.060889 0.841635 0.020139
Si Si4 0.958601 0.334584 0.308711
Si Si5 0.394661 0.843699 0.109542
Si Si6 0.738224 0.663599 0.612770
Si Si7 0.829120 0.161826 0.513041
Si Si8 0.159029 0.665342 0.729799
O O1 0.024905 0.249556 0.625390
O O2 0.105575 0.207006 0.506217
O O3 0.000000 0.205833 0.500000
O O4 0.040495 0.000000 0.570436
O O5 0.042659 0.500000 0.139929
O O6 0.057979 0.763856 0.097882
O O7 0.005209 0.704564 0.234951
O O8 0.956048 0.652810 0.127353
O O9 0.082172 0.000000 0.027535
O O10 0.106786 0.765081 0.956172
O O11 0.000000 0.839965 0.000000
O O12 0.960150 0.500000 0.325064
O O13 0.896415 0.290100 0.299351
O O14 0.349842 0.799746 0.183520
O O15 0.380290 0.000000 0.084128
O O16 0.748635 0.500000 0.627726
O O17 0.798099 0.736317 0.578145
O O18 0.695512 0.684777 0.559077
O O19 0.711623 0.741034 0.689024
O O20 0.820946 0.000000 0.539980
O O21 0.171987 0.500000 0.714763
#
# Coordination Sequence:
#
# PCOD8080019 Si02
#       8
#     8   8   8   8   8   8   8   8
#     4  10  20  33  47  62  82 108 137 171 213 256
#     4   8  14  24  36  49  68  98 132 165 198 235
#     4   9  15  21  30  48  71  97 130 166 199 230
#     4   9  17  28  42  59  78 102 137 174 207 245
#     4   8  14  23  34  48  70 102 134 160 193 237
#     4  10  18  27  43  63  81 105 135 171 210 245
#     4   9  18  31  43  59  81 106 134 167 208 251
#     4   9  16  26  40  58  80 107 136 169 206 244
#
# _framework density 15.340206999999999
#
# number of rings (size 3 to 8) (size 9 to 14) (size 15 to 20)
#    0.000    3.000    1.250    2.250    0.000    3.750 
#    0.000    2.500    0.000    0.000    0.000    0.000 
#    0.000    0.000    0.000    1.125    0.000   13.625 
#
# Total GULP energy -396708.062840 kJ/mol
# GULP energy per Si atom -12397.126964 kJ/mol
# Density = 1.530529 g / cm^3
# Si number density = 15.340207 Si / 1000 Ang^3
#
#
#
# Elastic Constant Matrix: (Units=GPa)
#
#
# Indices 1 2 3 4 5 6 
#
# 1 44.5976 28.7025 38.2058 0.0000 -6.8702 0.0000
# 2 28.7025 101.6879 80.9957 0.0000 -18.6700 0.0000
# 3 38.2058 80.9957 127.4080 0.0000 -25.6832 0.0000
# 4 0.0000 0.0000 0.0000 29.2223 0.0000 -5.2659
# 5 -6.8702 -18.6700 -25.6832 0.0000 17.3042 0.0000
# 6 0.0000 0.0000 0.0000 -5.2659 0.0000 13.2573
#
#
#
# Elastic Compliance Matrix: (Units=1/GPa)
#
#
# Indices 1 2 3 4 5 6 
#
# 1 0.030616 -0.002816 -0.007924 0.000000 -0.002643 0.000000
# 2 -0.002816 0.020362 -0.011268 0.000000 0.004126 0.000000
# 3 -0.007924 -0.011268 0.020410 0.000000 0.014989 0.000000
# 4 0.000000 0.000000 0.000000 0.036859 0.000000 0.014640
# 5 -0.002643 0.004126 0.014989 0.000000 0.083440 0.000000
# 6 0.000000 0.000000 0.000000 0.014640 0.000000 0.081245
#
#
# Mechanical properties :
#
#
# Convention : Reuss Voigt Hill
#
# Bulk Modulus (GPa) = 36.53311 63.27795 49.90553
# Shear Modulus (GPa) = 15.33419 20.34273 17.83846
#
# Velocity S-wave (km/s) = 3.16509 3.64552 3.41377
# Velocity P-wave (km/s) = 6.10115 7.68499 6.93841
#
# Compressibility (1/GPa) = 0.02737243
#
# Stress axis : x y z
#
# Youngs Moduli (GPa) = 32.66305 49.11215 48.99623
#
# Poissons Ratio (x) = 0.13828 0.38822
# Poissons Ratio (y) = 0.09197 0.55209
# Poissons Ratio (z) = 0.25881 0.55340
#
# Static dielectric constant tensor:
#      x y z
#    x 2.460590 0.000000 -0.245020 
#    y 0.000000 3.042860 0.000000 
#    z -0.245020 0.000000 3.011770 
# 
# 
# High freq. dielectric constant tensor:
#      x y z
#    x 1.520950 0.000000 -0.030790 
#    y 0.000000 1.594700 0.000000 
#    z -0.030790 0.000000 1.588490 
# 
# From -- ./inp_files/287512.got.cif
#   From: 2010.06.25/outbox.cif.g09.slc.cpg/sg12_144_cif.got.tgz:287512.got - 2010.06.28 00:19:55.
