data_PCOD8080835
_publ_section_title
;
Structure prediction by ZEFSAII (Michael W. Deem and Ramdas Pophale) SiO2 
 PCOD8080835
Probable space group: C 2/M
;
_chemical_formula_sum "Si O2"
_cell_formula_units_Z 48
_cell_length_a 27.897064
_cell_length_b 8.691775
_cell_length_c 12.126620
_cell_angle_alpha 90.000000
_cell_angle_beta 70.386864
_cell_angle_gamma 90.000000
_cell_volume 2769.801619
_symmetry_space_group_name_H-M "C 2/M"
_symmetry_group_IT_number 12
_symmetry_cell_setting 'monoclinic'
loop_
_space_group_symop_operation_xyz
x,y,z
-x,y,-z
-x,-y,-z
x,-y,z
1/2+x,1/2+y,z
1/2-x,1/2+y,-z
1/2-x,1/2-y,-z
1/2+x,1/2-y,z
loop_
_atom_site_type_symbol
_atom_site_label
_atom_site_fract_x
_atom_site_fract_y
_atom_site_fract_z
Si Si1 0.075961 0.319010 0.431464
Si Si2 0.007546 0.180811 0.658089
Si Si3 0.129733 0.824460 0.045202
Si Si4 0.975550 0.321428 0.903594
Si Si5 0.737208 0.321749 0.893728
Si Si6 0.330894 0.678271 0.739997
O O1 0.068882 0.500000 0.422231
O O2 0.044422 0.232409 0.360753
O O3 0.134774 0.270744 0.374271
O O4 0.055652 0.267338 0.566763
O O5 0.004282 0.222867 0.788671
O O6 0.014738 0.000000 0.637455
O O7 0.084515 0.712186 0.045918
O O8 0.148419 0.786406 0.153860
O O9 0.110131 0.000000 0.055426
O O10 0.176454 0.799223 0.922562
O O11 0.983940 0.500000 0.871432
O O12 0.000000 0.272381 0.000000
O O13 0.751694 0.500000 0.884412
O O14 0.772371 0.237763 0.774993
O O15 0.750000 0.250000 0.000000
O O16 0.332526 0.500000 0.708668
#
# Coordination Sequence:
#
# PCOD8080835 Si02
#       6
#     8   8   8   8   8   8
#     4  11  20  31  50  73 100 132 163 200 248 296
#     4  11  21  34  50  70  98 130 166 205 247 296
#     4   9  18  31  47  67  96 130 165 204 245 291
#     4  11  23  36  51  72  98 131 172 211 247 290
#     4   9  17  28  43  66  96 128 162 199 243 295
#     4  10  18  29  46  72 101 130 163 197 242 298
#
# _framework density 17.329761000000001
#
# number of rings (size 3 to 8) (size 9 to 14) (size 15 to 20)
#    0.000    1.833    1.667    6.500    0.000    4.667 
#    0.000    0.000    0.000    0.000    0.000    1.167 
#    0.000    0.000    0.000    0.000    0.000    0.000 
#
# Total GULP energy -297573.795747 kJ/mol
# GULP energy per Si atom -12398.908156 kJ/mol
# Density = 1.729032 g / cm^3
# Si number density = 17.329761 Si / 1000 Ang^3
#
#
#
# Elastic Constant Matrix: (Units=GPa)
#
#
# Indices 1 2 3 4 5 6 
#
# 1 51.2116 21.1611 41.9459 0.0000 -18.8259 0.0000
# 2 21.1611 88.7442 31.5602 0.0000 -5.9466 0.0000
# 3 41.9459 31.5602 90.5466 0.0000 -22.8964 0.0000
# 4 0.0000 0.0000 0.0000 27.4940 0.0000 -10.5521
# 5 -18.8259 -5.9466 -22.8964 0.0000 33.8686 0.0000
# 6 0.0000 0.0000 0.0000 -10.5521 0.0000 24.9734
#
#
#
# Elastic Compliance Matrix: (Units=1/GPa)
#
#
# Indices 1 2 3 4 5 6 
#
# 1 0.034821 -0.003202 -0.012379 0.000000 0.010425 0.000000
# 2 -0.003202 0.013182 -0.003590 0.000000 -0.001892 0.000000
# 3 -0.012379 -0.003590 0.019456 0.000000 0.005642 0.000000
# 4 0.000000 0.000000 0.000000 0.043411 0.000000 0.018343
# 5 0.010425 -0.001892 0.005642 0.000000 0.038803 0.000000
# 6 0.000000 0.000000 0.000000 0.018343 0.000000 0.047793
#
#
# Mechanical properties :
#
#
# Convention : Reuss Voigt Hill
#
# Bulk Modulus (GPa) = 34.34282 46.64854 40.49568
# Shear Modulus (GPa) = 20.36546 26.32289 23.34417
#
# Velocity S-wave (km/s) = 3.43180 3.90159 3.67421
# Velocity P-wave (km/s) = 5.96349 6.87555 6.43570
#
# Compressibility (1/GPa) = 0.02911816
#
# Stress axis : x y z
#
# Youngs Moduli (GPa) = 28.71800 75.86280 51.39686
#
# Poissons Ratio (x) = 0.24294 0.63623
# Poissons Ratio (y) = 0.09196 0.18449
# Poissons Ratio (z) = 0.35550 0.27231
#
# Static dielectric constant tensor:
#      x y z
#    x 3.254650 0.000000 -0.550410 
#    y 0.000000 3.375930 0.000000 
#    z -0.550410 0.000000 3.262870 
# 
# 
# High freq. dielectric constant tensor:
#      x y z
#    x 1.637620 0.000000 -0.049280 
#    y 0.000000 1.687240 0.000000 
#    z -0.049280 0.000000 1.648410 
# 
# From -- ./inp_files/185745.got.cif
#   From: 2010.06.25/outbox.cif.g09.slc.cpg/sg12_93_cif.got.tgz:185745.got - 2010.06.28 00:19:55.
