data_PCOD8080771
_publ_section_title
;
Structure prediction by ZEFSAII (Michael W. Deem and Ramdas Pophale) SiO2 
 PCOD8080771
Probable space group: C 2/M
;
_chemical_formula_sum "Si O2"
_cell_formula_units_Z 56
_cell_length_a 24.030815
_cell_length_b 10.278330
_cell_length_c 24.595777
_cell_angle_alpha 90.000000
_cell_angle_beta 31.729812
_cell_angle_gamma 90.000000
_cell_volume 3194.968352
_symmetry_space_group_name_H-M "C 2/M"
_symmetry_group_IT_number 12
_symmetry_cell_setting 'monoclinic'
loop_
_space_group_symop_operation_xyz
x,y,z
-x,y,-z
-x,-y,-z
x,-y,z
1/2+x,1/2+y,z
1/2-x,1/2+y,-z
1/2-x,1/2-y,-z
1/2+x,1/2-y,z
loop_
_atom_site_type_symbol
_atom_site_label
_atom_site_fract_x
_atom_site_fract_y
_atom_site_fract_z
Si Si1 0.882156 0.354419 0.250003
Si Si2 0.574722 0.778480 0.157398
Si Si3 0.718377 0.359626 0.962097
Si Si4 0.599966 0.847238 0.884000
Si Si5 0.765574 0.849848 0.834734
Si Si6 0.991735 0.852771 0.681128
Si Si7 0.274539 0.346252 0.529137
O O1 0.844249 0.500000 0.269957
O O2 0.890235 0.282858 0.184399
O O3 0.792944 0.292731 0.363518
O O4 0.995703 0.357456 0.184683
O O5 0.671945 0.867413 0.095762
O O6 0.508673 0.733164 0.264473
O O7 0.622431 0.656968 0.084288
O O8 0.704043 0.500000 0.944833
O O9 0.715063 0.240595 0.922901
O O10 0.709368 0.817508 0.824515
O O11 0.578725 0.000000 0.895107
O O12 0.500000 0.786554 0.000000
O O13 0.891421 0.820485 0.725339
O O14 0.743711 0.000000 0.869400
O O15 0.101556 0.829774 0.558108
O O16 0.982802 0.000000 0.708742
O O17 0.248908 0.500000 0.536924
O O18 0.250000 0.250000 0.500000
#
# Coordination Sequence:
#
# PCOD8080771 Si02
#       7
#     8   8   8   8   8   8   8
#     4  10  19  30  49  75  99 127 168 210 245 291
#     4  10  18  29  46  67 101 133 160 196 250 305
#     4  10  20  30  46  73 101 129 164 205 248 296
#     4   9  17  30  49  72  97 129 170 211 246 285
#     4   9  18  33  51  69  95 134 170 201 246 297
#     4   9  17  30  48  69  97 130 161 198 248 299
#     4  10  19  33  51  74 103 130 162 204 250 298
#
# _framework density 17.527560999999999
#
# number of rings (size 3 to 8) (size 9 to 14) (size 15 to 20)
#    0.000    2.429    1.429    1.714    0.000    5.143 
#    0.000    0.714    0.000    9.857    0.000    0.000 
#    0.000    3.714    0.000    0.000    0.000    0.000 
#
# Total GULP energy -346960.470291 kJ/mol
# GULP energy per Si atom -12391.445368 kJ/mol
# Density = 1.748767 g / cm^3
# Si number density = 17.527561 Si / 1000 Ang^3
#
#
#
# Elastic Constant Matrix: (Units=GPa)
#
#
# Indices 1 2 3 4 5 6 
#
# 1 118.3694 21.5804 57.5900 -0.0003 7.0819 0.0003
# 2 21.5804 54.1305 21.1303 0.0001 4.7315 0.0003
# 3 57.5900 21.1303 131.3358 0.0000 8.2064 0.0002
# 4 -0.0003 0.0001 0.0000 9.0962 0.0001 3.6823
# 5 7.0819 4.7315 8.2064 0.0001 26.3794 -0.0002
# 6 0.0003 0.0003 0.0002 3.6823 -0.0002 15.7431
#
#
#
# Elastic Compliance Matrix: (Units=1/GPa)
#
#
# Indices 1 2 3 4 5 6 
#
# 1 0.011129 -0.002624 -0.004386 0.000001 -0.001153 0.000000
# 2 -0.002624 0.020507 -0.002002 0.000000 -0.002351 0.000000
# 3 -0.004386 -0.002002 0.009957 0.000000 -0.001561 0.000000
# 4 0.000001 0.000000 0.000000 0.121434 0.000000 -0.028403
# 5 -0.001153 -0.002351 -0.001561 0.000000 0.039125 0.000001
# 6 0.000000 0.000000 0.000000 -0.028403 0.000001 0.070163
#
#
# Mechanical properties :
#
#
# Convention : Reuss Voigt Hill
#
# Bulk Modulus (GPa) = 42.42764 56.04854 49.23809
# Shear Modulus (GPa) = 16.76750 23.81275 20.29012
#
# Velocity S-wave (km/s) = 3.09631 3.68990 3.40606
# Velocity P-wave (km/s) = 6.08618 7.08524 6.60463
#
# Compressibility (1/GPa) = 0.02356954
#
# Stress axis : x y z
#
# Youngs Moduli (GPa) = 89.85203 48.76402 100.43304
#
# Poissons Ratio (x) = 0.12796 0.44050
# Poissons Ratio (y) = 0.23578 0.20104
# Poissons Ratio (z) = 0.39409 0.09761
#
# Static dielectric constant tensor:
#      x y z
#    x 3.267050 0.000000 -0.055550 
#    y 0.000000 2.946840 0.000000 
#    z -0.055550 0.000000 3.477110 
# 
# 
# High freq. dielectric constant tensor:
#      x y z
#    x 1.665380 0.000000 -0.012770 
#    y 0.000000 1.643040 0.000000 
#    z -0.012770 0.000000 1.682210 
# 
# From -- ./inp_files/173861.got.cif
#   From: 2010.06.25/outbox.cif.g09.slc.cpg/sg12_87_cif.got.tgz:173861.got - 2010.06.28 00:19:55.
