data_PCOD8080612
_publ_section_title
;
Structure prediction by ZEFSAII (Michael W. Deem and Ramdas Pophale) SiO2 
 PCOD8080612
Probable space group: C 2/M
;
_chemical_formula_sum "Si O2"
_cell_formula_units_Z 64
_cell_length_a 27.457880
_cell_length_b 27.202197
_cell_length_c 11.660056
_cell_angle_alpha 90.000000
_cell_angle_beta 152.034407
_cell_angle_gamma 90.000000
_cell_volume 4084.040699
_symmetry_space_group_name_H-M "C 2/M"
_symmetry_group_IT_number 12
_symmetry_cell_setting 'monoclinic'
loop_
_space_group_symop_operation_xyz
x,y,z
-x,y,-z
-x,-y,-z
x,-y,z
1/2+x,1/2+y,z
1/2-x,1/2+y,-z
1/2-x,1/2-y,-z
1/2+x,1/2-y,z
loop_
_atom_site_type_symbol
_atom_site_label
_atom_site_fract_x
_atom_site_fract_y
_atom_site_fract_z
Si Si1 0.668445 0.125039 0.705071
Si Si2 0.657463 0.723971 0.537446
Si Si3 0.927862 0.354868 0.174262
Si Si4 0.230698 0.301693 0.015424
Si Si5 0.382335 0.946546 0.222628
Si Si6 0.736198 0.171032 0.633291
Si Si7 0.334283 0.186102 0.757036
Si Si8 0.444402 0.288469 0.995717
O O1 0.549879 0.144764 0.452848
O O2 0.673588 0.071751 0.776029
O O3 0.714860 0.124731 0.673076
O O4 0.740904 0.159263 0.935159
O O5 0.682399 0.694311 0.705386
O O6 0.694574 0.780719 0.614075
O O7 0.717365 0.696322 0.558339
O O8 0.533526 0.721628 0.273859
O O9 0.872976 0.405881 0.102022
O O10 0.879906 0.309560 0.148326
O O11 0.901479 0.347304 0.984440
O O12 0.250000 0.250000 0.000000
O O13 0.500000 0.954188 0.500000
O O14 0.335676 0.000000 0.088390
O O15 0.675865 0.160591 0.388467
O O16 0.859685 0.174272 0.870220
O O17 0.390059 0.237570 0.848522
O O18 0.500000 0.311516 0.000000
#
# Coordination Sequence:
#
# PCOD8080612 Si02
#       8
#     8   8   8   8   8   8   8   8
#     4  10  19  31  44  67  93 119 153 186 229 269
#     4  10  18  30  40  57  83 125 164 191 213 249
#     4   9  19  30  46  66  90 122 154 185 226 267
#     4  10  18  29  40  59  92 121 153 187 214 259
#     4   8  15  31  52  69  86 114 149 183 226 283
#     4  11  19  29  42  62  89 119 158 192 222 262
#     4  10  19  27  42  62  86 118 160 194 212 261
#     4  11  18  29  43  58  85 130 167 185 220 253
#
# _framework density 15.670755
#
# number of rings (size 3 to 8) (size 9 to 14) (size 15 to 20)
#    0.000    2.125    3.750    2.625    0.000    0.000 
#    2.250    0.625    0.000    0.750    0.000    3.500 
#    0.000   18.500    0.000    1.125    0.000    0.000 
#
# Total GULP energy -396471.261848 kJ/mol
# GULP energy per Si atom -12389.726933 kJ/mol
# Density = 1.563509 g / cm^3
# Si number density = 15.670755 Si / 1000 Ang^3
#
#
#
# Elastic Constant Matrix: (Units=GPa)
#
#
# Indices 1 2 3 4 5 6 
#
# 1 98.7569 35.6065 30.9513 0.0000 -9.9540 0.0000
# 2 35.6065 66.5654 11.4909 0.0000 -0.7423 0.0000
# 3 30.9513 11.4909 67.9592 0.0000 1.8134 0.0000
# 4 0.0000 0.0000 0.0000 3.6876 0.0000 -5.6481
# 5 -9.9540 -0.7423 1.8134 0.0000 26.4515 0.0000
# 6 0.0000 0.0000 0.0000 -5.6481 0.0000 9.3648
#
#
#
# Elastic Compliance Matrix: (Units=1/GPa)
#
#
# Indices 1 2 3 4 5 6 
#
# 1 0.015066 -0.006986 -0.005837 0.000000 0.005874 0.000000
# 2 -0.006986 0.018724 0.000072 0.000000 -0.002108 0.000000
# 3 -0.005837 0.000072 0.017452 0.000000 -0.003391 0.000000
# 4 0.000000 0.000000 0.000000 3.558273 0.000000 2.146086
# 5 0.005874 -0.002108 -0.003391 0.000000 0.040189 0.000000
# 6 0.000000 0.000000 0.000000 2.146086 0.000000 1.401143
#
#
# Mechanical properties :
#
#
# Convention : Reuss Voigt Hill
#
# Bulk Modulus (GPa) = 38.85131 43.26431 41.05781
# Shear Modulus (GPa) = 0.98330 18.24962 9.61646
#
# Velocity S-wave (km/s) = 0.79299 3.41628 2.47990
# Velocity P-wave (km/s) = 5.06799 6.57491 5.87001
#
# Compressibility (1/GPa) = 0.02573916
#
# Stress axis : x y z
#
# Youngs Moduli (GPa) = 66.37443 53.40832 57.30161
#
# Poissons Ratio (x) = 0.37310 0.33448
# Poissons Ratio (y) = 0.46368 -0.00413
# Poissons Ratio (z) = 0.38744 -0.00385
#
# Static dielectric constant tensor:
#      x y z
#    x 3.406710 0.000000 -0.235860 
#    y 0.000000 2.986170 0.000000 
#    z -0.235860 0.000000 3.135620 
# 
# 
# High freq. dielectric constant tensor:
#      x y z
#    x 1.611070 0.000000 -0.011850 
#    y 0.000000 1.540880 0.000000 
#    z -0.011850 0.000000 1.597200 
# 
# From -- ./inp_files/185082.got.cif
#   From: 2010.06.25/outbox.cif.g09.slc.cpg/sg12_93_cif.got.tgz:185082.got - 2010.06.28 00:19:55.
