data_PCOD8080765
_publ_section_title
;
Structure prediction by ZEFSAII (Michael W. Deem and Ramdas Pophale) SiO2 
 PCOD8080765
Probable space group: C 2/M
;
_chemical_formula_sum "Si O2"
_cell_formula_units_Z 64
_cell_length_a 25.184837
_cell_length_b 9.404236
_cell_length_c 19.130290
_cell_angle_alpha 90.000000
_cell_angle_beta 117.265099
_cell_angle_gamma 90.000000
_cell_volume 4027.498508
_symmetry_space_group_name_H-M "C 2/M"
_symmetry_group_IT_number 12
_symmetry_cell_setting 'monoclinic'
loop_
_space_group_symop_operation_xyz
x,y,z
-x,y,-z
-x,-y,-z
x,-y,z
1/2+x,1/2+y,z
1/2-x,1/2+y,-z
1/2-x,1/2-y,-z
1/2+x,1/2-y,z
loop_
_atom_site_type_symbol
_atom_site_label
_atom_site_fract_x
_atom_site_fract_y
_atom_site_fract_z
Si Si1 0.702089 0.834872 0.926523
Si Si2 0.235269 0.663611 0.647271
Si Si3 0.802243 0.164281 0.494739
Si Si4 0.418489 0.168290 0.077152
Si Si5 0.757847 0.162398 0.815609
Si Si6 0.135048 0.838603 0.331420
Si Si7 0.878026 0.332089 0.902784
Si Si8 0.548721 0.168069 0.188754
O O1 0.635771 0.780723 0.906102
O O2 0.711217 0.807696 0.849731
O O3 0.709515 0.000000 0.950701
O O4 0.750000 0.750000 0.000000
O O5 0.223911 0.500000 0.619666
O O6 0.188510 0.761829 0.575477
O O7 0.223810 0.692000 0.722213
O O8 0.303360 0.706673 0.669549
O O9 0.750000 0.250000 0.500000
O O10 0.859385 0.176533 0.580690
O O11 0.784071 0.000000 0.473528
O O12 0.480927 0.227117 0.145053
O O13 0.422967 0.000000 0.077582
O O14 0.408330 0.224499 0.992247
O O15 0.813456 0.264811 0.856433
O O16 0.781059 0.000000 0.831587
O O17 0.081539 0.738619 0.274245
O O18 0.119553 0.000000 0.301436
O O19 0.868859 0.500000 0.899484
O O20 0.919623 0.285237 0.863951
O O21 0.551283 0.000000 0.200929
#
# Coordination Sequence:
#
# PCOD8080765 Si02
#       8
#     8   8   8   8   8   8   8   8
#     4  10  19  32  50  67  88 119 154 193 235 272
#     4   9  17  29  43  63  93 121 147 184 225 269
#     4   9  17  28  43  64  91 122 150 179 220 270
#     4   9  18  32  46  64  91 120 154 196 231 262
#     4  10  19  30  46  68  93 121 151 187 233 274
#     4   9  17  29  43  62  92 122 143 178 227 269
#     4  10  18  29  46  66  89 121 156 190 225 266
#     4  10  19  29  45  67  90 121 158 188 221 270
#
# _framework density 15.890756
#
# number of rings (size 3 to 8) (size 9 to 14) (size 15 to 20)
#    0.000    2.500    2.500    1.500    0.000    4.500 
#    0.000    1.250    0.000    1.500    0.000    0.875 
#    0.000    7.000    0.000    0.000    0.000    0.000 
#
# Total GULP energy -396688.262827 kJ/mol
# GULP energy per Si atom -12396.508213 kJ/mol
# Density = 1.585459 g / cm^3
# Si number density = 15.890756 Si / 1000 Ang^3
#
#
#
# Elastic Constant Matrix: (Units=GPa)
#
#
# Indices 1 2 3 4 5 6 
#
# 1 79.4749 25.2015 56.2831 0.0000 6.7258 0.0000
# 2 25.2015 46.5096 48.1084 0.0000 2.6462 0.0000
# 3 56.2831 48.1084 126.4393 0.0000 -8.4831 0.0000
# 4 0.0000 0.0000 0.0000 28.7804 0.0000 0.6556
# 5 6.7258 2.6462 -8.4831 0.0000 17.7280 0.0000
# 6 0.0000 0.0000 0.0000 0.6556 0.0000 13.2830
#
#
#
# Elastic Compliance Matrix: (Units=1/GPa)
#
#
# Indices 1 2 3 4 5 6 
#
# 1 0.020837 -0.000152 -0.010069 0.000000 -0.012701 0.000000
# 2 -0.000152 0.038177 -0.015329 0.000000 -0.012976 0.000000
# 3 -0.010069 -0.015329 0.019251 0.000000 0.015320 0.000000
# 4 0.000000 0.000000 0.000000 0.034785 0.000000 -0.001717
# 5 -0.012701 -0.012976 0.015320 0.000000 0.070494 0.000000
# 6 0.000000 0.000000 0.000000 -0.001717 0.000000 0.075369
#
#
# Mechanical properties :
#
#
# Convention : Reuss Voigt Hill
#
# Bulk Modulus (GPa) = 36.81251 56.84553 46.82902
# Shear Modulus (GPa) = 15.67056 20.14700 17.90878
#
# Velocity S-wave (km/s) = 3.14370 3.56454 3.36071
# Velocity P-wave (km/s) = 6.03269 7.26579 6.67776
#
# Compressibility (1/GPa) = 0.02716468
#
# Stress axis : x y z
#
# Youngs Moduli (GPa) = 47.99201 26.19348 51.94406
#
# Poissons Ratio (x) = 0.00399 0.52305
# Poissons Ratio (y) = 0.00731 0.79624
# Poissons Ratio (z) = 0.48325 0.40151
#
# Static dielectric constant tensor:
#      x y z
#    x 3.001580 0.000000 -0.192090 
#    y 0.000000 2.996080 0.000000 
#    z -0.192090 0.000000 3.362990 
# 
# 
# High freq. dielectric constant tensor:
#      x y z
#    x 1.575410 0.000000 -0.014270 
#    y 0.000000 1.602390 0.000000 
#    z -0.014270 0.000000 1.615250 
# 
# From -- ./inp_files/326984.got.cif
#   From: 2010.06.25/outbox.cif.g09.slc.cpg/sg12_164_cif.got.tgz:326984.got - 2010.06.28 00:19:55.
