data_PCOD8080189
_publ_section_title
;
Structure prediction by ZEFSAII (Michael W. Deem and Ramdas Pophale) SiO2 
 PCOD8080189
Probable space group: C 2/M
;
_chemical_formula_sum "Si O2"
_cell_formula_units_Z 56
_cell_length_a 27.498132
_cell_length_b 9.032544
_cell_length_c 16.135828
_cell_angle_alpha 90.000000
_cell_angle_beta 65.477325
_cell_angle_gamma 90.000000
_cell_volume 3646.272099
_symmetry_space_group_name_H-M "C 2/M"
_symmetry_group_IT_number 12
_symmetry_cell_setting 'monoclinic'
loop_
_space_group_symop_operation_xyz
x,y,z
-x,y,-z
-x,-y,-z
x,-y,z
1/2+x,1/2+y,z
1/2-x,1/2+y,-z
1/2-x,1/2-y,-z
1/2+x,1/2-y,z
loop_
_atom_site_type_symbol
_atom_site_label
_atom_site_fract_x
_atom_site_fract_y
_atom_site_fract_z
Si Si1 0.246488 0.674217 0.301729
Si Si2 0.351227 0.825917 0.302975
Si Si3 0.672254 0.672350 0.028189
Si Si4 0.556166 0.324495 0.856899
Si Si5 0.938523 0.174021 0.960589
Si Si6 0.799705 0.330927 0.500711
Si Si7 0.239610 0.827471 0.137453
O O1 0.256763 0.500000 0.282821
O O2 0.302144 0.747967 0.290326
O O3 0.198046 0.706804 0.402458
O O4 0.225542 0.743102 0.231430
O O5 0.407090 0.759855 0.234283
O O6 0.349667 0.794441 0.404570
O O7 0.348549 0.000000 0.285267
O O8 0.679967 0.500000 0.999801
O O9 0.610402 0.722091 0.064002
O O10 0.691099 0.704425 0.108285
O O11 0.705404 0.767680 0.939317
O O12 0.563298 0.500000 0.839735
O O13 0.495039 0.269793 0.883915
O O14 0.572154 0.271118 0.938103
O O15 0.943975 0.000000 0.962899
O O16 0.784818 0.500000 0.501677
O O17 0.750000 0.250000 0.500000
O O18 0.246435 0.000000 0.150987
#
# Coordination Sequence:
#
# PCOD8080189 Si02
#       7
#     8   8   8   8   8   8   8
#     4  10  18  29  44  60  82 114 145 169 201 248
#     4  10  18  28  42  63  89 110 133 170 211 248
#     4   9  17  30  45  60  84 117 145 169 203 247
#     4   9  16  27  44  64  83 108 142 170 199 244
#     4   8  15  28  44  60  81 111 144 172 195 235
#     4   8  16  28  41  58  81 109 137 166 203 248
#     4  10  19  28  41  64  88 110 140 176 210 242
#
# _framework density 15.358150999999999
#
# number of rings (size 3 to 8) (size 9 to 14) (size 15 to 20)
#    0.000    2.857    0.000    3.000    0.000    2.857 
#    0.000    2.143    0.000    0.000    0.000    1.000 
#    0.000    8.000    0.000    0.000    0.000    0.000 
#
# Total GULP energy -346892.539443 kJ/mol
# GULP energy per Si atom -12389.019266 kJ/mol
# Density = 1.532320 g / cm^3
# Si number density = 15.358151 Si / 1000 Ang^3
#
#
#
# Elastic Constant Matrix: (Units=GPa)
#
#
# Indices 1 2 3 4 5 6 
#
# 1 98.1543 33.2228 61.2211 0.0000 -4.3343 0.0000
# 2 33.2228 62.3743 55.7473 0.0000 -1.0199 0.0000
# 3 61.2211 55.7473 144.7305 0.0000 -6.4250 0.0000
# 4 0.0000 0.0000 0.0000 24.5136 0.0000 -0.3766
# 5 -4.3343 -1.0199 -6.4250 0.0000 20.2532 0.0000
# 6 0.0000 0.0000 0.0000 -0.3766 0.0000 18.0327
#
#
#
# Elastic Compliance Matrix: (Units=1/GPa)
#
#
# Indices 1 2 3 4 5 6 
#
# 1 0.014328 -0.003428 -0.004678 0.000000 0.001410 0.000000
# 2 -0.003428 0.025332 -0.008402 0.000000 -0.002123 0.000000
# 3 -0.004678 -0.008402 0.012233 0.000000 0.002457 0.000000
# 4 0.000000 0.000000 0.000000 0.040807 0.000000 0.000852
# 5 0.001410 -0.002123 0.002457 0.000000 0.050349 0.000000
# 6 0.000000 0.000000 0.000000 0.000852 0.000000 0.055473
#
#
# Mechanical properties :
#
#
# Convention : Reuss Voigt Hill
#
# Bulk Modulus (GPa) = 52.96888 67.29350 60.13119
# Shear Modulus (GPa) = 21.02336 22.89777 21.96056
#
# Velocity S-wave (km/s) = 3.70384 3.86543 3.78550
# Velocity P-wave (km/s) = 7.27016 7.98958 7.63834
#
# Compressibility (1/GPa) = 0.01887901
#
# Stress axis : x y z
#
# Youngs Moduli (GPa) = 69.79220 39.47504 81.74284
#
# Poissons Ratio (x) = 0.13531 0.38239
# Poissons Ratio (y) = 0.23923 0.68679
# Poissons Ratio (z) = 0.32649 0.33167
#
# Static dielectric constant tensor:
#      x y z
#    x 2.872600 0.000000 -0.079790 
#    y 0.000000 2.912050 0.000000 
#    z -0.079790 0.000000 3.683490 
# 
# 
# High freq. dielectric constant tensor:
#      x y z
#    x 1.556670 0.000000 -0.002460 
#    y 0.000000 1.588440 0.000000 
#    z -0.002460 0.000000 1.591830 
# 
# From -- ./inp_files/243025.got.cif
#   From: 2010.06.25/outbox.cif.g09.slc.cpg/sg12_122_cif.got.tgz:243025.got - 2010.06.28 00:19:55.
