data_PCOD8080700
_publ_section_title
;
Structure prediction by ZEFSAII (Michael W. Deem and Ramdas Pophale) SiO2 
 PCOD8080700
Probable space group: C 2/M
;
_chemical_formula_sum "Si O2"
_cell_formula_units_Z 64
_cell_length_a 11.296017
_cell_length_b 28.434851
_cell_length_c 12.715845
_cell_angle_alpha 90.000000
_cell_angle_beta 89.116994
_cell_angle_gamma 90.000000
_cell_volume 4083.851513
_symmetry_space_group_name_H-M "C 2/M"
_symmetry_group_IT_number 12
_symmetry_cell_setting 'monoclinic'
loop_
_space_group_symop_operation_xyz
x,y,z
-x,y,-z
-x,-y,-z
x,-y,z
1/2+x,1/2+y,z
1/2-x,1/2+y,-z
1/2-x,1/2-y,-z
1/2+x,1/2-y,z
loop_
_atom_site_type_symbol
_atom_site_label
_atom_site_fract_x
_atom_site_fract_y
_atom_site_fract_z
Si Si1 0.637400 0.615281 0.115252
Si Si2 0.506847 0.946069 0.616137
Si Si3 0.739110 0.055731 0.716342
Si Si4 0.867414 0.776838 0.125686
Si Si5 0.248274 0.445925 0.299929
Si Si6 0.869530 0.055839 0.507232
Si Si7 0.132926 0.884338 0.874903
Si Si8 0.866584 0.777159 0.876285
O O1 0.722194 0.581249 0.178576
O O2 0.502406 0.598812 0.132460
O O3 0.650706 0.668617 0.155023
O O4 0.677098 0.610389 0.993827
O O5 0.500000 0.921853 0.500000
O O6 0.609298 0.925114 0.688043
O O7 0.391341 0.940798 0.687564
O O8 0.542066 0.000000 0.593746
O O9 0.818603 0.073123 0.618094
O O10 0.746722 0.000000 0.735796
O O11 0.852771 0.830603 0.161783
O O12 0.749274 0.749731 0.171149
O O13 0.000226 0.759607 0.164102
O O14 0.867121 0.772116 0.000983
O O15 0.287245 0.500000 0.283287
O O16 0.301082 0.424353 0.406773
O O17 0.287264 0.416958 0.198638
O O18 0.000000 0.076479 0.500000
O O19 0.864169 0.000000 0.502565
#
# Coordination Sequence:
#
# PCOD8080700 Si02
#       8
#     8   8   8   8   8   8   8   8
#     4   9  18  31  45  65  95 125 149 178 221 271
#     4   9  16  30  47  61  83 119 156 193 233 263
#     4  10  18  29  45  64  89 121 155 187 222 264
#     4   8  14  27  46  65  87 115 148 187 227 265
#     4  10  18  29  45  64  89 121 155 187 222 264
#     4   9  16  25  41  65  86 106 145 196 228 251
#     4   9  18  31  45  65  95 125 149 178 221 271
#     4   8  14  27  46  65  87 115 148 187 227 265
#
# _framework density 15.671480000000001
#
# number of rings (size 3 to 8) (size 9 to 14) (size 15 to 20)
#    0.000    3.000    1.250    2.250    0.000    2.000 
#    2.250    1.875    0.000    2.250    0.000    0.875 
#    0.000    0.000    0.000    0.000    0.000    0.000 
#
# Total GULP energy -396455.548055 kJ/mol
# GULP energy per Si atom -12389.235877 kJ/mol
# Density = 1.563581 g / cm^3
# Si number density = 15.671480 Si / 1000 Ang^3
#
#
#
# Elastic Constant Matrix: (Units=GPa)
#
#
# Indices 1 2 3 4 5 6 
#
# 1 115.4929 39.3157 33.3977 0.0000 9.6341 0.0000
# 2 39.3157 48.5817 30.2496 0.0000 1.7300 0.0000
# 3 33.3977 30.2496 62.3229 0.0000 5.2438 0.0000
# 4 0.0000 0.0000 0.0000 0.2721 0.0000 -2.7089
# 5 9.6341 1.7300 5.2438 0.0000 22.8005 0.0000
# 6 0.0000 0.0000 0.0000 -2.7089 0.0000 23.4609
#
#
#
# Elastic Compliance Matrix: (Units=1/GPa)
#
#
# Indices 1 2 3 4 5 6 
#
# 1 0.012593 -0.008683 -0.002184 0.000000 -0.004160 0.000000
# 2 -0.008683 0.035512 -0.012915 0.000000 0.003945 0.000000
# 3 -0.002184 -0.012915 0.023785 0.000000 -0.003567 0.000000
# 4 0.000000 0.000000 0.000000-24.589621 0.000000 -2.839271
# 5 -0.004160 0.003945 -0.003567 0.000000 0.046138 0.000000
# 6 0.000000 0.000000 0.000000 -2.839271 0.000000 -0.285216
#
#
# Mechanical properties :
#
#
# Convention : Reuss Voigt Hill
#
# Bulk Modulus (GPa) = 41.10961 48.03595 44.57278
# Shear Modulus (GPa) = -0.20242 17.53568 8.66663
#
# Velocity S-wave (km/s) = -0.35978 3.34871 2.35419
# Velocity P-wave (km/s) = 5.11043 6.75797 5.99110
#
# Compressibility (1/GPa) = 0.02432521
#
# Stress axis : x y z
#
# Youngs Moduli (GPa) = 79.40950 28.15927 42.04413
#
# Poissons Ratio (x) = 0.24451 0.09181
# Poissons Ratio (y) = 0.68953 0.54301
# Poissons Ratio (z) = 0.17341 0.36369
#
# Static dielectric constant tensor:
#      x y z
#    x 3.365200 0.000000 0.005260 
#    y 0.000000 2.704460 0.000000 
#    z 0.005260 0.000000 2.731500 
# 
# 
# High freq. dielectric constant tensor:
#      x y z
#    x 1.618410 0.000000 -0.000500 
#    y 0.000000 1.559710 0.000000 
#    z -0.000500 0.000000 1.576220 
# 
# From -- ./inp_files/135348.got.cif
#   From: 2010.06.25/outbox.cif.g09.slc.cpg/sg12_68_cif.got.tgz:135348.got - 2010.06.28 00:19:55.
