data_PCOD8080588
_publ_section_title
;
Structure prediction by ZEFSAII (Michael W. Deem and Ramdas Pophale) SiO2 
 PCOD8080588
Probable space group: C 2/M
;
_chemical_formula_sum "Si O2"
_cell_formula_units_Z 48
_cell_length_a 12.416095
_cell_length_b 22.025532
_cell_length_c 9.473964
_cell_angle_alpha 90.000000
_cell_angle_beta 118.954463
_cell_angle_gamma 90.000000
_cell_volume 2267.010707
_symmetry_space_group_name_H-M "C 2/M"
_symmetry_group_IT_number 12
_symmetry_cell_setting 'monoclinic'
loop_
_space_group_symop_operation_xyz
x,y,z
-x,y,-z
-x,-y,-z
x,-y,z
1/2+x,1/2+y,z
1/2-x,1/2+y,-z
1/2-x,1/2-y,-z
1/2+x,1/2-y,z
loop_
_atom_site_type_symbol
_atom_site_label
_atom_site_fract_x
_atom_site_fract_y
_atom_site_fract_z
Si Si1 0.871930 0.500000 0.339087
Si Si2 0.652640 0.804634 0.813749
Si Si3 0.785073 0.176657 0.190426
Si Si4 0.067310 0.069897 0.835829
Si Si5 0.815329 0.901456 0.795305
Si Si6 0.435554 0.868778 0.805878
Si Si7 0.024886 0.500000 0.179394
O O1 0.794005 0.441861 0.335917
O O2 0.000000 0.500000 0.500000
O O3 0.896220 0.500000 0.185136
O O4 0.629893 0.736628 0.738153
O O5 0.756035 0.835136 0.778690
O O6 0.520941 0.838837 0.738232
O O7 0.703262 0.807254 0.003578
O O8 0.862851 0.114549 0.227669
O O9 0.692469 0.168024 0.263840
O O10 0.930399 0.098397 0.761948
O O11 0.063147 0.000000 0.777535
O O12 0.137828 0.069956 0.028553
O O13 0.403425 0.937852 0.736519
O O14 0.500000 0.870948 0.000000
O O15 0.000000 0.500000 0.000000
#
# Coordination Sequence:
#
# PCOD8080588 Si02
#       7
#     4   8   8   8   8   8   4
#     4  12  22  35  54  84 117 148 192 232 275 331
#     4   9  17  29  42  63 109 138 177 218 274 321
#     4   9  19  26  41  73 101 146 175 215 275 341
#     4  10  18  28  49  72 110 138 178 222 287 328
#     4  10  18  32  48  74 106 143 178 230 277 327
#     4   9  17  27  44  67 102 139 171 219 272 329
#     4  10  20  32  52  78 107 143 176 228 288 323
#
# _framework density 21.173258000000001
#
# number of rings (size 3 to 8) (size 9 to 14) (size 15 to 20)
#    0.000    2.333    3.333    0.500    5.833    0.000 
#    0.000    0.000    0.000    0.000    0.000    7.000 
#    0.000    0.000    0.000    0.000    0.000    0.000 
#
# Total GULP energy -297355.589818 kJ/mol
# GULP energy per Si atom -12389.816242 kJ/mol
# Density = 2.112507 g / cm^3
# Si number density = 21.173258 Si / 1000 Ang^3
#
#
#
# Elastic Constant Matrix: (Units=GPa)
#
#
# Indices 1 2 3 4 5 6 
#
# 1 144.8234 83.1652 16.9690 0.0000 30.7936 0.0000
# 2 83.1652 193.0399 3.9258 0.0000 16.8164 0.0000
# 3 16.9690 3.9258 29.1019 0.0000 16.2436 0.0000
# 4 0.0000 0.0000 0.0000 1.6785 0.0000 4.7887
# 5 30.7936 16.8164 16.2436 0.0000 18.5009 0.0000
# 6 0.0000 0.0000 0.0000 4.7887 0.0000 32.4393
#
#
#
# Elastic Compliance Matrix: (Units=1/GPa)
#
#
# Indices 1 2 3 4 5 6 
#
# 1 0.013647 -0.003843 0.006452 0.000000 -0.024887 0.000000
# 2 -0.003843 0.006970 0.002484 0.000000 -0.002120 0.000000
# 3 0.006452 0.002484 0.073576 0.000000 -0.077595 0.000000
# 4 0.000000 0.000000 0.000000 1.029238 0.000000 -0.151936
# 5 -0.024887 -0.002120 -0.077595 0.000000 0.165529 0.000000
# 6 0.000000 0.000000 0.000000 -0.151936 0.000000 0.053256
#
#
# Mechanical properties :
#
#
# Convention : Reuss Voigt Hill
#
# Bulk Modulus (GPa) = 9.58049 63.89833 36.73941
# Shear Modulus (GPa) = 3.65812 28.05074 15.85443
#
# Velocity S-wave (km/s) = 1.31585 3.64376 2.73938
# Velocity P-wave (km/s) = 2.61596 6.92437 5.23403
#
# Compressibility (1/GPa) = 0.10437875
#
# Stress axis : x y z
#
# Youngs Moduli (GPa) = 73.27395 143.47224 13.59142
#
# Poissons Ratio (x) = 0.55133 -0.08769
# Poissons Ratio (y) = 0.28158 -0.03376
# Poissons Ratio (z) = -0.47274 -0.35635
#
# Static dielectric constant tensor:
#      x y z
#    x 4.390700 0.000000 0.563090 
#    y 0.000000 4.170900 0.000000 
#    z 0.563090 0.000000 3.369680 
# 
# 
# High freq. dielectric constant tensor:
#      x y z
#    x 1.837540 0.000000 0.021930 
#    y 0.000000 1.842590 0.000000 
#    z 0.021930 0.000000 1.741760 
# 
# From -- ./inp_files/135583.got.cif
#   From: 2010.06.25/outbox.cif.g09.slc.cpg/sg12_68_cif.got.tgz:135583.got - 2010.06.28 00:19:55.
