data_PCOD8080272
_publ_section_title
;
Structure prediction by ZEFSAII (Michael W. Deem and Ramdas Pophale) SiO2 
 PCOD8080272
Probable space group: C 2/M
;
_chemical_formula_sum "Si O2"
_cell_formula_units_Z 56
_cell_length_a 24.325735
_cell_length_b 8.997485
_cell_length_c 23.158423
_cell_angle_alpha 90.000000
_cell_angle_beta 43.216970
_cell_angle_gamma 90.000000
_cell_volume 3470.854118
_symmetry_space_group_name_H-M "C 2/M"
_symmetry_group_IT_number 12
_symmetry_cell_setting 'monoclinic'
loop_
_space_group_symop_operation_xyz
x,y,z
-x,y,-z
-x,-y,-z
x,-y,z
1/2+x,1/2+y,z
1/2-x,1/2+y,-z
1/2-x,1/2-y,-z
1/2+x,1/2-y,z
loop_
_atom_site_type_symbol
_atom_site_label
_atom_site_fract_x
_atom_site_fract_y
_atom_site_fract_z
Si Si1 0.846503 0.328736 0.866186
Si Si2 0.765711 0.664453 0.401517
Si Si3 0.424429 0.824149 0.224593
Si Si4 0.489282 0.671868 0.942858
Si Si5 0.365749 0.165305 0.442154
Si Si6 0.332737 0.330570 0.995111
Si Si7 0.500727 0.675864 0.276608
O O1 0.872119 0.500000 0.842040
O O2 0.756432 0.301795 0.911199
O O3 0.908372 0.230885 0.780972
O O4 0.851025 0.281985 0.929615
O O5 0.733369 0.500000 0.412398
O O6 0.829753 0.716630 0.304038
O O7 0.688304 0.771145 0.463915
O O8 0.812822 0.663643 0.425537
O O9 0.451769 0.771104 0.140968
O O10 0.476176 0.739728 0.233114
O O11 0.437311 0.000000 0.223042
O O12 0.514030 0.500000 0.916595
O O13 0.500000 0.726007 0.000000
O O14 0.396489 0.697861 0.996966
O O15 0.444038 0.265944 0.371546
O O16 0.393662 0.000000 0.437699
O O17 0.338851 0.500000 0.966797
O O18 0.495959 0.500000 0.278491
#
# Coordination Sequence:
#
# PCOD8080272 Si02
#       7
#     8   8   8   8   8   8   8
#     4  10  18  28  44  64  87 114 148 185 218 262
#     4   8  15  26  38  55  81 111 143 177 214 256
#     4  10  19  30  44  62  84 114 151 186 220 260
#     4  10  20  33  48  66  89 117 150 187 225 265
#     4   9  16  25  38  58  83 112 145 176 211 256
#     4   9  18  31  45  63  86 115 147 182 225 264
#     4  11  19  27  41  61  88 118 147 179 220 264
#
# _framework density 16.134356
#
# number of rings (size 3 to 8) (size 9 to 14) (size 15 to 20)
#    0.000    2.429    1.429    3.429    0.000    4.857 
#    0.000    0.000    0.000    0.000    0.000    0.000 
#    0.000    1.143    0.000   13.143    0.000    3.571 
#
# Total GULP energy -347122.093385 kJ/mol
# GULP energy per Si atom -12397.217621 kJ/mol
# Density = 1.609763 g / cm^3
# Si number density = 16.134356 Si / 1000 Ang^3
#
#
#
# Elastic Constant Matrix: (Units=GPa)
#
#
# Indices 1 2 3 4 5 6 
#
# 1 52.6786 25.1216 40.7592 -0.0012 -5.9075 -0.0001
# 2 25.1216 111.5243 69.2434 -0.0052 -11.6217 0.0018
# 3 40.7592 69.2434 140.4843 -0.0018 -20.4248 0.0019
# 4 -0.0012 -0.0052 -0.0018 32.3540 0.0002 -4.2422
# 5 -5.9075 -11.6217 -20.4248 0.0002 15.4557 -0.0005
# 6 -0.0001 0.0018 0.0019 -4.2422 -0.0005 12.3703
#
#
#
# Elastic Compliance Matrix: (Units=1/GPa)
#
#
# Indices 1 2 3 4 5 6 
#
# 1 0.024676 -0.001609 -0.006401 0.000001 -0.000237 0.000002
# 2 -0.001609 0.013058 -0.005733 0.000002 0.001628 0.000000
# 3 -0.006401 -0.005733 0.013391 -0.000001 0.010940 -0.000001
# 4 0.000001 0.000002 -0.000001 0.032363 0.000001 0.011098
# 5 -0.000237 0.001628 0.010940 0.000001 0.080292 0.000001
# 6 0.000002 0.000000 -0.000001 0.011098 0.000001 0.084645
#
#
# Mechanical properties :
#
#
# Convention : Reuss Voigt Hill
#
# Bulk Modulus (GPa) = 42.29973 63.88173 53.09073
# Shear Modulus (GPa) = 17.61861 23.34020 20.47940
#
# Velocity S-wave (km/s) = 3.30812 3.80757 3.56659
# Velocity P-wave (km/s) = 6.39262 7.68177 7.06666
#
# Compressibility (1/GPa) = 0.02364081
#
# Stress axis : x y z
#
# Youngs Moduli (GPa) = 40.52474 76.58103 74.67489
#
# Poissons Ratio (x) = 0.12322 0.47797
# Poissons Ratio (y) = 0.06521 0.42808
# Poissons Ratio (z) = 0.25939 0.43901
#
# Static dielectric constant tensor:
#      x y z
#    x 2.595200 -0.000010 -0.296370 
#    y -0.000010 3.181840 0.000000 
#    z -0.296370 0.000000 3.343950 
# 
# 
# High freq. dielectric constant tensor:
#      x y z
#    x 1.548090 0.000000 -0.031020 
#    y 0.000000 1.632770 0.000000 
#    z -0.031020 0.000000 1.630130 
# 
# From -- ./inp_files/348479.got.cif
#   From: 2010.06.25/outbox.cif.g09.slc.cpg/sg12_175_cif.got.tgz:348479.got - 2010.06.28 00:19:55.
