data_PCOD8080071
_publ_section_title
;
Structure prediction by ZEFSAII (Michael W. Deem and Ramdas Pophale) SiO2 
 PCOD8080071
Probable space group: C 2/M
;
_chemical_formula_sum "Si O2"
_cell_formula_units_Z 48
_cell_length_a 19.406057
_cell_length_b 9.478861
_cell_length_c 20.405874
_cell_angle_alpha 90.000000
_cell_angle_beta 48.426120
_cell_angle_gamma 90.000000
_cell_volume 2808.075042
_symmetry_space_group_name_H-M "C 2/M"
_symmetry_group_IT_number 12
_symmetry_cell_setting 'monoclinic'
loop_
_space_group_symop_operation_xyz
x,y,z
-x,y,-z
-x,-y,-z
x,-y,z
1/2+x,1/2+y,z
1/2-x,1/2+y,-z
1/2-x,1/2-y,-z
1/2+x,1/2-y,z
loop_
_atom_site_type_symbol
_atom_site_label
_atom_site_fract_x
_atom_site_fract_y
_atom_site_fract_z
Si Si1 0.515720 0.334838 0.638876
Si Si2 0.315059 0.667324 0.762302
Si Si3 0.313537 0.833259 0.270890
Si Si4 0.474490 0.663484 0.221488
Si Si5 0.293434 0.335740 0.531318
Si Si6 0.687016 0.662806 0.087858
O O1 0.500206 0.500000 0.658892
O O2 0.416920 0.272808 0.677946
O O3 0.543201 0.277824 0.693724
O O4 0.596640 0.301226 0.536049
O O5 0.315603 0.500000 0.755865
O O6 0.238296 0.725858 0.760954
O O7 0.293141 0.714145 0.850366
O O8 0.411387 0.755178 0.212697
O O9 0.249624 0.790767 0.372693
O O10 0.331077 0.000000 0.256930
O O11 0.446645 0.500000 0.232029
O O12 0.580793 0.687203 0.135558
O O13 0.277239 0.500000 0.526834
O O14 0.250000 0.250000 0.500000
O O15 0.713626 0.500000 0.063883
O O16 0.750000 0.750000 0.000000
#
# Coordination Sequence:
#
# PCOD8080071 Si02
#       6
#     8   8   8   8   8   8
#     4   8  14  27  46  65  90 128 164 191 225 272
#     4   8  16  31  48  69  98 125 154 195 241 282
#     4  10  19  29  46  74 100 123 157 201 238 270
#     4   9  17  31  50  69  94 129 159 185 233 291
#     4  10  18  27  44  70  96 126 164 199 230 269
#     4   9  18  34  56  75  92 120 157 195 235 285
#
# _framework density 17.093561000000001
#
# number of rings (size 3 to 8) (size 9 to 14) (size 15 to 20)
#    0.000    3.000    1.667    2.000    0.000    1.333 
#    0.000    5.000    0.000    7.000    0.000    2.333 
#    0.000    0.000    0.000    0.000    0.000    0.000 
#
# Total GULP energy -297450.095969 kJ/mol
# GULP energy per Si atom -12393.753999 kJ/mol
# Density = 1.705466 g / cm^3
# Si number density = 17.093561 Si / 1000 Ang^3
#
#
#
# Elastic Constant Matrix: (Units=GPa)
#
#
# Indices 1 2 3 4 5 6 
#
# 1 149.3164 40.8624 55.8308 0.0000 2.6777 0.0000
# 2 40.8624 36.7948 38.4192 0.0000 -2.4789 0.0000
# 3 55.8308 38.4192 101.6583 0.0000 -4.0664 0.0000
# 4 0.0000 0.0000 0.0000 24.0457 0.0000 -2.8816
# 5 2.6777 -2.4789 -4.0664 0.0000 18.9986 0.0000
# 6 0.0000 0.0000 0.0000 -2.8816 0.0000 24.3586
#
#
#
# Elastic Compliance Matrix: (Units=1/GPa)
#
#
# Indices 1 2 3 4 5 6 
#
# 1 0.010064 -0.009059 -0.002227 0.000000 -0.003077 0.000000
# 2 -0.009059 0.053143 -0.014908 0.000000 0.005020 0.000000
# 3 -0.002227 -0.014908 0.016772 0.000000 0.001959 0.000000
# 4 0.000000 0.000000 0.000000 0.042186 0.000000 0.004991
# 5 -0.003077 0.005020 0.001959 0.000000 0.054143 0.000000
# 6 0.000000 0.000000 0.000000 0.004991 0.000000 0.041644
#
#
# Mechanical properties :
#
#
# Convention : Reuss Voigt Hill
#
# Bulk Modulus (GPa) = 36.24283 61.99937 49.12110
# Shear Modulus (GPa) = 17.88681 23.65771 20.77226
#
# Velocity S-wave (km/s) = 3.23833 3.72427 3.48977
# Velocity P-wave (km/s) = 5.93557 7.40560 6.71096
#
# Compressibility (1/GPa) = 0.02759167
#
# Stress axis : x y z
#
# Youngs Moduli (GPa) = 99.36370 18.81733 59.62257
#
# Poissons Ratio (x) = 0.17047 0.13276
# Poissons Ratio (y) = 0.90013 0.88885
# Poissons Ratio (z) = 0.22125 0.28053
#
# Static dielectric constant tensor:
#      x y z
#    x 3.498660 0.000000 -0.063840 
#    y 0.000000 2.828620 0.000000 
#    z -0.063840 0.000000 3.145400 
# 
# 
# High freq. dielectric constant tensor:
#      x y z
#    x 1.662520 0.000000 -0.011390 
#    y 0.000000 1.620870 0.000000 
#    z -0.011390 0.000000 1.651660 
# 
# From -- ./inp_files/212844.got.cif
#   From: 2010.06.25/outbox.cif.g09.slc.cpg/sg12_107_cif.got.tgz:212844.got - 2010.06.28 00:19:55.
