data_PCOD8080552
_publ_section_title
;
Structure prediction by ZEFSAII (Michael W. Deem and Ramdas Pophale) SiO2 
 PCOD8080552
Probable space group: C 2/M
;
_chemical_formula_sum "Si O2"
_cell_formula_units_Z 56
_cell_length_a 12.607138
_cell_length_b 17.952980
_cell_length_c 16.803756
_cell_angle_alpha 90.000000
_cell_angle_beta 55.143288
_cell_angle_gamma 90.000000
_cell_volume 3120.918422
_symmetry_space_group_name_H-M "C 2/M"
_symmetry_group_IT_number 12
_symmetry_cell_setting 'monoclinic'
loop_
_space_group_symop_operation_xyz
x,y,z
-x,y,-z
-x,-y,-z
x,-y,z
1/2+x,1/2+y,z
1/2-x,1/2+y,-z
1/2-x,1/2-y,-z
1/2+x,1/2-y,z
loop_
_atom_site_type_symbol
_atom_site_label
_atom_site_fract_x
_atom_site_fract_y
_atom_site_fract_z
Si Si1 0.742759 0.087030 0.330489
Si Si2 0.938913 0.414719 0.725402
Si Si3 0.978901 0.588862 0.882588
Si Si4 0.479472 0.412909 0.732394
Si Si5 0.699876 0.088076 0.901634
Si Si6 0.147083 0.652346 0.533094
Si Si7 0.069350 0.816473 0.551705
O O1 0.685142 0.116174 0.271008
O O2 0.667937 0.130772 0.432262
O O3 0.896414 0.102555 0.264592
O O4 0.713120 0.000000 0.355968
O O5 0.912475 0.500000 0.755197
O O6 0.958309 0.375145 0.803270
O O7 0.065436 0.408333 0.616075
O O8 0.981342 0.500000 0.876418
O O9 0.114702 0.617094 0.862836
O O10 0.861478 0.617100 0.989229
O O11 0.473058 0.500000 0.711077
O O12 0.349015 0.386300 0.832578
O O13 0.490539 0.363337 0.649656
O O14 0.691572 0.000000 0.905341
O O15 0.068189 0.729318 0.573677
O O16 0.283772 0.656238 0.518707
O O17 0.000000 0.833628 0.500000
#
# Coordination Sequence:
#
# PCOD8080552 Si02
#       7
#     8   8   8   8   8   8   8
#     4   9  17  30  46  68  94 125 160 190 226 273
#     4  10  18  28  48  72  93 119 159 197 225 267
#     4   8  15  26  44  71  94 117 151 188 229 277
#     4   9  18  31  48  67  92 125 154 189 237 275
#     4   8  14  28  46  65  95 123 145 185 238 280
#     4  10  20  33  47  65  95 128 154 189 232 270
#     4  10  21  33  46  67  93 123 159 190 225 281
#
# _framework density 17.943435999999998
#
# number of rings (size 3 to 8) (size 9 to 14) (size 15 to 20)
#    0.000    2.857    0.000    2.571    2.000    2.000 
#    0.000    0.714    0.000    5.143    0.000    0.000 
#    0.000    0.000    0.000    0.000    0.000    0.000 
#
# Total GULP energy -347020.211950 kJ/mol
# GULP energy per Si atom -12393.578998 kJ/mol
# Density = 1.790260 g / cm^3
# Si number density = 17.943436 Si / 1000 Ang^3
#
#
#
# Elastic Constant Matrix: (Units=GPa)
#
#
# Indices 1 2 3 4 5 6 
#
# 1 143.2988 17.9018 93.4087 0.0000 12.3810 0.0000
# 2 17.9018 22.1637 18.2748 0.0000 -2.6855 0.0000
# 3 93.4087 18.2748 120.2920 0.0000 1.2117 0.0000
# 4 0.0000 0.0000 0.0000 3.8316 0.0000 -0.7373
# 5 12.3810 -2.6855 1.2117 0.0000 36.2836 0.0000
# 6 0.0000 0.0000 0.0000 -0.7373 0.0000 14.8593
#
#
#
# Elastic Compliance Matrix: (Units=1/GPa)
#
#
# Indices 1 2 3 4 5 6 
#
# 1 0.015141 -0.003648 -0.011152 0.000000 -0.005064 0.000000
# 2 -0.003648 0.053070 -0.005284 0.000000 0.005349 0.000000
# 3 -0.011152 -0.005284 0.017747 0.000000 0.002822 0.000000
# 4 0.000000 0.000000 0.000000 0.263504 0.000000 0.013075
# 5 -0.005064 0.005349 0.002822 0.000000 0.029590 0.000000
# 6 0.000000 0.000000 0.000000 0.013075 0.000000 0.067947
#
#
# Mechanical properties :
#
#
# Convention : Reuss Voigt Hill
#
# Bulk Modulus (GPa) = 21.83836 60.54725 41.19280
# Shear Modulus (GPa) = 9.95161 21.40616 15.67889
#
# Velocity S-wave (km/s) = 2.35757 3.45770 2.95921
# Velocity P-wave (km/s) = 4.42809 7.05391 5.88921
#
# Compressibility (1/GPa) = 0.04579098
#
# Stress axis : x y z
#
# Youngs Moduli (GPa) = 66.04499 18.84302 56.34678
#
# Poissons Ratio (x) = 0.06874 0.62839
# Poissons Ratio (y) = 0.24093 0.29772
# Poissons Ratio (z) = 0.73655 0.09956
#
# Static dielectric constant tensor:
#      x y z
#    x 3.696360 0.000000 0.015990 
#    y 0.000000 2.979200 0.000000 
#    z 0.015990 0.000000 3.388640 
# 
# 
# High freq. dielectric constant tensor:
#      x y z
#    x 1.711800 0.000000 0.000030 
#    y 0.000000 1.653000 0.000000 
#    z 0.000030 0.000000 1.680290 
# 
# From -- ./inp_files/177926.got.cif
#   From: 2010.06.25/outbox.cif.g09.slc.cpg/sg12_89_cif.got.tgz:177926.got - 2010.06.28 00:19:55.
