data_PCOD8080879
_publ_section_title
;
Structure prediction by ZEFSAII (Michael W. Deem and Ramdas Pophale) SiO2 
 PCOD8080879
Probable space group: C 2/M
;
_chemical_formula_sum "Si O2"
_cell_formula_units_Z 56
_cell_length_a 30.121886
_cell_length_b 9.564170
_cell_length_c 12.521717
_cell_angle_alpha 90.000000
_cell_angle_beta 105.695171
_cell_angle_gamma 90.000000
_cell_volume 3472.888716
_symmetry_space_group_name_H-M "C 2/M"
_symmetry_group_IT_number 12
_symmetry_cell_setting 'monoclinic'
loop_
_space_group_symop_operation_xyz
x,y,z
-x,y,-z
-x,-y,-z
x,-y,z
1/2+x,1/2+y,z
1/2-x,1/2+y,-z
1/2-x,1/2-y,-z
1/2+x,1/2-y,z
loop_
_atom_site_type_symbol
_atom_site_label
_atom_site_fract_x
_atom_site_fract_y
_atom_site_fract_z
Si Si1 0.941674 0.161584 0.145429
Si Si2 0.546776 0.338170 0.258442
Si Si3 0.604228 0.336124 0.099796
Si Si4 0.453739 0.161652 0.530504
Si Si5 0.801788 0.838125 0.929561
Si Si6 0.199679 0.339586 0.863124
Si Si7 0.105965 0.659842 0.705445
O O1 0.922075 0.243630 0.233067
O O2 0.996308 0.181655 0.176320
O O3 0.927791 0.000000 0.151027
O O4 0.920400 0.224532 0.022396
O O5 0.556719 0.500000 0.291344
O O6 0.582346 0.274793 0.193915
O O7 0.554062 0.252583 0.370426
O O8 0.594197 0.500000 0.095007
O O9 0.659026 0.300590 0.132218
O O10 0.500000 0.210132 0.500000
O O11 0.409999 0.189805 0.425508
O O12 0.457815 0.000000 0.566796
O O13 0.750743 0.802352 0.850602
O O14 0.805912 0.000000 0.964050
O O15 0.812391 0.753164 0.043052
O O16 0.198634 0.500000 0.900362
O O17 0.161031 0.310884 0.747983
O O18 0.094532 0.500000 0.729014
#
# Coordination Sequence:
#
# PCOD8080879 Si02
#       7
#     8   8   8   8   8   8   8
#     4  10  18  29  47  70  95 122 151 184 227 275
#     4  10  20  32  48  69  93 122 158 193 224 268
#     4   9  17  30  47  69  97 125 149 181 230 279
#     4  10  20  34  49  64  89 125 159 193 231 268
#     4   9  16  28  47  69  94 121 148 181 227 277
#     4   9  17  28  45  70  94 118 150 187 226 270
#     4  10  19  31  47  67  95 123 151 189 231 270
#
# _framework density 16.124904999999998
#
# number of rings (size 3 to 8) (size 9 to 14) (size 15 to 20)
#    0.000    2.429    2.857    0.429    0.000    2.571 
#    0.000    1.429    0.000    2.571    0.000    0.000 
#    0.000    0.000    0.000    0.000    0.000    0.000 
#
# Total GULP energy -347108.128277 kJ/mol
# GULP energy per Si atom -12396.718867 kJ/mol
# Density = 1.608820 g / cm^3
# Si number density = 16.124905 Si / 1000 Ang^3
#
#
#
# Elastic Constant Matrix: (Units=GPa)
#
#
# Indices 1 2 3 4 5 6 
#
# 1 124.7053 37.4330 62.8011 0.0000 0.5555 0.0000
# 2 37.4330 43.5891 38.5089 0.0000 -4.4644 0.0000
# 3 62.8011 38.5089 94.4580 0.0000 -3.3312 0.0000
# 4 0.0000 0.0000 0.0000 18.9250 0.0000 2.2602
# 5 0.5555 -4.4644 -3.3312 0.0000 28.0743 0.0000
# 6 0.0000 0.0000 0.0000 2.2602 0.0000 15.8567
#
#
#
# Elastic Compliance Matrix: (Units=1/GPa)
#
#
# Indices 1 2 3 4 5 6 
#
# 1 0.012932 -0.005699 -0.006342 0.000000 -0.001915 0.000000
# 2 -0.005699 0.038816 -0.011864 0.000000 0.004878 0.000000
# 3 -0.006342 -0.011864 0.019660 0.000000 0.000572 0.000000
# 4 0.000000 0.000000 0.000000 0.053755 0.000000 -0.007662
# 5 -0.001915 0.004878 0.000572 0.000000 0.036501 0.000000
# 6 0.000000 0.000000 0.000000 -0.007662 0.000000 0.064157
#
#
# Mechanical properties :
#
#
# Convention : Reuss Voigt Hill
#
# Bulk Modulus (GPa) = 42.37487 60.02648 51.20068
# Shear Modulus (GPa) = 17.76215 20.83847 19.30031
#
# Velocity S-wave (km/s) = 3.32254 3.59878 3.46341
# Velocity P-wave (km/s) = 6.40743 7.38749 6.91485
#
# Compressibility (1/GPa) = 0.02359889
#
# Stress axis : x y z
#
# Youngs Moduli (GPa) = 77.32827 25.76251 50.86421
#
# Poissons Ratio (x) = 0.14681 0.32259
# Poissons Ratio (y) = 0.44067 0.60345
# Poissons Ratio (z) = 0.49043 0.30564
#
# Static dielectric constant tensor:
#      x y z
#    x 3.344870 0.000000 0.150730 
#    y 0.000000 2.972710 0.000000 
#    z 0.150730 0.000000 2.972840 
# 
# 
# High freq. dielectric constant tensor:
#      x y z
#    x 1.627080 0.000000 0.013130 
#    y 0.000000 1.607320 0.000000 
#    z 0.013130 0.000000 1.598880 
# 
# From -- ./inp_files/181624.got.cif
#   From: 2010.06.25/outbox.cif.g09.slc.cpg/sg12_91_cif.got.tgz:181624.got - 2010.06.28 00:19:55.
