data_PCOD8080840
_publ_section_title
;
Structure prediction by ZEFSAII (Michael W. Deem and Ramdas Pophale) SiO2 
 PCOD8080840
Probable space group: C 2/M
;
_chemical_formula_sum "Si O2"
_cell_formula_units_Z 56
_cell_length_a 24.085779
_cell_length_b 8.894510
_cell_length_c 13.879839
_cell_angle_alpha 90.000000
_cell_angle_beta 108.360625
_cell_angle_gamma 90.000000
_cell_volume 2822.122040
_symmetry_space_group_name_H-M "C 2/M"
_symmetry_group_IT_number 12
_symmetry_cell_setting 'monoclinic'
loop_
_space_group_symop_operation_xyz
x,y,z
-x,y,-z
-x,-y,-z
x,-y,z
1/2+x,1/2+y,z
1/2-x,1/2+y,-z
1/2-x,1/2-y,-z
1/2+x,1/2-y,z
loop_
_atom_site_type_symbol
_atom_site_label
_atom_site_fract_x
_atom_site_fract_y
_atom_site_fract_z
Si Si1 0.518360 0.821204 0.116672
Si Si2 0.767559 0.666702 0.789807
Si Si3 0.585903 0.822123 0.811680
Si Si4 0.687372 0.322449 0.490911
Si Si5 0.690706 0.830465 0.988660
Si Si6 0.130551 0.327104 0.291581
Si Si7 0.158402 0.675025 0.674316
O O1 0.474962 0.761087 0.178133
O O2 0.582029 0.765995 0.188930
O O3 0.516985 0.000000 0.108248
O O4 0.500000 0.757036 0.000000
O O5 0.738775 0.500000 0.775562
O O6 0.816462 0.678948 0.900085
O O7 0.803921 0.690144 0.712883
O O8 0.716042 0.789984 0.770765
O O9 0.600875 0.782291 0.707795
O O10 0.585980 0.000000 0.823723
O O11 0.636072 0.750801 0.907534
O O12 0.695247 0.500000 0.490216
O O13 0.750000 0.250000 0.500000
O O14 0.634792 0.270370 0.391181
O O15 0.663470 0.276788 0.582916
O O16 0.695255 0.000000 0.953189
O O17 0.750000 0.750000 0.000000
O O18 0.115976 0.500000 0.309669
O O19 0.157544 0.500000 0.645454
#
# Coordination Sequence:
#
# PCOD8080840 Si02
#       7
#     8   8   8   8   8   8   8
#     4   9  17  33  59  88 118 153 194 239 282 331
#     4  10  19  30  49  78 113 146 183 232 283 341
#     4   9  18  32  51  79 115 151 192 239 285 334
#     4  12  24  39  59  84 115 150 190 239 293 347
#     4  10  18  29  46  74 110 145 182 226 280 338
#     4  10  20  35  58  87 114 148 193 239 287 338
#     4  11  21  34  54  81 114 150 186 232 287 342
#
# _framework density 19.843226000000001
#
# number of rings (size 3 to 8) (size 9 to 14) (size 15 to 20)
#    0.000    1.857    2.857    2.571    0.000    3.429 
#    0.000    0.714    0.000    7.286    0.000    0.000 
#    0.000    0.000    0.000    0.000    0.000    0.000 
#
# Total GULP energy -346899.622822 kJ/mol
# GULP energy per Si atom -12389.272244 kJ/mol
# Density = 1.979806 g / cm^3
# Si number density = 19.843226 Si / 1000 Ang^3
#
#
#
# Elastic Constant Matrix: (Units=GPa)
#
#
# Indices 1 2 3 4 5 6 
#
# 1 94.1128 25.7187 38.5467 0.0000 -13.5265 0.0000
# 2 25.7187 64.4779 33.1632 0.0000 -2.9844 0.0000
# 3 38.5467 33.1632 109.3771 0.0000 -4.2843 0.0000
# 4 0.0000 0.0000 0.0000 26.1846 0.0000 -0.4412
# 5 -13.5265 -2.9844 -4.2843 0.0000 32.1192 0.0000
# 6 0.0000 0.0000 0.0000 -0.4412 0.0000 17.6419
#
#
#
# Elastic Compliance Matrix: (Units=1/GPa)
#
#
# Indices 1 2 3 4 5 6 
#
# 1 0.013754 -0.003391 -0.003623 0.000000 0.004994 0.000000
# 2 -0.003391 0.019241 -0.004649 0.000000 -0.000261 0.000000
# 3 -0.003623 -0.004649 0.011814 0.000000 -0.000382 0.000000
# 4 0.000000 0.000000 0.000000 0.038207 0.000000 0.000956
# 5 0.004994 -0.000261 -0.000382 0.000000 0.033162 0.000000
# 6 0.000000 0.000000 0.000000 0.000956 0.000000 0.056707
#
#
# Mechanical properties :
#
#
# Convention : Reuss Voigt Hill
#
# Bulk Modulus (GPa) = 46.55058 51.42500 48.98779
# Shear Modulus (GPa) = 24.58539 26.55842 25.57190
#
# Velocity S-wave (km/s) = 3.52374 3.66240 3.59374
# Velocity P-wave (km/s) = 6.32975 6.62240 6.47773
#
# Compressibility (1/GPa) = 0.02148201
#
# Stress axis : x y z
#
# Youngs Moduli (GPa) = 72.70531 51.97244 84.64391
#
# Poissons Ratio (x) = 0.17626 0.30669
# Poissons Ratio (y) = 0.24658 0.39350
# Poissons Ratio (z) = 0.26344 0.24161
#
# Static dielectric constant tensor:
#      x y z
#    x 3.703460 0.000000 -0.163750 
#    y 0.000000 3.302290 0.000000 
#    z -0.163750 0.000000 4.445300 
# 
# 
# High freq. dielectric constant tensor:
#      x y z
#    x 1.760790 0.000000 -0.013240 
#    y 0.000000 1.731010 0.000000 
#    z -0.013240 0.000000 1.786300 
# 
# From -- ./inp_files/237861.got.cif
#   From: 2010.06.25/outbox.cif.g09.slc.cpg/sg12_119_cif.got.tgz:237861.got - 2010.06.28 00:19:55.
