data_PCOD8080845
_publ_section_title
;
Structure prediction by ZEFSAII (Michael W. Deem and Ramdas Pophale) SiO2 
 PCOD8080845
Probable space group: C 2/M
;
_chemical_formula_sum "Si O2"
_cell_formula_units_Z 64
_cell_length_a 28.869003
_cell_length_b 9.408561
_cell_length_c 16.801452
_cell_angle_alpha 90.000000
_cell_angle_beta 114.623537
_cell_angle_gamma 90.000000
_cell_volume 4148.554075
_symmetry_space_group_name_H-M "C 2/M"
_symmetry_group_IT_number 12
_symmetry_cell_setting 'monoclinic'
loop_
_space_group_symop_operation_xyz
x,y,z
-x,y,-z
-x,-y,-z
x,-y,z
1/2+x,1/2+y,z
1/2-x,1/2+y,-z
1/2-x,1/2-y,-z
1/2+x,1/2-y,z
loop_
_atom_site_type_symbol
_atom_site_label
_atom_site_fract_x
_atom_site_fract_y
_atom_site_fract_z
Si Si1 0.486484 0.164094 0.284068
Si Si2 0.026289 0.668215 0.899479
Si Si3 0.647945 0.165537 0.271322
Si Si4 0.746208 0.666999 0.580004
Si Si5 0.447417 0.163241 0.424030
Si Si6 0.924938 0.333249 0.911219
Si Si7 0.137802 0.841183 0.553568
Si Si8 0.915157 0.839533 0.649328
O O1 0.462597 0.220162 0.183113
O O2 0.446733 0.181355 0.327851
O O3 0.534441 0.258841 0.341999
O O4 0.504089 0.000000 0.289320
O O5 0.028262 0.500000 0.900385
O O6 0.970442 0.723785 0.886613
O O7 0.068192 0.728205 0.993535
O O8 0.706492 0.205999 0.328468
O O9 0.630245 0.201836 0.167538
O O10 0.611187 0.257325 0.298750
O O11 0.638176 0.000000 0.283398
O O12 0.744671 0.500000 0.558192
O O13 0.750000 0.750000 0.500000
O O14 0.696491 0.711942 0.595379
O O15 0.500000 0.224688 0.500000
O O16 0.397427 0.241729 0.418759
O O17 0.442354 0.000000 0.446570
O O18 0.932684 0.500000 0.923321
O O19 0.122956 0.839458 0.451212
O O20 0.133331 0.000000 0.585715
O O21 0.928206 0.000000 0.685423
#
# Coordination Sequence:
#
# PCOD8080845 Si02
#       8
#     8   8   8   8   8   8   8   8
#     4  10  18  30  46  65  89 118 150 182 218 259
#     4   8  13  22  40  65  91 112 139 179 219 259
#     4  10  18  29  47  66  87 118 153 183 215 254
#     4  10  20  32  46  66  89 117 150 184 217 258
#     4  10  20  31  46  67  87 111 149 188 219 255
#     4   8  13  22  40  67  89 111 142 178 219 258
#     4  10  21  34  44  60  90 121 149 180 218 259
#     4  11  20  28  42  64  92 121 149 179 215 260
#
# _framework density 15.427063
#
# number of rings (size 3 to 8) (size 9 to 14) (size 15 to 20)
#    0.000    2.375    3.750    1.125    0.000    1.750 
#    0.000    0.000    0.000    1.500    0.000    0.875 
#    0.000    0.000    0.000    0.000    0.000    0.000 
#
# Total GULP energy -396499.323816 kJ/mol
# GULP energy per Si atom -12390.603869 kJ/mol
# Density = 1.539195 g / cm^3
# Si number density = 15.427063 Si / 1000 Ang^3
#
#
#
# Elastic Constant Matrix: (Units=GPa)
#
#
# Indices 1 2 3 4 5 6 
#
# 1 87.6233 32.2951 46.9353 0.0000 7.7207 0.0000
# 2 32.2951 42.5500 18.9992 0.0000 3.4099 0.0000
# 3 46.9353 18.9992 114.8861 0.0000 6.7157 0.0000
# 4 0.0000 0.0000 0.0000 10.6339 0.0000 -1.9618
# 5 7.7207 3.4099 6.7157 0.0000 23.5396 0.0000
# 6 0.0000 0.0000 0.0000 -1.9618 0.0000 20.9423
#
#
#
# Elastic Compliance Matrix: (Units=1/GPa)
#
#
# Indices 1 2 3 4 5 6 
#
# 1 0.019001 -0.011658 -0.005664 0.000000 -0.002928 0.000000
# 2 -0.011658 0.032676 -0.000598 0.000000 -0.000739 0.000000
# 3 -0.005664 -0.000598 0.011190 0.000000 -0.001248 0.000000
# 4 0.000000 0.000000 0.000000 0.095693 0.000000 0.008964
# 5 -0.002928 -0.000739 -0.001248 0.000000 0.043905 0.000000
# 6 0.000000 0.000000 0.000000 0.008964 0.000000 0.048590
#
#
# Mechanical properties :
#
#
# Convention : Reuss Voigt Hill
#
# Bulk Modulus (GPa) = 36.99839 49.05765 43.02802
# Shear Modulus (GPa) = 16.89742 20.81179 18.85461
#
# Velocity S-wave (km/s) = 3.31314 3.67692 3.49976
# Velocity P-wave (km/s) = 6.21858 7.06364 6.65454
#
# Compressibility (1/GPa) = 0.02702820
#
# Stress axis : x y z
#
# Youngs Moduli (GPa) = 52.62917 30.60321 89.36657
#
# Poissons Ratio (x) = 0.35677 0.50613
# Poissons Ratio (y) = 0.61355 0.05343
# Poissons Ratio (z) = 0.29807 0.01830
#
# Static dielectric constant tensor:
#      x y z
#    x 2.811940 0.000000 0.097960 
#    y 0.000000 2.831880 0.000000 
#    z 0.097960 0.000000 3.363320 
# 
# 
# High freq. dielectric constant tensor:
#      x y z
#    x 1.562190 0.000000 0.003690 
#    y 0.000000 1.570210 0.000000 
#    z 0.003690 0.000000 1.593410 
# 
# From -- ./inp_files/294592.got.cif
#   From: 2010.06.25/outbox.cif.g09.slc.cpg/sg12_148_cif.got.tgz:294592.got - 2010.06.28 00:19:55.
