data_PCOD8080167
_publ_section_title
;
Structure prediction by ZEFSAII (Michael W. Deem and Ramdas Pophale) SiO2 
 PCOD8080167
Probable space group: C 2/M
;
_chemical_formula_sum "Si O2"
_cell_formula_units_Z 64
_cell_length_a 23.944129
_cell_length_b 8.951847
_cell_length_c 23.811073
_cell_angle_alpha 90.000000
_cell_angle_beta 129.476377
_cell_angle_gamma 90.000000
_cell_volume 3939.528617
_symmetry_space_group_name_H-M "C 2/M"
_symmetry_group_IT_number 12
_symmetry_cell_setting 'monoclinic'
loop_
_space_group_symop_operation_xyz
x,y,z
-x,y,-z
-x,-y,-z
x,-y,z
1/2+x,1/2+y,z
1/2-x,1/2+y,-z
1/2-x,1/2-y,-z
1/2+x,1/2-y,z
loop_
_atom_site_type_symbol
_atom_site_label
_atom_site_fract_x
_atom_site_fract_y
_atom_site_fract_z
Si Si1 0.525043 0.171935 0.952634
Si Si2 0.669691 0.673677 0.010468
Si Si3 0.203499 0.826000 0.517957
Si Si4 0.541144 0.177745 0.766964
Si Si5 0.584340 0.834355 0.388342
Si Si6 0.317641 0.673361 0.112946
Si Si7 0.448563 0.676509 0.805355
Si Si8 0.172534 0.333648 0.329409
O O1 0.603650 0.244692 0.997935
O O2 0.466841 0.261552 0.878380
O O3 0.528620 0.000000 0.935268
O O4 0.500000 0.186466 0.000000
O O5 0.669553 0.500000 0.026414
O O6 0.663241 0.697173 0.939856
O O7 0.742504 0.748280 0.080473
O O8 0.250000 0.750000 0.500000
O O9 0.120706 0.766785 0.460549
O O10 0.242992 0.791867 0.603312
O O11 0.203004 0.000000 0.505531
O O12 0.496055 0.219190 0.681492
O O13 0.620645 0.246641 0.810636
O O14 0.503644 0.249292 0.797167
O O15 0.544253 0.000000 0.777749
O O16 0.631533 0.830642 0.362274
O O17 0.580909 0.000000 0.411379
O O18 0.312987 0.500000 0.125980
O O19 0.459037 0.500000 0.810417
O O20 0.365132 0.718161 0.737383
O O21 0.167467 0.500000 0.300018
#
# Coordination Sequence:
#
# PCOD8080167 Si02
#       8
#     8   8   8   8   8   8   8   8
#     4  11  23  37  52  67  87 117 148 183 227 271
#     4  10  20  33  49  69  90 114 144 182 225 266
#     4   9  15  22  33  49  71 102 138 174 210 248
#     4  10  18  28  42  60  86 117 146 181 220 260
#     4   8  15  24  34  51  76 107 140 173 211 251
#     4  10  19  30  47  69  91 116 146 183 224 265
#     4  11  20  29  43  63  83 108 144 184 223 262
#     4   8  15  26  37  51  74 105 139 176 215 254
#
# _framework density 16.245598000000001
#
# number of rings (size 3 to 8) (size 9 to 14) (size 15 to 20)
#    0.000    2.375    1.250    4.500    0.000    7.500 
#    0.000    0.000    0.000    0.000    0.000    0.000 
#    0.000    0.000    0.000    1.125    0.000   21.125 
#
# Total GULP energy -396610.014434 kJ/mol
# GULP energy per Si atom -12394.062951 kJ/mol
# Density = 1.620862 g / cm^3
# Si number density = 16.245598 Si / 1000 Ang^3
#
#
#
# Elastic Constant Matrix: (Units=GPa)
#
#
# Indices 1 2 3 4 5 6 
#
# 1 38.9487 31.8847 34.2856 0.0000 11.5821 0.0000
# 2 31.8847 115.3592 68.8732 0.0000 18.0918 0.0000
# 3 34.2856 68.8732 140.8166 0.0000 36.9337 0.0000
# 4 0.0000 0.0000 0.0000 32.5514 0.0000 8.0882
# 5 11.5821 18.0918 36.9337 0.0000 19.0899 0.0000
# 6 0.0000 0.0000 0.0000 8.0882 0.0000 16.4123
#
#
#
# Elastic Compliance Matrix: (Units=1/GPa)
#
#
# Indices 1 2 3 4 5 6 
#
# 1 0.036910 -0.006828 -0.002986 0.000000 -0.010145 0.000000
# 2 -0.006828 0.013507 -0.005427 0.000000 0.001841 0.000000
# 3 -0.002986 -0.005427 0.017579 0.000000 -0.027055 0.000000
# 4 0.000000 0.000000 0.000000 0.035007 0.000000 -0.017252
# 5 -0.010145 0.001841 -0.027055 0.000000 0.109139 0.000000
# 6 0.000000 0.000000 0.000000 -0.017252 0.000000 0.069432
#
#
# Mechanical properties :
#
#
# Convention : Reuss Voigt Hill
#
# Bulk Modulus (GPa) = 26.65654 62.80127 44.72891
# Shear Modulus (GPa) = 15.40546 24.28279 19.84413
#
# Velocity S-wave (km/s) = 3.08277 3.87037 3.49880
# Velocity P-wave (km/s) = 5.39586 7.66253 6.62683
#
# Compressibility (1/GPa) = 0.03751424
#
# Stress axis : x y z
#
# Youngs Moduli (GPa) = 27.09305 74.03629 56.88650
#
# Poissons Ratio (x) = 0.50549 0.16989
# Poissons Ratio (y) = 0.18498 0.30870
# Poissons Ratio (z) = 0.08091 0.40177
#
# Static dielectric constant tensor:
#      x y z
#    x 2.537070 0.000000 0.610000 
#    y 0.000000 3.344550 0.000000 
#    z 0.610000 0.000000 5.027050 
# 
# 
# High freq. dielectric constant tensor:
#      x y z
#    x 1.545340 0.000000 0.036340 
#    y 0.000000 1.640750 0.000000 
#    z 0.036340 0.000000 1.639480 
# 
# From -- ./inp_files/367057.got.cif
#   From: 2010.06.25/outbox.cif.g09.slc.cpg/sg12_184_cif.got.tgz:367057.got - 2010.06.28 00:19:55.
