data_PCOD8080218
_publ_section_title
;
Structure prediction by ZEFSAII (Michael W. Deem and Ramdas Pophale) SiO2 
 PCOD8080218
Probable space group: C 2/M
;
_chemical_formula_sum "Si O2"
_cell_formula_units_Z 56
_cell_length_a 32.968990
_cell_length_b 13.668952
_cell_length_c 7.877104
_cell_angle_alpha 90.000000
_cell_angle_beta 103.823075
_cell_angle_gamma 90.000000
_cell_volume 3447.019394
_symmetry_space_group_name_H-M "C 2/M"
_symmetry_group_IT_number 12
_symmetry_cell_setting 'monoclinic'
loop_
_space_group_symop_operation_xyz
x,y,z
-x,y,-z
-x,-y,-z
x,-y,z
1/2+x,1/2+y,z
1/2-x,1/2+y,-z
1/2-x,1/2-y,-z
1/2+x,1/2-y,z
loop_
_atom_site_type_symbol
_atom_site_label
_atom_site_fract_x
_atom_site_fract_y
_atom_site_fract_z
Si Si1 0.765064 0.109622 0.566388
Si Si2 0.183768 0.292293 0.990683
Si Si3 0.546623 0.116152 0.046623
Si Si4 0.234936 0.109622 0.036260
Si Si5 0.102486 0.387057 0.791767
Si Si6 0.816232 0.292293 0.623146
Si Si7 0.102486 0.612943 0.413205
O O1 0.756290 0.123245 0.756290
O O2 0.801119 0.185118 0.544251
O O3 0.722000 0.131832 0.427602
O O4 0.779898 0.000000 0.536231
O O5 0.198881 0.185118 0.942014
O O6 0.168073 0.289092 0.168073
O O7 0.222000 0.368168 0.016398
O O8 0.145218 0.325998 0.838143
O O9 0.569998 0.152948 0.240452
O O10 0.544058 0.000000 0.044059
O O11 0.500000 0.161061 0.000000
O O12 0.569998 0.152948 0.899544
O O13 0.220102 0.000000 0.976436
O O14 0.113308 0.500000 0.841350
O O15 0.083115 0.375382 0.583115
O O16 0.854782 0.325998 0.547706
O O17 0.113308 0.500000 0.385267
#
# Coordination Sequence:
#
# PCOD8080218 Si02
#       7
#     8   8   8   8   8   8   8
#     4   9  18  30  42  59  86 120 156 194 231 265
#     4  10  18  28  43  62  87 120 156 191 226 266
#     4   9  18  32  48  68  93 119 151 189 226 270
#     4   9  18  30  42  59  86 120 156 194 231 265
#     4  10  19  30  46  67  92 122 152 184 223 269
#     4  10  18  28  43  62  87 120 156 191 226 266
#     4  10  19  30  46  67  92 122 152 184 223 269
#
# _framework density 16.245919000000001
#
# number of rings (size 3 to 8) (size 9 to 14) (size 15 to 20)
#    0.000    2.429    1.429    1.714    0.000    5.714 
#    0.000    2.857    0.000    0.000    0.000    0.000 
#    0.000    2.286    0.000    2.571    0.000    0.286 
#
# Total GULP energy -347163.153775 kJ/mol
# GULP energy per Si atom -12398.684063 kJ/mol
# Density = 1.620894 g / cm^3
# Si number density = 16.245919 Si / 1000 Ang^3
#
#
#
# Elastic Constant Matrix: (Units=GPa)
#
#
# Indices 1 2 3 4 5 6 
#
# 1 99.9151 35.3375 47.7037 0.0000 2.5745 0.0000
# 2 35.3375 82.8069 22.3409 0.0000 3.2487 0.0000
# 3 47.7037 22.3409 88.2543 0.0000 0.3403 0.0000
# 4 0.0000 0.0000 0.0000 14.4899 0.0000 0.2327
# 5 2.5745 3.2487 0.3403 0.0000 21.5145 0.0000
# 6 0.0000 0.0000 0.0000 0.2327 0.0000 15.4207
#
#
#
# Elastic Compliance Matrix: (Units=1/GPa)
#
#
# Indices 1 2 3 4 5 6 
#
# 1 0.014921 -0.004458 -0.006933 0.000000 -0.001003 0.000000
# 2 -0.004458 0.014372 -0.001222 0.000000 -0.001617 0.000000
# 3 -0.006933 -0.001222 0.015385 0.000000 0.000771 0.000000
# 4 0.000000 0.000000 0.000000 0.069030 0.000000 -0.001041
# 5 -0.001003 -0.001617 0.000771 0.000000 0.046832 0.000000
# 6 0.000000 0.000000 0.000000 -0.001041 0.000000 0.064864
#
#
# Mechanical properties :
#
#
# Convention : Reuss Voigt Hill
#
# Bulk Modulus (GPa) = 51.40947 53.52675 52.46811
# Shear Modulus (GPa) = 19.44665 21.32462 20.38563
#
# Velocity S-wave (km/s) = 3.46355 3.62693 3.54618
# Velocity P-wave (km/s) = 6.90711 7.11047 7.00953
#
# Compressibility (1/GPa) = 0.01945167
#
# Stress axis : x y z
#
# Youngs Moduli (GPa) = 67.01992 69.58056 64.99939
#
# Poissons Ratio (x) = 0.31017 0.45063
# Poissons Ratio (y) = 0.29875 0.07946
# Poissons Ratio (z) = 0.46464 0.08506
#
# Static dielectric constant tensor:
#      x y z
#    x 2.944650 0.000000 -0.052580 
#    y 0.000000 2.957850 0.000000 
#    z -0.052580 0.000000 3.155010 
# 
# 
# High freq. dielectric constant tensor:
#      x y z
#    x 1.598970 0.000000 -0.009520 
#    y 0.000000 1.592120 0.000000 
#    z -0.009520 0.000000 1.637060 
# 
# From -- ./inp_files/110885.got.cif
#   From: 2010.06.25/outbox.cif.g09.slc.cpg/sg12_56_cif.got.tgz:110885.got - 2010.06.28 00:19:55.
