data_PCOD8080246
_publ_section_title
;
Structure prediction by ZEFSAII (Michael W. Deem and Ramdas Pophale) SiO2 
 PCOD8080246
Probable space group: C 2/M
;
_chemical_formula_sum "Si O2"
_cell_formula_units_Z 64
_cell_length_a 19.117123
_cell_length_b 18.372395
_cell_length_c 19.154494
_cell_angle_alpha 90.000000
_cell_angle_beta 36.522149
_cell_angle_gamma 90.000000
_cell_volume 4003.809295
_symmetry_space_group_name_H-M "C 2/M"
_symmetry_group_IT_number 12
_symmetry_cell_setting 'monoclinic'
loop_
_space_group_symop_operation_xyz
x,y,z
-x,y,-z
-x,-y,-z
x,-y,z
1/2+x,1/2+y,z
1/2-x,1/2+y,-z
1/2-x,1/2-y,-z
1/2+x,1/2-y,z
loop_
_atom_site_type_symbol
_atom_site_label
_atom_site_fract_x
_atom_site_fract_y
_atom_site_fract_z
Si Si1 0.521815 0.085089 0.136901
Si Si2 0.009534 0.914144 0.690257
Si Si3 0.092255 0.838720 0.485008
Si Si4 0.422652 0.168125 0.495685
Si Si5 0.789156 0.414788 0.246544
Si Si6 0.248794 0.586100 0.879976
Si Si7 0.776293 0.081216 0.396134
Si Si8 0.554100 0.917555 0.652818
O O1 0.425431 0.099802 0.154578
O O2 0.484188 0.117593 0.242459
O O3 0.535937 0.000000 0.137914
O O4 0.645147 0.119487 0.011405
O O5 0.054268 0.876744 0.585477
O O6 0.093113 0.890123 0.688146
O O7 0.874170 0.891348 0.812860
O O8 0.019939 0.000000 0.670516
O O9 0.096423 0.753340 0.496138
O O10 0.217781 0.867953 0.359843
O O11 0.000000 0.860207 0.500000
O O12 0.500000 0.146704 0.500000
O O13 0.291211 0.132112 0.606199
O O14 0.492272 0.135126 0.372469
O O15 0.756702 0.500000 0.280180
O O16 0.762402 0.384947 0.190331
O O17 0.232663 0.500000 0.889982
O O18 0.697013 0.080571 0.531144
O O19 0.784926 0.000000 0.357457
O O20 0.504809 0.000000 0.682495
#
# Coordination Sequence:
#
# PCOD8080246 Si02
#       8
#     8   8   8   8   8   8   8   8
#     4   9  16  28  45  67  91 117 156 194 223 259
#     4  10  18  29  43  65  96 125 152 183 218 271
#     4  11  20  29  43  66  94 129 155 182 225 268
#     4   9  19  32  46  70  92 116 147 193 239 279
#     4  10  18  28  43  65  94 128 160 189 216 255
#     4   9  17  27  43  66  92 124 157 188 217 254
#     4   8  16  30  48  69  90 114 143 184 238 281
#     4   8  15  29  48  69  91 111 141 191 240 274
#
# _framework density 15.984778
#
# number of rings (size 3 to 8) (size 9 to 14) (size 15 to 20)
#    0.750    2.000    1.250    1.500    0.000    5.500 
#    0.000    0.000    0.000    0.750    0.000    0.875 
#    0.000    5.000    0.000    0.000    0.000    0.000 
#
# Total GULP energy -396450.312855 kJ/mol
# GULP energy per Si atom -12389.072277 kJ/mol
# Density = 1.594840 g / cm^3
# Si number density = 15.984778 Si / 1000 Ang^3
#
#
#
# Elastic Constant Matrix: (Units=GPa)
#
#
# Indices 1 2 3 4 5 6 
#
# 1 114.4983 37.1390 40.8831 -0.0005 -16.4725 0.0003
# 2 37.1390 34.7139 25.0718 -0.0004 -2.3361 0.0003
# 3 40.8831 25.0718 75.6282 -0.0011 -14.5727 0.0008
# 4 -0.0005 -0.0004 -0.0011 10.6643 0.0005 1.9634
# 5 -16.4725 -2.3361 -14.5727 0.0005 22.4162 -0.0003
# 6 0.0003 0.0003 0.0008 1.9634 -0.0003 17.6289
#
#
#
# Elastic Compliance Matrix: (Units=1/GPa)
#
#
# Indices 1 2 3 4 5 6 
#
# 1 0.015318 -0.014493 -0.001827 0.000000 0.008558 0.000000
# 2 -0.014493 0.052049 -0.011920 0.000001 -0.012975 0.000000
# 3 -0.001827 -0.011920 0.020194 0.000001 0.010543 -0.000001
# 4 0.000000 0.000001 0.000001 0.095734 -0.000002 -0.010662
# 5 0.008558 -0.012975 0.010543 -0.000002 0.056401 0.000001
# 6 0.000000 0.000000 -0.000001 -0.010662 0.000001 0.057913
#
#
# Mechanical properties :
#
#
# Convention : Reuss Voigt Hill
#
# Bulk Modulus (GPa) = 32.17544 47.89202 40.03373
# Shear Modulus (GPa) = 13.71934 18.25832 15.98883
#
# Velocity S-wave (km/s) = 2.93281 3.38336 3.16611
# Velocity P-wave (km/s) = 5.62503 6.72970 6.20201
#
# Compressibility (1/GPa) = 0.03107961
#
# Stress axis : x y z
#
# Youngs Moduli (GPa) = 65.28103 19.21280 49.52081
#
# Poissons Ratio (x) = 0.27845 0.09048
# Poissons Ratio (y) = 0.94612 0.59031
# Poissons Ratio (z) = 0.11927 0.22902
#
# Static dielectric constant tensor:
#      x y z
#    x 3.133900 0.000000 -0.145240 
#    y 0.000000 2.773240 0.000000 
#    z -0.145240 0.000000 3.083870 
# 
# 
# High freq. dielectric constant tensor:
#      x y z
#    x 1.612450 0.000000 -0.010010 
#    y 0.000000 1.580870 0.000000 
#    z -0.010010 0.000000 1.594100 
# 
# From -- ./inp_files/278912.got.cif
#   From: 2010.06.25/outbox.cif.g09.slc.cpg/sg12_140_cif.got.tgz:278912.got - 2010.06.28 00:19:55.
