data_PCOD8080803
_publ_section_title
;
Structure prediction by ZEFSAII (Michael W. Deem and Ramdas Pophale) SiO2 
 PCOD8080803
Probable space group: C 2/M
;
_chemical_formula_sum "Si O2"
_cell_formula_units_Z 64
_cell_length_a 25.070608
_cell_length_b 8.691907
_cell_length_c 17.575996
_cell_angle_alpha 90.000000
_cell_angle_beta 102.714528
_cell_angle_gamma 90.000000
_cell_volume 3736.093217
_symmetry_space_group_name_H-M "C 2/M"
_symmetry_group_IT_number 12
_symmetry_cell_setting 'monoclinic'
loop_
_space_group_symop_operation_xyz
x,y,z
-x,y,-z
-x,-y,-z
x,-y,z
1/2+x,1/2+y,z
1/2-x,1/2+y,-z
1/2-x,1/2-y,-z
1/2+x,1/2-y,z
loop_
_atom_site_type_symbol
_atom_site_label
_atom_site_fract_x
_atom_site_fract_y
_atom_site_fract_z
Si Si1 0.487669 0.679126 0.080228
Si Si2 0.182205 0.319769 0.094126
Si Si3 0.898245 0.823895 0.816103
Si Si4 0.206526 0.319238 0.816828
Si Si5 0.374166 0.819246 0.076817
Si Si6 0.191567 0.682252 0.504377
Si Si7 0.219434 0.181606 0.661410
Si Si8 0.666441 0.677852 0.349647
O O1 0.475400 0.500000 0.069156
O O2 0.538328 0.715852 0.151545
O O3 0.435110 0.755630 0.101169
O O4 0.500000 0.747139 0.000000
O O5 0.196555 0.500000 0.096370
O O6 0.138177 0.290636 0.145967
O O7 0.236411 0.223751 0.126766
O O8 0.157630 0.256724 0.007274
O O9 0.884736 0.799878 0.722846
O O10 0.885822 0.000000 0.837019
O O11 0.206233 0.500000 0.799605
O O12 0.158074 0.268694 0.857955
O O13 0.195996 0.227769 0.735794
O O14 0.377820 0.000000 0.070899
O O15 0.191567 0.500000 0.506250
O O16 0.250000 0.750000 0.500000
O O17 0.178536 0.748336 0.584221
O O18 0.150604 0.742201 0.425390
O O19 0.280517 0.246897 0.672511
O O20 0.221449 0.000000 0.653136
O O21 0.679934 0.500000 0.368551
#
# Coordination Sequence:
#
# PCOD8080803 Si02
#       8
#     8   8   8   8   8   8   8   8
#     4  10  20  35  55  76  98 132 175 216 257 303
#     4  11  21  33  51  75 101 132 173 213 255 302
#     4  10  20  33  51  75 103 137 171 208 257 303
#     4  11  22  36  51  71 103 138 173 209 256 308
#     4  10  23  38  52  73 100 135 174 217 260 302
#     4  10  18  29  46  69 100 135 168 201 247 299
#     4  11  20  31  48  73 102 132 170 205 249 303
#     4  10  18  30  48  71 103 136 168 205 251 300
#
# _framework density 17.130192000000001
#
# number of rings (size 3 to 8) (size 9 to 14) (size 15 to 20)
#    0.000    1.625    2.500    5.250    0.000    2.750 
#    0.000    0.000    0.000    0.000    0.000    0.875 
#    0.000    7.000    0.000    0.000    0.000    0.000 
#
# Total GULP energy -396823.694815 kJ/mol
# GULP energy per Si atom -12400.740463 kJ/mol
# Density = 1.709120 g / cm^3
# Si number density = 17.130192 Si / 1000 Ang^3
#
#
#
# Elastic Constant Matrix: (Units=GPa)
#
#
# Indices 1 2 3 4 5 6 
#
# 1 82.7259 23.2272 62.3277 0.0000 -6.7227 0.0000
# 2 23.2272 81.9209 51.6447 0.0000 -1.9985 0.0000
# 3 62.3277 51.6447 146.4510 0.0000 12.2054 0.0000
# 4 0.0000 0.0000 0.0000 29.3527 0.0000 -0.2199
# 5 -6.7227 -1.9985 12.2054 0.0000 13.9331 0.0000
# 6 0.0000 0.0000 0.0000 -0.2199 0.0000 22.5685
#
#
#
# Elastic Compliance Matrix: (Units=1/GPa)
#
#
# Indices 1 2 3 4 5 6 
#
# 1 0.022291 0.001679 -0.011861 0.000000 0.021387 0.000000
# 2 0.001679 0.016619 -0.007380 0.000000 0.009659 0.000000
# 3 -0.011861 -0.007380 0.016229 0.000000 -0.020998 0.000000
# 4 0.000000 0.000000 0.000000 0.034071 0.000000 0.000332
# 5 0.021387 0.009659 -0.020998 0.000000 0.101870 0.000000
# 6 0.000000 0.000000 0.000000 0.000332 0.000000 0.044313
#
#
# Mechanical properties :
#
#
# Convention : Reuss Voigt Hill
#
# Bulk Modulus (GPa) = 49.96429 65.05522 57.50976
# Shear Modulus (GPa) = 18.03820 24.76408 21.40114
#
# Velocity S-wave (km/s) = 3.24853 3.80628 3.53841
# Velocity P-wave (km/s) = 6.58037 7.57472 7.09499
#
# Compressibility (1/GPa) = 0.02001429
#
# Stress axis : x y z
#
# Youngs Moduli (GPa) = 44.86039 60.17194 61.61857
#
# Poissons Ratio (x) = -0.10104 0.73089
# Poissons Ratio (y) = -0.07533 0.45476
# Poissons Ratio (z) = 0.53211 0.44408
#
# Static dielectric constant tensor:
#      x y z
#    x 2.961700 0.000000 0.055980 
#    y 0.000000 3.235980 0.000000 
#    z 0.055980 0.000000 3.777650 
# 
# 
# High freq. dielectric constant tensor:
#      x y z
#    x 1.614650 0.000000 0.006730 
#    y 0.000000 1.671860 0.000000 
#    z 0.006730 0.000000 1.675850 
# 
# From -- ./inp_files/287760.got.cif
#   From: 2010.06.25/outbox.cif.g09.slc.cpg/sg12_144_cif.got.tgz:287760.got - 2010.06.28 00:19:55.
