data_PCOD8080553
_publ_section_title
;
Structure prediction by ZEFSAII (Michael W. Deem and Ramdas Pophale) SiO2 
 PCOD8080553
Probable space group: C 2/M
;
_chemical_formula_sum "Si O2"
_cell_formula_units_Z 56
_cell_length_a 28.891783
_cell_length_b 8.813119
_cell_length_c 13.616405
_cell_angle_alpha 90.000000
_cell_angle_beta 76.705961
_cell_angle_gamma 90.000000
_cell_volume 3374.191985
_symmetry_space_group_name_H-M "C 2/M"
_symmetry_group_IT_number 12
_symmetry_cell_setting 'monoclinic'
loop_
_space_group_symop_operation_xyz
x,y,z
-x,y,-z
-x,-y,-z
x,-y,z
1/2+x,1/2+y,z
1/2-x,1/2+y,-z
1/2-x,1/2-y,-z
1/2+x,1/2-y,z
loop_
_atom_site_type_symbol
_atom_site_label
_atom_site_fract_x
_atom_site_fract_y
_atom_site_fract_z
Si Si1 0.302588 0.675615 0.371798
Si Si2 0.467974 0.820706 0.714586
Si Si3 0.609772 0.178361 0.738407
Si Si4 0.442965 0.324824 0.410638
Si Si5 0.517195 0.820490 0.888790
Si Si6 0.194956 0.676009 0.419389
Si Si7 0.390482 0.325866 0.638482
O O1 0.312161 0.500000 0.387953
O O2 0.339476 0.737869 0.271653
O O3 0.249338 0.704506 0.359107
O O4 0.312697 0.761765 0.467984
O O5 0.503183 0.735071 0.622209
O O6 0.481342 0.771799 0.819317
O O7 0.414473 0.765598 0.717080
O O8 0.473043 0.000000 0.697518
O O9 0.590187 0.221535 0.641109
O O10 0.571141 0.233564 0.838206
O O11 0.618049 0.000000 0.740532
O O12 0.440415 0.500000 0.378455
O O13 0.424756 0.304270 0.529232
O O14 0.517276 0.000000 0.897704
O O15 0.500000 0.746477 0.000000
O O16 0.181847 0.500000 0.426616
O O17 0.161760 0.760315 0.357317
O O18 0.384860 0.500000 0.671798
#
# Coordination Sequence:
#
# PCOD8080553 Si02
#       7
#     8   8   8   8   8   8   8
#     4  10  19  31  45  66  95 127 158 196 238 270
#     4  10  20  31  47  68  90 121 158 194 231 278
#     4  10  18  28  48  72  93 124 160 195 232 277
#     4  10  19  30  43  62  92 127 159 190 227 270
#     4   8  16  32  51  72  95 118 151 194 237 280
#     4  10  20  31  46  65  91 127 167 199 224 267
#     4  11  21  31  44  64  94 130 159 190 233 272
#
# _framework density 16.596565999999999
#
# number of rings (size 3 to 8) (size 9 to 14) (size 15 to 20)
#    0.000    2.143    1.429    3.857    0.000    5.143 
#    0.000    0.000    0.000   15.429    0.000    1.000 
#    0.000    0.000    0.000    0.000    0.000    0.000 
#
# Total GULP energy -347150.224680 kJ/mol
# GULP energy per Si atom -12398.222310 kJ/mol
# Density = 1.655879 g / cm^3
# Si number density = 16.596566 Si / 1000 Ang^3
#
#
#
# Elastic Constant Matrix: (Units=GPa)
#
#
# Indices 1 2 3 4 5 6 
#
# 1 121.3687 36.1323 46.7313 0.0000 -4.1309 0.0000
# 2 36.1323 50.7207 27.9720 0.0000 -4.4080 0.0000
# 3 46.7313 27.9720 69.4873 0.0000 -7.2644 0.0000
# 4 0.0000 0.0000 0.0000 10.6024 0.0000 -1.8006
# 5 -4.1309 -4.4080 -7.2644 0.0000 16.1665 0.0000
# 6 0.0000 0.0000 0.0000 -1.8006 0.0000 31.7743
#
#
#
# Elastic Compliance Matrix: (Units=1/GPa)
#
#
# Indices 1 2 3 4 5 6 
#
# 1 0.012164 -0.005381 -0.006131 0.000000 -0.001114 0.000000
# 2 -0.005381 0.027814 -0.007270 0.000000 0.002942 0.000000
# 3 -0.006131 -0.007270 0.022108 0.000000 0.006385 0.000000
# 4 0.000000 0.000000 0.000000 0.095235 0.000000 0.005397
# 5 -0.001114 0.002942 0.006385 0.000000 0.065243 0.000000
# 6 0.000000 0.000000 0.000000 0.005397 0.000000 0.031778
#
#
# Mechanical properties :
#
#
# Convention : Reuss Voigt Hill
#
# Bulk Modulus (GPa) = 40.77878 51.47196 46.12537
# Shear Modulus (GPa) = 16.66219 20.42472 18.54346
#
# Velocity S-wave (km/s) = 3.17196 3.51188 3.34624
# Velocity P-wave (km/s) = 6.16758 6.89386 6.54081
#
# Compressibility (1/GPa) = 0.02452256
#
# Stress axis : x y z
#
# Youngs Moduli (GPa) = 82.20976 35.95272 45.23192
#
# Poissons Ratio (x) = 0.19347 0.27731
# Poissons Ratio (y) = 0.44238 0.32884
# Poissons Ratio (z) = 0.50401 0.26138
#
# Static dielectric constant tensor:
#      x y z
#    x 3.375780 0.000000 -0.155110 
#    y 0.000000 3.164160 0.000000 
#    z -0.155110 0.000000 2.967590 
# 
# 
# High freq. dielectric constant tensor:
#      x y z
#    x 1.647170 0.000000 -0.005670 
#    y 0.000000 1.646040 0.000000 
#    z -0.005670 0.000000 1.586190 
# 
# From -- ./inp_files/247769.got.cif
#   From: 2010.06.25/outbox.cif.g09.slc.cpg/sg12_124_cif.got.tgz:247769.got - 2010.06.28 00:19:55.
