data_PCOD8080158
_publ_section_title
;
Structure prediction by ZEFSAII (Michael W. Deem and Ramdas Pophale) SiO2 
 PCOD8080158
Probable space group: C 2/M
;
_chemical_formula_sum "Si O2"
_cell_formula_units_Z 64
_cell_length_a 14.079620
_cell_length_b 17.348089
_cell_length_c 15.310762
_cell_angle_alpha 90.000000
_cell_angle_beta 99.741004
_cell_angle_gamma 90.000000
_cell_volume 3685.805591
_symmetry_space_group_name_H-M "C 2/M"
_symmetry_group_IT_number 12
_symmetry_cell_setting 'monoclinic'
loop_
_space_group_symop_operation_xyz
x,y,z
-x,y,-z
-x,-y,-z
x,-y,z
1/2+x,1/2+y,z
1/2-x,1/2+y,-z
1/2-x,1/2-y,-z
1/2+x,1/2-y,z
loop_
_atom_site_type_symbol
_atom_site_label
_atom_site_fract_x
_atom_site_fract_y
_atom_site_fract_z
Si Si1 0.423569 0.091503 0.106083
Si Si2 0.735937 0.591507 0.742467
Si Si3 0.158235 0.673931 0.549387
Si Si4 0.451036 0.588231 0.375021
Si Si5 0.906026 0.413071 0.292750
Si Si6 0.367412 0.091713 0.913530
Si Si7 0.880148 0.585694 0.623133
Si Si8 0.871996 0.160429 0.523420
O O1 0.376835 0.118067 0.191335
O O2 0.531970 0.123877 0.109586
O O3 0.430499 0.000000 0.109497
O O4 0.357366 0.118693 0.013513
O O5 0.750323 0.500000 0.740778
O O6 0.622890 0.612989 0.714363
O O7 0.778137 0.623566 0.841002
O O8 0.798552 0.626316 0.671027
O O9 0.132811 0.645803 0.641752
O O10 0.102499 0.628805 0.465109
O O11 0.123049 0.761198 0.532077
O O12 0.271900 0.658131 0.558047
O O13 0.485893 0.500000 0.367249
O O14 0.389064 0.592335 0.455704
O O15 0.541648 0.647711 0.392018
O O16 0.866722 0.500000 0.304882
O O17 0.021283 0.414487 0.308381
O O18 0.368081 0.000000 0.910456
O O19 0.847555 0.500000 0.593062
#
# Coordination Sequence:
#
# PCOD8080158 Si02
#       8
#     8   8   8   8   8   8   8   8
#     4   8  13  22  37  63  96 127 156 185 228 280
#     4   9  15  26  45  68  92 121 155 194 239 277
#     4  11  22  33  45  62  95 127 159 194 232 282
#     4  10  20  34  52  68  88 118 160 208 242 274
#     4  10  19  28  42  67  97 132 162 184 223 284
#     4   8  12  21  39  62  95 126 148 190 237 274
#     4  10  18  28  41  65  98 128 157 182 219 276
#     4  10  22  35  46  65  87 118 162 199 241 277
#
# _framework density 17.363911999999999
#
# number of rings (size 3 to 8) (size 9 to 14) (size 15 to 20)
#    0.000    2.500    2.500    2.250    3.500    2.500 
#    0.000    0.000    0.000    0.000    0.000    1.750 
#    0.000    5.000    0.000    0.000    0.000    0.000 
#
# Total GULP energy -396420.821288 kJ/mol
# GULP energy per Si atom -12388.150665 kJ/mol
# Density = 1.732439 g / cm^3
# Si number density = 17.363912 Si / 1000 Ang^3
#
#
#
# Elastic Constant Matrix: (Units=GPa)
#
#
# Indices 1 2 3 4 5 6 
#
# 1 69.5854 21.2359 36.2424 0.0000 13.8215 0.0000
# 2 21.2359 39.1792 21.7733 0.0000 -3.0239 0.0000
# 3 36.2424 21.7733 135.4953 0.0000 7.8097 0.0000
# 4 0.0000 0.0000 0.0000 7.4158 0.0000 -0.8529
# 5 13.8215 -3.0239 7.8097 0.0000 28.1701 0.0000
# 6 0.0000 0.0000 0.0000 -0.8529 0.0000 19.2189
#
#
#
# Elastic Compliance Matrix: (Units=1/GPa)
#
#
# Indices 1 2 3 4 5 6 
#
# 1 0.021526 -0.010587 -0.003437 0.000000 -0.010745 0.000000
# 2 -0.010587 0.033762 -0.003152 0.000000 0.009692 0.000000
# 3 -0.003437 -0.003152 0.008870 0.000000 -0.001111 0.000000
# 4 0.000000 0.000000 0.000000 0.135540 0.000000 0.006015
# 5 -0.010745 0.009692 -0.001111 0.000000 0.042119 0.000000
# 6 0.000000 0.000000 0.000000 0.006015 0.000000 0.052299
#
#
# Mechanical properties :
#
#
# Convention : Reuss Voigt Hill
#
# Bulk Modulus (GPa) = 33.55042 44.75145 39.15093
# Shear Modulus (GPa) = 14.77525 21.96151 18.36838
#
# Velocity S-wave (km/s) = 2.92021 3.56023 3.25599
# Velocity P-wave (km/s) = 5.54383 6.53674 6.06065
#
# Compressibility (1/GPa) = 0.02980589
#
# Stress axis : x y z
#
# Youngs Moduli (GPa) = 46.45510 29.61927 112.73549
#
# Poissons Ratio (x) = 0.31357 0.38750
# Poissons Ratio (y) = 0.49181 0.35537
# Poissons Ratio (z) = 0.15968 0.09337
#
# Static dielectric constant tensor:
#      x y z
#    x 3.146890 0.000000 0.273600 
#    y 0.000000 2.875200 0.000000 
#    z 0.273600 0.000000 3.561050 
# 
# 
# High freq. dielectric constant tensor:
#      x y z
#    x 1.651470 0.000000 0.018600 
#    y 0.000000 1.625080 0.000000 
#    z 0.018600 0.000000 1.666820 
# 
# From -- ./inp_files/215947.got.cif
#   From: 2010.06.25/outbox.cif.g09.slc.cpg/sg12_108_cif.got.tgz:215947.got - 2010.06.28 00:19:55.
