data_PCOD8080145
_publ_section_title
;
Structure prediction by ZEFSAII (Michael W. Deem and Ramdas Pophale) SiO2 
 PCOD8080145
Probable space group: C 2/M
;
_chemical_formula_sum "Si O2"
_cell_formula_units_Z 64
_cell_length_a 24.470980
_cell_length_b 9.258365
_cell_length_c 23.741816
_cell_angle_alpha 90.000000
_cell_angle_beta 50.129768
_cell_angle_gamma 90.000000
_cell_volume 4128.354899
_symmetry_space_group_name_H-M "C 2/M"
_symmetry_group_IT_number 12
_symmetry_cell_setting 'monoclinic'
loop_
_space_group_symop_operation_xyz
x,y,z
-x,y,-z
-x,-y,-z
x,-y,z
1/2+x,1/2+y,z
1/2-x,1/2+y,-z
1/2-x,1/2-y,-z
1/2+x,1/2-y,z
loop_
_atom_site_type_symbol
_atom_site_label
_atom_site_fract_x
_atom_site_fract_y
_atom_site_fract_z
Si Si1 0.022580 0.333004 0.547487
Si Si2 0.329611 0.834417 0.501327
Si Si3 0.969589 0.165973 0.246564
Si Si4 0.081133 0.659844 0.116431
Si Si5 0.282739 0.828823 0.031680
Si Si6 0.825829 0.334241 0.832721
Si Si7 0.944557 0.830388 0.697218
Si Si8 0.327248 0.668713 0.388702
O O1 0.004046 0.500000 0.573081
O O2 0.107639 0.305776 0.495609
O O3 0.000000 0.288997 0.500000
O O4 0.981017 0.230342 0.617369
O O5 0.343565 0.741315 0.437216
O O6 0.252698 0.794299 0.579977
O O7 0.328365 0.000000 0.482379
O O8 0.887032 0.219458 0.303942
O O9 0.011567 0.240806 0.167509
O O10 0.004266 0.201804 0.283947
O O11 0.974835 0.000000 0.228209
O O12 0.050373 0.500000 0.131176
O O13 0.129792 0.674513 0.139340
O O14 0.131341 0.695583 0.029065
O O15 0.248974 0.752307 0.109192
O O16 0.264503 0.000000 0.042545
O O17 0.250000 0.750000 0.000000
O O18 0.810486 0.500000 0.825401
O O19 0.869848 0.253313 0.754782
O O20 0.929543 0.000000 0.700092
O O21 0.338298 0.500000 0.392110
#
# Coordination Sequence:
#
# PCOD8080145 Si02
#       8
#     8   8   8   8   8   8   8   8
#     4  10  20  32  44  59  80 106 136 170 207 248
#     4   9  17  28  43  59  76 102 131 164 206 246
#     4   9  16  24  36  54  76 100 126 163 199 233
#     4   8  15  23  32  48  72 100 130 159 188 229
#     4   9  15  23  33  48  70  99 133 166 196 230
#     4   9  16  25  37  52  71  98 130 166 201 235
#     4  10  18  28  41  57  76 100 132 168 204 242
#     4   9  16  27  41  59  80 100 129 168 205 241
#
# _framework density 15.502544
#
# number of rings (size 3 to 8) (size 9 to 14) (size 15 to 20)
#    0.000    2.875    1.250    1.875    0.000    4.750 
#    0.000    0.000    0.000    0.000    0.000    0.000 
#    0.000    0.000    0.000    1.125    0.000   24.375 
#
# Total GULP energy -396502.592714 kJ/mol
# GULP energy per Si atom -12390.706022 kJ/mol
# Density = 1.546726 g / cm^3
# Si number density = 15.502544 Si / 1000 Ang^3
#
#
#
# Elastic Constant Matrix: (Units=GPa)
#
#
# Indices 1 2 3 4 5 6 
#
# 1 56.9174 29.2367 44.5676 0.0000 -19.5903 -0.0001
# 2 29.2367 82.3535 58.7258 -0.0010 -21.3178 -0.0005
# 3 44.5676 58.7258 107.2942 0.0003 -42.3719 -0.0001
# 4 0.0000 -0.0010 0.0003 30.6062 -0.0001 -7.2529
# 5 -19.5903 -21.3178 -42.3719 -0.0001 27.0959 0.0000
# 6 -0.0001 -0.0005 -0.0001 -7.2529 0.0000 11.0059
#
#
#
# Elastic Compliance Matrix: (Units=1/GPa)
#
#
# Indices 1 2 3 4 5 6 
#
# 1 0.026681 -0.002784 -0.007337 0.000000 0.005627 0.000000
# 2 -0.002784 0.020342 -0.011641 0.000001 -0.004213 0.000002
# 3 -0.007337 -0.011641 0.034064 -0.000001 0.038805 -0.000001
# 4 0.000000 0.000001 -0.000001 0.038720 0.000000 0.025517
# 5 0.005627 -0.004213 0.038805 0.000000 0.098342 0.000000
# 6 0.000000 0.000002 -0.000001 0.025517 0.000000 0.107676
#
#
# Mechanical properties :
#
#
# Convention : Reuss Voigt Hill
#
# Bulk Modulus (GPa) = 26.62180 56.84727 41.73453
# Shear Modulus (GPa) = 13.09346 21.34393 17.21869
#
# Velocity S-wave (km/s) = 2.90935 3.71455 3.33633
# Velocity P-wave (km/s) = 5.33813 7.42607 6.46692
#
# Compressibility (1/GPa) = 0.03756320
#
# Stress axis : x y z
#
# Youngs Moduli (GPa) = 37.48000 49.15993 29.35635
#
# Poissons Ratio (x) = 0.13684 0.21539
# Poissons Ratio (y) = 0.10433 0.34174
# Poissons Ratio (z) = 0.27499 0.57228
#
# Static dielectric constant tensor:
#      x y z
#    x 2.713800 0.000000 -0.556970 
#    y 0.000000 3.073510 0.000000 
#    z -0.556970 0.000000 3.251870 
# 
# 
# High freq. dielectric constant tensor:
#      x y z
#    x 1.532750 0.000000 -0.048830 
#    y 0.000000 1.605070 0.000000 
#    z -0.048830 0.000000 1.591360 
# 
# From -- ./inp_files/323784.got.cif
#   From: 2010.06.25/outbox.cif.g09.slc.cpg/sg12_162_cif.got.tgz:323784.got - 2010.06.28 00:19:55.
