data_PCOD8080576
_publ_section_title
;
Structure prediction by ZEFSAII (Michael W. Deem and Ramdas Pophale) SiO2 
 PCOD8080576
Probable space group: C 2/M
;
_chemical_formula_sum "Si O2"
_cell_formula_units_Z 56
_cell_length_a 20.026682
_cell_length_b 9.343405
_cell_length_c 30.244724
_cell_angle_alpha 90.000000
_cell_angle_beta 31.205748
_cell_angle_gamma 90.000000
_cell_volume 2932.163199
_symmetry_space_group_name_H-M "C 2/M"
_symmetry_group_IT_number 12
_symmetry_cell_setting 'monoclinic'
loop_
_space_group_symop_operation_xyz
x,y,z
-x,y,-z
-x,-y,-z
x,-y,z
1/2+x,1/2+y,z
1/2-x,1/2+y,-z
1/2-x,1/2-y,-z
1/2+x,1/2-y,z
loop_
_atom_site_type_symbol
_atom_site_label
_atom_site_fract_x
_atom_site_fract_y
_atom_site_fract_z
Si Si1 0.967945 0.839854 0.606074
Si Si2 0.785077 0.170163 0.233293
Si Si3 0.275358 0.664573 0.577734
Si Si4 0.135007 0.833031 0.908439
Si Si5 0.593643 0.164406 0.760970
Si Si6 0.422133 0.661869 0.361193
Si Si7 0.394260 0.834945 0.802135
O O1 0.853178 0.727071 0.672227
O O2 0.070166 0.805841 0.508661
O O3 0.058511 0.832062 0.597621
O O4 0.908976 0.000000 0.633847
O O5 0.816133 0.227558 0.166391
O O6 0.895314 0.232928 0.203003
O O7 0.783783 0.000000 0.237051
O O8 0.247355 0.500000 0.581194
O O9 0.213243 0.698996 0.660557
O O10 0.209953 0.760929 0.577126
O O11 0.240830 0.804008 0.887056
O O12 0.111456 0.000000 0.914772
O O13 0.000000 0.760457 0.000000
O O14 0.457076 0.199633 0.814264
O O15 0.597248 0.000000 0.774459
O O16 0.416620 0.500000 0.346727
O O17 0.543890 0.739115 0.270559
O O18 0.422799 0.000000 0.773779
#
# Coordination Sequence:
#
# PCOD8080576 Si02
#       7
#     8   8   8   8   8   8   8
#     4  10  20  33  50  74 107 143 182 223 265 311
#     4  11  22  35  55  80 107 139 174 223 273 315
#     4   9  19  34  51  72 102 148 191 218 251 308
#     4   9  18  35  60  86 106 130 173 221 263 317
#     4   9  19  35  54  74 105 146 182 215 254 313
#     4  10  18  28  48  78 109 138 172 226 274 304
#     4   9  17  34  58  79 103 142 182 213 255 320
#
# _framework density 19.098527000000001
#
# number of rings (size 3 to 8) (size 9 to 14) (size 15 to 20)
#    0.000    2.429    1.429    2.143    0.000    4.000 
#    0.000    3.571    0.000    3.857    0.000    0.000 
#    0.000    0.000    0.000    0.000    0.000    0.000 
#
# Total GULP energy -347086.335073 kJ/mol
# GULP energy per Si atom -12395.940538 kJ/mol
# Density = 1.905506 g / cm^3
# Si number density = 19.098527 Si / 1000 Ang^3
#
#
#
# Elastic Constant Matrix: (Units=GPa)
#
#
# Indices 1 2 3 4 5 6 
#
# 1 109.7618 40.4558 51.1721 0.0008 -11.1817 0.0129
# 2 40.4558 72.1625 30.0558 0.0016 -6.4505 0.0028
# 3 51.1721 30.0558 94.2614 0.0007 -25.7225 0.0001
# 4 0.0008 0.0016 0.0007 16.1944 -0.0006 -1.2503
# 5 -11.1817 -6.4505 -25.7225 -0.0006 20.5468 0.0011
# 6 0.0129 0.0028 0.0001 -1.2503 0.0011 31.8977
#
#
#
# Elastic Compliance Matrix: (Units=1/GPa)
#
#
# Indices 1 2 3 4 5 6 
#
# 1 0.013823 -0.005272 -0.006413 0.000000 -0.002161 -0.000005
# 2 -0.005272 0.018048 -0.003235 -0.000001 -0.001252 0.000001
# 3 -0.006413 -0.003235 0.021101 0.000001 0.021910 0.000002
# 4 0.000000 -0.000001 0.000001 0.061937 0.000002 0.002428
# 5 -0.002161 -0.001252 0.021910 0.000002 0.074530 -0.000002
# 6 -0.000005 0.000001 0.000002 0.002428 -0.000002 0.031445
#
#
# Mechanical properties :
#
#
# Convention : Reuss Voigt Hill
#
# Bulk Modulus (GPa) = 43.22732 57.72811 50.47771
# Shear Modulus (GPa) = 19.34719 24.02792 21.68755
#
# Velocity S-wave (km/s) = 3.18625 3.55082 3.37347
# Velocity P-wave (km/s) = 6.01824 6.86318 6.45455
#
# Compressibility (1/GPa) = 0.02313352
#
# Stress axis : x y z
#
# Youngs Moduli (GPa) = 72.34100 55.40665 47.39175
#
# Poissons Ratio (x) = 0.29209 0.30393
# Poissons Ratio (y) = 0.38137 0.15329
# Poissons Ratio (z) = 0.46393 0.17922
#
# Static dielectric constant tensor:
#      x y z
#    x 3.522420 0.000000 -0.098040 
#    y 0.000000 3.354900 0.000000 
#    z -0.098040 0.000000 3.500670 
# 
# 
# High freq. dielectric constant tensor:
#      x y z
#    x 1.745410 0.000000 -0.011260 
#    y 0.000000 1.724860 0.000000 
#    z -0.011260 0.000000 1.722030 
# 
# From -- ./inp_files/281672.got.cif
#   From: 2010.06.25/outbox.cif.g09.slc.cpg/sg12_141_cif.got.tgz:281672.got - 2010.06.28 00:19:55.
