data_PCOD8080930
_publ_section_title
;
Structure prediction by ZEFSAII (Michael W. Deem and Ramdas Pophale) SiO2 
 PCOD8080930
Probable space group: C 2/M
;
_chemical_formula_sum "Si O2"
_cell_formula_units_Z 48
_cell_length_a 22.848012
_cell_length_b 8.694292
_cell_length_c 14.162094
_cell_angle_alpha 90.000000
_cell_angle_beta 102.854766
_cell_angle_gamma 90.000000
_cell_volume 2742.753191
_symmetry_space_group_name_H-M "C 2/M"
_symmetry_group_IT_number 12
_symmetry_cell_setting 'monoclinic'
loop_
_space_group_symop_operation_xyz
x,y,z
-x,y,-z
-x,-y,-z
x,-y,z
1/2+x,1/2+y,z
1/2-x,1/2+y,-z
1/2-x,1/2-y,-z
1/2+x,1/2-y,z
loop_
_atom_site_type_symbol
_atom_site_label
_atom_site_fract_x
_atom_site_fract_y
_atom_site_fract_z
Si Si1 0.310085 0.322073 0.986403
Si Si2 0.422684 0.682189 0.544648
Si Si3 0.798076 0.181326 0.587430
Si Si4 0.454481 0.181324 0.361249
Si Si5 0.739248 0.318582 0.220556
Si Si6 0.637550 0.318965 0.808483
O O1 0.301613 0.500000 0.998514
O O2 0.362691 0.272347 0.078815
O O3 0.250000 0.250000 0.000000
O O4 0.314401 0.283171 0.875878
O O5 0.426216 0.500000 0.532843
O O6 0.364377 0.735216 0.581607
O O7 0.480464 0.740232 0.622653
O O8 0.419193 0.759098 0.440531
O O9 0.750000 0.250000 0.500000
O O10 0.785388 0.241399 0.688491
O O11 0.792686 0.000000 0.580766
O O12 0.417335 0.225572 0.255332
O O13 0.462743 0.000000 0.371278
O O14 0.754149 0.500000 0.227973
O O15 0.799940 0.228253 0.218063
O O16 0.627346 0.500000 0.788748
#
# Coordination Sequence:
#
# PCOD8080930 Si02
#       6
#     8   8   8   8   8   8
#     4   8  15  27  45  67  94 123 154 191 233 274
#     4  10  20  35  51  70  95 124 156 194 234 276
#     4  10  21  33  49  71  97 126 156 187 227 277
#     4  11  21  33  50  71  93 123 158 196 236 278
#     4   9  17  31  48  70  98 127 156 192 233 278
#     4  10  18  29  47  73  98 124 157 194 234 278
#
# _framework density 17.500662999999999
#
# number of rings (size 3 to 8) (size 9 to 14) (size 15 to 20)
#    0.000    2.333    0.000    4.500    0.000    5.333 
#    0.000    0.000    0.000    1.000    0.000    7.000 
#    0.000    0.000    0.000    0.000    0.000    0.000 
#
# Total GULP energy -297390.902508 kJ/mol
# GULP energy per Si atom -12391.287604 kJ/mol
# Density = 1.746083 g / cm^3
# Si number density = 17.500663 Si / 1000 Ang^3
#
#
#
# Elastic Constant Matrix: (Units=GPa)
#
#
# Indices 1 2 3 4 5 6 
#
# 1 72.4559 0.0418 46.9672 0.0000 -2.4926 0.0000
# 2 0.0418 14.2085 8.8042 0.0000 -2.3725 0.0000
# 3 46.9672 8.8042 155.3244 0.0000 6.1026 0.0000
# 4 0.0000 0.0000 0.0000 24.2440 0.0000 5.6704
# 5 -2.4926 -2.3725 6.1026 0.0000 24.8883 0.0000
# 6 0.0000 0.0000 0.0000 5.6704 0.0000 21.7093
#
#
#
# Elastic Compliance Matrix: (Units=1/GPa)
#
#
# Indices 1 2 3 4 5 6 
#
# 1 0.017614 0.004070 -0.005696 0.000000 0.003549 0.000000
# 2 0.004070 0.075514 -0.005866 0.000000 0.009045 0.000000
# 3 -0.005696 -0.005866 0.008621 0.000000 -0.003243 0.000000
# 4 0.000000 0.000000 0.000000 0.043931 0.000000 -0.011475
# 5 0.003549 0.009045 -0.003243 0.000000 0.042192 0.000000
# 6 0.000000 0.000000 0.000000 -0.011475 0.000000 0.049060
#
#
# Mechanical properties :
#
#
# Convention : Reuss Voigt Hill
#
# Bulk Modulus (GPa) = 11.52561 39.29058 25.40810
# Shear Modulus (GPa) = 17.80388 26.58000 22.19194
#
# Velocity S-wave (km/s) = 3.19301 3.90141 3.56485
# Velocity P-wave (km/s) = 4.49376 6.54173 5.61196
#
# Compressibility (1/GPa) = 0.08676328
#
# Stress axis : x y z
#
# Youngs Moduli (GPa) = 56.77438 13.24261 116.00237
#
# Poissons Ratio (x) = -0.05390 0.66077
# Poissons Ratio (y) = -0.23109 0.68052
# Poissons Ratio (z) = 0.32340 0.07769
#
# Static dielectric constant tensor:
#      x y z
#    x 3.068660 0.000000 -0.003290 
#    y 0.000000 3.269200 0.000000 
#    z -0.003290 0.000000 3.979460 
# 
# 
# High freq. dielectric constant tensor:
#      x y z
#    x 1.639330 0.000000 0.011550 
#    y 0.000000 1.682360 0.000000 
#    z 0.011550 0.000000 1.695730 
# 
# From -- ./inp_files/230381.got.cif
#   From: 2010.06.25/outbox.cif.g09.slc.cpg/sg12_116_cif.got.tgz:230381.got - 2010.06.28 00:19:55.
