data_PCOD8080238
_publ_section_title
;
Structure prediction by ZEFSAII (Michael W. Deem and Ramdas Pophale) SiO2 
 PCOD8080238
Probable space group: C 2/M
;
_chemical_formula_sum "Si O2"
_cell_formula_units_Z 56
_cell_length_a 28.459710
_cell_length_b 9.384036
_cell_length_c 17.031485
_cell_angle_alpha 90.000000
_cell_angle_beta 129.440858
_cell_angle_gamma 90.000000
_cell_volume 3512.754992
_symmetry_space_group_name_H-M "C 2/M"
_symmetry_group_IT_number 12
_symmetry_cell_setting 'monoclinic'
loop_
_space_group_symop_operation_xyz
x,y,z
-x,y,-z
-x,-y,-z
x,-y,z
1/2+x,1/2+y,z
1/2-x,1/2+y,-z
1/2-x,1/2-y,-z
1/2+x,1/2-y,z
loop_
_atom_site_type_symbol
_atom_site_label
_atom_site_fract_x
_atom_site_fract_y
_atom_site_fract_z
Si Si1 0.102040 0.160949 0.588528
Si Si2 0.047420 0.836495 0.368723
Si Si3 0.273748 0.662596 0.634119
Si Si4 0.706488 0.831029 0.894883
Si Si5 0.844971 0.333875 0.590790
Si Si6 0.913681 0.835559 0.251844
Si Si7 0.783389 0.337497 0.271031
O O1 0.053705 0.191089 0.468725
O O2 0.073232 0.195268 0.642495
O O3 0.160702 0.253763 0.633754
O O4 0.125311 0.000000 0.610488
O O5 0.091101 0.734766 0.365790
O O6 0.976762 0.803773 0.273002
O O7 0.063550 0.000000 0.365331
O O8 0.291005 0.500000 0.631587
O O9 0.206803 0.698181 0.528590
O O10 0.324329 0.766036 0.651756
O O11 0.272561 0.686361 0.727600
O O12 0.638519 0.769940 0.834790
O O13 0.731877 0.792941 0.834589
O O14 0.706466 0.000000 0.911274
O O15 0.750000 0.750000 0.000000
O O16 0.855971 0.500000 0.615415
O O17 0.893503 0.000000 0.217318
O O18 0.804379 0.500000 0.293774
#
# Coordination Sequence:
#
# PCOD8080238 Si02
#       7
#     8   8   8   8   8   8   8
#     4   9  16  26  42  64  91 123 157 189 220 261
#     4  10  18  28  43  64  93 128 159 187 224 267
#     4   9  17  30  44  61  89 123 159 194 228 265
#     4  10  20  34  52  72  94 118 149 190 236 280
#     4  10  19  28  42  63  91 125 161 196 226 261
#     4   9  18  31  46  66  92 122 156 190 225 271
#     4   9  17  30  47  67  91 121 154 190 230 272
#
# _framework density 15.941902000000001
#
# number of rings (size 3 to 8) (size 9 to 14) (size 15 to 20)
#    0.000    2.571    1.429    1.286    0.000    4.000 
#    0.000    0.000    0.000    4.286    0.000    1.000 
#    0.000    8.000    0.000    0.000    0.000    0.000 
#
# Total GULP energy -347054.791973 kJ/mol
# GULP energy per Si atom -12394.813999 kJ/mol
# Density = 1.590562 g / cm^3
# Si number density = 15.941902 Si / 1000 Ang^3
#
#
#
# Elastic Constant Matrix: (Units=GPa)
#
#
# Indices 1 2 3 4 5 6 
#
# 1 109.8636 62.1824 43.1462 0.0000 0.9967 0.0000
# 2 62.1824 86.1942 42.5072 0.0000 3.6080 0.0000
# 3 43.1462 42.5072 66.2989 0.0000 4.4797 0.0000
# 4 0.0000 0.0000 0.0000 18.9489 0.0000 1.4315
# 5 0.9967 3.6080 4.4797 0.0000 14.2990 0.0000
# 6 0.0000 0.0000 0.0000 1.4315 0.0000 29.2831
#
#
#
# Elastic Compliance Matrix: (Units=1/GPa)
#
#
# Indices 1 2 3 4 5 6 
#
# 1 0.016347 -0.009608 -0.004664 0.000000 0.002746 0.000000
# 2 -0.009608 0.022625 -0.008083 0.000000 -0.002507 0.000000
# 3 -0.004664 -0.008083 0.023642 0.000000 -0.005042 0.000000
# 4 0.000000 0.000000 0.000000 0.052969 0.000000 -0.002589
# 5 0.002746 -0.002507 -0.005042 0.000000 0.071955 0.000000
# 6 0.000000 0.000000 0.000000 -0.002589 0.000000 0.034276
#
#
# Mechanical properties :
#
#
# Convention : Reuss Voigt Hill
#
# Bulk Modulus (GPa) = 55.85774 62.00314 58.93044
# Shear Modulus (GPa) = 18.34918 20.14093 19.24505
#
# Velocity S-wave (km/s) = 3.39632 3.55828 3.47825
# Velocity P-wave (km/s) = 7.10594 7.47392 7.29225
#
# Compressibility (1/GPa) = 0.01790262
#
# Stress axis : x y z
#
# Youngs Moduli (GPa) = 61.17347 44.19986 42.29824
#
# Poissons Ratio (x) = 0.42467 0.19727
# Poissons Ratio (y) = 0.58776 0.34192
# Poissons Ratio (z) = 0.28530 0.35729
#
# Static dielectric constant tensor:
#      x y z
#    x 3.117850 0.000000 -0.110720 
#    y 0.000000 3.087990 0.000000 
#    z -0.110720 0.000000 2.794880 
# 
# 
# High freq. dielectric constant tensor:
#      x y z
#    x 1.608150 0.000000 -0.010820 
#    y 0.000000 1.619460 0.000000 
#    z -0.010820 0.000000 1.569420 
# 
# From -- ./inp_files/244278.got.cif
#   From: 2010.06.25/outbox.cif.g09.slc.cpg/sg12_123_cif.got.tgz:244278.got - 2010.06.28 00:19:55.
