data_PCOD8080107
_publ_section_title
;
Structure prediction by ZEFSAII (Michael W. Deem and Ramdas Pophale) SiO2 
 PCOD8080107
Probable space group: C 2/M
;
_chemical_formula_sum "Si O2"
_cell_formula_units_Z 56
_cell_length_a 32.848025
_cell_length_b 13.680458
_cell_length_c 10.281418
_cell_angle_alpha 90.000000
_cell_angle_beta 150.398051
_cell_angle_gamma 90.000000
_cell_volume 2282.258109
_symmetry_space_group_name_H-M "C 2/M"
_symmetry_group_IT_number 12
_symmetry_cell_setting 'monoclinic'
loop_
_space_group_symop_operation_xyz
x,y,z
-x,y,-z
-x,-y,-z
x,-y,z
1/2+x,1/2+y,z
1/2-x,1/2+y,-z
1/2-x,1/2-y,-z
1/2+x,1/2-y,z
loop_
_atom_site_type_symbol
_atom_site_label
_atom_site_fract_x
_atom_site_fract_y
_atom_site_fract_z
Si Si1 0.325572 0.109875 0.406726
Si Si2 0.565855 0.615545 0.356957
Si Si3 0.293627 0.289677 0.759581
Si Si4 0.555535 0.114629 0.471613
Si Si5 0.618629 0.384361 0.224972
Si Si6 0.379278 0.113057 0.072920
Si Si7 0.149561 0.890534 0.844755
O O1 0.402783 0.159140 0.544119
O O2 0.346495 0.000000 0.513695
O O3 0.298604 0.174022 0.457556
O O4 0.248160 0.107281 0.090499
O O5 0.575796 0.500000 0.392166
O O6 0.618473 0.648285 0.375948
O O7 0.603519 0.662230 0.594862
O O8 0.470493 0.644046 0.081148
O O9 0.302157 0.172646 0.800606
O O10 0.362753 0.336687 0.049799
O O11 0.312413 0.321795 0.663061
O O12 0.458223 0.133363 0.199955
O O13 0.598808 0.153323 0.722651
O O14 0.574219 0.000000 0.520715
O O15 0.635761 0.500000 0.255288
O O16 0.353999 0.000000 0.002603
O O17 0.114404 0.000000 0.764749
#
# Coordination Sequence:
#
# PCOD8080107 Si02
#       7
#     8   8   8   8   8   8   8
#     4   8  15  28  46  70 101 128 155 193 251 307
#     4   8  15  26  40  61  99 141 166 185 225 299
#     4  10  18  27  45  74 101 123 157 206 258 288
#     4   8  15  30  46  61  92 131 166 204 244 293
#     4   9  16  27  42  64  99 139 166 190 234 301
#     4   9  18  30  45  67  98 133 171 209 246 283
#     4   8  15  27  42  69 103 129 156 191 243 303
#
# _framework density 24.537101
#
# number of rings (size 3 to 8) (size 9 to 14) (size 15 to 20)
#    0.857    2.571    0.000    2.571    0.000    3.429 
#    0.000    2.143    0.000    0.000    0.000    6.000 
#    4.286    0.000    8.571    0.000    0.000   18.286 
#
# Total GULP energy -346931.383603 kJ/mol
# GULP energy per Si atom -12390.406557 kJ/mol
# Density = 2.448125 g / cm^3
# Si number density = 24.537101 Si / 1000 Ang^3
#
#
#
# Elastic Constant Matrix: (Units=GPa)
#
#
# Indices 1 2 3 4 5 6 
#
# 1 170.4114 41.0903 25.9978 0.0000 9.1533 0.0000
# 2 41.0903 61.7785 3.2029 0.0000 5.0008 0.0000
# 3 25.9978 3.2029 30.7108 0.0000 -14.5963 0.0000
# 4 0.0000 0.0000 0.0000 0.2966 0.0000 2.1687
# 5 9.1533 5.0008 -14.5963 0.0000 47.7808 0.0000
# 6 0.0000 0.0000 0.0000 2.1687 0.0000 36.4235
#
#
#
# Elastic Compliance Matrix: (Units=1/GPa)
#
#
# Indices 1 2 3 4 5 6 
#
# 1 0.008557 -0.004950 -0.008494 0.000000 -0.003716 0.000000
# 2 -0.004950 0.019419 0.001930 0.000000 -0.000494 0.000000
# 3 -0.008494 0.001930 0.047061 0.000000 0.015801 0.000000
# 4 0.000000 0.000000 0.000000 5.969706 0.000000 -0.355448
# 5 -0.003716 -0.000494 0.015801 0.000000 0.026520 0.000000
# 6 0.000000 0.000000 0.000000 -0.355448 0.000000 0.048619
#
#
# Mechanical properties :
#
#
# Convention : Reuss Voigt Hill
#
# Bulk Modulus (GPa) = 19.22702 44.83139 32.02921
# Shear Modulus (GPa) = 0.81166 29.74085 15.27625
#
# Velocity S-wave (km/s) = 0.57576 3.48527 2.49786
# Velocity P-wave (km/s) = 2.88009 5.87423 4.62610
#
# Compressibility (1/GPa) = 0.05201014
#
# Stress axis : x y z
#
# Youngs Moduli (GPa) = 116.86032 51.49469 21.24903
#
# Poissons Ratio (x) = 0.25492 0.18048
# Poissons Ratio (y) = 0.57851 -0.04102
# Poissons Ratio (z) = 0.99259 -0.09941
#
# Static dielectric constant tensor:
#      x y z
#    x 4.524560 0.000000 -0.068200 
#    y 0.000000 4.092720 0.000000 
#    z -0.068200 0.000000 4.039160 
# 
# 
# High freq. dielectric constant tensor:
#      x y z
#    x 1.971220 0.000000 -0.001000 
#    y 0.000000 1.973660 0.000000 
#    z -0.001000 0.000000 1.946680 
# 
# From -- ./inp_files/189229.got.cif
#   From: 2010.06.25/outbox.cif.g09.slc.cpg/sg12_95_cif.got.tgz:189229.got - 2010.06.28 00:19:55.
