data_PCOD8080959
_publ_section_title
;
Structure prediction by ZEFSAII (Michael W. Deem and Ramdas Pophale) SiO2 
 PCOD8080959
Probable space group: C 2/M
;
_chemical_formula_sum "Si O2"
_cell_formula_units_Z 64
_cell_length_a 19.891434
_cell_length_b 13.601899
_cell_length_c 14.690517
_cell_angle_alpha 90.000000
_cell_angle_beta 71.274301
_cell_angle_gamma 90.000000
_cell_volume 3764.290550
_symmetry_space_group_name_H-M "C 2/M"
_symmetry_group_IT_number 12
_symmetry_cell_setting 'monoclinic'
loop_
_space_group_symop_operation_xyz
x,y,z
-x,y,-z
-x,-y,-z
x,-y,z
1/2+x,1/2+y,z
1/2-x,1/2+y,-z
1/2-x,1/2-y,-z
1/2+x,1/2-y,z
loop_
_atom_site_type_symbol
_atom_site_label
_atom_site_fract_x
_atom_site_fract_y
_atom_site_fract_z
Si Si1 0.442916 0.385184 0.779182
Si Si2 0.037072 0.115624 0.573792
Si Si3 0.962266 0.734723 0.920175
Si Si4 0.844949 0.607942 0.045620
Si Si5 0.786927 0.699731 0.350185
Si Si6 0.918554 0.390755 0.208209
Si Si7 0.285392 0.614466 0.789327
Si Si8 0.697211 0.613683 0.546306
O O1 0.452033 0.500000 0.791471
O O2 0.499261 0.343432 0.681313
O O3 0.455197 0.337767 0.872298
O O4 0.365436 0.357880 0.776331
O O5 0.120254 0.141118 0.538272
O O6 0.000000 0.162297 0.500000
O O7 0.023924 0.000000 0.577601
O O8 0.006352 0.662501 0.835774
O O9 0.883972 0.687966 0.966296
O O10 0.000000 0.753628 0.000000
O O11 0.851069 0.500000 0.996709
O O12 0.881498 0.603611 0.127357
O O13 0.762461 0.635275 0.099721
O O14 0.868223 0.667325 0.299978
O O15 0.739426 0.684374 0.281616
O O16 0.755820 0.632800 0.444253
O O17 0.786435 0.815685 0.375068
O O18 0.932354 0.500000 0.240479
O O19 0.277190 0.500000 0.763116
O O20 0.699920 0.500000 0.577296
#
# Coordination Sequence:
#
# PCOD8080959 Si02
#       8
#     8   8   8   8   8   8   8   8
#     4  10  20  32  47  68  94 126 161 196 236 284
#     4   9  17  30  48  68  92 122 156 196 236 270
#     4  10  19  30  46  69  97 126 154 188 237 291
#     4   8  15  28  47  68  88 113 147 192 239 275
#     4  10  18  29  48  70  93 124 158 195 242 285
#     4   9  16  28  47  69  91 115 150 194 235 274
#     4   9  17  31  50  69  90 117 157 206 244 275
#     4  10  19  29  44  70 100 126 156 195 240 289
#
# _framework density 17.001874999999998
#
# number of rings (size 3 to 8) (size 9 to 14) (size 15 to 20)
#    0.000    2.625    0.000    3.750    0.000    4.250 
#    0.000    0.000    0.000    6.000    0.000    0.000 
#    0.000   13.000    0.000    0.000    0.000    0.000 
#
# Total GULP energy -396708.681328 kJ/mol
# GULP energy per Si atom -12397.146291 kJ/mol
# Density = 1.696318 g / cm^3
# Si number density = 17.001875 Si / 1000 Ang^3
#
#
#
# Elastic Constant Matrix: (Units=GPa)
#
#
# Indices 1 2 3 4 5 6 
#
# 1 59.1636 35.9509 38.2636 0.0000 -12.6501 0.0000
# 2 35.9509 85.2731 50.5333 0.0000 0.8012 0.0000
# 3 38.2636 50.5333 102.4152 0.0000 -15.9640 0.0000
# 4 0.0000 0.0000 0.0000 27.9267 0.0000 -0.7256
# 5 -12.6501 0.8012 -15.9640 0.0000 28.0805 0.0000
# 6 0.0000 0.0000 0.0000 -0.7256 0.0000 16.6210
#
#
#
# Elastic Compliance Matrix: (Units=1/GPa)
#
#
# Indices 1 2 3 4 5 6 
#
# 1 0.027318 -0.009204 -0.004066 0.000000 0.010258 0.000000
# 2 -0.009204 0.020524 -0.008148 0.000000 -0.009364 0.000000
# 3 -0.004066 -0.008148 0.016518 0.000000 0.007791 0.000000
# 4 0.000000 0.000000 0.000000 0.035849 0.000000 0.001565
# 5 0.010258 -0.009364 0.007791 0.000000 0.044930 0.000000
# 6 0.000000 0.000000 0.000000 0.001565 0.000000 0.060233
#
#
# Mechanical properties :
#
#
# Convention : Reuss Voigt Hill
#
# Bulk Modulus (GPa) = 46.45894 55.14973 50.80434
# Shear Modulus (GPa) = 19.57855 22.66590 21.12222
#
# Velocity S-wave (km/s) = 3.39713 3.65518 3.52852
# Velocity P-wave (km/s) = 6.54007 7.09378 6.82254
#
# Compressibility (1/GPa) = 0.02152438
#
# Stress axis : x y z
#
# Youngs Moduli (GPa) = 36.60578 48.72415 60.54025
#
# Poissons Ratio (x) = 0.44846 0.24616
# Poissons Ratio (y) = 0.33692 0.49326
# Poissons Ratio (z) = 0.14884 0.39698
#
# Static dielectric constant tensor:
#      x y z
#    x 3.183260 0.000000 -0.367610 
#    y 0.000000 3.083350 0.000000 
#    z -0.367610 0.000000 3.242440 
# 
# 
# High freq. dielectric constant tensor:
#      x y z
#    x 1.646460 0.000000 -0.032350 
#    y 0.000000 1.636420 0.000000 
#    z -0.032350 0.000000 1.652530 
# 
# From -- ./inp_files/232444.got.cif
#   From: 2010.06.25/outbox.cif.g09.slc.cpg/sg12_117_cif.got.tgz:232444.got - 2010.06.28 00:19:55.
