data_PCOD8080464
_publ_section_title
;
Structure prediction by ZEFSAII (Michael W. Deem and Ramdas Pophale) SiO2 
 PCOD8080464
Probable space group: C 2/M
;
_chemical_formula_sum "Si O2"
_cell_formula_units_Z 64
_cell_length_a 22.946137
_cell_length_b 9.269428
_cell_length_c 17.164120
_cell_angle_alpha 90.000000
_cell_angle_beta 85.148018
_cell_angle_gamma 90.000000
_cell_volume 3637.684120
_symmetry_space_group_name_H-M "C 2/M"
_symmetry_group_IT_number 12
_symmetry_cell_setting 'monoclinic'
loop_
_space_group_symop_operation_xyz
x,y,z
-x,y,-z
-x,-y,-z
x,-y,z
1/2+x,1/2+y,z
1/2-x,1/2+y,-z
1/2-x,1/2-y,-z
1/2+x,1/2-y,z
loop_
_atom_site_type_symbol
_atom_site_label
_atom_site_fract_x
_atom_site_fract_y
_atom_site_fract_z
Si Si1 0.384024 0.666686 0.098574
Si Si2 0.703698 0.332276 0.752785
Si Si3 0.527090 0.837885 0.822095
Si Si4 0.510580 0.830941 0.587407
Si Si5 0.314845 0.334891 0.788176
Si Si6 0.444886 0.332410 0.727297
Si Si7 0.806672 0.832170 0.965874
Si Si8 0.617252 0.840682 0.670834
O O1 0.401995 0.500000 0.104502
O O2 0.331916 0.703371 0.164755
O O3 0.441722 0.761575 0.107900
O O4 0.361562 0.706507 0.014969
O O5 0.712249 0.500000 0.738035
O O6 0.767127 0.261561 0.750522
O O7 0.669653 0.270323 0.681056
O O8 0.471252 0.746077 0.800589
O O9 0.572676 0.840994 0.747142
O O10 0.507840 0.000000 0.847491
O O11 0.500000 0.786193 0.500000
O O12 0.466957 0.738018 0.644978
O O13 0.578606 0.795519 0.599972
O O14 0.497795 0.000000 0.604209
O O15 0.293605 0.500000 0.787420
O O16 0.375361 0.313569 0.736344
O O17 0.323250 0.286103 0.876743
O O18 0.463384 0.500000 0.728073
O O19 0.792078 0.000000 0.974913
O O20 0.750000 0.750000 0.000000
O O21 0.644507 0.000000 0.656521
#
# Coordination Sequence:
#
# PCOD8080464 Si02
#       8
#     8   8   8   8   8   8   8   8
#     4   9  17  29  46  70  96 123 163 215 261 298
#     4  10  18  28  46  72  98 127 167 211 247 284
#     4   9  17  30  49  70  93 128 167 206 252 296
#     4   9  18  34  57  83 106 129 159 197 244 294
#     4  10  21  34  49  69  99 137 170 203 250 303
#     4  10  20  34  51  74 102 133 167 201 242 296
#     4  10  19  32  48  69  97 129 169 214 257 299
#     4   8  15  28  47  72 100 127 156 194 241 292
#
# _framework density 17.593612
#
# number of rings (size 3 to 8) (size 9 to 14) (size 15 to 20)
#    0.000    2.625    1.250    1.875    0.000    5.250 
#    0.000    0.625    0.000    4.500    0.000    0.000 
#    0.000    0.000    0.000    0.000    0.000    0.000 
#
# Total GULP energy -396773.418538 kJ/mol
# GULP energy per Si atom -12399.169329 kJ/mol
# Density = 1.755357 g / cm^3
# Si number density = 17.593612 Si / 1000 Ang^3
#
#
#
# Elastic Constant Matrix: (Units=GPa)
#
#
# Indices 1 2 3 4 5 6 
#
# 1 95.3632 64.2375 51.6396 0.0000 24.3259 0.0000
# 2 64.2375 102.2703 44.2756 0.0000 13.8846 0.0000
# 3 51.6396 44.2756 82.3622 0.0000 24.7792 0.0000
# 4 0.0000 0.0000 0.0000 20.0938 0.0000 5.9640
# 5 24.3259 13.8846 24.7792 0.0000 28.8649 0.0000
# 6 0.0000 0.0000 0.0000 5.9640 0.0000 32.1807
#
#
#
# Elastic Compliance Matrix: (Units=1/GPa)
#
#
# Indices 1 2 3 4 5 6 
#
# 1 0.023457 -0.010837 -0.006070 0.000000 -0.009345 0.000000
# 2 -0.010837 0.017753 -0.003947 0.000000 0.003981 0.000000
# 3 -0.006070 -0.003947 0.021516 0.000000 -0.011456 0.000000
# 4 0.000000 0.000000 0.000000 0.052663 0.000000 -0.009760
# 5 -0.009345 0.003981 -0.011456 0.000000 0.050439 0.000000
# 6 0.000000 0.000000 0.000000 -0.009760 0.000000 0.032883
#
#
# Mechanical properties :
#
#
# Convention : Reuss Voigt Hill
#
# Bulk Modulus (GPa) = 47.57832 66.70014 57.13923
# Shear Modulus (GPa) = 20.20823 24.21741 22.21282
#
# Velocity S-wave (km/s) = 3.39279 3.71413 3.55709
# Velocity P-wave (km/s) = 6.51535 7.50912 7.02982
#
# Compressibility (1/GPa) = 0.02101798
#
# Stress axis : x y z
#
# Youngs Moduli (GPa) = 42.63179 56.32837 46.47807
#
# Poissons Ratio (x) = 0.61043 0.28211
# Poissons Ratio (y) = 0.46200 0.18344
# Poissons Ratio (z) = 0.25877 0.22231
#
# Static dielectric constant tensor:
#      x y z
#    x 3.222010 0.000000 0.349820 
#    y 0.000000 3.377590 0.000000 
#    z 0.349820 0.000000 3.187000 
# 
# 
# High freq. dielectric constant tensor:
#      x y z
#    x 1.670550 0.000000 0.029750 
#    y 0.000000 1.686310 0.000000 
#    z 0.029750 0.000000 1.650910 
# 
# From -- ./inp_files/281387.got.cif
#   From: 2010.06.25/outbox.cif.g09.slc.cpg/sg12_141_cif.got.tgz:281387.got - 2010.06.28 00:19:55.
