data_PCOD8080016
_publ_section_title
;
Structure prediction by ZEFSAII (Michael W. Deem and Ramdas Pophale) SiO2 
 PCOD8080016
Probable space group: C 2/M
;
_chemical_formula_sum "Si O2"
_cell_formula_units_Z 48
_cell_length_a 24.595538
_cell_length_b 8.859057
_cell_length_c 15.145231
_cell_angle_alpha 90.000000
_cell_angle_beta 119.117543
_cell_angle_gamma 90.000000
_cell_volume 2882.995205
_symmetry_space_group_name_H-M "C 2/M"
_symmetry_group_IT_number 12
_symmetry_cell_setting 'monoclinic'
loop_
_space_group_symop_operation_xyz
x,y,z
-x,y,-z
-x,-y,-z
x,-y,z
1/2+x,1/2+y,z
1/2-x,1/2+y,-z
1/2-x,1/2-y,-z
1/2+x,1/2-y,z
loop_
_atom_site_type_symbol
_atom_site_label
_atom_site_fract_x
_atom_site_fract_y
_atom_site_fract_z
Si Si1 0.043853 0.323659 0.840826
Si Si2 0.901751 0.323211 0.768933
Si Si3 0.453977 0.321494 0.337097
Si Si4 0.817343 0.820827 0.556974
Si Si5 0.572452 0.329921 0.036400
Si Si6 0.586260 0.678045 0.508395
O O1 0.055407 0.500000 0.858713
O O2 0.070313 0.263637 0.768844
O O3 0.970907 0.283027 0.790296
O O4 0.083277 0.243605 0.949156
O O5 0.887836 0.500000 0.752130
O O6 0.852593 0.233246 0.671795
O O7 0.892112 0.268508 0.861914
O O8 0.453287 0.500000 0.318802
O O9 0.409512 0.276397 0.384787
O O10 0.523031 0.259932 0.414275
O O11 0.750000 0.750000 0.500000
O O12 0.854425 0.762356 0.499239
O O13 0.812120 0.000000 0.554553
O O14 0.598811 0.500000 0.057474
O O15 0.500000 0.328059 0.000000
O O16 0.581626 0.500000 0.498338
#
# Coordination Sequence:
#
# PCOD8080016 Si02
#       6
#     8   8   8   8   8   8
#     4  10  18  27  42  69 100 126 151 188 238 285
#     4  10  19  31  45  65  95 126 156 195 238 279
#     4   9  15  28  48  68  90 123 159 192 231 281
#     4  11  21  34  50  69  93 126 164 200 235 276
#     4   9  17  28  44  65  90 124 160 191 228 280
#     4   8  16  29  47  67  90 121 160 197 232 275
#
# _framework density 16.649352
#
# number of rings (size 3 to 8) (size 9 to 14) (size 15 to 20)
#    0.000    2.500    1.667    3.000    0.000    3.333 
#    0.000    3.333    0.000    0.000    0.000    1.167 
#    0.000    0.000    0.000    0.000    0.000    0.000 
#
# Total GULP energy -297537.903680 kJ/mol
# GULP energy per Si atom -12397.412653 kJ/mol
# Density = 1.661146 g / cm^3
# Si number density = 16.649352 Si / 1000 Ang^3
#
#
#
# Elastic Constant Matrix: (Units=GPa)
#
#
# Indices 1 2 3 4 5 6 
#
# 1 78.2001 27.2006 51.9845 0.0000 -11.8970 0.0000
# 2 27.2006 66.4130 40.9380 0.0000 -4.8441 0.0000
# 3 51.9845 40.9380 125.8551 0.0000 -29.3049 0.0000
# 4 0.0000 0.0000 0.0000 28.5690 0.0000 1.1291
# 5 -11.8970 -4.8441 -29.3049 0.0000 24.3108 0.0000
# 6 0.0000 0.0000 0.0000 1.1291 0.0000 16.0955
#
#
#
# Elastic Compliance Matrix: (Units=1/GPa)
#
#
# Indices 1 2 3 4 5 6 
#
# 1 0.018280 -0.003609 -0.006202 0.000000 0.000751 0.000000
# 2 -0.003609 0.020003 -0.006254 0.000000 -0.005320 0.000000
# 3 -0.006202 -0.006254 0.016050 0.000000 0.015065 0.000000
# 4 0.000000 0.000000 0.000000 0.035100 0.000000 -0.002462
# 5 0.000751 -0.005320 0.015065 0.000000 0.058602 0.000000
# 6 0.000000 0.000000 0.000000 -0.002462 0.000000 0.062302
#
#
# Mechanical properties :
#
#
# Convention : Reuss Voigt Hill
#
# Bulk Modulus (GPa) = 45.04162 56.74607 50.89384
# Shear Modulus (GPa) = 20.01059 23.81806 21.91433
#
# Velocity S-wave (km/s) = 3.47058 3.78639 3.63192
# Velocity P-wave (km/s) = 6.57052 7.29882 6.94422
#
# Compressibility (1/GPa) = 0.02220169
#
# Stress axis : x y z
#
# Youngs Moduli (GPa) = 54.70442 49.99294 62.30673
#
# Poissons Ratio (x) = 0.18044 0.38641
# Poissons Ratio (y) = 0.19745 0.38969
# Poissons Ratio (z) = 0.33926 0.31267
#
# Static dielectric constant tensor:
#      x y z
#    x 3.029040 0.000000 -0.292560 
#    y 0.000000 3.049890 0.000000 
#    z -0.292560 0.000000 3.239640 
# 
# 
# High freq. dielectric constant tensor:
#      x y z
#    x 1.590150 0.000000 -0.028670 
#    y 0.000000 1.639780 0.000000 
#    z -0.028670 0.000000 1.647480 
# 
# From -- ./inp_files/236854.got.cif
#   From: 2010.06.25/outbox.cif.g09.slc.cpg/sg12_119_cif.got.tgz:236854.got - 2010.06.28 00:19:55.
