data_PCOD8080137
_publ_section_title
;
Structure prediction by ZEFSAII (Michael W. Deem and Ramdas Pophale) SiO2 
 PCOD8080137
Probable space group: C 2/M
;
_chemical_formula_sum "Si O2"
_cell_formula_units_Z 64
_cell_length_a 27.535092
_cell_length_b 18.457639
_cell_length_c 8.822469
_cell_angle_alpha 90.000000
_cell_angle_beta 131.780761
_cell_angle_gamma 90.000000
_cell_volume 3343.619342
_symmetry_space_group_name_H-M "C 2/M"
_symmetry_group_IT_number 12
_symmetry_cell_setting 'monoclinic'
loop_
_space_group_symop_operation_xyz
x,y,z
-x,y,-z
-x,-y,-z
x,-y,z
1/2+x,1/2+y,z
1/2-x,1/2+y,-z
1/2-x,1/2-y,-z
1/2+x,1/2-y,z
loop_
_atom_site_type_symbol
_atom_site_label
_atom_site_fract_x
_atom_site_fract_y
_atom_site_fract_z
Si Si1 0.740742 0.415988 0.170560
Si Si2 0.245957 0.326196 0.082555
Si Si3 0.121611 0.847358 0.084754
Si Si4 0.133206 0.676875 0.065429
Si Si5 0.141744 0.343538 0.413904
Si Si6 0.507569 0.818003 0.188416
Si Si7 0.509366 0.331369 0.343327
Si Si8 0.136281 0.825111 0.452427
O O1 0.756339 0.500000 0.219320
O O2 0.672711 0.397604 0.105099
O O3 0.800702 0.371322 0.363760
O O4 0.736292 0.393066 0.987141
O O5 0.174554 0.342449 0.002810
O O6 0.293958 0.331145 0.324349
O O7 0.250000 0.250000 0.000000
O O8 0.134708 0.763783 0.075614
O O9 0.132691 0.865623 0.284013
O O10 0.049053 0.867575 0.875819
O O11 0.162479 0.643106 0.282247
O O12 0.060157 0.643486 0.902489
O O13 0.069696 0.374181 0.314984
O O14 0.124848 0.259373 0.400779
O O15 0.513748 0.754207 0.323652
O O16 0.500000 0.786100 0.000000
O O17 0.500000 0.348562 0.500000
O O18 0.579789 0.361837 0.437697
#
# Coordination Sequence:
#
# PCOD8080137 Si02
#       8
#     8   8   8   8   8   8   8   8
#     4  12  25  38  54  79 119 157 187 236 293 350
#     4  12  21  34  55  83 114 147 192 243 286 334
#     4  10  19  36  56  82 114 147 193 236 285 339
#     4   9  17  31  58  86 111 141 185 246 288 325
#     4   9  17  34  55  83 111 145 190 234 287 338
#     4   8  16  29  50  82 116 142 180 237 289 332
#     4  10  18  27  51  86 120 144 175 232 297 340
#     4  10  19  33  58  87 111 144 189 248 287 326
#
# _framework density 19.140936
#
# number of rings (size 3 to 8) (size 9 to 14) (size 15 to 20)
#    0.000    2.000    2.500    4.125    1.750    2.000 
#    0.000    2.500    0.000    9.750    0.000    0.000 
#    0.000    0.000    0.000    0.000    0.000    0.000 
#
# Total GULP energy -396474.245737 kJ/mol
# GULP energy per Si atom -12389.820179 kJ/mol
# Density = 1.909737 g / cm^3
# Si number density = 19.140936 Si / 1000 Ang^3
#
#
#
# Elastic Constant Matrix: (Units=GPa)
#
#
# Indices 1 2 3 4 5 6 
#
# 1 161.9542 17.8141 37.6176 0.0000 0.9260 0.0000
# 2 17.8141 22.2393 5.6859 0.0000 0.6708 0.0000
# 3 37.6176 5.6859 88.4412 0.0000 3.3326 0.0000
# 4 0.0000 0.0000 0.0000 3.8677 0.0000 -2.3218
# 5 0.9260 0.6708 3.3326 0.0000 36.1223 0.0000
# 6 0.0000 0.0000 0.0000 -2.3218 0.0000 9.0632
#
#
#
# Elastic Compliance Matrix: (Units=1/GPa)
#
#
# Indices 1 2 3 4 5 6 
#
# 1 0.007402 -0.005213 -0.002819 0.000000 0.000167 0.000000
# 2 -0.005213 0.049401 -0.000932 0.000000 -0.000698 0.000000
# 3 -0.002819 -0.000932 0.012607 0.000000 -0.001073 0.000000
# 4 0.000000 0.000000 0.000000 0.305537 0.000000 0.078270
# 5 0.000167 -0.000698 -0.001073 0.000000 0.027791 0.000000
# 6 0.000000 0.000000 0.000000 0.078270 0.000000 0.130387
#
#
# Mechanical properties :
#
#
# Convention : Reuss Voigt Hill
#
# Bulk Modulus (GPa) = 19.42533 43.87444 31.64989
# Shear Modulus (GPa) = 8.79949 23.91179 16.35564
#
# Velocity S-wave (km/s) = 2.14644 3.53831 2.92633
# Velocity P-wave (km/s) = 4.03900 6.29796 5.29046
#
# Compressibility (1/GPa) = 0.05147916
#
# Stress axis : x y z
#
# Youngs Moduli (GPa) = 135.09951 20.24262 79.32368
#
# Poissons Ratio (x) = 0.10553 0.22365
# Poissons Ratio (y) = 0.70431 0.07395
# Poissons Ratio (z) = 0.38091 0.01887
#
# Static dielectric constant tensor:
#      x y z
#    x 3.889360 0.000000 0.182970 
#    y 0.000000 2.787330 0.000000 
#    z 0.182970 0.000000 3.768200 
# 
# 
# High freq. dielectric constant tensor:
#      x y z
#    x 1.770920 0.000000 0.008670 
#    y 0.000000 1.653810 0.000000 
#    z 0.008670 0.000000 1.758880 
# 
# From -- ./inp_files/106406.got.cif
#   From: 2010.06.25/outbox.cif.g09.slc.cpg/sg12_54_cif.got.tgz:106406.got - 2010.06.28 00:19:55.
