data_PCOD8080828
_publ_section_title
;
Structure prediction by ZEFSAII (Michael W. Deem and Ramdas Pophale) SiO2 
 PCOD8080828
Probable space group: C 2/M
;
_chemical_formula_sum "Si O2"
_cell_formula_units_Z 64
_cell_length_a 21.911448
_cell_length_b 9.064151
_cell_length_c 18.984504
_cell_angle_alpha 90.000000
_cell_angle_beta 115.970269
_cell_angle_gamma 90.000000
_cell_volume 3389.748630
_symmetry_space_group_name_H-M "C 2/M"
_symmetry_group_IT_number 12
_symmetry_cell_setting 'monoclinic'
loop_
_space_group_symop_operation_xyz
x,y,z
-x,y,-z
-x,-y,-z
x,-y,z
1/2+x,1/2+y,z
1/2-x,1/2+y,-z
1/2-x,1/2-y,-z
1/2+x,1/2-y,z
loop_
_atom_site_type_symbol
_atom_site_label
_atom_site_fract_x
_atom_site_fract_y
_atom_site_fract_z
Si Si1 0.431339 0.333055 0.151907
Si Si2 0.695132 0.665014 0.012766
Si Si3 0.953794 0.170440 0.542638
Si Si4 0.969968 0.176704 0.910533
Si Si5 0.180053 0.175655 0.159556
Si Si6 0.801245 0.671135 0.315779
Si Si7 0.692051 0.826575 0.519344
Si Si8 0.579070 0.669880 0.698969
O O1 0.451235 0.500000 0.181762
O O2 0.371912 0.327497 0.066065
O O3 0.491852 0.256998 0.138672
O O4 0.415194 0.257805 0.219367
O O5 0.720469 0.500000 0.036570
O O6 0.750000 0.750000 0.000000
O O7 0.688861 0.739701 0.085698
O O8 0.884320 0.259227 0.524102
O O9 0.000000 0.228756 0.500000
O O10 0.001229 0.187690 0.635177
O O11 0.933712 0.000000 0.518439
O O12 0.894135 0.231081 0.856185
O O13 0.977257 0.000000 0.916292
O O14 0.000000 0.238027 0.000000
O O15 0.238269 0.239440 0.239950
O O16 0.181127 0.000000 0.160955
O O17 0.810560 0.500000 0.303156
O O18 0.783896 0.697178 0.388480
O O19 0.871101 0.748637 0.329739
O O20 0.750000 0.750000 0.500000
O O21 0.688249 0.000000 0.497997
O O22 0.602009 0.500000 0.710007
#
# Coordination Sequence:
#
# PCOD8080828 Si02
#       8
#     8   8   8   8   8   8   8   8
#     4   9  17  28  46  75 104 132 173 221 267 316
#     4  10  18  29  46  71 102 133 169 209 256 313
#     4  10  20  37  61  86 114 152 194 234 287 347
#     4   9  14  25  45  69  99 134 170 216 264 309
#     4   9  17  29  48  73 103 138 174 215 268 321
#     4  10  21  36  54  80 111 144 182 227 277 333
#     4  11  24  40  61  87 118 154 192 236 287 344
#     4  10  20  34  55  82 111 144 182 232 282 329
#
# _framework density 18.880457
#
# number of rings (size 3 to 8) (size 9 to 14) (size 15 to 20)
#    0.000    2.250    2.500    1.125    0.000    2.250 
#    0.000    3.750    0.000    0.000    0.000    3.500 
#    0.000    0.000    0.000    0.000    0.000    0.000 
#
# Total GULP energy -396487.413617 kJ/mol
# GULP energy per Si atom -12390.231676 kJ/mol
# Density = 1.883748 g / cm^3
# Si number density = 18.880457 Si / 1000 Ang^3
#
#
#
# Elastic Constant Matrix: (Units=GPa)
#
#
# Indices 1 2 3 4 5 6 
#
# 1 160.4158 51.6845 45.2492 0.0000 -8.3727 0.0000
# 2 51.6845 46.8238 32.6139 0.0000 0.0846 0.0000
# 3 45.2492 32.6139 104.8173 0.0000 -7.8296 0.0000
# 4 0.0000 0.0000 0.0000 15.7896 0.0000 0.9294
# 5 -8.3727 0.0846 -7.8296 0.0000 35.4894 0.0000
# 6 0.0000 0.0000 0.0000 0.9294 0.0000 25.4196
#
#
#
# Elastic Compliance Matrix: (Units=1/GPa)
#
#
# Indices 1 2 3 4 5 6 
#
# 1 0.009933 -0.010334 -0.000911 0.000000 0.002167 0.000000
# 2 -0.010334 0.038153 -0.007726 0.000000 -0.004234 0.000000
# 3 -0.000911 -0.007726 0.012529 0.000000 0.002568 0.000000
# 4 0.000000 0.000000 0.000000 0.063469 0.000000 -0.002321
# 5 0.002167 -0.004234 0.002568 0.000000 0.029265 0.000000
# 6 0.000000 0.000000 0.000000 -0.002321 0.000000 0.039425
#
#
# Mechanical properties :
#
#
# Convention : Reuss Voigt Hill
#
# Bulk Modulus (GPa) = 44.10509 63.46134 53.78322
# Shear Modulus (GPa) = 20.98418 27.50701 24.24560
#
# Velocity S-wave (km/s) = 3.33742 3.82108 3.58741
# Velocity P-wave (km/s) = 6.18563 7.29059 6.76072
#
# Compressibility (1/GPa) = 0.02267312
#
# Stress axis : x y z
#
# Youngs Moduli (GPa) = 100.67071 26.21050 79.81175
#
# Poissons Ratio (x) = 0.27086 0.07270
# Poissons Ratio (y) = 1.04033 0.61665
# Poissons Ratio (z) = 0.09170 0.20251
#
# Static dielectric constant tensor:
#      x y z
#    x 3.600690 0.000000 -0.131710 
#    y 0.000000 3.065950 0.000000 
#    z -0.131710 0.000000 3.635700 
# 
# 
# High freq. dielectric constant tensor:
#      x y z
#    x 1.745230 0.000000 -0.002590 
#    y 0.000000 1.681620 0.000000 
#    z -0.002590 0.000000 1.747200 
# 
# From -- ./inp_files/320012.got.cif
#   From: 2010.06.25/outbox.cif.g09.slc.cpg/sg12_161_cif.got.tgz:320012.got - 2010.06.28 00:19:55.
