data_PCOD8080301
_publ_section_title
;
Structure prediction by ZEFSAII (Michael W. Deem and Ramdas Pophale) SiO2 
 PCOD8080301
Probable space group: C 2/M
;
_chemical_formula_sum "Si O2"
_cell_formula_units_Z 64
_cell_length_a 29.464906
_cell_length_b 9.706974
_cell_length_c 30.227810
_cell_angle_alpha 90.000000
_cell_angle_beta 29.117554
_cell_angle_gamma 90.000000
_cell_volume 4206.979981
_symmetry_space_group_name_H-M "C 2/M"
_symmetry_group_IT_number 12
_symmetry_cell_setting 'monoclinic'
loop_
_space_group_symop_operation_xyz
x,y,z
-x,y,-z
-x,-y,-z
x,-y,z
1/2+x,1/2+y,z
1/2-x,1/2+y,-z
1/2-x,1/2-y,-z
1/2+x,1/2-y,z
loop_
_atom_site_type_symbol
_atom_site_label
_atom_site_fract_x
_atom_site_fract_y
_atom_site_fract_z
Si Si1 0.910166 0.158831 0.806911
Si Si2 0.778046 0.342228 0.412727
Si Si3 0.114362 0.157137 0.612338
Si Si4 0.086953 0.841369 0.867497
Si Si5 0.622425 0.158398 0.757713
Si Si6 0.071647 0.660248 0.122138
Si Si7 0.721919 0.159646 0.920206
Si Si8 0.875345 0.158980 0.065342
O O1 0.908016 0.251435 0.852031
O O2 0.825652 0.199871 0.846949
O O3 0.004799 0.184016 0.698186
O O4 0.901007 0.000000 0.829852
O O5 0.804871 0.500000 0.400128
O O6 0.851058 0.251089 0.377281
O O7 0.671788 0.309204 0.518327
O O8 0.791055 0.313920 0.349399
O O9 0.132543 0.000000 0.611271
O O10 0.139322 0.749780 0.786562
O O11 0.136425 0.815810 0.872336
O O12 0.095506 0.000000 0.846263
O O13 0.978939 0.797542 0.962152
O O14 0.527589 0.201951 0.813777
O O15 0.617467 0.000000 0.777023
O O16 0.074249 0.500000 0.133050
O O17 0.151081 0.698184 0.019476
O O18 0.699771 0.247821 0.895592
O O19 0.713421 0.000000 0.914556
O O20 0.857216 0.000000 0.069121
#
# Coordination Sequence:
#
# PCOD8080301 Si02
#       8
#     8   8   8   8   8   8   8   8
#     4  10  20  31  44  63  87 118 155 186 212 247
#     4   9  17  29  44  62  87 114 143 180 218 258
#     4   9  17  29  44  62  84 114 148 182 218 251
#     4   9  18  31  47  66  89 113 142 180 218 260
#     4  10  18  28  44  67  91 117 144 174 217 264
#     4  10  19  30  42  61  91 122 150 178 210 251
#     4  10  20  32  44  62  89 119 151 183 213 251
#     4   9  18  32  47  65  87 114 146 179 217 259
#
# _framework density 15.212813000000001
#
# number of rings (size 3 to 8) (size 9 to 14) (size 15 to 20)
#    0.000    2.500    2.500    1.125    0.000    2.500 
#    0.000    1.250    0.000    0.000    0.000    0.875 
#    0.000    7.000    0.000    0.000    0.000    0.000 
#
# Total GULP energy -396777.312152 kJ/mol
# GULP energy per Si atom -12399.291005 kJ/mol
# Density = 1.517819 g / cm^3
# Si number density = 15.212813 Si / 1000 Ang^3
#
#
#
# Elastic Constant Matrix: (Units=GPa)
#
#
# Indices 1 2 3 4 5 6 
#
# 1 90.3933 52.9672 48.8967 0.0206 6.9667 -0.0306
# 2 52.9672 61.2899 38.8758 0.0118 9.8197 -0.0274
# 3 48.8967 38.8758 89.2821 0.0048 7.3912 -0.0425
# 4 0.0206 0.0118 0.0048 19.2504 -0.0056 5.5034
# 5 6.9667 9.8197 7.3912 -0.0056 20.5067 0.0209
# 6 -0.0306 -0.0274 -0.0425 5.5034 0.0209 30.9053
#
#
#
# Elastic Compliance Matrix: (Units=1/GPa)
#
#
# Indices 1 2 3 4 5 6 
#
# 1 0.024494 -0.017836 -0.005841 -0.000013 0.002324 0.000001
# 2 -0.017836 0.036700 -0.005421 -0.000009 -0.009561 0.000015
# 3 -0.005841 -0.005421 0.016884 0.000001 -0.001506 0.000013
# 4 -0.000013 -0.000009 0.000001 0.054734 0.000033 -0.009747
# 5 0.002324 -0.009561 -0.001506 0.000033 0.053096 -0.000050
# 6 0.000001 0.000015 0.000013 -0.009747 -0.000050 0.034093
#
#
# Mechanical properties :
#
#
# Convention : Reuss Voigt Hill
#
# Bulk Modulus (GPa) = 50.29219 58.04941 54.17080
# Shear Modulus (GPa) = 17.55481 20.81419 19.18450
#
# Velocity S-wave (km/s) = 3.40067 3.70293 3.55501
# Velocity P-wave (km/s) = 6.96780 7.51820 7.24823
#
# Compressibility (1/GPa) = 0.01988380
#
# Stress axis : x y z
#
# Youngs Moduli (GPa) = 40.82591 27.24821 59.22683
#
# Poissons Ratio (x) = 0.48599 0.34594
# Poissons Ratio (y) = 0.72816 0.32104
# Poissons Ratio (z) = 0.23846 0.14770
#
# Static dielectric constant tensor:
#      x y z
#    x 2.704160 -0.000010 0.025870 
#    y -0.000010 2.942860 0.000020 
#    z 0.025870 0.000020 3.056520 
# 
# 
# High freq. dielectric constant tensor:
#      x y z
#    x 1.555820 0.000000 0.008350 
#    y 0.000000 1.588750 0.000000 
#    z 0.008350 0.000000 1.577180 
# 
# From -- ./inp_files/248233.got.cif
#   From: 2010.06.25/outbox.cif.g09.slc.cpg/sg12_125_cif.got.tgz:248233.got - 2010.06.28 00:19:55.
