data_PCOD8080808
_publ_section_title
;
Structure prediction by ZEFSAII (Michael W. Deem and Ramdas Pophale) SiO2 
 PCOD8080808
Probable space group: C 2/M
;
_chemical_formula_sum "Si O2"
_cell_formula_units_Z 64
_cell_length_a 24.615665
_cell_length_b 18.383855
_cell_length_c 9.148806
_cell_angle_alpha 90.000000
_cell_angle_beta 111.538152
_cell_angle_gamma 90.000000
_cell_volume 3851.026031
_symmetry_space_group_name_H-M "C 2/M"
_symmetry_group_IT_number 12
_symmetry_cell_setting 'monoclinic'
loop_
_space_group_symop_operation_xyz
x,y,z
-x,y,-z
-x,-y,-z
x,-y,z
1/2+x,1/2+y,z
1/2-x,1/2+y,-z
1/2-x,1/2-y,-z
1/2+x,1/2-y,z
loop_
_atom_site_type_symbol
_atom_site_label
_atom_site_fract_x
_atom_site_fract_y
_atom_site_fract_z
Si Si1 0.262424 0.674370 0.348184
Si Si2 0.990219 0.584246 0.321561
Si Si3 0.164289 0.213421 0.318320
Si Si4 0.191111 0.582305 0.482822
Si Si5 0.117926 0.582845 0.976132
Si Si6 0.251909 0.416638 0.075936
Si Si7 0.709278 0.582463 0.206064
Si Si8 0.088143 0.659237 0.247723
O O1 0.214418 0.738113 0.289534
O O2 0.318270 0.701382 0.494762
O O3 0.233879 0.603035 0.393117
O O4 0.281984 0.643304 0.210808
O O5 0.009734 0.500000 0.318015
O O6 0.923012 0.595486 0.206676
O O7 0.000000 0.606833 0.500000
O O8 0.025076 0.638480 0.247597
O O9 0.161532 0.136976 0.228996
O O10 0.101304 0.253699 0.250882
O O11 0.171003 0.500000 0.447099
O O12 0.225617 0.597712 0.666844
O O13 0.133017 0.629811 0.414720
O O14 0.113782 0.500000 0.024250
O O15 0.183362 0.602940 0.992344
O O16 0.097056 0.628632 0.094540
O O17 0.259630 0.500000 0.136901
O O18 0.286619 0.405056 0.961117
O O19 0.690084 0.500000 0.225951
#
# Coordination Sequence:
#
# PCOD8080808 Si02
#       8
#     8   8   8   8   8   8   8   8
#     4   9  16  28  42  63  91 119 155 197 221 273
#     4  10  22  35  48  68  96 126 161 203 238 268
#     4   9  18  31  44  65  90 122 161 190 234 278
#     4   9  15  25  43  62  83 119 158 187 223 269
#     4  10  19  32  47  68  93 124 165 198 226 266
#     4  10  18  29  46  69  95 127 161 193 227 271
#     4   9  19  30  43  64  94 123 153 194 232 275
#     4  11  19  31  48  65  89 126 161 199 232 277
#
# _framework density 16.618948
#
# number of rings (size 3 to 8) (size 9 to 14) (size 15 to 20)
#    0.000    2.375    2.500    2.625    1.750    2.000 
#    0.000    0.000    0.000    0.000    0.000    0.000 
#    0.000    2.500    0.000    0.000    0.000    1.125 
#
# Total GULP energy -396590.428436 kJ/mol
# GULP energy per Si atom -12393.450889 kJ/mol
# Density = 1.658112 g / cm^3
# Si number density = 16.618948 Si / 1000 Ang^3
#
#
#
# Elastic Constant Matrix: (Units=GPa)
#
#
# Indices 1 2 3 4 5 6 
#
# 1 36.1813 26.0028 9.6067 0.0000 -1.1449 0.0000
# 2 26.0028 85.4282 43.8838 0.0000 -4.3751 0.0000
# 3 9.6067 43.8838 75.9810 0.0000 -0.0983 0.0000
# 4 0.0000 0.0000 0.0000 24.7363 0.0000 -0.2205
# 5 -1.1449 -4.3751 -0.0983 0.0000 15.1466 0.0000
# 6 0.0000 0.0000 0.0000 -0.2205 0.0000 22.4682
#
#
#
# Elastic Compliance Matrix: (Units=1/GPa)
#
#
# Indices 1 2 3 4 5 6 
#
# 1 0.035720 -0.012219 0.002540 0.000000 -0.000813 0.000000
# 2 -0.012219 0.021172 -0.010676 0.000000 0.005123 0.000000
# 3 0.002540 -0.010676 0.019003 0.000000 -0.002769 0.000000
# 4 0.000000 0.000000 0.000000 0.040430 0.000000 0.000397
# 5 -0.000813 0.005123 -0.002769 0.000000 0.067422 0.000000
# 6 0.000000 0.000000 0.000000 0.000397 0.000000 0.044511
#
#
# Mechanical properties :
#
#
# Convention : Reuss Voigt Hill
#
# Bulk Modulus (GPa) = 28.42244 39.61968 34.02106
# Shear Modulus (GPa) = 17.81286 20.34336 19.07811
#
# Velocity S-wave (km/s) = 3.27745 3.50252 3.39185
# Velocity P-wave (km/s) = 5.60908 6.34418 5.98792
#
# Compressibility (1/GPa) = 0.03518346
#
# Stress axis : x y z
#
# Youngs Moduli (GPa) = 27.99563 47.23294 52.62383
#
# Poissons Ratio (x) = 0.57713 -0.13365
# Poissons Ratio (y) = 0.34207 0.56184
# Poissons Ratio (z) = -0.07110 0.50428
#
# Static dielectric constant tensor:
#      x y z
#    x 2.723180 0.000000 0.064280 
#    y 0.000000 3.234590 0.000000 
#    z 0.064280 0.000000 3.271860 
# 
# 
# High freq. dielectric constant tensor:
#      x y z
#    x 1.580940 0.000000 -0.003070 
#    y 0.000000 1.631510 0.000000 
#    z -0.003070 0.000000 1.647740 
# 
# From -- ./inp_files/97764.got.cif
#   From: 2010.06.25/outbox.cif.g09.slc.cpg/sg12_49_cif.got.tgz:97764.got - 2010.06.28 00:19:55.
