data_PCOD8080357
_publ_section_title
;
Structure prediction by ZEFSAII (Michael W. Deem and Ramdas Pophale) SiO2 
 PCOD8080357
Probable space group: C 2/M
;
_chemical_formula_sum "Si O2"
_cell_formula_units_Z 56
_cell_length_a 28.590339
_cell_length_b 9.221751
_cell_length_c 28.584819
_cell_angle_alpha 90.000000
_cell_angle_beta 152.684917
_cell_angle_gamma 90.000000
_cell_volume 3458.362810
_symmetry_space_group_name_H-M "C 2/M"
_symmetry_group_IT_number 12
_symmetry_cell_setting 'monoclinic'
loop_
_space_group_symop_operation_xyz
x,y,z
-x,y,-z
-x,-y,-z
x,-y,z
1/2+x,1/2+y,z
1/2-x,1/2+y,-z
1/2-x,1/2-y,-z
1/2+x,1/2-y,z
loop_
_atom_site_type_symbol
_atom_site_label
_atom_site_fract_x
_atom_site_fract_y
_atom_site_fract_z
Si Si1 0.964045 0.833249 0.357312
Si Si2 0.376140 0.666612 0.574206
Si Si3 0.140648 0.333168 0.248615
Si Si4 0.815627 0.330613 0.282115
Si Si5 0.132867 0.835754 0.583238
Si Si6 0.907436 0.830833 0.884580
Si Si7 0.823475 0.167684 0.630653
O O1 0.862320 0.739097 0.276247
O O2 0.015241 0.793738 0.352859
O O3 0.046105 0.794138 0.469825
O O4 0.931366 0.000000 0.329771
O O5 0.346576 0.500000 0.535291
O O6 0.289299 0.769286 0.476429
O O7 0.387849 0.687350 0.640194
O O8 0.106694 0.500000 0.221806
O O9 0.260697 0.314385 0.348238
O O10 0.080600 0.259243 0.152491
O O11 0.114495 0.251973 0.273863
O O12 0.833583 0.500000 0.296039
O O13 0.876729 0.267861 0.380745
O O14 0.696486 0.290337 0.180513
O O15 0.121111 0.000000 0.591128
O O16 0.909528 0.000000 0.873397
O O17 0.000000 0.785853 0.000000
O O18 0.812767 0.000000 0.635298
#
# Coordination Sequence:
#
# PCOD8080357 Si02
#       7
#     8   8   8   8   8   8   8
#     4  10  18  30  44  60  89 128 159 181 218 267
#     4   9  18  31  44  62  91 128 164 193 222 264
#     4  10  18  30  48  69  95 123 155 191 227 273
#     4  10  20  30  43  66  90 113 149 191 227 268
#     4   9  17  29  43  59  86 126 158 179 213 265
#     4   9  19  36  53  69  92 119 148 188 238 285
#     4  10  18  28  45  67  92 123 160 196 229 263
#
# _framework density 16.192632
#
# number of rings (size 3 to 8) (size 9 to 14) (size 15 to 20)
#    0.000    2.429    1.429    1.714    0.000    4.857 
#    0.000    0.000    0.000    0.000    0.000    1.000 
#    0.000    0.000    0.000    0.000    0.000    0.000 
#
# Total GULP energy -347194.975727 kJ/mol
# GULP energy per Si atom -12399.820562 kJ/mol
# Density = 1.615578 g / cm^3
# Si number density = 16.192632 Si / 1000 Ang^3
#
#
#
# Elastic Constant Matrix: (Units=GPa)
#
#
# Indices 1 2 3 4 5 6 
#
# 1 119.6873 60.4035 41.7399 0.0000 -7.9191 0.0000
# 2 60.4035 90.1146 40.2698 0.0000 -12.2432 0.0000
# 3 41.7399 40.2698 65.2649 -0.0001 -11.6509 0.0000
# 4 0.0000 0.0000 -0.0001 19.0667 0.0000 -1.1252
# 5 -7.9191 -12.2432 -11.6509 0.0000 15.3027 0.0000
# 6 0.0000 0.0000 0.0000 -1.1252 0.0000 28.3612
#
#
#
# Elastic Compliance Matrix: (Units=1/GPa)
#
#
# Indices 1 2 3 4 5 6 
#
# 1 0.013474 -0.007333 -0.004508 0.000000 -0.002326 0.000000
# 2 -0.007333 0.019780 -0.006211 0.000000 0.007301 0.000000
# 3 -0.004508 -0.006211 0.023995 0.000000 0.010967 0.000000
# 4 0.000000 0.000000 0.000000 0.052570 0.000000 0.002086
# 5 -0.002326 0.007301 0.010967 0.000000 0.078336 0.000000
# 6 0.000000 0.000000 0.000000 0.002086 0.000000 0.035342
#
#
# Mechanical properties :
#
#
# Convention : Reuss Voigt Hill
#
# Bulk Modulus (GPa) = 47.29302 62.21033 54.75168
# Shear Modulus (GPa) = 18.75108 21.38970 20.07039
#
# Velocity S-wave (km/s) = 3.40663 3.63843 3.52444
# Velocity P-wave (km/s) = 6.68905 7.49355 7.10270
#
# Compressibility (1/GPa) = 0.02114477
#
# Stress axis : x y z
#
# Youngs Moduli (GPa) = 74.21571 50.55572 41.67453
#
# Poissons Ratio (x) = 0.37074 0.18786
# Poissons Ratio (y) = 0.54425 0.25885
# Poissons Ratio (z) = 0.33455 0.31402
#
# Static dielectric constant tensor:
#      x y z
#    x 3.299880 0.000000 -0.005110 
#    y 0.000000 3.135210 0.000000 
#    z -0.005110 0.000000 2.717930 
# 
# 
# High freq. dielectric constant tensor:
#      x y z
#    x 1.627830 0.000000 -0.003130 
#    y 0.000000 1.630730 0.000000 
#    z -0.003130 0.000000 1.573040 
# 
# From -- ./inp_files/384439.got.cif
#   From: 2010.06.25/outbox.cif.g09.slc.cpg/sg12_193_cif.got.tgz:384439.got - 2010.06.28 00:19:55.
