data_PCOD8080812
_publ_section_title
;
Structure prediction by ZEFSAII (Michael W. Deem and Ramdas Pophale) SiO2 
 PCOD8080812
Probable space group: C 2/M
;
_chemical_formula_sum "Si O2"
_cell_formula_units_Z 64
_cell_length_a 23.724885
_cell_length_b 8.838001
_cell_length_c 21.537073
_cell_angle_alpha 90.000000
_cell_angle_beta 127.114875
_cell_angle_gamma 90.000000
_cell_volume 3601.106299
_symmetry_space_group_name_H-M "C 2/M"
_symmetry_group_IT_number 12
_symmetry_cell_setting 'monoclinic'
loop_
_space_group_symop_operation_xyz
x,y,z
-x,y,-z
-x,-y,-z
x,-y,z
1/2+x,1/2+y,z
1/2-x,1/2+y,-z
1/2-x,1/2-y,-z
1/2+x,1/2-y,z
loop_
_atom_site_type_symbol
_atom_site_label
_atom_site_fract_x
_atom_site_fract_y
_atom_site_fract_z
Si Si1 0.508499 0.828287 0.313258
Si Si2 0.330460 0.322291 0.795778
Si Si3 0.069938 0.177693 0.903422
Si Si4 0.870878 0.172638 0.183245
Si Si5 0.822312 0.677031 0.265965
Si Si6 0.468147 0.825137 0.416915
Si Si7 0.575083 0.174474 0.235213
Si Si8 0.080343 0.676434 0.036761
O O1 0.450775 0.705144 0.257024
O O2 0.524648 0.805237 0.397473
O O3 0.574786 0.805454 0.310511
O O4 0.478593 0.000000 0.283927
O O5 0.341889 0.500000 0.813446
O O6 0.247921 0.277267 0.743420
O O7 0.359996 0.271856 0.748349
O O8 0.371172 0.231029 0.875295
O O9 0.130211 0.211741 0.891153
O O10 0.998620 0.270838 0.843012
O O11 0.051224 0.000000 0.892341
O O12 0.102520 0.231788 0.990031
O O13 0.817056 0.266248 0.190809
O O14 0.851898 0.000000 0.182449
O O15 0.831101 0.500000 0.267480
O O16 0.891739 0.745957 0.346791
O O17 0.500000 0.745205 0.500000
O O18 0.455256 0.000000 0.423957
O O19 0.585288 0.000000 0.222848
O O20 0.092599 0.500000 0.033092
O O21 0.000000 0.714291 0.000000
#
# Coordination Sequence:
#
# PCOD8080812 Si02
#       8
#     8   8   8   8   8   8   8   8
#     4   8  15  27  45  71 100 126 157 198 237 278
#     4  11  22  34  49  68  95 130 165 202 244 289
#     4  10  19  31  49  72  96 123 160 204 248 288
#     4   9  17  29  48  72  95 124 160 198 240 287
#     4   9  19  34  50  72  99 128 162 197 238 289
#     4   8  13  26  52  80 100 121 155 198 237 277
#     4  10  18  29  46  69  96 127 164 203 242 282
#     4  11  22  34  49  71  96 124 164 207 246 287
#
# _framework density 17.772316
#
# number of rings (size 3 to 8) (size 9 to 14) (size 15 to 20)
#    0.000    2.500    1.250    2.625    0.000    3.500 
#    0.000    0.625    0.000    6.750    0.000    0.000 
#    0.000    0.000    0.000    0.000    0.000    1.250 
#
# Total GULP energy -396520.465375 kJ/mol
# GULP energy per Si atom -12391.264543 kJ/mol
# Density = 1.773187 g / cm^3
# Si number density = 17.772316 Si / 1000 Ang^3
#
#
#
# Elastic Constant Matrix: (Units=GPa)
#
#
# Indices 1 2 3 4 5 6 
#
# 1 128.4351 26.8771 51.0181 0.0000 -16.2435 0.0000
# 2 26.8771 36.0759 19.5102 0.0000 -2.3018 0.0000
# 3 51.0181 19.5102 79.8985 0.0000 -19.5425 0.0000
# 4 0.0000 0.0000 0.0000 8.9742 0.0000 -3.9021
# 5 -16.2435 -2.3018 -19.5425 0.0000 26.8291 0.0000
# 6 0.0000 0.0000 0.0000 -3.9021 0.0000 26.1727
#
#
#
# Elastic Compliance Matrix: (Units=1/GPa)
#
#
# Indices 1 2 3 4 5 6 
#
# 1 0.011348 -0.005427 -0.005299 0.000000 0.002546 0.000000
# 2 -0.005427 0.034817 -0.006217 0.000000 -0.004827 0.000000
# 3 -0.005299 -0.006217 0.020080 0.000000 0.010885 0.000000
# 4 0.000000 0.000000 0.000000 0.119155 0.000000 0.017765
# 5 0.002546 -0.004827 0.010885 0.000000 0.046329 0.000000
# 6 0.000000 0.000000 0.000000 0.017765 0.000000 0.040856
#
#
# Mechanical properties :
#
#
# Convention : Reuss Voigt Hill
#
# Bulk Modulus (GPa) = 30.90277 48.80228 39.85252
# Shear Modulus (GPa) = 15.76014 22.19549 18.97782
#
# Velocity S-wave (km/s) = 2.98112 3.53778 3.27131
# Velocity P-wave (km/s) = 5.41067 6.64885 6.06146
#
# Compressibility (1/GPa) = 0.03235956
#
# Stress axis : x y z
#
# Youngs Moduli (GPa) = 88.11834 28.72183 49.80153
#
# Poissons Ratio (x) = 0.15587 0.26388
# Poissons Ratio (y) = 0.47820 0.30963
# Poissons Ratio (z) = 0.46690 0.17857
#
# Static dielectric constant tensor:
#      x y z
#    x 3.690020 0.000000 -0.285690 
#    y 0.000000 3.229640 0.000000 
#    z -0.285690 0.000000 3.286770 
# 
# 
# High freq. dielectric constant tensor:
#      x y z
#    x 1.691610 0.000000 -0.034020 
#    y 0.000000 1.682910 0.000000 
#    z -0.034020 0.000000 1.645540 
# 
# From -- ./inp_files/324239.got.cif
#   From: 2010.06.25/outbox.cif.g09.slc.cpg/sg12_163_cif.got.tgz:324239.got - 2010.06.28 00:19:55.
