data_PCOD8080418
_publ_section_title
;
Structure prediction by ZEFSAII (Michael W. Deem and Ramdas Pophale) SiO2 
 PCOD8080418
Probable space group: C 2/M
;
_chemical_formula_sum "Si O2"
_cell_formula_units_Z 64
_cell_length_a 12.355020
_cell_length_b 22.511216
_cell_length_c 27.837866
_cell_angle_alpha 90.000000
_cell_angle_beta 26.308226
_cell_angle_gamma 90.000000
_cell_volume 3431.452545
_symmetry_space_group_name_H-M "C 2/M"
_symmetry_group_IT_number 12
_symmetry_cell_setting 'monoclinic'
loop_
_space_group_symop_operation_xyz
x,y,z
-x,y,-z
-x,-y,-z
x,-y,z
1/2+x,1/2+y,z
1/2-x,1/2+y,-z
1/2-x,1/2-y,-z
1/2+x,1/2-y,z
loop_
_atom_site_type_symbol
_atom_site_label
_atom_site_fract_x
_atom_site_fract_y
_atom_site_fract_z
Si Si1 0.577034 0.326114 0.111701
Si Si2 0.932214 0.618556 0.577824
Si Si3 0.675789 0.684175 0.519448
Si Si4 0.878561 0.326570 0.266583
Si Si5 0.262611 0.934826 0.738974
Si Si6 0.989059 0.200738 0.754500
Si Si7 0.229830 0.603218 0.602724
Si Si8 0.541947 0.805687 0.867977
O O1 0.399804 0.382834 0.171846
O O2 0.614862 0.322229 0.153469
O O3 0.462675 0.265977 0.135362
O O4 0.839854 0.334362 0.983032
O O5 0.792544 0.574401 0.669652
O O6 0.756575 0.674690 0.637090
O O7 0.000000 0.587402 0.500000
O O8 0.183718 0.639764 0.501311
O O9 0.750000 0.750000 0.500000
O O10 0.393381 0.684424 0.643414
O O11 0.730891 0.664736 0.442583
O O12 0.883119 0.383297 0.299697
O O13 0.013330 0.336292 0.161849
O O14 0.991757 0.271785 0.250880
O O15 0.533522 0.937775 0.654375
O O16 0.142293 0.000000 0.794709
O O17 0.804972 0.179614 0.786113
O O18 0.500000 0.572483 0.500000
#
# Coordination Sequence:
#
# PCOD8080418 Si02
#       8
#     8   8   8   8   8   8   8   8
#     4   9  20  35  50  76 102 133 179 218 268 323
#     4  10  20  30  48  79 109 140 178 217 258 315
#     4  10  18  28  45  73 115 148 170 199 257 324
#     4  10  19  28  47  75 108 145 170 205 259 322
#     4  10  21  39  58  73 100 142 186 228 259 311
#     4  10  18  28  48  73 106 142 169 203 260 327
#     4   9  20  33  49  77 105 136 177 212 251 318
#     4  10  19  32  52  75 106 136 165 220 275 327
#
# _framework density 18.650993
#
# number of rings (size 3 to 8) (size 9 to 14) (size 15 to 20)
#    0.000    2.250    1.250    1.875    5.250    0.500 
#    0.000    1.875    0.000    7.500    0.000    0.000 
#    0.000    0.000    0.000    0.000    0.000    0.000 
#
# Total GULP energy -396558.760954 kJ/mol
# GULP energy per Si atom -12392.461280 kJ/mol
# Density = 1.860854 g / cm^3
# Si number density = 18.650993 Si / 1000 Ang^3
#
#
#
# Elastic Constant Matrix: (Units=GPa)
#
#
# Indices 1 2 3 4 5 6 
#
# 1 86.3086 11.8368 30.2334 -0.0926 0.2350 0.0574
# 2 11.8368 63.7101 18.9434 -0.1539 4.5085 0.1322
# 3 30.2334 18.9434 79.9175 -0.0066 11.0735 0.0325
# 4 -0.0926 -0.1539 -0.0066 14.8482 -0.0258 0.2117
# 5 0.2350 4.5085 11.0735 -0.0258 29.1780 -0.0334
# 6 0.0574 0.1322 0.0325 0.2117 -0.0334 7.5988
#
#
#
# Elastic Compliance Matrix: (Units=1/GPa)
#
#
# Indices 1 2 3 4 5 6 
#
# 1 0.013533 -0.001131 -0.005131 0.000075 0.002013 -0.000054
# 2 -0.001131 0.017019 -0.003423 0.000170 -0.001322 -0.000284
# 3 -0.005131 -0.003423 0.016029 -0.000070 -0.005513 0.000008
# 4 0.000075 0.000170 -0.000070 0.067377 0.000057 -0.001880
# 5 0.002013 -0.001322 -0.005513 0.000057 0.036553 0.000190
# 6 -0.000054 -0.000284 0.000008 -0.001880 0.000190 0.131659
#
#
# Mechanical properties :
#
#
# Convention : Reuss Voigt Hill
#
# Bulk Modulus (GPa) = 36.74851 39.10706 37.92779
# Shear Modulus (GPa) = 16.09740 21.58651 18.84196
#
# Velocity S-wave (km/s) = 2.94102 3.40574 3.18187
# Velocity P-wave (km/s) = 5.59275 6.03976 5.82055
#
# Compressibility (1/GPa) = 0.02721198
#
# Stress axis : x y z
#
# Youngs Moduli (GPa) = 73.89195 58.75956 62.38668
#
# Poissons Ratio (x) = 0.06646 0.32008
# Poissons Ratio (y) = 0.08357 0.21354
# Poissons Ratio (z) = 0.37910 0.20113
#
# Static dielectric constant tensor:
#      x y z
#    x 3.579790 -0.000240 0.078800 
#    y -0.000240 2.953220 0.000380 
#    z 0.078800 0.000380 3.379540 
# 
# 
# High freq. dielectric constant tensor:
#      x y z
#    x 1.738730 -0.000010 0.003550 
#    y -0.000010 1.669280 0.000020 
#    z 0.003550 0.000020 1.719710 
# 
# From -- ./inp_files/135402.got.cif
#   From: 2010.06.25/outbox.cif.g09.slc.cpg/sg12_68_cif.got.tgz:135402.got - 2010.06.28 00:19:55.
