data_PCOD8080122
_publ_section_title
;
Structure prediction by ZEFSAII (Michael W. Deem and Ramdas Pophale) SiO2 
 PCOD8080122
Probable space group: C 2/M
;
_chemical_formula_sum "Si O2"
_cell_formula_units_Z 56
_cell_length_a 13.622992
_cell_length_b 23.773474
_cell_length_c 14.949704
_cell_angle_alpha 90.000000
_cell_angle_beta 45.507830
_cell_angle_gamma 90.000000
_cell_volume 3453.807388
_symmetry_space_group_name_H-M "C 2/M"
_symmetry_group_IT_number 12
_symmetry_cell_setting 'monoclinic'
loop_
_space_group_symop_operation_xyz
x,y,z
-x,y,-z
-x,-y,-z
x,-y,z
1/2+x,1/2+y,z
1/2-x,1/2+y,-z
1/2-x,1/2-y,-z
1/2+x,1/2-y,z
loop_
_atom_site_type_symbol
_atom_site_label
_atom_site_fract_x
_atom_site_fract_y
_atom_site_fract_z
Si Si1 0.848677 0.385963 0.090595
Si Si2 0.922989 0.236049 0.249113
Si Si3 0.330162 0.193189 0.934983
Si Si4 0.941465 0.839278 0.402512
Si Si5 0.212532 0.820207 0.327182
Si Si6 0.926418 0.935753 0.788662
Si Si7 0.568803 0.360351 0.048391
O O1 0.815103 0.362012 0.210417
O O2 0.734803 0.431472 0.134597
O O3 0.851575 0.334832 0.018250
O O4 0.000000 0.414318 0.000000
O O5 0.885278 0.202555 0.362834
O O6 0.781596 0.259536 0.298741
O O7 0.023764 0.290097 0.203298
O O8 0.992156 0.194960 0.133248
O O9 0.250000 0.250000 0.000000
O O10 0.233281 0.153002 0.934862
O O11 0.827061 0.847881 0.551903
O O12 0.077725 0.809429 0.353966
O O13 0.980062 0.900590 0.340023
O O14 0.951435 0.912523 0.872012
O O15 0.974077 0.000000 0.753647
O O16 0.500000 0.378914 0.000000
#
# Coordination Sequence:
#
# PCOD8080122 Si02
#       7
#     8   8   8   8   8   8   8
#     4  10  18  30  46  72  92 124 156 191 238 291
#     4  10  18  27  47  67 100 134 150 184 232 279
#     4   9  17  26  41  69 100 127 151 180 226 284
#     4   9  20  33  43  72  95 123 170 192 227 284
#     4  10  18  30  48  65 100 131 151 194 230 278
#     4   9  19  36  51  64  93 125 157 211 245 263
#     4   9  19  28  45  75  99 119 162 188 224 297
#
# _framework density 16.213991
#
# number of rings (size 3 to 8) (size 9 to 14) (size 15 to 20)
#    0.000    2.571    1.429    3.000    6.000    0.571 
#    0.000    5.714    0.000    0.000    0.000    0.000 
#    0.000    1.143    0.000    0.000    0.000    0.000 
#
# Total GULP energy -347054.073723 kJ/mol
# GULP energy per Si atom -12394.788347 kJ/mol
# Density = 1.617709 g / cm^3
# Si number density = 16.213991 Si / 1000 Ang^3
#
#
#
# Elastic Constant Matrix: (Units=GPa)
#
#
# Indices 1 2 3 4 5 6 
#
# 1 89.2744 39.5504 37.3084 0.0001 10.2140 -0.0001
# 2 39.5504 89.1529 29.1261 0.0000 2.8763 0.0000
# 3 37.3084 29.1261 77.3637 0.0001 6.8779 0.0000
# 4 0.0001 0.0000 0.0001 10.0587 -0.0001 -1.3693
# 5 10.2140 2.8763 6.8779 -0.0001 21.5316 0.0001
# 6 -0.0001 0.0000 0.0000 -1.3693 0.0001 14.5962
#
#
#
# Elastic Compliance Matrix: (Units=1/GPa)
#
#
# Indices 1 2 3 4 5 6 
#
# 1 0.016461 -0.005350 -0.005448 0.000000 -0.005354 0.000000
# 2 -0.005350 0.014529 -0.003029 0.000000 0.001565 0.000000
# 3 -0.005448 -0.003029 0.016908 0.000000 -0.002412 0.000000
# 4 0.000000 0.000000 0.000000 0.100702 0.000000 0.009447
# 5 -0.005354 0.001565 -0.002412 0.000000 0.049544 0.000000
# 6 0.000000 0.000000 0.000000 0.009447 0.000000 0.069397
#
#
# Mechanical properties :
#
#
# Convention : Reuss Voigt Hill
#
# Bulk Modulus (GPa) = 49.39744 51.97343 50.68544
# Shear Modulus (GPa) = 16.55935 19.22437 17.89186
#
# Velocity S-wave (km/s) = 3.19925 3.44709 3.32548
# Velocity P-wave (km/s) = 6.64673 6.92585 6.78773
#
# Compressibility (1/GPa) = 0.02024396
#
# Stress axis : x y z
#
# Youngs Moduli (GPa) = 60.75032 68.82725 59.14313
#
# Poissons Ratio (x) = 0.36821 0.32222
# Poissons Ratio (y) = 0.32500 0.17915
# Poissons Ratio (z) = 0.33098 0.20849
#
# Static dielectric constant tensor:
#      x y z
#    x 3.196820 0.000000 -0.094550 
#    y 0.000000 2.747490 0.000000 
#    z -0.094550 0.000000 3.209740 
# 
# 
# High freq. dielectric constant tensor:
#      x y z
#    x 1.627160 0.000000 -0.000280 
#    y 0.000000 1.588780 0.000000 
#    z -0.000280 0.000000 1.616020 
# 
# From -- ./inp_files/178066.got.cif
#   From: 2010.06.25/outbox.cif.g09.slc.cpg/sg12_90_cif.got.tgz:178066.got - 2010.06.28 00:19:55.
