data_PCOD8080424
_publ_section_title
;
Structure prediction by ZEFSAII (Michael W. Deem and Ramdas Pophale) SiO2 
 PCOD8080424
Probable space group: C 2/M
;
_chemical_formula_sum "Si O2"
_cell_formula_units_Z 64
_cell_length_a 14.332492
_cell_length_b 20.884137
_cell_length_c 11.675772
_cell_angle_alpha 90.000000
_cell_angle_beta 121.199857
_cell_angle_gamma 90.000000
_cell_volume 2989.341999
_symmetry_space_group_name_H-M "C 2/M"
_symmetry_group_IT_number 12
_symmetry_cell_setting 'monoclinic'
loop_
_space_group_symop_operation_xyz
x,y,z
-x,y,-z
-x,-y,-z
x,-y,z
1/2+x,1/2+y,z
1/2-x,1/2+y,-z
1/2-x,1/2-y,-z
1/2+x,1/2-y,z
loop_
_atom_site_type_symbol
_atom_site_label
_atom_site_fract_x
_atom_site_fract_y
_atom_site_fract_z
Si Si1 0.547879 0.749067 0.749542
Si Si2 0.423055 0.179327 0.850750
Si Si3 0.238673 0.282242 0.742422
Si Si4 0.298888 0.074523 0.869119
Si Si5 0.490983 0.430108 0.128734
Si Si6 0.126306 0.072480 0.570706
Si Si7 0.858117 0.148276 0.633001
Si Si8 0.798059 0.836502 0.018899
O O1 0.487154 0.808450 0.772502
O O2 0.607926 0.768749 0.668730
O O3 0.460166 0.694562 0.672738
O O4 0.657784 0.729856 0.895157
O O5 0.309288 0.217625 0.786436
O O6 0.395517 0.103472 0.849196
O O7 0.500000 0.206770 0.000000
O O8 0.258056 0.316347 0.632223
O O9 0.273343 0.328765 0.869342
O O10 0.184054 0.080758 0.729486
O O11 0.298823 0.124079 0.977513
O O12 0.323725 0.000000 0.916860
O O13 0.461246 0.500000 0.158980
O O14 0.603772 0.407829 0.257490
O O15 0.398314 0.382657 0.105912
O O16 0.500000 0.432251 0.000000
O O17 0.182998 0.119018 0.513066
O O18 0.000000 0.091578 0.500000
O O19 0.138758 0.000000 0.534560
#
# Coordination Sequence:
#
# PCOD8080424 Si02
#       8
#     8   8   8   8   8   8   8   8
#     4  10  20  32  56  84 115 154 187 237 294 350
#     4  11  21  36  59  86 121 158 196 236 295 358
#     4  11  20  35  56  89 116 153 194 241 297 352
#     4  11  24  39  60  85 117 161 202 243 288 349
#     4  10  18  28  45  78 117 142 171 230 296 348
#     4  10  21  40  62  84 114 156 203 241 288 348
#     4  10  21  34  58  81 115 149 194 240 292 349
#     4  11  18  33  55  82 114 147 192 233 294 352
#
# _framework density 21.409395
#
# number of rings (size 3 to 8) (size 9 to 14) (size 15 to 20)
#    0.000    1.500    3.750    3.375    0.000    1.250 
#    0.000    2.500    2.750    1.500    0.000    1.750 
#    0.000    0.000    0.000    0.000    0.000    0.000 
#
# Total GULP energy -396582.910056 kJ/mol
# GULP energy per Si atom -12393.215939 kJ/mol
# Density = 2.136067 g / cm^3
# Si number density = 21.409395 Si / 1000 Ang^3
#
#
#
# Elastic Constant Matrix: (Units=GPa)
#
#
# Indices 1 2 3 4 5 6 
#
# 1 121.6536 35.0957 9.2898 0.0000 -22.2663 0.0000
# 2 35.0957 75.7315 12.6662 0.0000 -18.5490 0.0000
# 3 9.2898 12.6662 41.6026 0.0000 -15.8655 0.0000
# 4 0.0000 0.0000 0.0000 20.8752 0.0000 -13.6057
# 5 -22.2663 -18.5490 -15.8655 0.0000 22.7280 0.0000
# 6 0.0000 0.0000 0.0000 -13.6057 0.0000 8.0619
#
#
#
# Elastic Compliance Matrix: (Units=1/GPa)
#
#
# Indices 1 2 3 4 5 6 
#
# 1 0.010654 -0.002966 0.002155 0.000000 0.009521 0.000000
# 2 -0.002966 0.017330 -0.000447 0.000000 0.010926 0.000000
# 3 0.002155 -0.000447 0.033195 0.000000 0.024918 0.000000
# 4 0.000000 0.000000 0.000000 -0.479253 0.000000 -0.808817
# 5 0.009521 0.010926 0.024918 0.000000 0.079638 0.000000
# 6 0.000000 0.000000 0.000000 -0.808817 0.000000 -1.240969
#
#
# Mechanical properties :
#
#
# Convention : Reuss Voigt Hill
#
# Bulk Modulus (GPa) = 17.04675 39.23237 28.13956
# Shear Modulus (GPa) = -3.21061 22.46208 9.62573
#
# Velocity S-wave (km/s) = -1.22592 3.24260 2.12269
# Velocity P-wave (km/s) = 2.44453 5.69069 4.37948
#
# Compressibility (1/GPa) = 0.05866221
#
# Stress axis : x y z
#
# Youngs Moduli (GPa) = 93.86401 57.70442 30.12534
#
# Poissons Ratio (x) = 0.17112 -0.06492
# Poissons Ratio (y) = 0.27836 0.01348
# Poissons Ratio (z) = -0.20227 0.02581
#
# Static dielectric constant tensor:
#      x y z
#    x 3.977000 0.000000 -0.158290 
#    y 0.000000 4.085910 0.000000 
#    z -0.158290 0.000000 3.529020 
# 
# 
# High freq. dielectric constant tensor:
#      x y z
#    x 1.837350 0.000000 -0.015270 
#    y 0.000000 1.836770 0.000000 
#    z -0.015270 0.000000 1.810870 
# 
# From -- ./inp_files/147671.got.cif
#   From: 2010.06.25/outbox.cif.g09.slc.cpg/sg12_74_cif.got.tgz:147671.got - 2010.06.28 00:19:55.
