data_PCOD8080605
_publ_section_title
;
Structure prediction by ZEFSAII (Michael W. Deem and Ramdas Pophale) SiO2 
 PCOD8080605
Probable space group: C 2/M
;
_chemical_formula_sum "Si O2"
_cell_formula_units_Z 56
_cell_length_a 19.098646
_cell_length_b 18.328092
_cell_length_c 17.706940
_cell_angle_alpha 90.000000
_cell_angle_beta 151.092781
_cell_angle_gamma 90.000000
_cell_volume 2996.149115
_symmetry_space_group_name_H-M "C 2/M"
_symmetry_group_IT_number 12
_symmetry_cell_setting 'monoclinic'
loop_
_space_group_symop_operation_xyz
x,y,z
-x,y,-z
-x,-y,-z
x,-y,z
1/2+x,1/2+y,z
1/2-x,1/2+y,-z
1/2-x,1/2-y,-z
1/2+x,1/2-y,z
loop_
_atom_site_type_symbol
_atom_site_label
_atom_site_fract_x
_atom_site_fract_y
_atom_site_fract_z
Si Si1 0.806338 0.417797 0.526674
Si Si2 0.004172 0.142149 0.265889
Si Si3 0.932031 0.200194 0.358827
Si Si4 0.499031 0.198540 0.214288
Si Si5 0.248427 0.855615 0.076557
Si Si6 0.386202 0.232227 0.957547
Si Si7 0.005447 0.628798 0.590910
O O1 0.854388 0.500000 0.591833
O O2 0.633974 0.413502 0.372857
O O3 0.881827 0.361596 0.654697
O O4 0.856926 0.397882 0.489284
O O5 0.975106 0.150215 0.328070
O O6 0.056567 0.219342 0.280084
O O7 0.862436 0.107857 0.088431
O O8 0.760124 0.195476 0.210772
O O9 0.985087 0.283337 0.395618
O O10 0.000000 0.168154 0.500000
O O11 0.354947 0.196314 0.129294
O O12 0.458836 0.181623 0.089828
O O13 0.149853 0.810064 0.040253
O O14 0.356072 0.905360 0.230847
O O15 0.500000 0.245938 0.000000
O O16 0.000000 0.600399 0.500000
#
# Coordination Sequence:
#
# PCOD8080605 Si02
#       7
#     8   8   8   8   8   8   8
#     4  11  24  36  52  81 110 146 191 225 262 318
#     4  11  18  34  58  79 112 142 181 227 270 314
#     4  10  19  30  52  89 116 136 172 225 278 329
#     4  10  18  36  57  76 104 146 182 221 272 322
#     4   9  17  33  54  80 113 139 174 221 268 330
#     4  10  18  28  50  86 113 131 172 227 282 321
#     4   9  19  35  56  80 114 142 179 216 275 323
#
# _framework density 18.690657999999999
#
# number of rings (size 3 to 8) (size 9 to 14) (size 15 to 20)
#    0.000    2.000    5.714    1.286    2.000    6.000 
#    0.000    2.857    0.000    1.714    0.000    0.000 
#    0.000    0.000    0.000    0.000    0.000    0.000 
#
# Total GULP energy -346924.643111 kJ/mol
# GULP energy per Si atom -12390.165825 kJ/mol
# Density = 1.864812 g / cm^3
# Si number density = 18.690658 Si / 1000 Ang^3
#
#
#
# Elastic Constant Matrix: (Units=GPa)
#
#
# Indices 1 2 3 4 5 6 
#
# 1 131.3825 10.3941 65.5332 -0.0025 -2.8779 -0.0010
# 2 10.3941 36.5314 14.3065 -0.0050 1.7716 -0.0020
# 3 65.5332 14.3065 119.0176 -0.0057 -14.6205 -0.0026
# 4 -0.0025 -0.0050 -0.0057 6.3606 -0.0020 4.0298
# 5 -2.8779 1.7716 -14.6205 -0.0020 41.6851 -0.0002
# 6 -0.0010 -0.0020 -0.0026 4.0298 -0.0002 6.0785
#
#
#
# Elastic Compliance Matrix: (Units=1/GPa)
#
#
# Indices 1 2 3 4 5 6 
#
# 1 0.010581 -0.000632 -0.005912 -0.000002 -0.001316 0.000001
# 2 -0.000632 0.029024 -0.003446 0.000024 -0.002486 -0.000008
# 3 -0.005912 -0.003446 0.012582 0.000009 0.004151 -0.000003
# 4 -0.000002 0.000024 0.000009 0.271077 0.000014 -0.179715
# 5 -0.001316 -0.002486 0.004151 0.000014 0.025460 -0.000008
# 6 0.000001 -0.000008 -0.000003 -0.179715 -0.000008 0.283659
#
#
# Mechanical properties :
#
#
# Convention : Reuss Voigt Hill
#
# Bulk Modulus (GPa) = 31.04955 51.93326 41.49140
# Shear Modulus (GPa) = 7.54036 23.93803 15.73919
#
# Velocity S-wave (km/s) = 2.01073 3.58264 2.90502
# Velocity P-wave (km/s) = 4.69459 6.70520 5.78787
#
# Compressibility (1/GPa) = 0.03220659
#
# Stress axis : x y z
#
# Youngs Moduli (GPa) = 94.50513 34.45466 79.48085
#
# Poissons Ratio (x) = 0.02176 0.46990
# Poissons Ratio (y) = 0.05968 0.27393
# Poissons Ratio (z) = 0.55872 0.11875
#
# Static dielectric constant tensor:
#      x y z
#    x 3.549470 0.000000 -0.330790 
#    y 0.000000 2.789460 0.000000 
#    z -0.330790 0.000000 3.956450 
# 
# 
# High freq. dielectric constant tensor:
#      x y z
#    x 1.729360 0.000000 -0.006970 
#    y 0.000000 1.655750 0.000000 
#    z -0.006970 0.000000 1.744200 
# 
# From -- ./inp_files/279029.got.cif
#   From: 2010.06.25/outbox.cif.g09.slc.cpg/sg12_140_cif.got.tgz:279029.got - 2010.06.28 00:19:55.
