data_PCOD8080192
_publ_section_title
;
Structure prediction by ZEFSAII (Michael W. Deem and Ramdas Pophale) SiO2 
 PCOD8080192
Probable space group: C 2/M
;
_chemical_formula_sum "Si O2"
_cell_formula_units_Z 64
_cell_length_a 25.347724
_cell_length_b 8.879606
_cell_length_c 17.839797
_cell_angle_alpha 90.000000
_cell_angle_beta 102.817118
_cell_angle_gamma 90.000000
_cell_volume 3915.292496
_symmetry_space_group_name_H-M "C 2/M"
_symmetry_group_IT_number 12
_symmetry_cell_setting 'monoclinic'
loop_
_space_group_symop_operation_xyz
x,y,z
-x,y,-z
-x,-y,-z
x,-y,z
1/2+x,1/2+y,z
1/2-x,1/2+y,-z
1/2-x,1/2-y,-z
1/2+x,1/2-y,z
loop_
_atom_site_type_symbol
_atom_site_label
_atom_site_fract_x
_atom_site_fract_y
_atom_site_fract_z
Si Si1 0.719537 0.677339 0.670527
Si Si2 0.511618 0.320828 0.920513
Si Si3 0.202396 0.678519 0.819568
Si Si4 0.869475 0.178869 0.081109
Si Si5 0.596663 0.678048 0.183446
Si Si6 0.331940 0.676586 0.660974
Si Si7 0.304705 0.673736 0.495311
Si Si8 0.181507 0.178765 0.089495
O O1 0.719742 0.500000 0.687508
O O2 0.694552 0.764623 0.732579
O O3 0.780552 0.730148 0.673311
O O4 0.680627 0.718990 0.585935
O O5 0.513095 0.500000 0.923704
O O6 0.569169 0.261947 0.909077
O O7 0.463855 0.260217 0.850754
O O8 0.500000 0.257995 0.000000
O O9 0.200230 0.500000 0.819978
O O10 0.153445 0.743907 0.852224
O O11 0.259070 0.740169 0.871021
O O12 0.867069 0.000000 0.089368
O O13 0.834541 0.233356 0.998535
O O14 0.595595 0.500000 0.173331
O O15 0.616134 0.724364 0.273064
O O16 0.638482 0.745099 0.135472
O O17 0.318690 0.500000 0.669211
O O18 0.346388 0.710278 0.577110
O O19 0.291245 0.500000 0.490070
O O20 0.250000 0.750000 0.500000
O O21 0.180812 0.000000 0.093476
#
# Coordination Sequence:
#
# PCOD8080192 Si02
#       8
#     8   8   8   8   8   8   8   8
#     4  10  18  28  42  63  91 118 148 182 218 259
#     4   9  15  25  44  68  90 113 145 185 223 256
#     4  11  21  32  45  63  89 122 154 181 219 268
#     4  10  19  31  47  67  89 115 151 190 222 253
#     4   9  14  23  43  69  91 115 147 180 213 257
#     4   9  15  26  44  65  92 120 146 175 216 267
#     4   8  15  25  39  61  88 118 144 173 214 262
#     4   9  16  27  44  65  89 116 148 182 215 257
#
# _framework density 16.346162
#
# number of rings (size 3 to 8) (size 9 to 14) (size 15 to 20)
#    0.000    2.625    2.500    1.125    0.000    0.500 
#    0.000    0.625    0.000    1.125    0.000    0.875 
#    0.000    7.000    0.000    0.000    0.000    0.000 
#
# Total GULP energy -396466.417764 kJ/mol
# GULP energy per Si atom -12389.575555 kJ/mol
# Density = 1.630896 g / cm^3
# Si number density = 16.346162 Si / 1000 Ang^3
#
#
#
# Elastic Constant Matrix: (Units=GPa)
#
#
# Indices 1 2 3 4 5 6 
#
# 1 101.7933 19.7320 70.4923 0.0000 -4.6603 0.0000
# 2 19.7320 25.1063 26.5428 0.0000 -3.3717 0.0000
# 3 70.4923 26.5428 166.3767 0.0000 -0.3993 0.0000
# 4 0.0000 0.0000 0.0000 17.5479 0.0000 -3.6164
# 5 -4.6603 -3.3717 -0.3993 0.0000 19.6427 0.0000
# 6 0.0000 0.0000 0.0000 -3.6164 0.0000 14.1380
#
#
#
# Elastic Compliance Matrix: (Units=1/GPa)
#
#
# Indices 1 2 3 4 5 6 
#
# 1 0.014715 -0.005599 -0.005336 0.000000 0.002422 0.000000
# 2 -0.005599 0.051356 -0.005803 0.000000 0.007369 0.000000
# 3 -0.005336 -0.005803 0.009192 0.000000 -0.002075 0.000000
# 4 0.000000 0.000000 0.000000 0.060158 0.000000 0.015388
# 5 0.002422 0.007369 -0.002075 0.000000 0.052707 0.000000
# 6 0.000000 0.000000 0.000000 0.015388 0.000000 0.074668
#
#
# Mechanical properties :
#
#
# Convention : Reuss Voigt Hill
#
# Bulk Modulus (GPa) = 23.93063 58.53451 41.23257
# Shear Modulus (GPa) = 16.11865 22.03299 19.07582
#
# Velocity S-wave (km/s) = 3.14360 3.67536 3.41983
# Velocity P-wave (km/s) = 5.27712 7.34153 6.39320
#
# Compressibility (1/GPa) = 0.04178745
#
# Stress axis : x y z
#
# Youngs Moduli (GPa) = 67.95833 19.47197 108.79162
#
# Poissons Ratio (x) = 0.10902 0.58046
# Poissons Ratio (y) = 0.38050 0.63133
# Poissons Ratio (z) = 0.36259 0.11300
#
# Static dielectric constant tensor:
#      x y z
#    x 2.957590 0.000000 0.166800 
#    y 0.000000 2.344390 0.000000 
#    z 0.166800 0.000000 3.692390 
# 
# 
# High freq. dielectric constant tensor:
#      x y z
#    x 1.589720 0.000000 0.004790 
#    y 0.000000 1.598010 0.000000 
#    z 0.004790 0.000000 1.646590 
# 
# From -- ./inp_files/287776.got.cif
#   From: 2010.06.25/outbox.cif.g09.slc.cpg/sg12_144_cif.got.tgz:287776.got - 2010.06.28 00:19:55.
