data_PCOD8080593
_publ_section_title
;
Structure prediction by ZEFSAII (Michael W. Deem and Ramdas Pophale) SiO2 
 PCOD8080593
Probable space group: C 2/M
;
_chemical_formula_sum "Si O2"
_cell_formula_units_Z 56
_cell_length_a 18.177193
_cell_length_b 13.686025
_cell_length_c 13.219327
_cell_angle_alpha 90.000000
_cell_angle_beta 60.554372
_cell_angle_gamma 90.000000
_cell_volume 2863.803294
_symmetry_space_group_name_H-M "C 2/M"
_symmetry_group_IT_number 12
_symmetry_cell_setting 'monoclinic'
loop_
_space_group_symop_operation_xyz
x,y,z
-x,y,-z
-x,-y,-z
x,-y,z
1/2+x,1/2+y,z
1/2-x,1/2+y,-z
1/2-x,1/2-y,-z
1/2+x,1/2-y,z
loop_
_atom_site_type_symbol
_atom_site_label
_atom_site_fract_x
_atom_site_fract_y
_atom_site_fract_z
Si Si1 0.447330 0.108236 0.241046
Si Si2 0.252729 0.889786 0.362030
Si Si3 0.128523 0.113624 0.953059
Si Si4 0.979726 0.188647 0.157074
Si Si5 0.232430 0.704551 0.260620
Si Si6 0.945679 0.611728 0.630445
Si Si7 0.835975 0.114929 0.373180
O O1 0.348975 0.118662 0.334678
O O2 0.474959 0.193606 0.144218
O O3 0.499176 0.124011 0.307472
O O4 0.465604 0.000000 0.182258
O O5 0.236989 0.821229 0.275440
O O6 0.194388 0.855322 0.494713
O O7 0.230841 0.000000 0.343309
O O8 0.069134 0.130542 0.896897
O O9 0.214628 0.173849 0.875375
O O10 0.150261 0.000000 0.952016
O O11 0.077801 0.153877 0.086471
O O12 0.930276 0.160660 0.293959
O O13 0.136831 0.677030 0.303619
O O14 0.269409 0.653661 0.335846
O O15 0.917902 0.500000 0.631119
O O16 0.000000 0.650718 0.500000
O O17 0.840650 0.000000 0.357086
#
# Coordination Sequence:
#
# PCOD8080593 Si02
#       7
#     8   8   8   8   8   8   8
#     4  10  20  35  51  78 113 143 179 219 265 323
#     4  10  20  33  52  79 110 138 175 223 266 324
#     4  10  19  33  54  81 110 133 178 233 267 310
#     4  10  18  31  51  76 108 140 176 218 272 313
#     4  11  19  33  55  78 104 139 182 218 273 315
#     4  10  21  34  53  80 111 143 176 219 269 319
#     4  10  18  28  49  79 107 132 171 222 273 319
#
# _framework density 19.554414999999999
#
# number of rings (size 3 to 8) (size 9 to 14) (size 15 to 20)
#    0.000    1.857    2.857    5.143    2.000    2.286 
#    0.000    2.857    0.000    3.000    0.000    0.000 
#    0.000    0.000    0.000    0.000    0.000    0.000 
#
# Total GULP energy -347077.154765 kJ/mol
# GULP energy per Si atom -12395.612670 kJ/mol
# Density = 1.950991 g / cm^3
# Si number density = 19.554415 Si / 1000 Ang^3
#
#
#
# Elastic Constant Matrix: (Units=GPa)
#
#
# Indices 1 2 3 4 5 6 
#
# 1 82.3530 31.4436 35.5884 0.0000 -28.8443 0.0000
# 2 31.4436 126.5329 50.5679 0.0000 -20.5660 0.0000
# 3 35.5884 50.5679 78.2311 0.0000 -35.2111 0.0000
# 4 0.0000 0.0000 0.0000 24.3945 0.0000 -9.9928
# 5 -28.8443 -20.5660 -35.2111 0.0000 29.9897 0.0000
# 6 0.0000 0.0000 0.0000 -9.9928 0.0000 11.6732
#
#
#
# Elastic Compliance Matrix: (Units=1/GPa)
#
#
# Indices 1 2 3 4 5 6 
#
# 1 0.018738 -0.002090 0.000622 0.000000 0.017320 0.000000
# 2 -0.002090 0.010928 -0.007729 0.000000 -0.003591 0.000000
# 3 0.000622 -0.007729 0.032615 0.000000 0.033591 0.000000
# 4 0.000000 0.000000 0.000000 0.063130 0.000000 0.054043
# 5 0.017320 -0.003591 0.033591 0.000000 0.086980 0.000000
# 6 0.000000 0.000000 0.000000 0.054043 0.000000 0.131930
#
#
# Mechanical properties :
#
#
# Convention : Reuss Voigt Hill
#
# Bulk Modulus (GPa) = 22.78599 58.03519 40.41059
# Shear Modulus (GPa) = 13.25054 24.51264 18.88159
#
# Velocity S-wave (km/s) = 2.60595 3.54441 3.11077
# Velocity P-wave (km/s) = 4.55330 6.81863 5.79768
#
# Compressibility (1/GPa) = 0.04388661
#
# Stress axis : x y z
#
# Youngs Moduli (GPa) = 53.36662 91.51110 30.66117
#
# Poissons Ratio (x) = 0.19127 -0.01908
# Poissons Ratio (y) = 0.11154 0.23698
# Poissons Ratio (z) = -0.03320 0.70729
#
# Static dielectric constant tensor:
#      x y z
#    x 3.336940 0.000000 -0.612650 
#    y 0.000000 3.870480 0.000000 
#    z -0.612650 0.000000 3.891960 
# 
# 
# High freq. dielectric constant tensor:
#      x y z
#    x 1.726710 0.000000 -0.039500 
#    y 0.000000 1.777240 0.000000 
#    z -0.039500 0.000000 1.744600 
# 
# From -- ./inp_files/155967.got.cif
#   From: 2010.06.25/outbox.cif.g09.slc.cpg/sg12_78_cif.got.tgz:155967.got - 2010.06.28 00:19:55.
