data_PCOD8080278
_publ_section_title
;
Structure prediction by ZEFSAII (Michael W. Deem and Ramdas Pophale) SiO2 
 PCOD8080278
Probable space group: C 2/M
;
_chemical_formula_sum "Si O2"
_cell_formula_units_Z 56
_cell_length_a 23.815688
_cell_length_b 9.504684
_cell_length_c 15.958055
_cell_angle_alpha 90.000000
_cell_angle_beta 63.382600
_cell_angle_gamma 90.000000
_cell_volume 3229.439408
_symmetry_space_group_name_H-M "C 2/M"
_symmetry_group_IT_number 12
_symmetry_cell_setting 'monoclinic'
loop_
_space_group_symop_operation_xyz
x,y,z
-x,y,-z
-x,-y,-z
x,-y,z
1/2+x,1/2+y,z
1/2-x,1/2+y,-z
1/2-x,1/2-y,-z
1/2+x,1/2-y,z
loop_
_atom_site_type_symbol
_atom_site_label
_atom_site_fract_x
_atom_site_fract_y
_atom_site_fract_z
Si Si1 0.910347 0.837181 0.960895
Si Si2 0.225441 0.164953 0.256099
Si Si3 0.350377 0.333665 0.171388
Si Si4 0.700949 0.660034 0.082605
Si Si5 0.466762 0.333659 0.204655
Si Si6 0.597029 0.333142 0.415063
Si Si7 0.515696 0.332428 0.621243
O O1 0.868307 0.811555 0.906830
O O2 0.978578 0.771657 0.893042
O O3 0.918904 0.000000 0.977067
O O4 0.878074 0.771187 0.065368
O O5 0.286655 0.254202 0.237641
O O6 0.201724 0.199907 0.178913
O O7 0.168620 0.217653 0.353807
O O8 0.240419 0.000000 0.257660
O O9 0.336668 0.500000 0.174701
O O10 0.399183 0.296356 0.212192
O O11 0.720881 0.500000 0.054620
O O12 0.750000 0.750000 0.000000
O O13 0.476879 0.500000 0.203053
O O14 0.472846 0.268231 0.293887
O O15 0.595388 0.500000 0.410369
O O16 0.572448 0.282130 0.522315
O O17 0.550269 0.276957 0.373110
O O18 0.515327 0.500000 0.626072
#
# Coordination Sequence:
#
# PCOD8080278 Si02
#       7
#     8   8   8   8   8   8   8
#     4   9  16  27  43  63  87 115 147 186 226 259
#     4  10  19  30  45  66  93 122 148 176 220 271
#     4  10  19  30  44  64  92 122 152 184 216 258
#     4  10  18  28  44  65  89 115 143 178 218 261
#     4   9  16  26  43  65  86 113 152 192 224 255
#     4   8  14  25  43  67  92 115 140 181 233 271
#     4   8  13  24  43  67  91 111 142 189 231 263
#
# _framework density 17.340468999999999
#
# number of rings (size 3 to 8) (size 9 to 14) (size 15 to 20)
#    0.000    2.857    1.429    2.143    0.000    5.143 
#    0.000    0.714    0.000    2.571    0.000    3.000 
#    0.000    0.000    0.000    0.000    0.000    0.000 
#
# Total GULP energy -347023.303473 kJ/mol
# GULP energy per Si atom -12393.689410 kJ/mol
# Density = 1.730100 g / cm^3
# Si number density = 17.340469 Si / 1000 Ang^3
#
#
#
# Elastic Constant Matrix: (Units=GPa)
#
#
# Indices 1 2 3 4 5 6 
#
# 1 103.6498 22.0423 68.8718 0.0000 -14.5354 0.0000
# 2 22.0423 18.9063 22.1141 0.0000 -8.8963 0.0001
# 3 68.8718 22.1141 136.5049 0.0000 -22.0724 0.0000
# 4 0.0000 0.0000 0.0000 15.3772 0.0000 -5.7668
# 5 -14.5354 -8.8963 -22.0724 0.0000 31.1892 0.0000
# 6 0.0000 0.0001 0.0000 -5.7668 0.0000 18.5051
#
#
#
# Elastic Compliance Matrix: (Units=1/GPa)
#
#
# Indices 1 2 3 4 5 6 
#
# 1 0.016350 -0.011697 -0.006393 0.000000 -0.000241 0.000000
# 2 -0.011697 0.078304 -0.004578 0.000000 0.013644 0.000000
# 3 -0.006393 -0.004578 0.011970 0.000000 0.004186 0.000000
# 4 0.000000 0.000000 0.000000 0.073637 0.000000 0.022948
# 5 -0.000241 0.013644 0.004186 0.000000 0.038804 0.000000
# 6 0.000000 0.000000 0.000000 0.022948 0.000000 0.061190
#
#
# Mechanical properties :
#
#
# Convention : Reuss Voigt Hill
#
# Bulk Modulus (GPa) = 16.31641 53.90193 35.10917
# Shear Modulus (GPa) = 14.45002 22.74982 18.59992
#
# Velocity S-wave (km/s) = 2.88985 3.62601 3.27866
# Velocity P-wave (km/s) = 4.53484 6.97729 5.88419
#
# Compressibility (1/GPa) = 0.06128801
#
# Stress axis : x y z
#
# Youngs Moduli (GPa) = 61.16387 12.77066 83.54476
#
# Poissons Ratio (x) = 0.14938 0.53410
# Poissons Ratio (y) = 0.71545 0.38243
# Poissons Ratio (z) = 0.39102 0.05846
#
# Static dielectric constant tensor:
#      x y z
#    x 3.728680 0.000000 -0.722250 
#    y 0.000000 2.466550 0.000010 
#    z -0.722250 0.000010 4.674850 
# 
# 
# High freq. dielectric constant tensor:
#      x y z
#    x 1.672980 0.000000 -0.004310 
#    y 0.000000 1.596350 0.000000 
#    z -0.004310 0.000000 1.679300 
# 
# From -- ./inp_files/231937.got.cif
#   From: 2010.06.25/outbox.cif.g09.slc.cpg/sg12_116_cif.got.tgz:231937.got - 2010.06.28 00:19:55.
