data_PCOD8080119
_publ_section_title
;
Structure prediction by ZEFSAII (Michael W. Deem and Ramdas Pophale) SiO2 
 PCOD8080119
Probable space group: C 2/M
;
_chemical_formula_sum "Si O2"
_cell_formula_units_Z 64
_cell_length_a 20.452710
_cell_length_b 9.045881
_cell_length_c 20.218327
_cell_angle_alpha 90.000000
_cell_angle_beta 96.668597
_cell_angle_gamma 90.000000
_cell_volume 3715.341339
_symmetry_space_group_name_H-M "C 2/M"
_symmetry_group_IT_number 12
_symmetry_cell_setting 'monoclinic'
loop_
_space_group_symop_operation_xyz
x,y,z
-x,y,-z
-x,-y,-z
x,-y,z
1/2+x,1/2+y,z
1/2-x,1/2+y,-z
1/2-x,1/2-y,-z
1/2+x,1/2-y,z
loop_
_atom_site_type_symbol
_atom_site_label
_atom_site_fract_x
_atom_site_fract_y
_atom_site_fract_z
Si Si1 0.954446 0.666655 0.692099
Si Si2 0.055305 0.174405 0.955797
Si Si3 0.697382 0.175546 0.446356
Si Si4 0.048313 0.330621 0.452103
Si Si5 0.192150 0.172474 0.031120
Si Si6 0.348610 0.671581 0.831066
Si Si7 0.676440 0.330072 0.314697
Si Si8 0.486737 0.831214 0.836146
O O1 0.922370 0.500000 0.690201
O O2 0.987545 0.687218 0.623765
O O3 0.900711 0.794076 0.692765
O O4 0.004587 0.682693 0.759586
O O5 0.042486 0.243968 0.882437
O O6 0.053042 0.000000 0.947880
O O7 0.124387 0.231066 0.991800
O O8 0.000000 0.230670 0.000000
O O9 0.750000 0.250000 0.500000
O O10 0.623508 0.231422 0.457809
O O11 0.713610 0.228288 0.372959
O O12 0.704063 0.000000 0.450756
O O13 0.055393 0.500000 0.474246
O O14 0.000000 0.250545 0.500000
O O15 0.194629 0.211077 0.109544
O O16 0.199416 0.000000 0.020129
O O17 0.250000 0.250000 0.000000
O O18 0.370989 0.500000 0.836220
O O19 0.303752 0.701322 0.760003
O O20 0.414042 0.769150 0.840456
O O21 0.688872 0.500000 0.335347
O O22 0.487627 0.000000 0.859575
#
# Coordination Sequence:
#
# PCOD8080119 Si02
#       8
#     8   8   8   8   8   8   8   8
#     4   8  15  27  43  69 101 126 153 195 245 283
#     4  10  19  34  53  71  96 129 163 199 243 294
#     4  10  19  31  49  73 101 129 160 203 246 285
#     4   8  14  27  49  72  93 123 161 195 229 278
#     4  10  21  36  53  72  97 130 164 202 246 295
#     4   9  17  32  51  71  97 130 164 198 243 299
#     4   9  16  27  48  73  95 123 163 202 238 287
#     4  10  18  27  46  76 103 123 155 207 250 281
#
# _framework density 17.225874000000001
#
# number of rings (size 3 to 8) (size 9 to 14) (size 15 to 20)
#    0.000    2.750    1.250    1.875    0.000    2.250 
#    0.000    0.000    2.750    9.375    0.000    0.000 
#    0.000    0.000    0.000    0.000    0.000    0.000 
#
# Total GULP energy -396467.116017 kJ/mol
# GULP energy per Si atom -12389.597376 kJ/mol
# Density = 1.718667 g / cm^3
# Si number density = 17.225874 Si / 1000 Ang^3
#
#
#
# Elastic Constant Matrix: (Units=GPa)
#
#
# Indices 1 2 3 4 5 6 
#
# 1 82.0504 27.6685 66.4161 0.0000 -3.4231 0.0000
# 2 27.6685 46.5203 45.2648 0.0000 3.5894 0.0000
# 3 66.4161 45.2648 171.4697 0.0000 1.4503 0.0000
# 4 0.0000 0.0000 0.0000 29.2704 0.0000 4.4693
# 5 -3.4231 3.5894 1.4503 0.0000 25.6798 0.0000
# 6 0.0000 0.0000 0.0000 4.4693 0.0000 20.1096
#
#
#
# Elastic Compliance Matrix: (Units=1/GPa)
#
#
# Indices 1 2 3 4 5 6 
#
# 1 0.019085 -0.005939 -0.005856 0.000000 0.003705 0.000000
# 2 -0.005939 0.031113 -0.005872 0.000000 -0.004809 0.000000
# 3 -0.005856 -0.005872 0.009654 0.000000 -0.000505 0.000000
# 4 0.000000 0.000000 0.000000 0.035364 0.000000 -0.007860
# 5 0.003705 -0.004809 -0.000505 0.000000 0.040136 0.000000
# 6 0.000000 0.000000 0.000000 -0.007860 0.000000 0.051474
#
#
# Mechanical properties :
#
#
# Convention : Reuss Voigt Hill
#
# Bulk Modulus (GPa) = 40.78571 64.30436 52.54504
# Shear Modulus (GPa) = 21.70764 25.72469 23.71617
#
# Velocity S-wave (km/s) = 3.55375 3.86861 3.71452
# Velocity P-wave (km/s) = 6.36924 7.57404 6.99762
#
# Compressibility (1/GPa) = 0.02451839
#
# Stress axis : x y z
#
# Youngs Moduli (GPa) = 52.39741 32.14079 103.57869
#
# Poissons Ratio (x) = 0.19089 0.60653
# Poissons Ratio (y) = 0.31119 0.60823
# Poissons Ratio (z) = 0.30683 0.18874
#
# Static dielectric constant tensor:
#      x y z
#    x 2.888070 0.000000 -0.024830 
#    y 0.000000 3.141370 0.000000 
#    z -0.024830 0.000000 3.753810 
# 
# 
# High freq. dielectric constant tensor:
#      x y z
#    x 1.608500 0.000000 0.002200 
#    y 0.000000 1.657580 0.000000 
#    z 0.002200 0.000000 1.690490 
# 
# From -- ./inp_files/319250.got.cif
#   From: 2010.06.25/outbox.cif.g09.slc.cpg/sg12_160_cif.got.tgz:319250.got - 2010.06.28 00:19:55.
