data_PCOD8080641
_publ_section_title
;
Structure prediction by ZEFSAII (Michael W. Deem and Ramdas Pophale) SiO2 
 PCOD8080641
Probable space group: C 2/M
;
_chemical_formula_sum "Si O2"
_cell_formula_units_Z 48
_cell_length_a 24.516076
_cell_length_b 9.284093
_cell_length_c 13.951019
_cell_angle_alpha 90.000000
_cell_angle_beta 110.002145
_cell_angle_gamma 90.000000
_cell_volume 2983.845071
_symmetry_space_group_name_H-M "C 2/M"
_symmetry_group_IT_number 12
_symmetry_cell_setting 'monoclinic'
loop_
_space_group_symop_operation_xyz
x,y,z
-x,y,-z
-x,-y,-z
x,-y,z
1/2+x,1/2+y,z
1/2-x,1/2+y,-z
1/2-x,1/2-y,-z
1/2+x,1/2-y,z
loop_
_atom_site_type_symbol
_atom_site_label
_atom_site_fract_x
_atom_site_fract_y
_atom_site_fract_z
Si Si1 0.669511 0.834501 0.501346
Si Si2 0.379850 0.665185 0.853885
Si Si3 0.460435 0.167146 0.564842
Si Si4 0.553749 0.837099 0.960647
Si Si5 0.788284 0.167167 0.652787
Si Si6 0.984473 0.832276 0.772574
O O1 0.606202 0.803570 0.507093
O O2 0.719700 0.792390 0.608879
O O3 0.676753 0.747137 0.408717
O O4 0.676331 0.000000 0.476193
O O5 0.383007 0.500000 0.890145
O O6 0.316422 0.706281 0.772791
O O7 0.426123 0.693338 0.797539
O O8 0.391391 0.765081 0.952785
O O9 0.500000 0.213816 0.500000
O O10 0.477404 0.264693 0.664227
O O11 0.469844 0.000000 0.598028
O O12 0.538437 0.746349 0.856900
O O13 0.569881 0.000000 0.941141
O O14 0.500000 0.833408 0.000000
O O15 0.798811 0.000000 0.638917
O O16 0.999481 0.000000 0.771820
#
# Coordination Sequence:
#
# PCOD8080641 Si02
#       6
#     8   8   8   8   8   8
#     4   9  17  28  43  62  86 117 150 181 217 260
#     4   9  16  26  41  63  90 116 141 174 218 266
#     4  10  20  32  45  63  89 121 155 187 218 255
#     4   9  17  27  41  62  88 116 145 175 213 266
#     4   9  16  27  43  64  89 116 144 178 220 263
#     4  10  18  29  44  62  87 117 148 183 221 260
#
# _framework density 16.086625999999999
#
# number of rings (size 3 to 8) (size 9 to 14) (size 15 to 20)
#    0.000    2.667    1.667    1.000    0.000    3.667 
#    0.000    0.000    0.000    0.000    0.000    1.167 
#    0.000    0.000    0.000    0.000    0.000    0.000 
#
# Total GULP energy -297509.859330 kJ/mol
# GULP energy per Si atom -12396.244139 kJ/mol
# Density = 1.605001 g / cm^3
# Si number density = 16.086626 Si / 1000 Ang^3
#
#
#
# Elastic Constant Matrix: (Units=GPa)
#
#
# Indices 1 2 3 4 5 6 
#
# 1 70.5252 32.4449 46.3284 0.0000 16.0713 0.0000
# 2 32.4449 86.2142 62.9895 0.0000 12.0612 0.0000
# 3 46.3284 62.9895 115.7455 0.0000 29.3278 0.0000
# 4 0.0000 0.0000 0.0000 32.2100 0.0000 2.8255
# 5 16.0713 12.0612 29.3278 0.0000 23.3410 0.0000
# 6 0.0000 0.0000 0.0000 2.8255 0.0000 13.0346
#
#
#
# Elastic Compliance Matrix: (Units=1/GPa)
#
#
# Indices 1 2 3 4 5 6 
#
# 1 0.020221 -0.003290 -0.004704 0.000000 -0.006313 0.000000
# 2 -0.003290 0.020151 -0.011128 0.000000 0.005835 0.000000
# 3 -0.004704 -0.011128 0.020980 0.000000 -0.017372 0.000000
# 4 0.000000 0.000000 0.000000 0.031648 0.000000 -0.006860
# 5 -0.006313 0.005835 -0.017372 0.000000 0.066003 0.000000
# 6 0.000000 0.000000 0.000000 -0.006860 0.000000 0.078206
#
#
# Mechanical properties :
#
#
# Convention : Reuss Voigt Hill
#
# Bulk Modulus (GPa) = 43.27273 61.77895 52.52584
# Shear Modulus (GPa) = 17.65808 22.43192 20.04500
#
# Velocity S-wave (km/s) = 3.31673 3.73828 3.53380
# Velocity P-wave (km/s) = 6.45181 7.55779 7.02659
#
# Compressibility (1/GPa) = 0.02310924
#
# Stress axis : x y z
#
# Youngs Moduli (GPa) = 49.45241 49.62498 47.66420
#
# Poissons Ratio (x) = 0.16327 0.22420
# Poissons Ratio (y) = 0.16270 0.53040
# Poissons Ratio (z) = 0.23261 0.55222
#
# Static dielectric constant tensor:
#      x y z
#    x 2.868910 0.000000 0.407080 
#    y 0.000000 3.147180 0.000000 
#    z 0.407080 0.000000 3.130020 
# 
# 
# High freq. dielectric constant tensor:
#      x y z
#    x 1.571120 0.000000 0.035950 
#    y 0.000000 1.626500 0.000000 
#    z 0.035950 0.000000 1.616510 
# 
# From -- ./inp_files/172096.got.cif
#   From: 2010.06.25/outbox.cif.g09.slc.cpg/sg12_87_cif.got.tgz:172096.got - 2010.06.28 00:19:55.
