data_PCOD8080721
_publ_section_title
;
Structure prediction by ZEFSAII (Michael W. Deem and Ramdas Pophale) SiO2 
 PCOD8080721
Probable space group: C 2/M
;
_chemical_formula_sum "Si O2"
_cell_formula_units_Z 64
_cell_length_a 24.319795
_cell_length_b 9.127856
_cell_length_c 18.414759
_cell_angle_alpha 90.000000
_cell_angle_beta 59.366616
_cell_angle_gamma 90.000000
_cell_volume 3517.369450
_symmetry_space_group_name_H-M "C 2/M"
_symmetry_group_IT_number 12
_symmetry_cell_setting 'monoclinic'
loop_
_space_group_symop_operation_xyz
x,y,z
-x,y,-z
-x,-y,-z
x,-y,z
1/2+x,1/2+y,z
1/2-x,1/2+y,-z
1/2-x,1/2-y,-z
1/2+x,1/2-y,z
loop_
_atom_site_type_symbol
_atom_site_label
_atom_site_fract_x
_atom_site_fract_y
_atom_site_fract_z
Si Si1 0.483573 0.343322 0.931698
Si Si2 0.104161 0.169757 0.764219
Si Si3 0.881378 0.671581 0.851231
Si Si4 0.330094 0.168380 0.732284
Si Si5 0.204949 0.325846 0.788973
Si Si6 0.995482 0.828970 0.283854
Si Si7 0.471721 0.169910 0.594554
Si Si8 0.141152 0.330519 0.978014
O O1 0.463379 0.500000 0.906312
O O2 0.546914 0.277485 0.853896
O O3 0.500000 0.391373 0.000000
O O4 0.431497 0.218024 0.970041
O O5 0.165065 0.266367 0.746602
O O6 0.075621 0.197149 0.702391
O O7 0.122510 0.000000 0.763104
O O8 0.899734 0.500000 0.834417
O O9 0.839332 0.716293 0.810044
O O10 0.948639 0.760935 0.805703
O O11 0.837458 0.705242 0.952710
O O12 0.277118 0.270351 0.731170
O O13 0.395750 0.195550 0.645027
O O14 0.308313 0.000000 0.741521
O O15 0.203672 0.500000 0.787197
O O16 0.179987 0.259610 0.884222
O O17 0.994675 0.756361 0.363147
O O18 0.010046 0.000000 0.282329
O O19 0.500000 0.229116 0.500000
O O20 0.488127 0.000000 0.594997
O O21 0.143909 0.500000 0.959850
#
# Coordination Sequence:
#
# PCOD8080721 Si02
#       8
#     8   8   8   8   8   8   8   8
#     4  10  18  29  45  66  94 132 180 226 262 298
#     4  10  20  33  49  71 103 141 178 215 259 308
#     4   9  18  33  51  70  98 138 179 220 266 310
#     4   9  19  36  55  74 100 135 170 205 252 312
#     4  11  23  34  47  71 103 142 184 222 259 299
#     4  10  19  31  52  83 111 133 165 213 262 302
#     4   9  19  38  64  89 109 131 159 195 250 319
#     4  10  20  31  45  68  99 135 180 227 266 300
#
# _framework density 18.195416000000002
#
# number of rings (size 3 to 8) (size 9 to 14) (size 15 to 20)
#    0.000    2.250    2.500    1.500    0.000    5.000 
#    0.000    0.000    0.000    0.750    0.000    0.000 
#    0.000    0.000    0.000    0.000    0.000    0.000 
#
# Total GULP energy -396457.133659 kJ/mol
# GULP energy per Si atom -12389.285427 kJ/mol
# Density = 1.815400 g / cm^3
# Si number density = 18.195416 Si / 1000 Ang^3
#
#
#
# Elastic Constant Matrix: (Units=GPa)
#
#
# Indices 1 2 3 4 5 6 
#
# 1 115.8343 49.8079 41.7967 0.0000 -1.9391 -0.0001
# 2 49.8079 55.5795 33.3640 -0.0003 4.9752 -0.0008
# 3 41.7967 33.3640 81.3791 0.0000 12.4409 0.0000
# 4 0.0000 -0.0003 0.0000 20.5254 0.0000 -0.1272
# 5 -1.9391 4.9752 12.4409 0.0000 18.4725 0.0000
# 6 -0.0001 -0.0008 0.0000 -0.1272 0.0000 32.1408
#
#
#
# Elastic Compliance Matrix: (Units=1/GPa)
#
#
# Indices 1 2 3 4 5 6 
#
# 1 0.015431 -0.012010 -0.004174 0.000000 0.007665 0.000000
# 2 -0.012010 0.033213 -0.006564 0.000000 -0.005785 0.000001
# 3 -0.004174 -0.006564 0.018862 0.000000 -0.011373 0.000000
# 4 0.000000 0.000000 0.000000 0.048721 0.000000 0.000193
# 5 0.007665 -0.005785 -0.011373 0.000000 0.064157 0.000000
# 6 0.000000 0.000001 0.000000 0.000193 0.000000 0.031114
#
#
# Mechanical properties :
#
#
# Convention : Reuss Voigt Hill
#
# Bulk Modulus (GPa) = 45.43173 55.85889 50.64531
# Shear Modulus (GPa) = 18.91574 22.74936 20.83255
#
# Velocity S-wave (km/s) = 3.22776 3.53977 3.38736
# Velocity P-wave (km/s) = 6.23813 6.89004 6.57217
#
# Compressibility (1/GPa) = 0.02201105
#
# Stress axis : x y z
#
# Youngs Moduli (GPa) = 64.80288 30.10870 53.01754
#
# Poissons Ratio (x) = 0.36159 0.22128
# Poissons Ratio (y) = 0.77826 0.34801
# Poissons Ratio (z) = 0.27047 0.19764
#
# Static dielectric constant tensor:
#      x y z
#    x 3.333740 0.000000 0.227280 
#    y 0.000000 3.262230 0.000000 
#    z 0.227280 0.000000 3.275140 
# 
# 
# High freq. dielectric constant tensor:
#      x y z
#    x 1.698520 0.000000 0.015310 
#    y 0.000000 1.704410 0.000000 
#    z 0.015310 0.000000 1.675790 
# 
# From -- ./inp_files/326831.got.cif
#   From: 2010.06.25/outbox.cif.g09.slc.cpg/sg12_164_cif.got.tgz:326831.got - 2010.06.28 00:19:55.
