data_PCOD8080573
_publ_section_title
;
Structure prediction by ZEFSAII (Michael W. Deem and Ramdas Pophale) SiO2 
 PCOD8080573
Probable space group: C 2/M
;
_chemical_formula_sum "Si O2"
_cell_formula_units_Z 48
_cell_length_a 23.406335
_cell_length_b 10.594936
_cell_length_c 27.379064
_cell_angle_alpha 90.000000
_cell_angle_beta 157.061451
_cell_angle_gamma 90.000000
_cell_volume 2646.240977
_symmetry_space_group_name_H-M "C 2/M"
_symmetry_group_IT_number 12
_symmetry_cell_setting 'monoclinic'
loop_
_space_group_symop_operation_xyz
x,y,z
-x,y,-z
-x,-y,-z
x,-y,z
1/2+x,1/2+y,z
1/2-x,1/2+y,-z
1/2-x,1/2-y,-z
1/2+x,1/2-y,z
loop_
_atom_site_type_symbol
_atom_site_label
_atom_site_fract_x
_atom_site_fract_y
_atom_site_fract_z
Si Si1 0.402186 0.856729 0.293892
Si Si2 0.620852 0.639019 0.439032
Si Si3 0.022709 0.147121 0.156549
Si Si4 0.093222 0.235052 0.312958
Si Si5 0.125176 0.149784 0.134373
Si Si6 0.798028 0.358766 0.103733
O O1 0.532767 0.754391 0.394516
O O2 0.288564 0.811319 0.245954
O O3 0.312637 0.857578 0.173461
O O4 0.463490 0.000000 0.352122
O O5 0.565824 0.500000 0.412857
O O6 0.790516 0.652058 0.588393
O O7 0.611354 0.639723 0.372602
O O8 0.119971 0.170191 0.281479
O O9 0.103139 0.204030 0.171946
O O10 0.002037 0.000000 0.131015
O O11 0.858544 0.205116 0.032271
O O12 0.927592 0.282967 0.180465
O O13 0.113831 0.000000 0.124057
O O14 0.000000 0.206816 0.000000
O O15 0.805883 0.500000 0.089065
#
# Coordination Sequence:
#
# PCOD8080573 Si02
#       6
#     8   8   8   8   8   8
#     4   9  17  31  54  81 103 131 171 210 251 303
#     4  10  21  36  53  71 101 143 179 213 252 300
#     4  10  18  28  48  78 107 128 159 211 263 304
#     4  10  20  32  49  72 101 136 177 211 249 299
#     4   9  15  28  51  79 105 129 161 207 258 306
#     4   9  16  28  48  75 104 130 160 205 256 308
#
# _framework density 18.138938
#
# number of rings (size 3 to 8) (size 9 to 14) (size 15 to 20)
#    0.000    2.500    1.667    1.500    0.000    4.667 
#    0.000    0.833    0.000    7.500    0.000    0.000 
#    0.000    0.000    0.000    0.000    0.000    0.000 
#
# Total GULP energy -297418.143089 kJ/mol
# GULP energy per Si atom -12392.422629 kJ/mol
# Density = 1.809765 g / cm^3
# Si number density = 18.138938 Si / 1000 Ang^3
#
#
#
# Elastic Constant Matrix: (Units=GPa)
#
#
# Indices 1 2 3 4 5 6 
#
# 1 120.4200 27.4462 51.1019 -0.0030 5.0986 0.0003
# 2 27.4462 73.4592 29.3728 -0.0103 13.6610 -0.0008
# 3 51.1019 29.3728 69.1244 -0.0076 5.0840 -0.0024
# 4 -0.0030 -0.0103 -0.0076 12.8455 0.0006 1.0107
# 5 5.0986 13.6610 5.0840 0.0006 18.0575 0.0011
# 6 0.0003 -0.0008 -0.0024 1.0107 0.0011 16.1664
#
#
#
# Elastic Compliance Matrix: (Units=1/GPa)
#
#
# Indices 1 2 3 4 5 6 
#
# 1 0.012180 -0.001107 -0.008520 -0.000003 -0.000203 -0.000001
# 2 -0.001107 0.018793 -0.006275 0.000012 -0.012138 0.000000
# 3 -0.008520 -0.006275 0.023390 0.000007 0.000567 0.000003
# 4 -0.000003 0.000012 0.000007 0.078233 -0.000012 -0.004891
# 5 -0.000203 -0.012138 0.000567 -0.000012 0.064459 -0.000004
# 6 -0.000001 0.000000 0.000003 -0.004891 -0.000004 0.062162
#
#
# Mechanical properties :
#
#
# Convention : Reuss Voigt Hill
#
# Bulk Modulus (GPa) = 44.32416 53.20502 48.76459
# Shear Modulus (GPa) = 16.74823 19.75275 18.25049
#
# Velocity S-wave (km/s) = 3.04193 3.30353 3.17543
# Velocity P-wave (km/s) = 6.06851 6.62923 6.35506
#
# Compressibility (1/GPa) = 0.02256106
#
# Stress axis : x y z
#
# Youngs Moduli (GPa) = 82.09861 53.21219 42.75415
#
# Poissons Ratio (x) = 0.05888 0.36425
# Poissons Ratio (y) = 0.09084 0.26827
# Poissons Ratio (z) = 0.69944 0.33389
#
# Static dielectric constant tensor:
#      x y z
#    x 3.505410 0.000000 0.086720 
#    y 0.000000 2.962680 -0.000010 
#    z 0.086720 -0.000010 3.258030 
# 
# 
# High freq. dielectric constant tensor:
#      x y z
#    x 1.700100 0.000000 0.005950 
#    y 0.000000 1.658030 0.000000 
#    z 0.005950 0.000000 1.700730 
# 
# From -- ./inp_files/94433.got.cif
#   From: 2010.06.25/outbox.cif.g09.slc.cpg/sg12_48_cif.got.tgz:94433.got - 2010.06.28 00:19:55.
