data_PCOD8080008
_publ_section_title
;
Structure prediction by ZEFSAII (Michael W. Deem and Ramdas Pophale) SiO2 
 PCOD8080008
Probable space group: C 2/M
;
_chemical_formula_sum "Si O2"
_cell_formula_units_Z 56
_cell_length_a 23.050363
_cell_length_b 8.870910
_cell_length_c 16.610116
_cell_angle_alpha 90.000000
_cell_angle_beta 80.658287
_cell_angle_gamma 90.000000
_cell_volume 3351.354540
_symmetry_space_group_name_H-M "C 2/M"
_symmetry_group_IT_number 12
_symmetry_cell_setting 'monoclinic'
loop_
_space_group_symop_operation_xyz
x,y,z
-x,y,-z
-x,-y,-z
x,-y,z
1/2+x,1/2+y,z
1/2-x,1/2+y,-z
1/2-x,1/2-y,-z
1/2+x,1/2-y,z
loop_
_atom_site_type_symbol
_atom_site_label
_atom_site_fract_x
_atom_site_fract_y
_atom_site_fract_z
Si Si1 0.046679 0.829775 0.604308
Si Si2 0.452584 0.821202 0.073164
Si Si3 0.381935 0.319894 0.742160
Si Si4 0.790552 0.674903 0.876398
Si Si5 0.003085 0.677775 0.763760
Si Si6 0.915496 0.167992 0.568344
Si Si7 0.174408 0.675995 0.951536
O O1 0.048870 0.727215 0.683472
O O2 0.085302 0.756154 0.521219
O O3 0.980624 0.835803 0.588642
O O4 0.067706 0.000000 0.620348
O O5 0.468521 0.768189 0.159099
O O6 0.388023 0.761371 0.064752
O O7 0.452762 0.000000 0.066226
O O8 0.500000 0.753079 0.000000
O O9 0.387266 0.500000 0.741761
O O10 0.323874 0.267459 0.800384
O O11 0.439431 0.253305 0.772004
O O12 0.376958 0.259428 0.649665
O O13 0.792184 0.500000 0.853657
O O14 0.723644 0.730793 0.893055
O O15 0.821942 0.707140 0.954180
O O16 0.994026 0.500000 0.762450
O O17 0.892774 0.000000 0.557597
O O18 0.183564 0.500000 0.930633
#
# Coordination Sequence:
#
# PCOD8080008 Si02
#       7
#     8   8   8   8   8   8   8
#     4   8  13  25  41  57  83 117 148 176 213 262
#     4   9  17  30  47  65  88 120 152 178 208 255
#     4  10  18  29  45  65  90 120 151 179 216 266
#     4  10  19  31  48  69  90 111 143 189 229 256
#     4  10  18  27  42  66  92 117 149 186 220 253
#     4   7  12  23  40  59  81 114 150 177 205 259
#     4   9  18  33  50  65  86 120 153 176 211 265
#
# _framework density 16.709662999999999
#
# number of rings (size 3 to 8) (size 9 to 14) (size 15 to 20)
#    0.000    3.000    0.000    3.857    0.000    2.857 
#    0.000    7.857    0.000    3.000    0.000    1.000 
#    0.000    0.000    0.000    0.000    0.000    0.000 
#
# Total GULP energy -346903.539701 kJ/mol
# GULP energy per Si atom -12389.412132 kJ/mol
# Density = 1.667163 g / cm^3
# Si number density = 16.709663 Si / 1000 Ang^3
#
#
#
# Elastic Constant Matrix: (Units=GPa)
#
#
# Indices 1 2 3 4 5 6 
#
# 1 83.5779 23.4802 62.5879 0.0000 -6.3514 0.0000
# 2 23.4802 49.0931 41.0393 0.0000 -6.0782 0.0000
# 3 62.5879 41.0393 160.7043 0.0000 -15.5569 0.0000
# 4 0.0000 0.0000 0.0000 24.4975 0.0000 -3.6536
# 5 -6.3514 -6.0782 -15.5569 0.0000 19.4773 0.0000
# 6 0.0000 0.0000 0.0000 -3.6536 0.0000 15.8430
#
#
#
# Elastic Compliance Matrix: (Units=1/GPa)
#
#
# Indices 1 2 3 4 5 6 
#
# 1 0.017317 -0.003368 -0.005895 0.000000 -0.000113 0.000000
# 2 -0.003368 0.026720 -0.005214 0.000000 0.003075 0.000000
# 3 -0.005895 -0.005214 0.010303 0.000000 0.004680 0.000000
# 4 0.000000 0.000000 0.000000 0.042274 0.000000 0.009749
# 5 -0.000113 0.003075 0.004680 0.000000 0.056003 0.000000
# 6 0.000000 0.000000 0.000000 0.009749 0.000000 0.065368
#
#
# Mechanical properties :
#
#
# Convention : Reuss Voigt Hill
#
# Bulk Modulus (GPa) = 39.39292 60.84333 50.11813
# Shear Modulus (GPa) = 19.57702 23.04808 21.31255
#
# Velocity S-wave (km/s) = 3.42658 3.71796 3.57524
# Velocity P-wave (km/s) = 6.26748 7.41094 6.86307
#
# Compressibility (1/GPa) = 0.02538527
#
# Stress axis : x y z
#
# Youngs Moduli (GPa) = 57.74603 37.42535 97.05902
#
# Poissons Ratio (x) = 0.12606 0.57217
# Poissons Ratio (y) = 0.19451 0.50606
# Poissons Ratio (z) = 0.34042 0.19513
#
# Static dielectric constant tensor:
#      x y z
#    x 2.845800 0.000000 -0.168380 
#    y 0.000000 2.959590 0.000000 
#    z -0.168380 0.000000 3.738370 
# 
# 
# High freq. dielectric constant tensor:
#      x y z
#    x 1.598070 0.000000 -0.015510 
#    y 0.000000 1.622500 0.000000 
#    z -0.015510 0.000000 1.662720 
# 
# From -- ./inp_files/280202.got.cif
#   From: 2010.06.25/outbox.cif.g09.slc.cpg/sg12_141_cif.got.tgz:280202.got - 2010.06.28 00:19:55.
