data_PCOD8080580
_publ_section_title
;
Structure prediction by ZEFSAII (Michael W. Deem and Ramdas Pophale) SiO2 
 PCOD8080580
Probable space group: C 2/M
;
_chemical_formula_sum "Si O2"
_cell_formula_units_Z 64
_cell_length_a 23.179609
_cell_length_b 9.506565
_cell_length_c 22.718129
_cell_angle_alpha 90.000000
_cell_angle_beta 44.726221
_cell_angle_gamma 90.000000
_cell_volume 3522.914756
_symmetry_space_group_name_H-M "C 2/M"
_symmetry_group_IT_number 12
_symmetry_cell_setting 'monoclinic'
loop_
_space_group_symop_operation_xyz
x,y,z
-x,y,-z
-x,-y,-z
x,-y,z
1/2+x,1/2+y,z
1/2-x,1/2+y,-z
1/2-x,1/2-y,-z
1/2+x,1/2-y,z
loop_
_atom_site_type_symbol
_atom_site_label
_atom_site_fract_x
_atom_site_fract_y
_atom_site_fract_z
Si Si1 0.922695 0.844500 0.693530
Si Si2 0.200192 0.663021 0.585399
Si Si3 0.275499 0.335817 0.656020
Si Si4 0.288239 0.336944 0.060393
Si Si5 0.232722 0.344978 0.816448
Si Si6 0.082906 0.652180 0.408826
Si Si7 0.865041 0.343417 0.907131
Si Si8 0.991208 0.341562 0.277875
O O1 0.825932 0.853973 0.769724
O O2 0.946213 0.738880 0.625632
O O3 0.964630 0.782251 0.720131
O O4 0.959102 0.000000 0.655288
O O5 0.217196 0.500000 0.559402
O O6 0.250000 0.750000 0.500000
O O7 0.226333 0.701573 0.632879
O O8 0.104128 0.698060 0.655590
O O9 0.300005 0.500000 0.641407
O O10 0.226501 0.296834 0.752119
O O11 0.357118 0.242867 0.593625
O O12 0.309533 0.500000 0.051463
O O13 0.307529 0.267009 0.110072
O O14 0.194741 0.312901 0.105737
O O15 0.350674 0.269602 0.968353
O O16 0.192077 0.500000 0.853028
O O17 0.123846 0.500000 0.362690
O O18 0.000000 0.616083 0.500000
O O19 0.843771 0.500000 0.946549
O O20 0.961040 0.337895 0.819278
O O21 0.001340 0.500000 0.297331
#
# Coordination Sequence:
#
# PCOD8080580 Si02
#       8
#     8   8   8   8   8   8   8   8
#     4  10  20  32  50  77 106 139 175 216 267 321
#     4  10  23  41  60  80 106 141 185 231 274 320
#     4   9  20  38  55  76 104 138 180 224 268 320
#     4  10  18  28  48  79 112 142 173 213 262 319
#     4   9  17  31  51  74 105 140 173 212 262 317
#     4  10  21  34  51  75 103 134 169 218 272 327
#     4   9  18  31  48  74 110 146 177 214 261 317
#     4  10  20  36  56  77 107 144 182 226 270 318
#
# _framework density 18.166775999999999
#
# number of rings (size 3 to 8) (size 9 to 14) (size 15 to 20)
#    0.000    2.375    1.250    1.875    1.750    5.000 
#    0.000    0.000    0.000    0.750    0.000    5.250 
#    0.000    0.000    0.000    0.000    0.000    0.000 
#
# Total GULP energy -396494.567400 kJ/mol
# GULP energy per Si atom -12390.455231 kJ/mol
# Density = 1.812543 g / cm^3
# Si number density = 18.166776 Si / 1000 Ang^3
#
#
#
# Elastic Constant Matrix: (Units=GPa)
#
#
# Indices 1 2 3 4 5 6 
#
# 1 73.4397 39.9351 43.7291 0.0010 21.9245 -0.0024
# 2 39.9351 116.1813 53.3636 0.0022 18.2138 -0.0053
# 3 43.7291 53.3636 94.0714 0.0004 3.9457 -0.0015
# 4 0.0010 0.0022 0.0004 31.6285 -0.0004 5.3078
# 5 21.9245 18.2138 3.9457 -0.0004 25.1811 0.0013
# 6 -0.0024 -0.0053 -0.0015 5.3078 0.0013 20.7037
#
#
#
# Elastic Compliance Matrix: (Units=1/GPa)
#
#
# Indices 1 2 3 4 5 6 
#
# 1 0.027095 -0.000823 -0.011238 -0.000002 -0.021235 0.000004
# 2 -0.000823 0.013234 -0.006798 -0.000002 -0.007791 0.000004
# 3 -0.011238 -0.006798 0.019220 0.000001 0.011690 -0.000003
# 4 -0.000002 -0.000002 0.000001 0.033039 0.000003 -0.008470
# 5 -0.021235 -0.007791 0.011690 0.000003 0.062004 -0.000008
# 6 0.000004 0.000004 -0.000003 -0.008470 -0.000008 0.050472
#
#
# Mechanical properties :
#
#
# Convention : Reuss Voigt Hill
#
# Bulk Modulus (GPa) = 45.80444 61.97201 53.88823
# Shear Modulus (GPa) = 19.99551 25.28031 22.63791
#
# Velocity S-wave (km/s) = 3.32122 3.73442 3.53387
# Velocity P-wave (km/s) = 6.32261 7.26508 6.81017
#
# Compressibility (1/GPa) = 0.02183195
#
# Stress axis : x y z
#
# Youngs Moduli (GPa) = 36.90763 75.56465 52.02943
#
# Poissons Ratio (x) = 0.06217 0.58469
# Poissons Ratio (y) = 0.03037 0.35369
# Poissons Ratio (z) = 0.41475 0.51368
#
# Static dielectric constant tensor:
#      x y z
#    x 3.388470 0.000000 0.305380 
#    y 0.000000 3.577210 0.000000 
#    z 0.305380 0.000000 3.381220 
# 
# 
# High freq. dielectric constant tensor:
#      x y z
#    x 1.670390 0.000000 0.017200 
#    y 0.000000 1.718720 0.000000 
#    z 0.017200 0.000000 1.692620 
# 
# From -- ./inp_files/345933.got.cif
#   From: 2010.06.25/outbox.cif.g09.slc.cpg/sg12_173_cif.got.tgz:345933.got - 2010.06.28 00:19:55.
