data_PCOD8080341
_publ_section_title
;
Structure prediction by ZEFSAII (Michael W. Deem and Ramdas Pophale) SiO2 
 PCOD8080341
Probable space group: C 2/M
;
_chemical_formula_sum "Si O2"
_cell_formula_units_Z 48
_cell_length_a 29.942258
_cell_length_b 10.467728
_cell_length_c 19.066976
_cell_angle_alpha 90.000000
_cell_angle_beta 24.840475
_cell_angle_gamma 90.000000
_cell_volume 2510.524722
_symmetry_space_group_name_H-M "C 2/M"
_symmetry_group_IT_number 12
_symmetry_cell_setting 'monoclinic'
loop_
_space_group_symop_operation_xyz
x,y,z
-x,y,-z
-x,-y,-z
x,-y,z
1/2+x,1/2+y,z
1/2-x,1/2+y,-z
1/2-x,1/2-y,-z
1/2+x,1/2-y,z
loop_
_atom_site_type_symbol
_atom_site_label
_atom_site_fract_x
_atom_site_fract_y
_atom_site_fract_z
Si Si1 0.792648 0.500000 0.013049
Si Si2 0.890497 0.500000 0.614131
Si Si3 0.828311 0.355351 0.241500
Si Si4 0.314009 0.251384 0.663833
Si Si5 0.376638 0.754180 0.954454
Si Si6 0.695921 0.500000 0.998255
Si Si7 0.607205 0.500000 0.389229
Si Si8 0.480597 0.855935 0.140011
O O1 0.864867 0.373441 0.918060
O O2 0.706121 0.500000 0.196748
O O3 0.736068 0.500000 0.019621
O O4 0.883491 0.623248 0.573281
O O5 0.796320 0.500000 0.804167
O O6 0.000000 0.500000 0.500000
O O7 0.784415 0.500000 0.311696
O O8 0.735733 0.262096 0.343960
O O9 0.874424 0.305589 0.250856
O O10 0.922803 0.357187 0.051428
O O11 0.220865 0.251303 0.853228
O O12 0.389676 0.373555 0.567359
O O13 0.378279 0.623573 0.908086
O O14 0.488012 0.767216 0.838497
O O15 0.500000 0.500000 0.500000
O O16 0.461498 0.000000 0.194307
#
# Coordination Sequence:
#
# PCOD8080341 Si02
#       8
#     4   4   8   8   8   4   4   8
#     4  10  18  30  45  61  85 113 146 176 209 252
#     4  10  20  32  43  57  85 119 148 174 211 256
#     4   8  12  20  37  60  83 107 136 169 209 256
#     4   9  16  27  41  60  85 112 139 173 213 252
#     4   9  16  27  41  60  85 113 140 172 213 251
#     4  10  20  30  43  61  85 115 146 180 211 246
#     4  10  18  28  45  65  85 109 142 178 211 246
#     4   8  12  20  37  59  83 110 136 165 208 260
#
# _framework density 19.119509000000001
#
# number of rings (size 3 to 8) (size 9 to 14) (size 15 to 20)
#    0.000    3.000    1.667    2.000    0.000    0.000 
#    0.000    0.833    0.000    5.000    0.000    0.000 
#    0.000    8.000    0.000    0.000    0.000    0.000 
#
# Total GULP energy -297388.542338 kJ/mol
# GULP energy per Si atom -12391.189264 kJ/mol
# Density = 1.907599 g / cm^3
# Si number density = 19.119509 Si / 1000 Ang^3
#
#
#
# Elastic Constant Matrix: (Units=GPa)
#
#
# Indices 1 2 3 4 5 6 
#
# 1 165.2405 91.8638 22.3043 0.0000 -60.2276 0.0000
# 2 91.8638 166.7868 24.0094 0.0001 -38.7666 -0.0001
# 3 22.3043 24.0094 19.5552 0.0001 -23.8861 0.0000
# 4 0.0000 0.0001 0.0001 9.7851 0.0000 -10.3105
# 5 -60.2276 -38.7666 -23.8861 0.0000 39.6275 0.0000
# 6 0.0000 -0.0001 0.0000 -10.3105 0.0000 27.4296
#
#
#
# Elastic Compliance Matrix: (Units=1/GPa)
#
#
# Indices 1 2 3 4 5 6 
#
# 1 0.037931 -0.010217 0.104227 -0.000001 0.110478 0.000000
# 2 -0.010217 0.010517 -0.029040 0.000000 -0.022744 0.000000
# 3 0.104227 -0.029040 0.480409 -0.000005 0.419573 -0.000001
# 4 -0.000001 0.000000 -0.000005 0.169220 -0.000004 0.063608
# 5 0.110478 -0.022744 0.419573 -0.000004 0.423800 -0.000001
# 6 0.000000 0.000000 -0.000001 0.063608 -0.000001 0.060367
#
#
# Mechanical properties :
#
#
# Convention : Reuss Voigt Hill
#
# Bulk Modulus (GPa) = 1.51792 69.77084 35.64438
# Shear Modulus (GPa) = 3.93112 29.59543 16.76327
#
# Velocity S-wave (km/s) = 1.43546 3.93863 2.96423
# Velocity P-wave (km/s) = 1.88229 7.56670 5.51352
#
# Compressibility (1/GPa) = 0.65879607
#
# Stress axis : x y z
#
# Youngs Moduli (GPa) = 26.36390 95.08501 2.08156
#
# Poissons Ratio (x) = 0.97145 -0.21695
# Poissons Ratio (y) = 0.26935 0.06045
# Poissons Ratio (z) = -2.74782 2.76131
#
# Static dielectric constant tensor:
#      x y z
#    x 3.690440 0.000000 -0.375880 
#    y 0.000000 3.728430 0.000000 
#    z -0.375880 0.000000 2.843400 
# 
# 
# High freq. dielectric constant tensor:
#      x y z
#    x 1.750590 0.000000 -0.039380 
#    y 0.000000 1.735740 0.000000 
#    z -0.039380 0.000000 1.681960 
# 
# From -- ./inp_files/181714.got.cif
#   From: 2010.06.25/outbox.cif.g09.slc.cpg/sg12_91_cif.got.tgz:181714.got - 2010.06.28 00:19:55.
