data_PCOD8080428
_publ_section_title
;
Structure prediction by ZEFSAII (Michael W. Deem and Ramdas Pophale) SiO2 
 PCOD8080428
Probable space group: C 2/M
;
_chemical_formula_sum "Si O2"
_cell_formula_units_Z 64
_cell_length_a 20.442127
_cell_length_b 9.179442
_cell_length_c 23.921933
_cell_angle_alpha 90.000000
_cell_angle_beta 123.549752
_cell_angle_gamma 90.000000
_cell_volume 3741.066104
_symmetry_space_group_name_H-M "C 2/M"
_symmetry_group_IT_number 12
_symmetry_cell_setting 'monoclinic'
loop_
_space_group_symop_operation_xyz
x,y,z
-x,y,-z
-x,-y,-z
x,-y,z
1/2+x,1/2+y,z
1/2-x,1/2+y,-z
1/2-x,1/2-y,-z
1/2+x,1/2-y,z
loop_
_atom_site_type_symbol
_atom_site_label
_atom_site_fract_x
_atom_site_fract_y
_atom_site_fract_z
Si Si1 0.710453 0.664658 0.562627
Si Si2 0.910328 0.666349 0.961728
Si Si3 0.022233 0.168424 0.837465
Si Si4 0.619596 0.832943 0.178283
Si Si5 0.790167 0.164169 0.691356
Si Si6 0.869050 0.336493 0.566572
Si Si7 0.553322 0.661415 0.307713
Si Si8 0.671114 0.330784 0.978100
O O1 0.684186 0.500000 0.563364
O O2 0.721535 0.750730 0.626027
O O3 0.790181 0.665798 0.565219
O O4 0.642079 0.742409 0.494744
O O5 0.908091 0.500000 0.982787
O O6 0.867695 0.678797 0.881883
O O7 0.863841 0.770068 0.981198
O O8 0.000000 0.720266 0.000000
O O9 0.110861 0.195437 0.898679
O O10 0.965514 0.268269 0.847497
O O11 0.015491 0.208383 0.768099
O O12 0.996508 0.000000 0.834023
O O13 0.690192 0.746280 0.241571
O O14 0.621501 0.000000 0.199608
O O15 0.867076 0.162609 0.689918
O O16 0.761669 0.000000 0.690737
O O17 0.891782 0.500000 0.560092
O O18 0.940388 0.270821 0.637104
O O19 0.538042 0.500000 0.324722
O O20 0.689108 0.500000 0.995154
O O21 0.750000 0.250000 0.000000
#
# Coordination Sequence:
#
# PCOD8080428 Si02
#       8
#     8   8   8   8   8   8   8   8
#     4   9  15  22  32  46  69 104 144 181 222 270
#     4  10  20  35  53  75 100 127 160 203 248 292
#     4   9  18  31  46  65  89 119 154 194 238 286
#     4  10  18  28  46  68  91 118 152 195 239 283
#     4   9  16  25  36  53  80 110 144 186 229 274
#     4   9  15  21  30  47  70 100 140 181 222 267
#     4   8  14  24  36  51  74 104 141 183 225 269
#     4  11  23  37  54  74  99 130 164 203 249 300
#
# _framework density 17.107424000000002
#
# number of rings (size 3 to 8) (size 9 to 14) (size 15 to 20)
#    0.000    2.625    1.250    2.625    0.000    7.750 
#    0.000    0.000    0.000    0.000    0.000    0.000 
#    0.000    0.000    0.000    1.125    0.000   23.000 
#
# Total GULP energy -396736.505907 kJ/mol
# GULP energy per Si atom -12398.015810 kJ/mol
# Density = 1.706849 g / cm^3
# Si number density = 17.107424 Si / 1000 Ang^3
#
#
#
# Elastic Constant Matrix: (Units=GPa)
#
#
# Indices 1 2 3 4 5 6 
#
# 1 45.6238 36.6163 31.9355 0.0000 1.3063 0.0000
# 2 36.6163 145.1795 81.1864 0.0000 1.8860 0.0000
# 3 31.9355 81.1864 145.9704 0.0000 3.2503 0.0000
# 4 0.0000 0.0000 0.0000 34.9397 0.0000 -1.2578
# 5 1.3063 1.8860 3.2503 0.0000 7.5800 0.0000
# 6 0.0000 0.0000 0.0000 -1.2578 0.0000 15.9152
#
#
#
# Elastic Compliance Matrix: (Units=1/GPa)
#
#
# Indices 1 2 3 4 5 6 
#
# 1 0.028540 -0.005378 -0.003204 0.000000 -0.002207 0.000000
# 2 -0.005378 0.011011 -0.004954 0.000000 0.000312 0.000000
# 3 -0.003204 -0.004954 0.010366 0.000000 -0.002660 0.000000
# 4 0.000000 0.000000 0.000000 0.028702 0.000000 0.002268
# 5 -0.002207 0.000312 -0.002660 0.000000 0.133370 0.000000
# 6 0.000000 0.000000 0.000000 0.002268 0.000000 0.063012
#
#
# Mechanical properties :
#
#
# Convention : Reuss Voigt Hill
#
# Bulk Modulus (GPa) = 43.77271 70.69444 57.23358
# Shear Modulus (GPa) = 16.14516 24.15601 20.15058
#
# Velocity S-wave (km/s) = 3.07539 3.76176 3.43576
# Velocity P-wave (km/s) = 6.18492 7.76411 7.01906
#
# Compressibility (1/GPa) = 0.02284528
#
# Stress axis : x y z
#
# Youngs Moduli (GPa) = 35.03813 90.81833 96.46495
#
# Poissons Ratio (x) = 0.48842 0.30905
# Poissons Ratio (y) = 0.18844 0.47793
# Poissons Ratio (z) = 0.11225 0.44996
#
# Static dielectric constant tensor:
#      x y z
#    x 2.545350 0.000000 0.067920 
#    y 0.000000 3.408600 0.000000 
#    z 0.067920 0.000000 3.570480 
# 
# 
# High freq. dielectric constant tensor:
#      x y z
#    x 1.567690 0.000000 0.001280 
#    y 0.000000 1.675960 0.000000 
#    z 0.001280 0.000000 1.682940 
# 
# From -- ./inp_files/345626.got.cif
#   From: 2010.06.25/outbox.cif.g09.slc.cpg/sg12_173_cif.got.tgz:345626.got - 2010.06.28 00:19:55.
