data_PCOD8080795
_publ_section_title
;
Structure prediction by ZEFSAII (Michael W. Deem and Ramdas Pophale) SiO2 
 PCOD8080795
Probable space group: C 2/M
;
_chemical_formula_sum "Si O2"
_cell_formula_units_Z 64
_cell_length_a 27.606711
_cell_length_b 9.000633
_cell_length_c 14.800451
_cell_angle_alpha 90.000000
_cell_angle_beta 93.521870
_cell_angle_gamma 90.000000
_cell_volume 3670.639199
_symmetry_space_group_name_H-M "C 2/M"
_symmetry_group_IT_number 12
_symmetry_cell_setting 'monoclinic'
loop_
_space_group_symop_operation_xyz
x,y,z
-x,y,-z
-x,-y,-z
x,-y,z
1/2+x,1/2+y,z
1/2-x,1/2+y,-z
1/2-x,1/2-y,-z
1/2+x,1/2-y,z
loop_
_atom_site_type_symbol
_atom_site_label
_atom_site_fract_x
_atom_site_fract_y
_atom_site_fract_z
Si Si1 0.493473 0.176039 0.602481
Si Si2 0.444563 0.323562 0.239838
Si Si3 0.409231 0.667736 0.981375
Si Si4 0.137793 0.326546 0.858377
Si Si5 0.092188 0.336323 0.291170
Si Si6 0.016717 0.667836 0.119887
Si Si7 0.662891 0.663529 0.192352
Si Si8 0.253091 0.826904 0.096296
O O1 0.500000 0.223018 0.500000
O O2 0.533722 0.260017 0.665517
O O3 0.439652 0.227304 0.628664
O O4 0.499999 0.000000 0.618859
O O5 0.446206 0.500000 0.242994
O O6 0.389713 0.261942 0.224832
O O7 0.471774 0.265632 0.152007
O O8 0.420294 0.500000 0.018099
O O9 0.459707 0.755948 0.966956
O O10 0.378762 0.657672 0.886873
O O11 0.377168 0.759667 0.047305
O O12 0.124383 0.500000 0.853557
O O13 0.195037 0.300886 0.851154
O O14 0.110273 0.500000 0.317533
O O15 0.057316 0.337658 0.201131
O O16 0.141344 0.245779 0.277829
O O17 0.999335 0.500000 0.095384
O O18 0.676689 0.500000 0.227753
O O19 0.711599 0.740372 0.157943
O O20 0.242228 0.000000 0.078192
O O21 0.250000 0.750000 0.000000
#
# Coordination Sequence:
#
# PCOD8080795 Si02
#       8
#     8   8   8   8   8   8   8   8
#     4   9  18  35  58  81 105 131 159 192 236 297
#     4  11  22  35  50  71 100 129 161 202 248 294
#     4  10  18  29  46  68  95 126 165 210 254 292
#     4  11  22  34  48  66  93 131 173 210 249 296
#     4   8  15  27  46  73  99 125 157 192 234 287
#     4   9  17  31  48  66  93 128 168 203 239 291
#     4   9  17  29  45  67  97 129 162 206 252 289
#     4  10  20  33  49  69  93 128 174 218 256 293
#
# _framework density 17.435656000000002
#
# number of rings (size 3 to 8) (size 9 to 14) (size 15 to 20)
#    0.000    2.375    1.250    3.000    0.000    5.250 
#    0.000    2.500    0.000    0.000    0.000    0.875 
#    0.000    0.000    0.000    0.000    0.000    0.000 
#
# Total GULP energy -396714.555100 kJ/mol
# GULP energy per Si atom -12397.329847 kJ/mol
# Density = 1.739597 g / cm^3
# Si number density = 17.435656 Si / 1000 Ang^3
#
#
#
# Elastic Constant Matrix: (Units=GPa)
#
#
# Indices 1 2 3 4 5 6 
#
# 1 121.6346 51.7167 40.9789 0.0000 -18.0673 0.0000
# 2 51.7167 95.7094 32.7725 0.0000 -4.0805 0.0000
# 3 40.9789 32.7725 74.2587 0.0000 -19.4486 0.0000
# 4 0.0000 0.0000 0.0000 17.2117 0.0000 -3.4882
# 5 -18.0673 -4.0805 -19.4486 0.0000 23.1547 0.0000
# 6 0.0000 0.0000 0.0000 -3.4882 0.0000 25.9308
#
#
#
# Elastic Compliance Matrix: (Units=1/GPa)
#
#
# Indices 1 2 3 4 5 6 
#
# 1 0.012446 -0.005508 -0.002754 0.000000 0.006428 0.000000
# 2 -0.005508 0.014918 -0.005104 0.000000 -0.005956 0.000000
# 3 -0.002754 -0.005104 0.021077 0.000000 0.014655 0.000000
# 4 0.000000 0.000000 0.000000 0.059728 0.000000 0.008035
# 5 0.006428 -0.005956 0.014655 0.000000 0.059463 0.000000
# 6 0.000000 0.000000 0.000000 0.008035 0.000000 0.039645
#
#
# Mechanical properties :
#
#
# Convention : Reuss Voigt Hill
#
# Bulk Modulus (GPa) = 46.06415 60.28210 53.17313
# Shear Modulus (GPa) = 20.72571 24.33508 22.53039
#
# Velocity S-wave (km/s) = 3.45149 3.73997 3.59862
# Velocity P-wave (km/s) = 6.50850 7.30061 6.91591
#
# Compressibility (1/GPa) = 0.02170886
#
# Stress axis : x y z
#
# Youngs Moduli (GPa) = 80.34853 67.03094 47.44505
#
# Poissons Ratio (x) = 0.36921 0.13065
# Poissons Ratio (y) = 0.44257 0.24217
# Poissons Ratio (z) = 0.22126 0.34215
#
# Static dielectric constant tensor:
#      x y z
#    x 3.479200 0.000000 -0.156060 
#    y 0.000000 3.432240 0.000000 
#    z -0.156060 0.000000 2.964830 
# 
# 
# High freq. dielectric constant tensor:
#      x y z
#    x 1.674280 0.000000 -0.008820 
#    y 0.000000 1.679510 0.000000 
#    z -0.008820 0.000000 1.630790 
# 
# From -- ./inp_files/244095.got.cif
#   From: 2010.06.25/outbox.cif.g09.slc.cpg/sg12_123_cif.got.tgz:244095.got - 2010.06.28 00:19:55.
