data_PCOD8080420
_publ_section_title
;
Structure prediction by ZEFSAII (Michael W. Deem and Ramdas Pophale) SiO2 
 PCOD8080420
Probable space group: C 2/M
;
_chemical_formula_sum "Si O2"
_cell_formula_units_Z 64
_cell_length_a 24.716661
_cell_length_b 9.256767
_cell_length_c 32.992960
_cell_angle_alpha 90.000000
_cell_angle_beta 153.248594
_cell_angle_gamma 90.000000
_cell_volume 3397.809808
_symmetry_space_group_name_H-M "C 2/M"
_symmetry_group_IT_number 12
_symmetry_cell_setting 'monoclinic'
loop_
_space_group_symop_operation_xyz
x,y,z
-x,y,-z
-x,-y,-z
x,-y,z
1/2+x,1/2+y,z
1/2-x,1/2+y,-z
1/2-x,1/2-y,-z
1/2+x,1/2-y,z
loop_
_atom_site_type_symbol
_atom_site_label
_atom_site_fract_x
_atom_site_fract_y
_atom_site_fract_z
Si Si1 0.784435 0.337183 0.922433
Si Si2 0.255464 0.828973 0.693213
Si Si3 0.072393 0.828402 0.639887
Si Si4 0.933925 0.334149 0.694122
Si Si5 0.978072 0.668781 0.111637
Si Si6 0.412700 0.664606 0.142699
Si Si7 0.374514 0.169369 0.243208
Si Si8 0.315364 0.332361 0.441852
O O1 0.772980 0.500000 0.897164
O O2 0.707480 0.321132 0.911754
O O3 0.740457 0.224784 0.859221
O O4 0.921156 0.304115 0.028610
O O5 0.154708 0.779752 0.657514
O O6 0.385258 0.772070 0.795376
O O7 0.221617 0.763780 0.626399
O O8 0.261333 0.000000 0.694343
O O9 0.124440 0.752380 0.714162
O O10 0.938770 0.766125 0.541719
O O11 0.074474 0.000000 0.648344
O O12 0.962080 0.500000 0.724438
O O13 0.790044 0.308388 0.595213
O O14 0.977204 0.235866 0.759692
O O15 0.001124 0.293782 0.697296
O O16 0.971287 0.500000 0.117858
O O17 0.896676 0.753050 0.089702
O O18 0.446591 0.500000 0.156534
O O19 0.359288 0.000000 0.240498
O O20 0.340552 0.500000 0.451126
#
# Coordination Sequence:
#
# PCOD8080420 Si02
#       8
#     8   8   8   8   8   8   8   8
#     4   9  19  33  51  75 102 134 172 211 250 297
#     4   9  17  31  54  81 104 129 169 213 253 299
#     4  10  20  34  55  78 100 133 174 216 255 295
#     4   9  17  32  53  75 101 136 172 207 251 303
#     4  10  18  31  52  76 103 135 169 208 253 302
#     4  10  18  28  45  75 110 136 163 202 254 307
#     4  10  21  36  53  73 103 140 174 208 253 305
#     4   9  16  30  55  82 103 126 167 216 257 299
#
# _framework density 18.835663
#
# number of rings (size 3 to 8) (size 9 to 14) (size 15 to 20)
#    0.000    2.500    1.250    1.500    0.000    3.500 
#    0.000    1.875    0.000    4.500    0.000    0.000 
#    0.000    0.000    0.000    0.000    0.000    0.000 
#
# Total GULP energy -396690.433482 kJ/mol
# GULP energy per Si atom -12396.576046 kJ/mol
# Density = 1.879279 g / cm^3
# Si number density = 18.835663 Si / 1000 Ang^3
#
#
#
# Elastic Constant Matrix: (Units=GPa)
#
#
# Indices 1 2 3 4 5 6 
#
# 1 38.4007 13.9580 11.5349 0.0030 -12.3653 0.0009
# 2 13.9580 48.6573 21.5735 0.0023 -6.9505 0.0004
# 3 11.5349 21.5735 95.7429 0.0076 -3.9042 0.0020
# 4 0.0030 0.0023 0.0076 17.6536 0.0013 -5.4816
# 5 -12.3653 -6.9505 -3.9042 0.0013 22.2692 0.0002
# 6 0.0009 0.0004 0.0020 -5.4816 0.0002 19.3019
#
#
#
# Elastic Compliance Matrix: (Units=1/GPa)
#
#
# Indices 1 2 3 4 5 6 
#
# 1 0.034415 -0.006611 -0.001976 -0.000006 0.016700 -0.000003
# 2 -0.006611 0.025006 -0.004703 0.000000 0.003309 0.000000
# 3 -0.001976 -0.004703 0.011722 -0.000005 -0.000510 -0.000002
# 4 -0.000006 0.000000 -0.000005 0.062124 -0.000008 0.017643
# 5 0.016700 0.003309 -0.000510 -0.000008 0.055121 -0.000004
# 6 -0.000003 0.000000 -0.000002 0.017643 -0.000004 0.056819
#
#
# Mechanical properties :
#
#
# Convention : Reuss Voigt Hill
#
# Bulk Modulus (GPa) = 22.43992 30.77041 26.60516
# Shear Modulus (GPa) = 17.44342 20.89392 19.16867
#
# Velocity S-wave (km/s) = 3.04647 3.33419 3.19357
# Velocity P-wave (km/s) = 4.93092 5.58517 5.26821
#
# Compressibility (1/GPa) = 0.04456344
#
# Stress axis : x y z
#
# Youngs Moduli (GPa) = 29.05707 39.98975 85.31242
#
# Poissons Ratio (x) = 0.26437 0.16854
# Poissons Ratio (y) = 0.19210 0.40124
# Poissons Ratio (z) = 0.05741 0.18808
#
# Static dielectric constant tensor:
#      x y z
#    x 3.351950 0.000000 0.120380 
#    y 0.000000 3.209320 0.000000 
#    z 0.120380 0.000000 3.610290 
# 
# 
# High freq. dielectric constant tensor:
#      x y z
#    x 1.715150 0.000000 0.004400 
#    y 0.000000 1.699470 0.000000 
#    z 0.004400 0.000000 1.738210 
# 
# From -- ./inp_files/243998.got.cif
#   From: 2010.06.25/outbox.cif.g09.slc.cpg/sg12_122_cif.got.tgz:243998.got - 2010.06.28 00:19:55.
