data_PCOD8080611
_publ_section_title
;
Structure prediction by ZEFSAII (Michael W. Deem and Ramdas Pophale) SiO2 
 PCOD8080611
Probable space group: C 2/M
;
_chemical_formula_sum "Si O2"
_cell_formula_units_Z 52
_cell_length_a 18.790526
_cell_length_b 18.804334
_cell_length_c 14.344993
_cell_angle_alpha 90.000000
_cell_angle_beta 144.886215
_cell_angle_gamma 90.000000
_cell_volume 2915.531111
_symmetry_space_group_name_H-M "C 2/M"
_symmetry_group_IT_number 12
_symmetry_cell_setting 'monoclinic'
loop_
_space_group_symop_operation_xyz
x,y,z
-x,y,-z
-x,-y,-z
x,-y,z
1/2+x,1/2+y,z
1/2-x,1/2+y,-z
1/2-x,1/2-y,-z
1/2+x,1/2-y,z
loop_
_atom_site_type_symbol
_atom_site_label
_atom_site_fract_x
_atom_site_fract_y
_atom_site_fract_z
Si Si1 0.994605 0.500000 0.884546
Si Si2 0.862895 0.359041 0.389903
Si Si3 0.424891 0.151491 0.823239
Si Si4 0.559158 0.000000 0.461870
Si Si5 0.550973 0.250149 0.806733
Si Si6 0.671642 0.000000 0.921349
Si Si7 0.695810 0.733045 0.542448
Si Si8 0.742002 0.144635 0.918660
O O1 0.132895 0.500000 0.988732
O O2 0.925790 0.572450 0.778788
O O3 0.000000 0.500000 0.000000
O O4 0.861657 0.427604 0.457635
O O5 0.798089 0.298475 0.380263
O O6 0.776001 0.374628 0.208453
O O7 0.000000 0.339060 0.500000
O O8 0.489066 0.208339 0.825165
O O9 0.279406 0.171418 0.679739
O O10 0.500000 0.152330 0.000000
O O11 0.500000 0.000000 0.500000
O O12 0.456918 0.000000 0.272777
O O13 0.448687 0.285826 0.628632
O O14 0.630186 0.194279 0.832541
O O15 0.629533 0.314988 0.930925
O O16 0.749526 0.070866 0.983729
O O17 0.750000 0.750000 0.500000
#
# Coordination Sequence:
#
# PCOD8080611 Si02
#       8
#     4   8   8   4   8   4   8   8
#     4  10  22  36  55  79 103 140 195 230 273 317
#     4  11  18  33  52  85 112 138 177 234 274 322
#     4  10  20  37  56  77 104 141 183 229 271 318
#     4  10  18  28  54  83 113 129 186 220 282 317
#     4  10  20  34  50  83 105 146 178 218 270 327
#     4  12  18  34  55  82 111 144 174 240 275 328
#     4  10  21  35  53  77 113 143 181 220 269 330
#     4  11  20  31  56  79 114 138 181 221 278 329
#
# _framework density 17.835515999999998
#
# number of rings (size 3 to 8) (size 9 to 14) (size 15 to 20)
#    0.000    1.538    6.154    0.923    2.154    0.000 
#    0.000    0.769    0.000    2.769    0.000   12.385 
#    0.000    0.000    0.000    0.000    0.000    0.000 
#
# Total GULP energy -322235.524411 kJ/mol
# GULP energy per Si atom -12393.674016 kJ/mol
# Density = 1.779492 g / cm^3
# Si number density = 17.835516 Si / 1000 Ang^3
#
#
#
# Elastic Constant Matrix: (Units=GPa)
#
#
# Indices 1 2 3 4 5 6 
#
# 1 64.4928 37.6302 15.7173 0.0000 -1.6129 0.0000
# 2 37.6302 140.2538 46.1340 0.0000 17.6382 0.0000
# 3 15.7173 46.1340 94.7935 0.0000 12.1416 0.0000
# 4 0.0000 0.0000 0.0000 16.7616 0.0000 3.6083
# 5 -1.6129 17.6382 12.1416 0.0000 26.3425 0.0000
# 6 0.0000 0.0000 0.0000 3.6083 0.0000 32.6583
#
#
#
# Elastic Compliance Matrix: (Units=1/GPa)
#
#
# Indices 1 2 3 4 5 6 
#
# 1 0.019082 -0.005388 -0.001226 0.000000 0.005341 0.000000
# 2 -0.005388 0.010430 -0.003450 0.000000 -0.005724 0.000000
# 3 -0.001226 -0.003450 0.012907 0.000000 -0.003714 0.000000
# 4 0.000000 0.000000 0.000000 0.061114 0.000000 -0.006752
# 5 0.005341 -0.005724 -0.003714 0.000000 0.043833 0.000000
# 6 0.000000 0.000000 0.000000 -0.006752 0.000000 0.031366
#
#
# Mechanical properties :
#
#
# Convention : Reuss Voigt Hill
#
# Bulk Modulus (GPa) = 44.85904 55.38921 50.12412
# Shear Modulus (GPa) = 24.23784 28.48973 26.36379
#
# Velocity S-wave (km/s) = 3.69041 4.00103 3.84886
# Velocity P-wave (km/s) = 6.58521 7.24344 6.92215
#
# Compressibility (1/GPa) = 0.02229205
#
# Stress axis : x y z
#
# Youngs Moduli (GPa) = 52.40599 95.87669 77.47692
#
# Poissons Ratio (x) = 0.51660 0.09496
# Poissons Ratio (y) = 0.28237 0.26726
# Poissons Ratio (z) = 0.06423 0.33074
#
# Static dielectric constant tensor:
#      x y z
#    x 3.388530 0.000000 0.001380 
#    y 0.000000 3.840510 0.000000 
#    z 0.001380 0.000000 3.587580 
# 
# 
# High freq. dielectric constant tensor:
#      x y z
#    x 1.681630 0.000000 -0.018850 
#    y 0.000000 1.692080 0.000000 
#    z -0.018850 0.000000 1.680740 
# 
# From -- ./inp_files/234461.got.cif
#   From: 2010.06.25/outbox.cif.g09.slc.cpg/sg12_118_cif.got.tgz:234461.got - 2010.06.28 00:19:55.
