data_PCOD8080113
_publ_section_title
;
Structure prediction by ZEFSAII (Michael W. Deem and Ramdas Pophale) SiO2 
 PCOD8080113
Probable space group: C 2/M
;
_chemical_formula_sum "Si O2"
_cell_formula_units_Z 40
_cell_length_a 20.616837
_cell_length_b 9.353924
_cell_length_c 14.423879
_cell_angle_alpha 90.000000
_cell_angle_beta 59.172094
_cell_angle_gamma 90.000000
_cell_volume 2388.606828
_symmetry_space_group_name_H-M "C 2/M"
_symmetry_group_IT_number 12
_symmetry_cell_setting 'monoclinic'
loop_
_space_group_symop_operation_xyz
x,y,z
-x,y,-z
-x,-y,-z
x,-y,z
1/2+x,1/2+y,z
1/2-x,1/2+y,-z
1/2-x,1/2-y,-z
1/2+x,1/2-y,z
loop_
_atom_site_type_symbol
_atom_site_label
_atom_site_fract_x
_atom_site_fract_y
_atom_site_fract_z
Si Si1 0.908590 0.332071 0.769045
Si Si2 0.705511 0.665888 0.455343
Si Si3 0.969237 0.833412 0.421735
Si Si4 0.224643 0.165894 0.235087
Si Si5 0.186526 0.661884 0.998138
O O1 0.913355 0.500000 0.742667
O O2 0.842024 0.262936 0.756755
O O3 0.987618 0.257659 0.687870
O O4 0.893001 0.304513 0.891729
O O5 0.716232 0.500000 0.468396
O O6 0.750000 0.750000 0.500000
O O7 0.617945 0.708941 0.521073
O O8 0.740118 0.708000 0.329907
O O9 0.000000 0.790161 0.500000
O O10 0.983043 0.000000 0.392316
O O11 0.304132 0.189365 0.119744
O O12 0.197682 0.000000 0.249919
O O13 0.207508 0.500000 0.004792
O O14 0.250000 0.750000 0.000000
#
# Coordination Sequence:
#
# PCOD8080113 Si02
#       5
#     8   8   8   8   8
#     4  10  18  27  45  77 104 122 154 206 250 277
#     4  10  21  35  52  72  96 129 166 202 241 289
#     4  10  19  34  52  70  96 132 168 196 237 298
#     4   9  16  31  50  67  95 135 166 192 236 296
#     4   8  15  26  43  68  97 125 157 195 239 287
#
# _framework density 16.746162999999999
#
# number of rings (size 3 to 8) (size 9 to 14) (size 15 to 20)
#    0.000    2.600    2.000    0.600    0.000    2.800 
#    0.000    0.000    0.000    1.200    0.000    8.400 
#    0.000    0.000    0.000    0.000    0.000    0.000 
#
# Total GULP energy -247765.045087 kJ/mol
# GULP energy per Si atom -12388.252254 kJ/mol
# Density = 1.670805 g / cm^3
# Si number density = 16.746163 Si / 1000 Ang^3
#
#
#
# Elastic Constant Matrix: (Units=GPa)
#
#
# Indices 1 2 3 4 5 6 
#
# 1 85.0291 36.0531 65.2342 0.0000 4.1596 0.0000
# 2 36.0531 59.1466 64.2063 0.0000 -2.7417 0.0000
# 3 65.2342 64.2063 190.0908 0.0000 -1.4261 0.0000
# 4 0.0000 0.0000 0.0000 27.8268 0.0000 -2.2400
# 5 4.1596 -2.7417 -1.4261 0.0000 16.6009 0.0000
# 6 0.0000 0.0000 0.0000 -2.2400 0.0000 25.4468
#
#
#
# Elastic Compliance Matrix: (Units=1/GPa)
#
#
# Indices 1 2 3 4 5 6 
#
# 1 0.017998 -0.007098 -0.003824 0.000000 -0.006011 0.000000
# 2 -0.007098 0.029716 -0.007556 0.000000 0.006037 0.000000
# 3 -0.003824 -0.007556 0.009129 0.000000 0.000495 0.000000
# 4 0.000000 0.000000 0.000000 0.036193 0.000000 0.003186
# 5 -0.006011 0.006037 0.000495 0.000000 0.062783 0.000000
# 6 0.000000 0.000000 0.000000 0.003186 0.000000 0.039578
#
#
# Mechanical properties :
#
#
# Convention : Reuss Voigt Hill
#
# Bulk Modulus (GPa) = 50.28510 73.91707 62.10108
# Shear Modulus (GPa) = 20.92202 25.22643 23.07423
#
# Velocity S-wave (km/s) = 3.53847 3.88545 3.71601
# Velocity P-wave (km/s) = 6.84013 8.02275 7.45493
#
# Compressibility (1/GPa) = 0.01988661
#
# Stress axis : x y z
#
# Youngs Moduli (GPa) = 55.56084 33.65191 109.54391
#
# Poissons Ratio (x) = 0.23887 0.41890
# Poissons Ratio (y) = 0.39439 0.82769
# Poissons Ratio (z) = 0.21247 0.25427
#
# Static dielectric constant tensor:
#      x y z
#    x 2.600730 0.000000 -0.112810 
#    y 0.000000 3.162030 0.000000 
#    z -0.112810 0.000000 4.038950 
# 
# 
# High freq. dielectric constant tensor:
#      x y z
#    x 1.583770 0.000000 -0.008510 
#    y 0.000000 1.649900 0.000000 
#    z -0.008510 0.000000 1.675930 
# 
# From -- ./inp_files/162746.got.cif
#   From: 2010.06.25/outbox.cif.g09.slc.cpg/sg12_82_cif.got.tgz:162746.got - 2010.06.28 00:19:55.
