data_PCOD8080032
_publ_section_title
;
Structure prediction by ZEFSAII (Michael W. Deem and Ramdas Pophale) SiO2 
 PCOD8080032
Probable space group: C 2/M
;
_chemical_formula_sum "Si O2"
_cell_formula_units_Z 56
_cell_length_a 27.124661
_cell_length_b 8.627877
_cell_length_c 16.221770
_cell_angle_alpha 90.000000
_cell_angle_beta 65.370314
_cell_angle_gamma 90.000000
_cell_volume 3450.961289
_symmetry_space_group_name_H-M "C 2/M"
_symmetry_group_IT_number 12
_symmetry_cell_setting 'monoclinic'
loop_
_space_group_symop_operation_xyz
x,y,z
-x,y,-z
-x,-y,-z
x,-y,z
1/2+x,1/2+y,z
1/2-x,1/2+y,-z
1/2-x,1/2-y,-z
1/2+x,1/2-y,z
loop_
_atom_site_type_symbol
_atom_site_label
_atom_site_fract_x
_atom_site_fract_y
_atom_site_fract_z
Si Si1 0.848907 0.681894 0.306766
Si Si2 0.768403 0.819979 0.866476
Si Si3 0.549102 0.181722 0.868171
Si Si4 0.936903 0.819415 0.967417
Si Si5 0.757776 0.318191 0.698093
Si Si6 0.664279 0.179777 0.042120
Si Si7 0.697757 0.179493 0.497123
O O1 0.837937 0.500000 0.298203
O O2 0.906615 0.732521 0.230159
O O3 0.801835 0.777464 0.294338
O O4 0.851248 0.718327 0.404784
O O5 0.771563 0.779912 0.768674
O O6 0.813913 0.722327 0.882631
O O7 0.780432 0.000000 0.872385
O O8 0.709083 0.776199 0.942376
O O9 0.494150 0.274000 0.886120
O O10 0.536883 0.000000 0.873055
O O11 0.571675 0.223555 0.942689
O O12 0.889213 0.779355 0.937580
O O13 0.936733 0.000000 0.988667
O O14 0.759522 0.500000 0.718322
O O15 0.804404 0.268396 0.597633
O O16 0.649036 0.000000 0.049782
O O17 0.750000 0.250000 0.500000
O O18 0.708668 0.000000 0.486643
#
# Coordination Sequence:
#
# PCOD8080032 Si02
#       7
#     8   8   8   8   8   8   8
#     4   9  17  29  45  64  89 120 152 186 220 257
#     4  10  20  32  47  67  90 117 149 182 217 259
#     4  10  19  31  47  66  88 118 154 186 219 259
#     4  11  21  32  46  65  91 119 147 183 223 263
#     4  10  18  27  43  66  93 122 149 180 218 263
#     4  10  20  34  49  65  88 117 149 184 219 258
#     4   8  15  27  41  61  88 117 148 180 217 259
#
# _framework density 16.227363
#
# number of rings (size 3 to 8) (size 9 to 14) (size 15 to 20)
#    0.000    2.286    0.000    4.714    0.000    6.857 
#    0.000    0.000    0.000    0.000    0.000    1.000 
#    0.000    8.000    0.000    0.000    0.000    0.000 
#
# Total GULP energy -347022.597407 kJ/mol
# GULP energy per Si atom -12393.664193 kJ/mol
# Density = 1.619043 g / cm^3
# Si number density = 16.227363 Si / 1000 Ang^3
#
#
#
# Elastic Constant Matrix: (Units=GPa)
#
#
# Indices 1 2 3 4 5 6 
#
# 1 76.0560 19.0266 42.2439 0.0000 -1.4612 0.0000
# 2 19.0266 39.3599 18.1134 0.0000 -2.3727 0.0000
# 3 42.2439 18.1134 130.7513 0.0000 -5.4461 0.0000
# 4 0.0000 0.0000 0.0000 19.2721 0.0000 2.7878
# 5 -1.4612 -2.3727 -5.4461 0.0000 22.3212 0.0000
# 6 0.0000 0.0000 0.0000 2.7878 0.0000 24.9808
#
#
#
# Elastic Compliance Matrix: (Units=1/GPa)
#
#
# Indices 1 2 3 4 5 6 
#
# 1 0.017342 -0.006230 -0.004769 0.000000 -0.000691 0.000000
# 2 -0.006230 0.029463 -0.001975 0.000000 0.002242 0.000000
# 3 -0.004769 -0.001975 0.009538 0.000000 0.001805 0.000000
# 4 0.000000 0.000000 0.000000 0.052740 0.000000 -0.005886
# 5 -0.000691 0.002242 0.001805 0.000000 0.045434 0.000000
# 6 0.000000 0.000000 0.000000 -0.005886 0.000000 0.040688
#
#
# Mechanical properties :
#
#
# Convention : Reuss Voigt Hill
#
# Bulk Modulus (GPa) = 32.90136 44.99277 38.94707
# Shear Modulus (GPa) = 21.61850 24.43372 23.02611
#
# Velocity S-wave (km/s) = 3.65393 3.88456 3.77101
# Velocity P-wave (km/s) = 6.17421 6.92145 6.55848
#
# Compressibility (1/GPa) = 0.03039388
#
# Stress axis : x y z
#
# Youngs Moduli (GPa) = 57.66271 33.94145 104.84807
#
# Poissons Ratio (x) = 0.21147 0.49999
# Poissons Ratio (y) = 0.35926 0.20710
# Poissons Ratio (z) = 0.27497 0.06704
#
# Static dielectric constant tensor:
#      x y z
#    x 2.805960 0.000000 -0.118810 
#    y 0.000000 3.973690 0.000000 
#    z -0.118810 0.000000 3.546010 
# 
# 
# High freq. dielectric constant tensor:
#      x y z
#    x 1.587070 0.000000 -0.002580 
#    y 0.000000 1.636810 0.000000 
#    z -0.002580 0.000000 1.627600 
# 
# From -- ./inp_files/243023.got.cif
#   From: 2010.06.25/outbox.cif.g09.slc.cpg/sg12_122_cif.got.tgz:243023.got - 2010.06.28 00:19:55.
