data_PCOD8080997
_publ_section_title
;
Structure prediction by ZEFSAII (Michael W. Deem and Ramdas Pophale) SiO2 
 PCOD8080997
Probable space group: C 2/M
;
_chemical_formula_sum "Si O2"
_cell_formula_units_Z 56
_cell_length_a 26.632232
_cell_length_b 12.693677
_cell_length_c 12.709997
_cell_angle_alpha 90.000000
_cell_angle_beta 45.070411
_cell_angle_gamma 90.000000
_cell_volume 3041.995096
_symmetry_space_group_name_H-M "C 2/M"
_symmetry_group_IT_number 12
_symmetry_cell_setting 'monoclinic'
loop_
_space_group_symop_operation_xyz
x,y,z
-x,y,-z
-x,-y,-z
x,-y,z
1/2+x,1/2+y,z
1/2-x,1/2+y,-z
1/2-x,1/2-y,-z
1/2+x,1/2-y,z
loop_
_atom_site_type_symbol
_atom_site_label
_atom_site_fract_x
_atom_site_fract_y
_atom_site_fract_z
Si Si1 0.346168 0.809443 0.633525
Si Si2 0.251735 0.617618 0.815692
Si Si3 0.312561 0.834664 0.300443
Si Si4 0.036717 0.619087 0.847325
Si Si5 0.650261 0.120296 0.146396
Si Si6 0.492990 0.873385 0.337538
Si Si7 0.240847 0.881879 0.615099
O O1 0.319968 0.688733 0.685166
O O2 0.321403 0.867888 0.776930
O O3 0.431504 0.817772 0.497603
O O4 0.310908 0.864073 0.583645
O O5 0.278949 0.500000 0.804405
O O6 0.200352 0.608027 0.790730
O O7 0.206411 0.669150 0.979469
O O8 0.380515 0.879398 0.256901
O O9 0.252118 0.865268 0.473730
O O10 0.316170 0.708428 0.270812
O O11 0.007943 0.500000 0.885059
O O12 0.016647 0.670783 0.766465
O O13 0.000000 0.679256 0.000000
O O14 0.570460 0.168071 0.258147
O O15 0.643678 0.000000 0.122049
O O16 0.483925 0.000000 0.362530
O O17 0.211567 0.000000 0.678671
#
# Coordination Sequence:
#
# PCOD8080997 Si02
#       7
#     8   8   8   8   8   8   8
#     4  11  20  32  52  77 104 132 167 209 254 298
#     4  10  21  35  51  74 103 136 172 206 248 301
#     4  10  19  31  49  72  99 128 159 200 245 293
#     4  10  18  29  48  73 102 131 159 200 253 306
#     4  10  20  34  52  75 104 134 164 207 260 306
#     4  10  19  31  50  77 103 128 163 207 257 305
#     4  10  19  31  49  73  99 126 160 201 247 294
#
# _framework density 18.408971000000001
#
# number of rings (size 3 to 8) (size 9 to 14) (size 15 to 20)
#    0.000    1.857    1.429    4.286    0.000    3.429 
#    0.000    0.000    0.000    2.143    0.000    4.000 
#    0.000    0.000    0.000    0.000    0.000    0.000 
#
# Total GULP energy -346974.105431 kJ/mol
# GULP energy per Si atom -12391.932337 kJ/mol
# Density = 1.836707 g / cm^3
# Si number density = 18.408971 Si / 1000 Ang^3
#
#
#
# Elastic Constant Matrix: (Units=GPa)
#
#
# Indices 1 2 3 4 5 6 
#
# 1 48.2032 12.2179 21.5329 0.0000 11.6974 0.0000
# 2 12.2179 80.6602 28.9213 0.0000 -7.1030 0.0000
# 3 21.5329 28.9213 97.5233 0.0000 16.5293 0.0000
# 4 0.0000 0.0000 0.0000 21.1670 0.0000 -0.5969
# 5 11.6974 -7.1030 16.5293 0.0000 31.2596 0.0000
# 6 0.0000 0.0000 0.0000 -0.5969 0.0000 17.2793
#
#
#
# Elastic Compliance Matrix: (Units=1/GPa)
#
#
# Indices 1 2 3 4 5 6 
#
# 1 0.025061 -0.003450 -0.003062 0.000000 -0.008543 0.000000
# 2 -0.003450 0.015396 -0.005070 0.000000 0.007471 0.000000
# 3 -0.003062 -0.005070 0.013659 0.000000 -0.007229 0.000000
# 4 0.000000 0.000000 0.000000 0.047289 0.000000 0.001634
# 5 -0.008543 0.007471 -0.007229 0.000000 0.040707 0.000000
# 6 0.000000 0.000000 0.000000 0.001634 0.000000 0.057929
#
#
# Mechanical properties :
#
#
# Convention : Reuss Voigt Hill
#
# Bulk Modulus (GPa) = 32.30975 39.08120 35.69547
# Shear Modulus (GPa) = 21.41108 24.85548 23.13328
#
# Velocity S-wave (km/s) = 3.41409 3.67847 3.54874
# Velocity P-wave (km/s) = 5.75592 6.27033 6.01862
#
# Compressibility (1/GPa) = 0.03095041
#
# Stress axis : x y z
#
# Youngs Moduli (GPa) = 39.90253 64.95131 73.21229
#
# Poissons Ratio (x) = 0.22411 0.22420
# Poissons Ratio (y) = 0.13768 0.37120
# Poissons Ratio (z) = 0.12219 0.32932
#
# Static dielectric constant tensor:
#      x y z
#    x 3.343210 0.000000 0.236760 
#    y 0.000000 3.213480 0.000000 
#    z 0.236760 0.000000 3.565610 
# 
# 
# High freq. dielectric constant tensor:
#      x y z
#    x 1.708990 0.000000 0.027420 
#    y 0.000000 1.675430 0.000000 
#    z 0.027420 0.000000 1.718930 
# 
# From -- ./inp_files/182432.got.cif
#   From: 2010.06.25/outbox.cif.g09.slc.cpg/sg12_92_cif.got.tgz:182432.got - 2010.06.28 00:19:55.
