data_PCOD8080095
_publ_section_title
;
Structure prediction by ZEFSAII (Michael W. Deem and Ramdas Pophale) SiO2 
 PCOD8080095
Probable space group: C 2/M
;
_chemical_formula_sum "Si O2"
_cell_formula_units_Z 64
_cell_length_a 20.115037
_cell_length_b 9.251694
_cell_length_c 19.775881
_cell_angle_alpha 90.000000
_cell_angle_beta 79.453515
_cell_angle_gamma 90.000000
_cell_volume 3618.083675
_symmetry_space_group_name_H-M "C 2/M"
_symmetry_group_IT_number 12
_symmetry_cell_setting 'monoclinic'
loop_
_space_group_symop_operation_xyz
x,y,z
-x,y,-z
-x,-y,-z
x,-y,z
1/2+x,1/2+y,z
1/2-x,1/2+y,-z
1/2-x,1/2-y,-z
1/2+x,1/2-y,z
loop_
_atom_site_type_symbol
_atom_site_label
_atom_site_fract_x
_atom_site_fract_y
_atom_site_fract_z
Si Si1 0.120098 0.667965 0.709949
Si Si2 0.254258 0.170601 0.730280
Si Si3 0.897685 0.831784 0.921545
Si Si4 0.516993 0.166299 0.839526
Si Si5 0.204969 0.332839 0.417918
Si Si6 0.378922 0.167464 0.060378
Si Si7 0.233137 0.832363 0.138773
Si Si8 0.663823 0.833740 0.562319
O O1 0.138474 0.500000 0.720746
O O2 0.180801 0.763884 0.727803
O O3 0.050895 0.706676 0.761282
O O4 0.107700 0.697763 0.631164
O O5 0.307545 0.207664 0.658639
O O6 0.285296 0.241447 0.791300
O O7 0.246435 0.000000 0.743202
O O8 0.823189 0.801601 0.906881
O O9 0.951918 0.766533 0.859544
O O10 0.912368 0.000000 0.927356
O O11 0.905907 0.757376 0.992273
O O12 0.571411 0.198818 0.887282
O O13 0.493699 0.000000 0.846026
O O14 0.222925 0.500000 0.416180
O O15 0.271211 0.254178 0.429821
O O16 0.145677 0.298154 0.485748
O O17 0.304300 0.220249 0.095010
O O18 0.378458 0.000000 0.039639
O O19 0.236433 0.000000 0.158652
O O20 0.684417 0.000000 0.563170
#
# Coordination Sequence:
#
# PCOD8080095 Si02
#       8
#     8   8   8   8   8   8   8   8
#     4   9  16  29  48  69  95 132 169 197 233 287
#     4  10  18  27  45  72 100 128 160 202 245 284
#     4  11  24  37  52  75 101 126 159 206 249 289
#     4  10  20  35  54  74  99 132 165 198 240 290
#     4   8  14  23  35  61  97 125 152 193 241 279
#     4  10  20  37  58  74  94 127 163 200 243 294
#     4  10  21  38  54  71  98 131 165 200 242 293
#     4   8  13  22  39  61  90 127 161 191 229 281
#
# _framework density 17.688921000000001
#
# number of rings (size 3 to 8) (size 9 to 14) (size 15 to 20)
#    0.000    2.500    1.250    1.500    0.000    4.500 
#    0.000    0.000    0.000    0.000    0.000    0.875 
#    0.000    7.000    0.000    0.000    0.000    0.000 
#
# Total GULP energy -396420.065464 kJ/mol
# GULP energy per Si atom -12388.127046 kJ/mol
# Density = 1.764866 g / cm^3
# Si number density = 17.688921 Si / 1000 Ang^3
#
#
#
# Elastic Constant Matrix: (Units=GPa)
#
#
# Indices 1 2 3 4 5 6 
#
# 1 44.0896 15.3379 14.6680 0.0000 -12.1832 0.0000
# 2 15.3379 48.2801 35.5959 0.0000 -5.0513 0.0000
# 3 14.6680 35.5959 131.2811 0.0000 -26.3718 0.0000
# 4 0.0000 0.0000 0.0000 24.8926 0.0000 -0.9341
# 5 -12.1832 -5.0513 -26.3718 0.0000 13.7536 0.0000
# 6 0.0000 0.0000 0.0000 -0.9341 0.0000 20.4592
#
#
#
# Elastic Compliance Matrix: (Units=1/GPa)
#
#
# Indices 1 2 3 4 5 6 
#
# 1 0.036404 -0.013044 0.008108 0.000000 0.043003 0.000000
# 2 -0.013044 0.030915 -0.011329 0.000000 -0.021922 0.000000
# 3 0.008108 -0.011329 0.016899 0.000000 0.035424 0.000000
# 4 0.000000 0.000000 0.000000 0.040242 0.000000 0.001837
# 5 0.043003 -0.021922 0.035424 0.000000 0.170674 0.000000
# 6 0.000000 0.000000 0.000000 0.001837 0.000000 0.048962
#
#
# Mechanical properties :
#
#
# Convention : Reuss Voigt Hill
#
# Bulk Modulus (GPa) = 19.34642 39.42827 29.38734
# Shear Modulus (GPa) = 12.69505 22.35767 17.52636
#
# Velocity S-wave (km/s) = 2.68187 3.55904 3.15113
# Velocity P-wave (km/s) = 4.53328 6.26317 5.46708
#
# Compressibility (1/GPa) = 0.05168916
#
# Stress axis : x y z
#
# Youngs Moduli (GPa) = 27.46933 32.34668 59.17464
#
# Poissons Ratio (x) = 0.42191 -0.47977
# Poissons Ratio (y) = 0.35830 0.67038
# Poissons Ratio (z) = -0.22271 0.36645
#
# Static dielectric constant tensor:
#      x y z
#    x 2.814000 0.000000 -0.202240 
#    y 0.000000 3.262960 0.000000 
#    z -0.202240 0.000000 4.080210 
# 
# 
# High freq. dielectric constant tensor:
#      x y z
#    x 1.625870 0.000000 -0.015020 
#    y 0.000000 1.685580 0.000000 
#    z -0.015020 0.000000 1.714150 
# 
# From -- ./inp_files/319139.got.cif
#   From: 2010.06.25/outbox.cif.g09.slc.cpg/sg12_160_cif.got.tgz:319139.got - 2010.06.28 00:19:55.
