data_PCOD8080974
_publ_section_title
;
Structure prediction by ZEFSAII (Michael W. Deem and Ramdas Pophale) SiO2 
 PCOD8080974
Probable space group: C 2/M
;
_chemical_formula_sum "Si O2"
_cell_formula_units_Z 48
_cell_length_a 20.447752
_cell_length_b 8.935422
_cell_length_c 27.997796
_cell_angle_alpha 90.000000
_cell_angle_beta 148.145549
_cell_angle_gamma 90.000000
_cell_volume 2699.750495
_symmetry_space_group_name_H-M "C 2/M"
_symmetry_group_IT_number 12
_symmetry_cell_setting 'monoclinic'
loop_
_space_group_symop_operation_xyz
x,y,z
-x,y,-z
-x,-y,-z
x,-y,z
1/2+x,1/2+y,z
1/2-x,1/2+y,-z
1/2-x,1/2-y,-z
1/2+x,1/2-y,z
loop_
_atom_site_type_symbol
_atom_site_label
_atom_site_fract_x
_atom_site_fract_y
_atom_site_fract_z
Si Si1 0.021210 0.822354 0.726531
Si Si2 0.247112 0.166197 0.925905
Si Si3 0.126188 0.677064 0.443698
Si Si4 0.115917 0.671366 0.273000
Si Si5 0.936284 0.166452 0.098602
Si Si6 0.108893 0.829025 0.532478
O O1 0.162717 0.780009 0.828926
O O2 0.991366 0.740248 0.658501
O O3 0.925027 0.767556 0.706872
O O4 0.005153 0.000000 0.711546
O O5 0.158935 0.166634 0.917005
O O6 0.298149 0.000000 0.948276
O O7 0.366255 0.271168 0.008081
O O8 0.135317 0.500000 0.443187
O O9 0.250000 0.750000 0.500000
O O10 0.107202 0.718560 0.486744
O O11 0.074194 0.500000 0.254872
O O12 0.263241 0.685975 0.359043
O O13 0.054186 0.732461 0.185893
O O14 0.983275 0.000000 0.116141
O O15 0.000000 0.778184 0.500000
O O16 0.090271 0.000000 0.503267
#
# Coordination Sequence:
#
# PCOD8080974 Si02
#       6
#     8   8   8   8   8   8
#     4  10  19  31  49  73 102 133 168 212 257 306
#     4   8  15  26  40  63  95 129 163 202 250 302
#     4  12  23  35  54  78 105 138 176 216 260 312
#     4  10  18  29  48  71  98 134 171 210 256 308
#     4   9  16  25  40  63  95 131 165 205 250 301
#     4  10  22  39  56  76 104 138 177 220 263 308
#
# _framework density 17.779420999999999
#
# number of rings (size 3 to 8) (size 9 to 14) (size 15 to 20)
#    0.000    2.167    1.667    4.000    0.000    5.667 
#    0.000    0.000    0.000    0.000    0.000    1.167 
#    0.000    9.333    0.000    0.000    0.000    0.000 
#
# Total GULP energy -297565.645594 kJ/mol
# GULP energy per Si atom -12398.568566 kJ/mol
# Density = 1.773895 g / cm^3
# Si number density = 17.779421 Si / 1000 Ang^3
#
#
#
# Elastic Constant Matrix: (Units=GPa)
#
#
# Indices 1 2 3 4 5 6 
#
# 1 53.4973 35.4365 40.1725 0.0000 -0.7097 0.0000
# 2 35.4365 127.7776 70.4433 0.0000 -10.2912 0.0001
# 3 40.1725 70.4433 145.7119 0.0001 -18.9482 0.0001
# 4 0.0000 0.0000 0.0001 33.3144 0.0000 -7.1156
# 5 -0.7097 -10.2912 -18.9482 0.0000 17.2875 0.0000
# 6 0.0000 0.0001 0.0001 -7.1156 0.0000 17.9369
#
#
#
# Elastic Compliance Matrix: (Units=1/GPa)
#
#
# Indices 1 2 3 4 5 6 
#
# 1 0.026186 -0.004575 -0.006090 0.000000 -0.008324 0.000000
# 2 -0.004575 0.011479 -0.003993 0.000000 0.002269 0.000000
# 3 -0.006090 -0.003993 0.011815 0.000000 0.010323 0.000000
# 4 0.000000 0.000000 0.000000 0.032796 0.000000 0.013010
# 5 -0.008324 0.002269 0.010323 0.000000 0.070169 0.000000
# 6 0.000000 0.000000 0.000000 0.013010 0.000000 0.060912
#
#
# Mechanical properties :
#
#
# Convention : Reuss Voigt Hill
#
# Bulk Modulus (GPa) = 49.59539 68.78793 59.19166
# Shear Modulus (GPa) = 20.04866 25.77005 22.90935
#
# Velocity S-wave (km/s) = 3.36167 3.81127 3.59351
# Velocity P-wave (km/s) = 6.55920 7.62505 7.11212
#
# Compressibility (1/GPa) = 0.02016316
#
# Stress axis : x y z
#
# Youngs Moduli (GPa) = 38.18869 87.11568 84.64126
#
# Poissons Ratio (x) = 0.39856 0.51546
# Poissons Ratio (y) = 0.17472 0.33797
# Poissons Ratio (z) = 0.23257 0.34785
#
# Static dielectric constant tensor:
#      x y z
#    x 2.748260 0.000000 -0.201870 
#    y 0.000000 3.465550 0.000000 
#    z -0.201870 0.000000 3.757430 
# 
# 
# High freq. dielectric constant tensor:
#      x y z
#    x 1.613510 0.000000 -0.016380 
#    y 0.000000 1.700340 0.000000 
#    z -0.016380 0.000000 1.708630 
# 
# From -- ./inp_files/345691.got.cif
#   From: 2010.06.25/outbox.cif.g09.slc.cpg/sg12_173_cif.got.tgz:345691.got - 2010.06.28 00:19:55.
