data_PCOD8080668
_publ_section_title
;
Structure prediction by ZEFSAII (Michael W. Deem and Ramdas Pophale) SiO2 
 PCOD8080668
Probable space group: C 2/M
;
_chemical_formula_sum "Si O2"
_cell_formula_units_Z 56
_cell_length_a 26.981549
_cell_length_b 9.121859
_cell_length_c 14.569186
_cell_angle_alpha 90.000000
_cell_angle_beta 75.280960
_cell_angle_gamma 90.000000
_cell_volume 3468.121815
_symmetry_space_group_name_H-M "C 2/M"
_symmetry_group_IT_number 12
_symmetry_cell_setting 'monoclinic'
loop_
_space_group_symop_operation_xyz
x,y,z
-x,y,-z
-x,-y,-z
x,-y,z
1/2+x,1/2+y,z
1/2-x,1/2+y,-z
1/2-x,1/2-y,-z
1/2+x,1/2-y,z
loop_
_atom_site_type_symbol
_atom_site_label
_atom_site_fract_x
_atom_site_fract_y
_atom_site_fract_z
Si Si1 0.803230 0.169277 0.471787
Si Si2 0.113863 0.172645 0.713046
Si Si3 0.428645 0.827426 0.107547
Si Si4 0.458273 0.827549 0.896793
Si Si5 0.544816 0.167802 0.605655
Si Si6 0.890734 0.172958 0.569103
Si Si7 0.070823 0.333148 0.285696
O O1 0.750000 0.250000 0.500000
O O2 0.833015 0.208995 0.363653
O O3 0.837788 0.214141 0.543046
O O4 0.790261 0.000000 0.481467
O O5 0.114782 0.237326 0.816176
O O6 0.067319 0.253683 0.684549
O O7 0.103363 0.000000 0.717888
O O8 0.484261 0.768540 0.114226
O O9 0.421807 0.000000 0.128712
O O10 0.422834 0.791343 0.001739
O O11 0.432665 0.764861 0.815742
O O12 0.464340 0.000000 0.880923
O O13 0.562374 0.251798 0.506328
O O14 0.483979 0.174009 0.639696
O O15 0.564176 0.000000 0.592845
O O16 0.889654 0.235381 0.673398
O O17 0.899856 0.000000 0.565112
O O18 0.091223 0.500000 0.273620
#
# Coordination Sequence:
#
# PCOD8080668 Si02
#       7
#     8   8   8   8   8   8   8
#     4   9  20  36  51  68  90 115 146 188 235 281
#     4  10  19  30  45  69  99 122 147 190 238 279
#     4   9  15  28  47  65  89 127 164 194 225 258
#     4   8  15  27  44  65  92 124 164 202 220 243
#     4  10  18  29  45  64  88 124 165 191 213 259
#     4  10  21  33  44  65  95 120 145 186 237 280
#     4  10  18  29  44  65  91 125 164 192 214 256
#
# _framework density 16.147068000000001
#
# number of rings (size 3 to 8) (size 9 to 14) (size 15 to 20)
#    0.000    2.571    1.429    3.429    0.000    6.286 
#    0.000    2.143    0.000    0.000    0.000    1.000 
#    0.000    0.000    0.000    0.000    0.000    0.000 
#
# Total GULP energy -347068.482121 kJ/mol
# GULP energy per Si atom -12395.302933 kJ/mol
# Density = 1.611032 g / cm^3
# Si number density = 16.147068 Si / 1000 Ang^3
#
#
#
# Elastic Constant Matrix: (Units=GPa)
#
#
# Indices 1 2 3 4 5 6 
#
# 1 66.1402 37.9519 55.4813 0.0000 4.3721 0.0000
# 2 37.9519 74.3694 48.8818 0.0000 4.0471 0.0000
# 3 55.4813 48.8818 128.4978 0.0000 20.4574 0.0000
# 4 0.0000 0.0000 0.0000 23.8679 0.0000 1.7232
# 5 4.3721 4.0471 20.4574 0.0000 19.3137 0.0000
# 6 0.0000 0.0000 0.0000 1.7232 0.0000 22.8341
#
#
#
# Elastic Compliance Matrix: (Units=1/GPa)
#
#
# Indices 1 2 3 4 5 6 
#
# 1 0.027477 -0.007911 -0.009776 0.000000 0.005793 0.000000
# 2 -0.007911 0.020491 -0.004788 0.000000 0.002569 0.000000
# 3 -0.009776 -0.004788 0.016013 0.000000 -0.013745 0.000000
# 4 0.000000 0.000000 0.000000 0.042127 0.000000 -0.003179
# 5 0.005793 0.002569 -0.013745 0.000000 0.064486 0.000000
# 6 0.000000 0.000000 0.000000 -0.003179 0.000000 0.044034
#
#
# Mechanical properties :
#
#
# Convention : Reuss Voigt Hill
#
# Bulk Modulus (GPa) = 52.55028 61.51525 57.03277
# Shear Modulus (GPa) = 18.80249 21.64930 20.22589
#
# Velocity S-wave (km/s) = 3.41611 3.66561 3.54306
# Velocity P-wave (km/s) = 6.94083 7.48967 7.22047
#
# Compressibility (1/GPa) = 0.01902939
#
# Stress axis : x y z
#
# Youngs Moduli (GPa) = 36.39418 48.80189 62.44914
#
# Poissons Ratio (x) = 0.38609 0.61053
# Poissons Ratio (y) = 0.28793 0.29901
# Poissons Ratio (z) = 0.35580 0.23367
#
# Static dielectric constant tensor:
#      x y z
#    x 2.722750 0.000000 0.229910 
#    y 0.000000 2.980600 0.000000 
#    z 0.229910 0.000000 3.377130 
# 
# 
# High freq. dielectric constant tensor:
#      x y z
#    x 1.572670 0.000000 0.016430 
#    y 0.000000 1.614810 0.000000 
#    z 0.016430 0.000000 1.626970 
# 
# From -- ./inp_files/243056.got.cif
#   From: 2010.06.25/outbox.cif.g09.slc.cpg/sg12_122_cif.got.tgz:243056.got - 2010.06.28 00:19:55.
