data_PCOD8080874
_publ_section_title
;
Structure prediction by ZEFSAII (Michael W. Deem and Ramdas Pophale) SiO2 
 PCOD8080874
Probable space group: C 2/M
;
_chemical_formula_sum "Si O2"
_cell_formula_units_Z 64
_cell_length_a 22.348457
_cell_length_b 19.086172
_cell_length_c 16.815393
_cell_angle_alpha 90.000000
_cell_angle_beta 147.431713
_cell_angle_gamma 90.000000
_cell_volume 3861.013633
_symmetry_space_group_name_H-M "C 2/M"
_symmetry_group_IT_number 12
_symmetry_cell_setting 'monoclinic'
loop_
_space_group_symop_operation_xyz
x,y,z
-x,y,-z
-x,-y,-z
x,-y,z
1/2+x,1/2+y,z
1/2-x,1/2+y,-z
1/2-x,1/2-y,-z
1/2+x,1/2-y,z
loop_
_atom_site_type_symbol
_atom_site_label
_atom_site_fract_x
_atom_site_fract_y
_atom_site_fract_z
Si Si1 0.944374 0.919727 0.267365
Si Si2 0.182871 0.080468 0.573648
Si Si3 0.562943 0.169782 0.987034
Si Si4 0.808241 0.168352 0.653689
Si Si5 0.729210 0.420805 0.804973
Si Si6 0.878766 0.183546 0.900541
Si Si7 0.468714 0.419383 0.117489
Si Si8 0.846027 0.672084 0.656669
O O1 0.851726 0.883545 0.220220
O O2 0.067253 0.886664 0.412818
O O3 0.910024 0.913175 0.137220
O O4 0.957171 0.000000 0.309631
O O5 0.171845 0.084808 0.655640
O O6 0.280836 0.129882 0.652034
O O7 0.203616 0.000000 0.568421
O O8 0.476958 0.161690 0.817327
O O9 0.500000 0.156930 0.000000
O O10 0.649268 0.110420 0.063228
O O11 0.634210 0.242648 0.067848
O O12 0.789739 0.170919 0.729140
O O13 0.910106 0.116584 0.747854
O O14 0.833695 0.245341 0.651949
O O15 0.697853 0.145447 0.479738
O O16 0.747935 0.500000 0.853347
O O17 0.000000 0.189484 0.000000
O O18 0.878534 0.117227 0.958894
O O19 0.484914 0.500000 0.109832
#
# Coordination Sequence:
#
# PCOD8080874 Si02
#       8
#     8   8   8   8   8   8   8   8
#     4   9  18  32  46  69  98 125 163 208 247 281
#     4  10  18  29  47  69  97 131 167 201 237 284
#     4  11  18  32  48  69 101 130 161 196 238 289
#     4  10  19  30  48  71  97 130 159 194 245 300
#     4  10  20  31  47  67  95 136 170 198 234 285
#     4   9  17  32  47  69  97 125 157 200 249 293
#     4  10  18  31  52  72  95 123 160 210 256 293
#     4  11  19  30  48  72  99 134 158 189 243 295
#
# _framework density 16.575956999999999
#
# number of rings (size 3 to 8) (size 9 to 14) (size 15 to 20)
#    0.000    2.000    6.250    0.375    0.000    4.500 
#    0.000    0.625    0.000    0.000    0.000    0.875 
#    0.000    3.000    0.000    0.000    0.000    2.125 
#
# Total GULP energy -396471.546106 kJ/mol
# GULP energy per Si atom -12389.735816 kJ/mol
# Density = 1.653823 g / cm^3
# Si number density = 16.575957 Si / 1000 Ang^3
#
#
#
# Elastic Constant Matrix: (Units=GPa)
#
#
# Indices 1 2 3 4 5 6 
#
# 1 53.9476 31.8356 37.4319 0.0000 -7.5942 0.0000
# 2 31.8356 64.3504 25.5110 0.0000 -1.5158 0.0000
# 3 37.4319 25.5110 103.1898 0.0000 -25.9367 0.0000
# 4 0.0000 0.0000 0.0000 16.3193 0.0000 -10.1161
# 5 -7.5942 -1.5158 -25.9367 0.0000 24.7954 0.0000
# 6 0.0000 0.0000 0.0000 -10.1161 0.0000 10.3673
#
#
#
# Elastic Compliance Matrix: (Units=1/GPa)
#
#
# Indices 1 2 3 4 5 6 
#
# 1 0.031662 -0.012332 -0.008396 0.000000 0.000161 0.000000
# 2 -0.012332 0.022430 -0.002275 0.000000 -0.004785 0.000000
# 3 -0.008396 -0.002275 0.017118 0.000000 0.015196 0.000000
# 4 0.000000 0.000000 0.000000 0.155081 0.000000 0.151323
# 5 0.000161 -0.004785 0.015196 0.000000 0.055982 0.000000
# 6 0.000000 0.000000 0.000000 0.151323 0.000000 0.244114
#
#
# Mechanical properties :
#
#
# Convention : Reuss Voigt Hill
#
# Bulk Modulus (GPa) = 39.67440 45.67166 42.67303
# Shear Modulus (GPa) = 8.60892 18.74368 13.67630
#
# Velocity S-wave (km/s) = 2.28142 3.36635 2.87552
# Velocity P-wave (km/s) = 5.56118 6.53625 6.06833
#
# Compressibility (1/GPa) = 0.02520517
#
# Stress axis : x y z
#
# Youngs Moduli (GPa) = 31.58352 44.58389 58.41669
#
# Poissons Ratio (x) = 0.54979 0.49049
# Poissons Ratio (y) = 0.38947 0.13287
# Poissons Ratio (z) = 0.26519 0.10141
#
# Static dielectric constant tensor:
#      x y z
#    x 3.102590 0.000000 -0.456630 
#    y 0.000000 3.178200 0.000000 
#    z -0.456630 0.000000 3.642480 
# 
# 
# High freq. dielectric constant tensor:
#      x y z
#    x 1.606750 0.000000 -0.026550 
#    y 0.000000 1.628120 0.000000 
#    z -0.026550 0.000000 1.638040 
# 
# From -- ./inp_files/290471.got.cif
#   From: 2010.06.25/outbox.cif.g09.slc.cpg/sg12_146_cif.got.tgz:290471.got - 2010.06.28 00:19:55.
