data_PCOD8080302
_publ_section_title
;
Structure prediction by ZEFSAII (Michael W. Deem and Ramdas Pophale) SiO2 
 PCOD8080302
Probable space group: C 2/M
;
_chemical_formula_sum "Si O2"
_cell_formula_units_Z 48
_cell_length_a 23.001773
_cell_length_b 9.103919
_cell_length_c 20.112316
_cell_angle_alpha 90.000000
_cell_angle_beta 136.993292
_cell_angle_gamma 90.000000
_cell_volume 2872.695747
_symmetry_space_group_name_H-M "C 2/M"
_symmetry_group_IT_number 12
_symmetry_cell_setting 'monoclinic'
loop_
_space_group_symop_operation_xyz
x,y,z
-x,y,-z
-x,-y,-z
x,-y,z
1/2+x,1/2+y,z
1/2-x,1/2+y,-z
1/2-x,1/2-y,-z
1/2+x,1/2-y,z
loop_
_atom_site_type_symbol
_atom_site_label
_atom_site_fract_x
_atom_site_fract_y
_atom_site_fract_z
Si Si1 0.801307 0.832600 0.988292
Si Si2 0.368650 0.170677 0.646864
Si Si3 0.651533 0.827673 0.778766
Si Si4 0.455958 0.327216 0.196510
Si Si5 0.206030 0.329038 0.557948
Si Si6 0.095036 0.325481 0.587987
O O1 0.753598 0.799481 0.878116
O O2 0.788238 0.000000 0.995896
O O3 0.750000 0.750000 0.000000
O O4 0.901620 0.795190 0.082462
O O5 0.454140 0.251651 0.739962
O O6 0.292315 0.236636 0.626479
O O7 0.352375 0.197985 0.555348
O O8 0.377261 0.000000 0.670758
O O9 0.591806 0.740149 0.779708
O O10 0.633742 0.769405 0.689904
O O11 0.628415 0.000000 0.765811
O O12 0.469001 0.500000 0.219577
O O13 0.229984 0.500000 0.584933
O O14 0.153876 0.267927 0.577310
O O15 0.092158 0.500000 0.582895
O O16 0.000000 0.260996 0.500000
#
# Coordination Sequence:
#
# PCOD8080302 Si02
#       6
#     8   8   8   8   8   8
#     4   8  15  26  41  63  89 116 146 182 220 258
#     4  10  19  31  48  67  88 116 150 186 222 262
#     4   9  16  28  46  67  92 120 149 180 218 265
#     4  10  18  28  44  67  93 118 148 185 224 261
#     4   9  18  32  48  67  91 117 146 181 221 262
#     4   9  16  27  46  70  93 117 144 175 215 265
#
# _framework density 16.709043999999999
#
# number of rings (size 3 to 8) (size 9 to 14) (size 15 to 20)
#    0.000    2.833    0.000    2.000    0.000    4.000 
#    0.000    0.833    0.000    3.000    0.000    7.000 
#    0.000    0.000    0.000    0.000    0.000    0.000 
#
# Total GULP energy -297372.084963 kJ/mol
# GULP energy per Si atom -12390.503540 kJ/mol
# Density = 1.667101 g / cm^3
# Si number density = 16.709044 Si / 1000 Ang^3
#
#
#
# Elastic Constant Matrix: (Units=GPa)
#
#
# Indices 1 2 3 4 5 6 
#
# 1 107.4151 37.2494 75.2649 0.0000 7.8829 0.0000
# 2 37.2494 57.8850 50.9419 0.0000 12.6373 0.0000
# 3 75.2649 50.9419 162.6464 0.0000 14.3650 0.0000
# 4 0.0000 0.0000 0.0000 21.8196 0.0000 5.4209
# 5 7.8829 12.6373 14.3650 0.0000 24.8902 0.0000
# 6 0.0000 0.0000 0.0000 5.4209 0.0000 21.9477
#
#
#
# Elastic Compliance Matrix: (Units=1/GPa)
#
#
# Indices 1 2 3 4 5 6 
#
# 1 0.014698 -0.004978 -0.005326 0.000000 0.000946 0.000000
# 2 -0.004978 0.027244 -0.005424 0.000000 -0.009126 0.000000
# 3 -0.005326 -0.005424 0.010452 0.000000 -0.001592 0.000000
# 4 0.000000 0.000000 0.000000 0.048827 0.000000 -0.012060
# 5 0.000946 -0.009126 -0.001592 0.000000 0.045429 0.000000
# 6 0.000000 0.000000 0.000000 -0.012060 0.000000 0.048541
#
#
# Mechanical properties :
#
#
# Convention : Reuss Voigt Hill
#
# Bulk Modulus (GPa) = 47.75589 72.76209 60.25899
# Shear Modulus (GPa) = 21.40164 24.69753 23.04958
#
# Velocity S-wave (km/s) = 3.58277 3.84877 3.71815
# Velocity P-wave (km/s) = 6.76446 7.96189 7.38748
#
# Compressibility (1/GPa) = 0.02093983
#
# Stress axis : x y z
#
# Youngs Moduli (GPa) = 68.03426 36.70506 95.67238
#
# Poissons Ratio (x) = 0.18271 0.50957
# Poissons Ratio (y) = 0.33866 0.51889
# Poissons Ratio (z) = 0.36237 0.19907
#
# Static dielectric constant tensor:
#      x y z
#    x 2.905820 0.000000 0.056200 
#    y 0.000000 3.003130 0.000000 
#    z 0.056200 0.000000 3.832950 
# 
# 
# High freq. dielectric constant tensor:
#      x y z
#    x 1.610250 0.000000 0.012470 
#    y 0.000000 1.634460 0.000000 
#    z 0.012470 0.000000 1.659800 
# 
# From -- ./inp_files/230437.got.cif
#   From: 2010.06.25/outbox.cif.g09.slc.cpg/sg12_116_cif.got.tgz:230437.got - 2010.06.28 00:19:55.
