data_PCOD8080083
_publ_section_title
;
Structure prediction by ZEFSAII (Michael W. Deem and Ramdas Pophale) SiO2 
 PCOD8080083
Probable space group: C 2/M
;
_chemical_formula_sum "Si O2"
_cell_formula_units_Z 48
_cell_length_a 23.686926
_cell_length_b 15.439410
_cell_length_c 8.916142
_cell_angle_alpha 90.000000
_cell_angle_beta 90.188209
_cell_angle_gamma 90.000000
_cell_volume 3260.723977
_symmetry_space_group_name_H-M "C 2/M"
_symmetry_group_IT_number 12
_symmetry_cell_setting 'monoclinic'
loop_
_space_group_symop_operation_xyz
x,y,z
-x,y,-z
-x,-y,-z
x,-y,z
1/2+x,1/2+y,z
1/2-x,1/2+y,-z
1/2-x,1/2-y,-z
1/2+x,1/2-y,z
loop_
_atom_site_type_symbol
_atom_site_label
_atom_site_fract_x
_atom_site_fract_y
_atom_site_fract_z
Si Si1 0.993500 0.101638 0.824481
Si Si2 0.604260 0.599226 0.664285
Si Si3 0.781523 0.906227 0.840437
Si Si4 0.721090 0.752546 0.339881
Si Si5 0.116511 0.852074 0.326085
Si Si6 0.781853 0.100455 0.190521
O O1 0.048715 0.139560 0.740845
O O2 0.941739 0.160063 0.763945
O O3 0.982904 0.000000 0.787229
O O4 0.000000 0.117262 0.000000
O O5 0.605101 0.500000 0.713317
O O6 0.601797 0.608101 0.486574
O O7 0.661519 0.639588 0.732858
O O8 0.750181 0.827062 0.755282
O O9 0.844570 0.916467 0.772040
O O10 0.751020 0.000000 0.817049
O O11 0.785978 0.883977 0.014660
O O12 0.750000 0.750000 0.500000
O O13 0.652928 0.737150 0.348713
O O14 0.730334 0.844109 0.258175
O O15 0.771469 0.000000 0.231881
#
# Coordination Sequence:
#
# PCOD8080083 Si02
#       6
#     8   8   8   8   8   8
#     4  10  19  30  43  65  93 125 161 192 225 279
#     4  10  18  27  45  64  90 125 159 189 229 279
#     4   9  18  29  47  66  92 124 156 190 234 281
#     4  10  20  31  46  67  94 126 162 196 236 279
#     4  10  19  28  45  62  96 121 163 182 238 264
#     4  10  18  32  47  68  93 128 162 195 236 278
#
# _framework density 14.720656
#
# number of rings (size 3 to 8) (size 9 to 14) (size 15 to 20)
#    1.000    1.167    1.667    3.500    0.000    4.667 
#    0.000    0.000    0.000    0.000    0.000    0.000 
#    0.000    4.667    0.000    0.000    0.000    0.167 
#
# Total GULP energy -297347.486498 kJ/mol
# GULP energy per Si atom -12389.478604 kJ/mol
# Density = 1.468715 g / cm^3
# Si number density = 14.720656 Si / 1000 Ang^3
#
#
#
# Elastic Constant Matrix: (Units=GPa)
#
#
# Indices 1 2 3 4 5 6 
#
# 1 80.8904 34.3802 31.6793 0.0000 5.3305 0.0000
# 2 34.3802 61.3697 35.1180 0.0000 4.0685 0.0000
# 3 31.6793 35.1180 107.9538 0.0000 2.1057 0.0000
# 4 0.0000 0.0000 0.0000 19.7908 0.0000 0.8446
# 5 5.3305 4.0685 2.1057 0.0000 29.0667 0.0000
# 6 0.0000 0.0000 0.0000 0.8446 0.0000 19.6871
#
#
#
# Elastic Compliance Matrix: (Units=1/GPa)
#
#
# Indices 1 2 3 4 5 6 
#
# 1 0.016762 -0.007958 -0.002295 0.000000 -0.001794 0.000000
# 2 -0.007958 0.023959 -0.005430 0.000000 -0.001501 0.000000
# 3 -0.002295 -0.005430 0.011696 0.000000 0.000334 0.000000
# 4 0.000000 0.000000 0.000000 0.050621 0.000000 -0.002172
# 5 -0.001794 -0.001501 0.000334 0.000000 0.034919 0.000000
# 6 0.000000 0.000000 0.000000 -0.002172 0.000000 0.050888
#
#
# Mechanical properties :
#
#
# Convention : Reuss Voigt Hill
#
# Bulk Modulus (GPa) = 47.50034 50.28543 48.89289
# Shear Modulus (GPa) = 22.00437 23.64468 22.82453
#
# Velocity S-wave (km/s) = 3.87045 4.01212 3.94192
# Velocity P-wave (km/s) = 7.23269 7.46303 7.34876
#
# Compressibility (1/GPa) = 0.02105248
#
# Stress axis : x y z
#
# Youngs Moduli (GPa) = 59.65983 41.73737 85.49602
#
# Poissons Ratio (x) = 0.33214 0.19621
# Poissons Ratio (y) = 0.47477 0.46421
# Poissons Ratio (z) = 0.13692 0.22662
#
# Static dielectric constant tensor:
#      x y z
#    x 2.820910 0.000000 -0.042530 
#    y 0.000000 2.634960 0.000000 
#    z -0.042530 0.000000 2.916650 
# 
# 
# High freq. dielectric constant tensor:
#      x y z
#    x 1.542530 0.000000 -0.002240 
#    y 0.000000 1.521620 0.000000 
#    z -0.002240 0.000000 1.587150 
# 
# From -- ./inp_files/86749.got.cif
#   From: 2010.06.25/outbox.cif.g09.slc.cpg/sg12_44_cif.got.tgz:86749.got - 2010.06.28 00:19:55.
