data_PCOD8080683
_publ_section_title
;
Structure prediction by ZEFSAII (Michael W. Deem and Ramdas Pophale) SiO2 
 PCOD8080683
Probable space group: C 2/M
;
_chemical_formula_sum "Si O2"
_cell_formula_units_Z 56
_cell_length_a 21.476274
_cell_length_b 25.648861
_cell_length_c 16.040052
_cell_angle_alpha 90.000000
_cell_angle_beta 157.361704
_cell_angle_gamma 90.000000
_cell_volume 3400.905654
_symmetry_space_group_name_H-M "C 2/M"
_symmetry_group_IT_number 12
_symmetry_cell_setting 'monoclinic'
loop_
_space_group_symop_operation_xyz
x,y,z
-x,y,-z
-x,-y,-z
x,-y,z
1/2+x,1/2+y,z
1/2-x,1/2+y,-z
1/2-x,1/2-y,-z
1/2+x,1/2-y,z
loop_
_atom_site_type_symbol
_atom_site_label
_atom_site_fract_x
_atom_site_fract_y
_atom_site_fract_z
Si Si1 0.904978 0.313804 0.302756
Si Si2 0.634298 0.365774 0.867891
Si Si3 0.660708 0.681753 0.428361
Si Si4 0.544427 0.559891 0.458932
Si Si5 0.809450 0.355279 0.772430
Si Si6 0.070578 0.295487 0.347011
Si Si7 0.259029 0.701653 0.142002
O O1 0.794399 0.263629 0.189631
O O2 0.000000 0.336598 0.500000
O O3 0.049558 0.296310 0.420179
O O4 0.796990 0.358948 0.124480
O O5 0.485609 0.359088 0.748578
O O6 0.606639 0.421092 0.786855
O O7 0.613710 0.323131 0.767117
O O8 0.772499 0.680996 0.648220
O O9 0.774463 0.669670 0.488646
O O10 0.586591 0.738662 0.327517
O O11 0.500000 0.568088 0.500000
O O12 0.577101 0.500000 0.478101
O O13 0.709843 0.590830 0.643399
O O14 0.741041 0.323325 0.767069
O O15 0.000000 0.367703 0.000000
O O16 0.908726 0.316766 0.105023
#
# Coordination Sequence:
#
# PCOD8080683 Si02
#       7
#     8   8   8   8   8   8   8
#     4  11  21  32  48  70 103 141 177 203 244 296
#     4  10  19  34  51  71  99 133 173 208 252 296
#     4  10  18  29  44  68  97 134 167 213 235 293
#     4  10  21  36  56  77  97 128 172 216 258 305
#     4  11  21  31  48  74 104 136 167 200 259 306
#     4  10  18  30  43  65 102 134 176 200 242 286
#     4  11  18  31  46  72 101 143 166 204 235 307
#
# _framework density 16.466201999999999
#
# number of rings (size 3 to 8) (size 9 to 14) (size 15 to 20)
#    0.000    1.571    5.714    1.714    2.000    0.286 
#    0.000    0.714    0.000    0.429    0.000    0.000 
#    0.000    4.571    0.000    0.000    0.000    0.000 
#
# Total GULP energy -346891.523140 kJ/mol
# GULP energy per Si atom -12388.982969 kJ/mol
# Density = 1.642872 g / cm^3
# Si number density = 16.466202 Si / 1000 Ang^3
#
#
#
# Elastic Constant Matrix: (Units=GPa)
#
#
# Indices 1 2 3 4 5 6 
#
# 1 95.9516 25.9857 44.4377 0.0000 5.2234 0.0000
# 2 25.9857 62.1787 23.9380 0.0000 -3.3818 0.0000
# 3 44.4377 23.9380 80.6535 0.0000 -3.9288 0.0000
# 4 0.0000 0.0000 0.0000 19.3751 0.0000 -1.6947
# 5 5.2234 -3.3818 -3.9288 0.0000 29.7285 0.0000
# 6 0.0000 0.0000 0.0000 -1.6947 0.0000 16.9714
#
#
#
# Elastic Compliance Matrix: (Units=1/GPa)
#
#
# Indices 1 2 3 4 5 6 
#
# 1 0.015066 -0.003663 -0.007411 0.000000 -0.004043 0.000000
# 2 -0.003663 0.019103 -0.003537 0.000000 0.002349 0.000000
# 3 -0.007411 -0.003537 0.017689 0.000000 0.003237 0.000000
# 4 0.000000 0.000000 0.000000 0.052067 0.000000 0.005199
# 5 -0.004043 0.002349 0.003237 0.000000 0.035043 0.000000
# 6 0.000000 0.000000 0.000000 0.005199 0.000000 0.059442
#
#
# Mechanical properties :
#
#
# Convention : Reuss Voigt Hill
#
# Bulk Modulus (GPa) = 44.17635 47.50074 45.83854
# Shear Modulus (GPa) = 21.26044 22.84317 22.05181
#
# Velocity S-wave (km/s) = 3.59716 3.72866 3.66350
# Velocity P-wave (km/s) = 6.64376 6.88819 6.76708
#
# Compressibility (1/GPa) = 0.02263655
#
# Stress axis : x y z
#
# Youngs Moduli (GPa) = 66.37357 52.34736 56.53141
#
# Poissons Ratio (x) = 0.19177 0.41894
# Poissons Ratio (y) = 0.24315 0.19995
# Poissons Ratio (z) = 0.49188 0.18515
#
# Static dielectric constant tensor:
#      x y z
#    x 3.410270 0.000000 0.177880 
#    y 0.000000 2.751790 0.000000 
#    z 0.177880 0.000000 3.177160 
# 
# 
# High freq. dielectric constant tensor:
#      x y z
#    x 1.644160 0.000000 0.012300 
#    y 0.000000 1.578770 0.000000 
#    z 0.012300 0.000000 1.635730 
# 
# From -- ./inp_files/66479.got.cif
#   From: 2010.06.25/outbox.cif.g09.slc.cpg/sg12_34_cif.got.tgz:66479.got - 2010.06.28 00:19:55.
