data_PCOD8080763
_publ_section_title
;
Structure prediction by ZEFSAII (Michael W. Deem and Ramdas Pophale) SiO2 
 PCOD8080763
Probable space group: C 2/M
;
_chemical_formula_sum "Si O2"
_cell_formula_units_Z 64
_cell_length_a 25.353145
_cell_length_b 13.272358
_cell_length_c 22.959670
_cell_angle_alpha 90.000000
_cell_angle_beta 149.829104
_cell_angle_gamma 90.000000
_cell_volume 3882.858089
_symmetry_space_group_name_H-M "C 2/M"
_symmetry_group_IT_number 12
_symmetry_cell_setting 'monoclinic'
loop_
_space_group_symop_operation_xyz
x,y,z
-x,y,-z
-x,-y,-z
x,-y,z
1/2+x,1/2+y,z
1/2-x,1/2+y,-z
1/2-x,1/2-y,-z
1/2+x,1/2-y,z
loop_
_atom_site_type_symbol
_atom_site_label
_atom_site_fract_x
_atom_site_fract_y
_atom_site_fract_z
Si Si1 0.080885 0.795436 0.940137
Si Si2 0.954824 0.116221 0.584249
Si Si3 0.221338 0.116964 0.169492
Si Si4 0.360281 0.300790 0.305720
Si Si5 0.270995 0.615771 0.331932
Si Si6 0.422016 0.616793 0.187749
Si Si7 0.273119 0.115950 0.921227
Si Si8 0.084909 0.240063 0.126031
O O1 0.057109 0.828585 0.852411
O O2 0.972803 0.803967 0.872570
O O3 0.167223 0.864804 0.054913
O O4 0.121097 0.680652 0.973420
O O5 0.831582 0.132385 0.451747
O O6 0.023375 0.188594 0.608230
O O7 0.980742 0.142751 0.676128
O O8 0.988241 0.000000 0.604043
O O9 0.327843 0.182607 0.274057
O O10 0.144647 0.150724 0.148918
O O11 0.249968 0.000000 0.204101
O O12 0.355476 0.346111 0.365554
O O13 0.276566 0.366392 0.189438
O O14 0.242044 0.500000 0.295142
O O15 0.163335 0.675969 0.224769
O O16 0.416945 0.500000 0.169428
O O17 0.311980 0.651234 0.111665
O O18 0.304700 0.000000 0.959305
O O19 0.000000 0.288504 0.000000
#
# Coordination Sequence:
#
# PCOD8080763 Si02
#       8
#     8   8   8   8   8   8   8   8
#     4  10  18  29  46  66  88 122 156 180 221 271
#     4   9  17  29  47  70  93 117 146 184 225 263
#     4   9  18  31  46  67  93 118 150 191 225 259
#     4   9  16  27  46  70  93 117 145 178 225 274
#     4  10  18  29  47  69  93 120 149 180 218 271
#     4   9  17  29  45  66  88 112 148 189 224 260
#     4   9  17  28  43  67  97 118 138 180 229 272
#     4   9  20  32  44  67  92 117 150 186 226 263
#
# _framework density 16.482703000000001
#
# number of rings (size 3 to 8) (size 9 to 14) (size 15 to 20)
#    0.000    2.750    0.000    3.750    0.000    4.500 
#    0.000    0.625    0.000    6.000    0.000    0.000 
#    0.000    0.000    0.000    0.000    0.000    0.000 
#
# Total GULP energy -396664.658929 kJ/mol
# GULP energy per Si atom -12395.770592 kJ/mol
# Density = 1.644519 g / cm^3
# Si number density = 16.482703 Si / 1000 Ang^3
#
#
#
# Elastic Constant Matrix: (Units=GPa)
#
#
# Indices 1 2 3 4 5 6 
#
# 1 69.7771 32.7794 31.0531 0.0000 -12.9861 0.0000
# 2 32.7794 83.4544 33.9730 0.0000 1.5718 0.0000
# 3 31.0531 33.9730 71.9519 0.0000 -3.2170 0.0000
# 4 0.0000 0.0000 0.0000 18.5552 0.0000 -1.4397
# 5 -12.9861 1.5718 -3.2170 0.0000 20.6114 0.0000
# 6 0.0000 0.0000 0.0000 -1.4397 0.0000 15.1475
#
#
#
# Elastic Compliance Matrix: (Units=1/GPa)
#
#
# Indices 1 2 3 4 5 6 
#
# 1 0.022775 -0.006759 -0.006015 0.000000 0.013926 0.000000
# 2 -0.006759 0.016943 -0.005368 0.000000 -0.006389 0.000000
# 3 -0.006015 -0.005368 0.019011 0.000000 -0.000413 0.000000
# 4 0.000000 0.000000 0.000000 0.054294 0.000000 0.005160
# 5 0.013926 -0.006389 -0.000413 0.000000 0.057713 0.000000
# 6 0.000000 0.000000 0.000000 0.005160 0.000000 0.066508
#
#
# Mechanical properties :
#
#
# Convention : Reuss Voigt Hill
#
# Bulk Modulus (GPa) = 44.55703 46.75494 45.65599
# Shear Modulus (GPa) = 17.79287 19.35469 18.57378
#
# Velocity S-wave (km/s) = 3.28912 3.43044 3.36052
# Velocity P-wave (km/s) = 6.44327 6.64215 6.54347
#
# Compressibility (1/GPa) = 0.02244315
#
# Stress axis : x y z
#
# Youngs Moduli (GPa) = 43.90685 59.02051 52.60240
#
# Poissons Ratio (x) = 0.39894 0.31642
# Poissons Ratio (y) = 0.29678 0.28239
# Poissons Ratio (z) = 0.26411 0.31685
#
# Static dielectric constant tensor:
#      x y z
#    x 3.060900 0.000000 -0.103560 
#    y 0.000000 2.947150 0.000000 
#    z -0.103560 0.000000 3.076980 
# 
# 
# High freq. dielectric constant tensor:
#      x y z
#    x 1.621960 0.000000 -0.010670 
#    y 0.000000 1.618210 0.000000 
#    z -0.010670 0.000000 1.625570 
# 
# From -- ./inp_files/351803.got.cif
#   From: 2010.06.25/outbox.cif.g09.slc.cpg/sg12_176_cif.got.tgz:351803.got - 2010.06.28 00:19:55.
