data_PCOD8080199
_publ_section_title
;
Structure prediction by ZEFSAII (Michael W. Deem and Ramdas Pophale) SiO2 
 PCOD8080199
Probable space group: C 2/M
;
_chemical_formula_sum "Si O2"
_cell_formula_units_Z 56
_cell_length_a 19.551264
_cell_length_b 8.743832
_cell_length_c 18.416070
_cell_angle_alpha 90.000000
_cell_angle_beta 79.478109
_cell_angle_gamma 90.000000
_cell_volume 3095.344121
_symmetry_space_group_name_H-M "C 2/M"
_symmetry_group_IT_number 12
_symmetry_cell_setting 'monoclinic'
loop_
_space_group_symop_operation_xyz
x,y,z
-x,y,-z
-x,-y,-z
x,-y,z
1/2+x,1/2+y,z
1/2-x,1/2+y,-z
1/2-x,1/2-y,-z
1/2+x,1/2-y,z
loop_
_atom_site_type_symbol
_atom_site_label
_atom_site_fract_x
_atom_site_fract_y
_atom_site_fract_z
Si Si1 0.535606 0.319842 0.595293
Si Si2 0.764387 0.181119 0.919481
Si Si3 0.952987 0.181626 0.242567
Si Si4 0.180728 0.675554 0.304782
Si Si5 0.684507 0.679246 0.805796
Si Si6 0.104627 0.180009 0.191955
Si Si7 0.096559 0.677480 0.454036
O O1 0.520242 0.500000 0.594425
O O2 0.555567 0.266255 0.672309
O O3 0.598778 0.275607 0.528107
O O4 0.468616 0.226459 0.582577
O O5 0.704862 0.233960 0.875348
O O6 0.839844 0.243991 0.877532
O O7 0.763578 0.000000 0.924589
O O8 0.750000 0.250000 0.000000
O O9 0.889409 0.246219 0.206922
O O10 0.026182 0.243452 0.194926
O O11 0.950673 0.000000 0.240351
O O12 0.163500 0.500000 0.289391
O O13 0.260420 0.713343 0.269341
O O14 0.128665 0.778436 0.268009
O O15 0.166293 0.708886 0.392794
O O16 0.680555 0.500000 0.824335
O O17 0.102880 0.000000 0.186414
O O18 0.089748 0.500000 0.475515
#
# Coordination Sequence:
#
# PCOD8080199 Si02
#       7
#     8   8   8   8   8   8   8
#     4  10  18  28  45  68  93 126 166 208 247 282
#     4  10  20  35  56  79 102 127 158 195 236 285
#     4   9  17  31  51  74  98 126 163 205 245 285
#     4   9  17  29  47  70  95 128 165 202 245 290
#     4   9  18  34  54  74  99 129 161 198 242 291
#     4   9  17  31  52  75  96 124 164 203 235 278
#     4  10  18  28  42  66  97 128 164 205 248 289
#
# _framework density 18.091688000000001
#
# number of rings (size 3 to 8) (size 9 to 14) (size 15 to 20)
#    0.000    2.571    1.429    2.143    0.000    1.143 
#    0.000    3.571    0.000    4.286    0.000    0.000 
#    0.000    0.000    0.000    0.000    0.000    0.000 
#
# Total GULP energy -347034.257569 kJ/mol
# GULP energy per Si atom -12394.080627 kJ/mol
# Density = 1.805051 g / cm^3
# Si number density = 18.091688 Si / 1000 Ang^3
#
#
#
# Elastic Constant Matrix: (Units=GPa)
#
#
# Indices 1 2 3 4 5 6 
#
# 1 131.1441 18.4492 68.9300 0.0000 -0.6332 0.0000
# 2 18.4492 29.1369 24.9625 0.0000 0.0052 0.0000
# 3 68.9300 24.9625 141.5789 0.0000 -6.5456 0.0000
# 4 0.0000 0.0000 0.0000 25.8051 0.0000 -0.2869
# 5 -0.6332 0.0052 -6.5456 0.0000 21.8586 0.0000
# 6 0.0000 0.0000 0.0000 -0.2869 0.0000 18.0783
#
#
#
# Elastic Compliance Matrix: (Units=1/GPa)
#
#
# Indices 1 2 3 4 5 6 
#
# 1 0.010444 -0.002607 -0.004676 0.000000 -0.001097 0.000000
# 2 -0.002607 0.041180 -0.006080 0.000000 -0.001906 0.000000
# 3 -0.004676 -0.006080 0.010552 0.000000 0.003026 0.000000
# 4 0.000000 0.000000 0.000000 0.038759 0.000000 0.000615
# 5 -0.001097 -0.001906 0.003026 0.000000 0.046623 0.000000
# 6 0.000000 0.000000 0.000000 0.000615 0.000000 0.055325
#
#
# Mechanical properties :
#
#
# Convention : Reuss Voigt Hill
#
# Bulk Modulus (GPa) = 28.20787 58.50481 43.35634
# Shear Modulus (GPa) = 20.71030 25.78294 23.24662
#
# Velocity S-wave (km/s) = 3.38707 3.77918 3.58849
# Velocity P-wave (km/s) = 5.56074 7.17294 6.41767
#
# Compressibility (1/GPa) = 0.03545110
#
# Stress axis : x y z
#
# Youngs Moduli (GPa) = 95.74473 24.28345 94.77180
#
# Poissons Ratio (x) = 0.06331 0.44317
# Poissons Ratio (y) = 0.24960 0.57617
# Poissons Ratio (z) = 0.44771 0.14763
#
# Static dielectric constant tensor:
#      x y z
#    x 3.581320 0.000000 -0.346020 
#    y 0.000000 3.209740 0.000000 
#    z -0.346020 0.000000 3.533770 
# 
# 
# High freq. dielectric constant tensor:
#      x y z
#    x 1.682860 0.000000 -0.020580 
#    y 0.000000 1.687910 0.000000 
#    z -0.020580 0.000000 1.697670 
# 
# From -- ./inp_files/280168.got.cif
#   From: 2010.06.25/outbox.cif.g09.slc.cpg/sg12_141_cif.got.tgz:280168.got - 2010.06.28 00:19:55.
