data_PCOD8080025
_publ_section_title
;
Structure prediction by ZEFSAII (Michael W. Deem and Ramdas Pophale) SiO2 
 PCOD8080025
Probable space group: C 2/M
;
_chemical_formula_sum "Si O2"
_cell_formula_units_Z 64
_cell_length_a 26.973948
_cell_length_b 9.221335
_cell_length_c 16.892952
_cell_angle_alpha 90.000000
_cell_angle_beta 101.925091
_cell_angle_gamma 90.000000
_cell_volume 4111.199573
_symmetry_space_group_name_H-M "C 2/M"
_symmetry_group_IT_number 12
_symmetry_cell_setting 'monoclinic'
loop_
_space_group_symop_operation_xyz
x,y,z
-x,y,-z
-x,-y,-z
x,-y,z
1/2+x,1/2+y,z
1/2-x,1/2+y,-z
1/2-x,1/2-y,-z
1/2+x,1/2-y,z
loop_
_atom_site_type_symbol
_atom_site_label
_atom_site_fract_x
_atom_site_fract_y
_atom_site_fract_z
Si Si1 0.813529 0.331484 0.195246
Si Si2 0.789989 0.163911 0.916710
Si Si3 0.795520 0.171067 0.343983
Si Si4 0.643216 0.832898 0.950250
Si Si5 0.699352 0.167503 0.504203
Si Si6 0.322270 0.164736 0.675435
Si Si7 0.556506 0.828810 0.037935
Si Si8 0.878860 0.834534 0.821327
O O1 0.809944 0.500000 0.219949
O O2 0.762189 0.278163 0.136270
O O3 0.822740 0.231541 0.274380
O O4 0.858494 0.306651 0.145410
O O5 0.831159 0.179628 0.862117
O O6 0.783861 0.000000 0.943923
O O7 0.807078 0.255851 0.998038
O O8 0.823884 0.250651 0.427028
O O9 0.735806 0.211975 0.325067
O O10 0.804174 0.000000 0.353844
O O11 0.651674 0.000000 0.972020
O O12 0.591463 0.779341 0.974910
O O13 0.750000 0.250000 0.500000
O O14 0.664713 0.177725 0.414028
O O15 0.710616 0.000000 0.528918
O O16 0.362974 0.265134 0.732574
O O17 0.329540 0.000000 0.707064
O O18 0.574062 0.750398 0.124175
O O19 0.559139 0.000000 0.053251
O O20 0.500000 0.776851 0.000000
O O21 0.895212 0.000000 0.812347
#
# Coordination Sequence:
#
# PCOD8080025 Si02
#       8
#     8   8   8   8   8   8   8   8
#     4  10  18  28  40  57  84 113 144 179 211 250
#     4   9  17  27  38  56  82 111 139 172 214 249
#     4  10  19  28  40  59  83 117 153 180 212 250
#     4   9  18  29  43  61  79 107 144 178 214 255
#     4   9  17  28  41  58  82 114 150 184 215 247
#     4   9  17  28  41  59  83 112 146 178 208 247
#     4   9  18  33  49  63  84 112 141 178 222 263
#     4  10  18  27  43  65  86 110 142 178 214 254
#
# _framework density 15.567233
#
# number of rings (size 3 to 8) (size 9 to 14) (size 15 to 20)
#    0.000    2.625    1.250    2.250    0.000    4.250 
#    0.000    0.000    0.000    0.000    0.000    0.000 
#    0.000    1.000    0.000   11.500    0.000    3.250 
#
# Total GULP energy -396655.432620 kJ/mol
# GULP energy per Si atom -12395.482269 kJ/mol
# Density = 1.553180 g / cm^3
# Si number density = 15.567233 Si / 1000 Ang^3
#
#
#
# Elastic Constant Matrix: (Units=GPa)
#
#
# Indices 1 2 3 4 5 6 
#
# 1 40.7080 19.1201 26.6681 0.0000 4.2941 0.0000
# 2 19.1201 75.2880 53.8174 0.0000 2.0545 0.0000
# 3 26.6681 53.8174 110.8112 0.0000 -4.1817 0.0000
# 4 0.0000 0.0000 0.0000 30.7851 0.0000 0.7977
# 5 4.2941 2.0545 -4.1817 0.0000 16.2943 0.0000
# 6 0.0000 0.0000 0.0000 0.7977 0.0000 13.0847
#
#
#
# Elastic Compliance Matrix: (Units=1/GPa)
#
#
# Indices 1 2 3 4 5 6 
#
# 1 0.031187 -0.003128 -0.006343 0.000000 -0.009452 0.000000
# 2 -0.003128 0.021097 -0.009656 0.000000 -0.004314 0.000000
# 3 -0.006343 -0.009656 0.015500 0.000000 0.006867 0.000000
# 4 0.000000 0.000000 0.000000 0.032535 0.000000 -0.001983
# 5 -0.009452 -0.004314 0.006867 0.000000 0.066168 0.000000
# 6 0.000000 0.000000 0.000000 -0.001983 0.000000 0.076546
#
#
# Mechanical properties :
#
#
# Convention : Reuss Voigt Hill
#
# Bulk Modulus (GPa) = 33.86500 47.33539 40.60019
# Shear Modulus (GPa) = 17.17449 20.51291 18.84370
#
# Velocity S-wave (km/s) = 3.32512 3.63395 3.48296
# Velocity P-wave (km/s) = 6.04509 6.93401 6.50475
#
# Compressibility (1/GPa) = 0.02952901
#
# Stress axis : x y z
#
# Youngs Moduli (GPa) = 32.06475 47.40063 64.51787
#
# Poissons Ratio (x) = 0.14828 0.40923
# Poissons Ratio (y) = 0.10031 0.62298
# Poissons Ratio (z) = 0.20338 0.45770
#
# Static dielectric constant tensor:
#      x y z
#    x 2.646480 0.000000 -0.142630 
#    y 0.000000 3.054670 0.000000 
#    z -0.142630 0.000000 3.394450 
# 
# 
# High freq. dielectric constant tensor:
#      x y z
#    x 1.536140 0.000000 -0.010540 
#    y 0.000000 1.605470 0.000000 
#    z -0.010540 0.000000 1.601060 
# 
# From -- ./inp_files/244114.got.cif
#   From: 2010.06.25/outbox.cif.g09.slc.cpg/sg12_123_cif.got.tgz:244114.got - 2010.06.28 00:19:55.
