data_PCOD8080541
_publ_section_title
;
Structure prediction by ZEFSAII (Michael W. Deem and Ramdas Pophale) SiO2 
 PCOD8080541
Probable space group: C 2/M
;
_chemical_formula_sum "Si O2"
_cell_formula_units_Z 56
_cell_length_a 31.832419
_cell_length_b 13.372060
_cell_length_c 9.689209
_cell_angle_alpha 90.000000
_cell_angle_beta 56.116103
_cell_angle_gamma 90.000000
_cell_volume 3423.913613
_symmetry_space_group_name_H-M "C 2/M"
_symmetry_group_IT_number 12
_symmetry_cell_setting 'monoclinic'
loop_
_space_group_symop_operation_xyz
x,y,z
-x,y,-z
-x,-y,-z
x,-y,z
1/2+x,1/2+y,z
1/2-x,1/2+y,-z
1/2-x,1/2-y,-z
1/2+x,1/2-y,z
loop_
_atom_site_type_symbol
_atom_site_label
_atom_site_fract_x
_atom_site_fract_y
_atom_site_fract_z
Si Si1 0.473182 0.381046 0.414284
Si Si2 0.258974 0.612644 0.340538
Si Si3 0.264430 0.719634 0.818253
Si Si4 0.539206 0.389008 0.049202
Si Si5 0.302173 0.114165 0.273869
Si Si6 0.360128 0.298872 0.237311
Si Si7 0.138223 0.119443 0.458705
O O1 0.500000 0.337638 0.500000
O O2 0.474904 0.500000 0.404350
O O3 0.507784 0.337306 0.229135
O O4 0.414908 0.346948 0.511836
O O5 0.250144 0.500000 0.307153
O O6 0.228869 0.681276 0.287359
O O7 0.240711 0.629057 0.530974
O O8 0.318260 0.638964 0.229011
O O9 0.221155 0.649448 0.829588
O O10 0.317391 0.659436 0.722090
O O11 0.250000 0.750000 0.000000
O O12 0.560028 0.500000 0.049152
O O13 0.500000 0.400529 0.000000
O O14 0.585453 0.318496 0.926612
O O15 0.349881 0.180846 0.233550
O O16 0.320367 0.000000 0.228437
O O17 0.357946 0.329524 0.400055
O O18 0.142481 0.000000 0.468217
#
# Coordination Sequence:
#
# PCOD8080541 Si02
#       7
#     8   8   8   8   8   8   8
#     4   9  19  32  46  70 105 138 166 203 258 314
#     4  10  19  33  52  74 102 136 174 214 253 304
#     4  11  22  34  50  78 109 137 175 212 256 318
#     4  10  18  28  47  77 104 130 170 217 258 305
#     4  10  20  36  55  74 103 138 176 221 260 302
#     4  11  18  31  54  80 100 134 180 214 256 312
#     4  11  19  32  54  76 105 142 173 210 261 314
#
# _framework density 16.355554000000001
#
# number of rings (size 3 to 8) (size 9 to 14) (size 15 to 20)
#    0.000    1.714    4.286    2.571    0.000    3.429 
#    0.000    1.429    0.000    0.429    0.000    0.000 
#    0.000    2.857    0.000    0.000    0.000    0.000 
#
# Total GULP energy -347134.886825 kJ/mol
# GULP energy per Si atom -12397.674529 kJ/mol
# Density = 1.631833 g / cm^3
# Si number density = 16.355554 Si / 1000 Ang^3
#
#
#
# Elastic Constant Matrix: (Units=GPa)
#
#
# Indices 1 2 3 4 5 6 
#
# 1 96.4913 48.5268 52.8100 0.0000 -5.9148 0.0000
# 2 48.5268 106.5175 36.5883 0.0000 -3.3345 0.0000
# 3 52.8100 36.5883 107.9135 0.0000 -0.1042 0.0000
# 4 0.0000 0.0000 0.0000 23.0039 0.0000 -4.1176
# 5 -5.9148 -3.3345 -0.1042 0.0000 34.8038 0.0000
# 6 0.0000 0.0000 0.0000 -4.1176 0.0000 24.8352
#
#
#
# Elastic Compliance Matrix: (Units=1/GPa)
#
#
# Indices 1 2 3 4 5 6 
#
# 1 0.016660 -0.005340 -0.006340 0.000000 0.002301 0.000000
# 2 -0.005340 0.012373 -0.001581 0.000000 0.000273 0.000000
# 3 -0.006340 -0.001581 0.012905 0.000000 -0.001190 0.000000
# 4 0.000000 0.000000 0.000000 0.044800 0.000000 0.007428
# 5 0.002301 0.000273 -0.001190 0.000000 0.029146 0.000000
# 6 0.000000 0.000000 0.000000 0.007428 0.000000 0.041497
#
#
# Mechanical properties :
#
#
# Convention : Reuss Voigt Hill
#
# Bulk Modulus (GPa) = 64.87684 65.19692 65.03688
# Shear Modulus (GPa) = 26.44901 28.06171 27.25536
#
# Velocity S-wave (km/s) = 4.02571 4.14663 4.08662
# Velocity P-wave (km/s) = 7.83334 7.92937 7.88150
#
# Compressibility (1/GPa) = 0.01541382
#
# Stress axis : x y z
#
# Youngs Moduli (GPa) = 60.02257 80.82284 77.49234
#
# Poissons Ratio (x) = 0.43161 0.49133
# Poissons Ratio (y) = 0.32053 0.12255
# Poissons Ratio (z) = 0.38056 0.12781
#
# Static dielectric constant tensor:
#      x y z
#    x 3.131750 0.000000 -0.022200 
#    y 0.000000 3.040540 0.000000 
#    z -0.022200 0.000000 3.087850 
# 
# 
# High freq. dielectric constant tensor:
#      x y z
#    x 1.627720 0.000000 0.000900 
#    y 0.000000 1.606370 0.000000 
#    z 0.000900 0.000000 1.623830 
# 
# From -- ./inp_files/111107.got.cif
#   From: 2010.06.25/outbox.cif.g09.slc.cpg/sg12_56_cif.got.tgz:111107.got - 2010.06.28 00:19:55.
