data_PCOD8080436
_publ_section_title
;
Structure prediction by ZEFSAII (Michael W. Deem and Ramdas Pophale) SiO2 
 PCOD8080436
Probable space group: C 2/M
;
_chemical_formula_sum "Si O2"
_cell_formula_units_Z 56
_cell_length_a 19.358843
_cell_length_b 9.069314
_cell_length_c 19.408214
_cell_angle_alpha 90.000000
_cell_angle_beta 91.260088
_cell_angle_gamma 90.000000
_cell_volume 3406.703765
_symmetry_space_group_name_H-M "C 2/M"
_symmetry_group_IT_number 12
_symmetry_cell_setting 'monoclinic'
loop_
_space_group_symop_operation_xyz
x,y,z
-x,y,-z
-x,-y,-z
x,-y,z
1/2+x,1/2+y,z
1/2-x,1/2+y,-z
1/2-x,1/2-y,-z
1/2+x,1/2-y,z
loop_
_atom_site_type_symbol
_atom_site_label
_atom_site_fract_x
_atom_site_fract_y
_atom_site_fract_z
Si Si1 0.044903 0.166459 0.305617
Si Si2 0.855750 0.171694 0.811254
Si Si3 0.196312 0.672004 0.785595
Si Si4 0.485243 0.173821 0.421757
Si Si5 0.677374 0.666347 0.921426
Si Si6 0.159585 0.334068 0.053299
Si Si7 0.605684 0.333210 0.677453
O O1 0.093944 0.232203 0.247434
O O2 0.048653 0.267171 0.374939
O O3 0.964789 0.166290 0.277886
O O4 0.068712 0.000000 0.324625
O O5 0.777772 0.202626 0.786096
O O6 0.874880 0.257495 0.881346
O O7 0.868301 0.000000 0.826026
O O8 0.178927 0.500000 0.786703
O O9 0.160862 0.745684 0.851324
O O10 0.165966 0.744265 0.716261
O O11 0.500000 0.220862 0.500000
O O12 0.413697 0.252118 0.395346
O O13 0.477707 0.000000 0.413118
O O14 0.649339 0.500000 0.913624
O O15 0.758492 0.666552 0.936967
O O16 0.638500 0.745221 0.984078
O O17 0.131237 0.500000 0.046424
O O18 0.630953 0.500000 0.663491
#
# Coordination Sequence:
#
# PCOD8080436 Si02
#       7
#     8   8   8   8   8   8   8
#     4   8  17  31  48  69  93 122 153 185 222 271
#     4   9  17  30  46  67  94 124 154 187 231 275
#     4  10  18  28  46  69  95 122 152 192 232 271
#     4   9  17  30  50  74  95 116 148 188 225 263
#     4   9  16  26  40  59  87 121 156 192 230 272
#     4   9  16  25  39  62  88 117 155 195 232 268
#     4   9  18  31  48  69  94 122 152 186 223 271
#
# _framework density 16.438178000000001
#
# number of rings (size 3 to 8) (size 9 to 14) (size 15 to 20)
#    0.857    2.143    0.000    1.714    0.000    5.714 
#    0.000    0.000    0.000    1.714    0.000    6.000 
#    0.000    0.000    0.000    0.000    0.000    0.000 
#
# Total GULP energy -346994.260532 kJ/mol
# GULP energy per Si atom -12392.652162 kJ/mol
# Density = 1.640076 g / cm^3
# Si number density = 16.438178 Si / 1000 Ang^3
#
#
#
# Elastic Constant Matrix: (Units=GPa)
#
#
# Indices 1 2 3 4 5 6 
#
# 1 19.6448 7.7933 1.9471 0.0000 -7.1762 0.0000
# 2 7.7933 89.6747 19.0297 0.0000 -0.5105 0.0000
# 3 1.9471 19.0297 41.5417 0.0000 -7.5380 0.0000
# 4 0.0000 0.0000 0.0000 32.8369 0.0000 0.4319
# 5 -7.1762 -0.5105 -7.5380 0.0000 26.1474 0.0000
# 6 0.0000 0.0000 0.0000 0.4319 0.0000 16.2837
#
#
#
# Elastic Compliance Matrix: (Units=1/GPa)
#
#
# Indices 1 2 3 4 5 6 
#
# 1 0.059042 -0.005648 0.002892 0.000000 0.016928 0.000000
# 2 -0.005648 0.012946 -0.006227 0.000000 -0.003093 0.000000
# 3 0.002892 -0.006227 0.028397 0.000000 0.008858 0.000000
# 4 0.000000 0.000000 0.000000 0.030464 0.000000 -0.000808
# 5 0.016928 -0.003093 0.008858 0.000000 0.045384 0.000000
# 6 0.000000 0.000000 0.000000 -0.000808 0.000000 0.061433
#
#
# Mechanical properties :
#
#
# Convention : Reuss Voigt Hill
#
# Bulk Modulus (GPa) = 12.13337 23.15570 17.64454
# Shear Modulus (GPa) = 17.66133 23.19301 20.42717
#
# Velocity S-wave (km/s) = 3.28137 3.76030 3.52897
# Velocity P-wave (km/s) = 4.66410 5.74197 5.23087
#
# Compressibility (1/GPa) = 0.08241734
#
# Stress axis : x y z
#
# Youngs Moduli (GPa) = 16.93717 77.24353 35.21559
#
# Poissons Ratio (x) = 0.43630 -0.10183
# Poissons Ratio (y) = 0.09567 0.21928
# Poissons Ratio (z) = -0.04898 0.48098
#
# Static dielectric constant tensor:
#      x y z
#    x 2.693910 0.000000 -0.078960 
#    y 0.000000 3.200690 0.000000 
#    z -0.078960 0.000000 3.037070 
# 
# 
# High freq. dielectric constant tensor:
#      x y z
#    x 1.582780 0.000000 -0.003150 
#    y 0.000000 1.647600 0.000000 
#    z -0.003150 0.000000 1.624480 
# 
# From -- ./inp_files/287085.got.cif
#   From: 2010.06.25/outbox.cif.g09.slc.cpg/sg12_144_cif.got.tgz:287085.got - 2010.06.28 00:19:55.
