data_PCOD8080202
_publ_section_title
;
Structure prediction by ZEFSAII (Michael W. Deem and Ramdas Pophale) SiO2 
 PCOD8080202
Probable space group: C 2/M
;
_chemical_formula_sum "Si O2"
_cell_formula_units_Z 64
_cell_length_a 31.627866
_cell_length_b 9.084097
_cell_length_c 15.852299
_cell_angle_alpha 90.000000
_cell_angle_beta 109.068349
_cell_angle_gamma 90.000000
_cell_volume 4304.624171
_symmetry_space_group_name_H-M "C 2/M"
_symmetry_group_IT_number 12
_symmetry_cell_setting 'monoclinic'
loop_
_space_group_symop_operation_xyz
x,y,z
-x,y,-z
-x,-y,-z
x,-y,z
1/2+x,1/2+y,z
1/2-x,1/2+y,-z
1/2-x,1/2-y,-z
1/2+x,1/2-y,z
loop_
_atom_site_type_symbol
_atom_site_label
_atom_site_fract_x
_atom_site_fract_y
_atom_site_fract_z
Si Si1 0.836160 0.826255 0.171598
Si Si2 0.591401 0.329942 0.491503
Si Si3 0.705327 0.170781 0.998272
Si Si4 0.242036 0.332514 0.195440
Si Si5 0.313496 0.331050 0.512504
Si Si6 0.590745 0.174289 0.668010
Si Si7 0.507833 0.838141 0.405937
Si Si8 0.758014 0.172402 0.635694
O O1 0.790718 0.786253 0.191735
O O2 0.877740 0.757099 0.246585
O O3 0.842571 0.000000 0.166114
O O4 0.834966 0.752616 0.077151
O O5 0.585504 0.500000 0.513071
O O6 0.633444 0.305693 0.457184
O O7 0.599491 0.235594 0.580411
O O8 0.547417 0.276796 0.411331
O O9 0.703416 0.186225 0.098791
O O10 0.706738 0.000000 0.972668
O O11 0.750000 0.250000 0.000000
O O12 0.244348 0.500000 0.228251
O O13 0.227779 0.232322 0.264170
O O14 0.300889 0.500000 0.487235
O O15 0.289513 0.238278 0.423720
O O16 0.296355 0.281870 0.593614
O O17 0.539804 0.208389 0.665392
O O18 0.600221 0.000000 0.673365
O O19 0.500000 0.844345 0.500000
O O20 0.522260 0.000000 0.382623
O O21 0.752228 0.000000 0.639205
#
# Coordination Sequence:
#
# PCOD8080202 Si02
#       8
#     8   8   8   8   8   8   8   8
#     4  10  19  29  42  61  84 109 138 170 201 238
#     4  10  18  28  43  59  79 108 139 171 205 241
#     4   9  17  29  43  59  81 108 136 167 203 240
#     4   9  18  30  42  58  82 109 135 167 204 236
#     4   9  19  32  41  56  83 108 134 172 210 237
#     4  10  19  29  41  59  84 110 136 168 203 240
#     4   8  16  29  41  56  80 106 133 167 202 238
#     4  10  19  29  43  60  78 106 141 172 202 238
#
# _framework density 14.867732
#
# number of rings (size 3 to 8) (size 9 to 14) (size 15 to 20)
#    0.000    2.625    0.000    4.125    0.000   10.250 
#    0.000    0.000    0.000    0.000    0.000    0.000 
#    0.000    1.000    0.000   11.250    0.000    5.000 
#
# Total GULP energy -396656.112919 kJ/mol
# GULP energy per Si atom -12395.503529 kJ/mol
# Density = 1.483389 g / cm^3
# Si number density = 14.867732 Si / 1000 Ang^3
#
#
#
# Elastic Constant Matrix: (Units=GPa)
#
#
# Indices 1 2 3 4 5 6 
#
# 1 74.4491 41.4128 38.5196 0.0000 11.1882 0.0000
# 2 41.4128 89.7410 48.8596 0.0000 6.4472 0.0000
# 3 38.5196 48.8596 88.9816 0.0000 11.8073 0.0000
# 4 0.0000 0.0000 0.0000 27.5193 0.0000 4.1216
# 5 11.1882 6.4472 11.8073 0.0000 20.0264 0.0000
# 6 0.0000 0.0000 0.0000 4.1216 0.0000 22.8036
#
#
#
# Elastic Compliance Matrix: (Units=1/GPa)
#
#
# Indices 1 2 3 4 5 6 
#
# 1 0.020309 -0.006544 -0.004309 0.000000 -0.006698 0.000000
# 2 -0.006544 0.018004 -0.007344 0.000000 0.002190 0.000000
# 3 -0.004309 -0.007344 0.017903 0.000000 -0.005784 0.000000
# 4 0.000000 0.000000 0.000000 0.037349 0.000000 -0.006751
# 5 -0.006698 0.002190 -0.005784 0.000000 0.056382 0.000000
# 6 0.000000 0.000000 0.000000 -0.006751 0.000000 0.045073
#
#
# Mechanical properties :
#
#
# Convention : Reuss Voigt Hill
#
# Bulk Modulus (GPa) = 50.44895 56.75064 53.59979
# Shear Modulus (GPa) = 21.00653 22.36184 21.68418
#
# Velocity S-wave (km/s) = 3.76293 3.88242 3.82314
# Velocity P-wave (km/s) = 7.27221 7.63877 7.45774
#
# Compressibility (1/GPa) = 0.01982202
#
# Stress axis : x y z
#
# Youngs Moduli (GPa) = 49.24043 55.54278 55.85510
#
# Poissons Ratio (x) = 0.36350 0.24068
# Poissons Ratio (y) = 0.32225 0.41017
# Poissons Ratio (z) = 0.21218 0.40788
#
# Static dielectric constant tensor:
#      x y z
#    x 2.852850 0.000000 0.171540 
#    y 0.000000 3.042140 0.000000 
#    z 0.171540 0.000000 2.901060 
# 
# 
# High freq. dielectric constant tensor:
#      x y z
#    x 1.540570 0.000000 0.016580 
#    y 0.000000 1.586130 0.000000 
#    z 0.016580 0.000000 1.548650 
# 
# From -- ./inp_files/248510.got.cif
#   From: 2010.06.25/outbox.cif.g09.slc.cpg/sg12_125_cif.got.tgz:248510.got - 2010.06.28 00:19:55.
