data_PCOD8080183
_publ_section_title
;
Structure prediction by ZEFSAII (Michael W. Deem and Ramdas Pophale) SiO2 
 PCOD8080183
Probable space group: C 2/M
;
_chemical_formula_sum "Si O2"
_cell_formula_units_Z 64
_cell_length_a 33.935516
_cell_length_b 8.976602
_cell_length_c 13.456092
_cell_angle_alpha 90.000000
_cell_angle_beta 101.464573
_cell_angle_gamma 90.000000
_cell_volume 4017.284866
_symmetry_space_group_name_H-M "C 2/M"
_symmetry_group_IT_number 12
_symmetry_cell_setting 'monoclinic'
loop_
_space_group_symop_operation_xyz
x,y,z
-x,y,-z
-x,-y,-z
x,-y,z
1/2+x,1/2+y,z
1/2-x,1/2+y,-z
1/2-x,1/2-y,-z
1/2+x,1/2-y,z
loop_
_atom_site_type_symbol
_atom_site_label
_atom_site_fract_x
_atom_site_fract_y
_atom_site_fract_z
Si Si1 0.224407 0.171757 0.283464
Si Si2 0.002896 0.167615 0.619064
Si Si3 0.583672 0.824188 0.647687
Si Si4 0.652979 0.326335 0.375409
Si Si5 0.708164 0.332020 0.579207
Si Si6 0.161258 0.170552 0.759530
Si Si7 0.577629 0.825110 0.414416
Si Si8 0.233284 0.322684 0.893048
O O1 0.177066 0.199493 0.283438
O O2 0.250544 0.243665 0.384882
O O3 0.236727 0.231206 0.180735
O O4 0.235289 0.000000 0.293936
O O5 0.041765 0.262514 0.669996
O O6 0.000000 0.164431 0.500000
O O7 0.963262 0.246722 0.642254
O O8 0.006115 0.000000 0.663430
O O9 0.617995 0.747635 0.730602
O O10 0.588438 0.782141 0.533553
O O11 0.585356 0.000000 0.664043
O O12 0.642348 0.500000 0.386362
O O13 0.681939 0.265180 0.476815
O O14 0.612290 0.231512 0.357313
O O15 0.720282 0.500000 0.559862
O O16 0.681386 0.320104 0.663140
O O17 0.188524 0.260421 0.851798
O O18 0.156381 0.000000 0.792840
O O19 0.571843 0.000000 0.399719
O O20 0.231776 0.500000 0.903029
O O21 0.250000 0.250000 0.000000
#
# Coordination Sequence:
#
# PCOD8080183 Si02
#       8
#     8   8   8   8   8   8   8   8
#     4   9  19  31  45  63  85 112 147 186 225 266
#     4   9  17  28  42  58  81 117 156 191 225 262
#     4  10  18  28  42  62  89 118 152 191 224 260
#     4  10  18  29  42  60  87 119 151 185 219 260
#     4   9  17  27  41  60  86 116 148 181 217 259
#     4  10  18  29  46  68  90 117 151 186 224 268
#     4  10  19  28  40  60  87 121 156 189 223 259
#     4  10  20  35  51  68  89 115 147 187 234 278
#
# _framework density 15.931158
#
# number of rings (size 3 to 8) (size 9 to 14) (size 15 to 20)
#    0.000    2.375    1.250    2.250    0.000    4.500 
#    0.000    0.000    0.000    0.000    0.000    0.000 
#    0.000    1.000    0.000   10.750    0.000    4.750 
#
# Total GULP energy -396746.707407 kJ/mol
# GULP energy per Si atom -12398.334606 kJ/mol
# Density = 1.589490 g / cm^3
# Si number density = 15.931158 Si / 1000 Ang^3
#
#
#
# Elastic Constant Matrix: (Units=GPa)
#
#
# Indices 1 2 3 4 5 6 
#
# 1 124.9736 51.3140 32.9541 0.0000 9.8596 0.0000
# 2 51.3140 80.8039 24.9884 0.0000 7.3295 0.0000
# 3 32.9541 24.9884 49.3322 0.0000 8.9622 0.0000
# 4 0.0000 0.0000 0.0000 17.9460 0.0000 5.3720
# 5 9.8596 7.3295 8.9622 0.0000 15.5021 0.0000
# 6 0.0000 0.0000 0.0000 5.3720 0.0000 32.4856
#
#
#
# Elastic Compliance Matrix: (Units=1/GPa)
#
#
# Indices 1 2 3 4 5 6 
#
# 1 0.011774 -0.005896 -0.004497 0.000000 -0.002101 0.000000
# 2 -0.005896 0.017748 -0.004702 0.000000 -0.001923 0.000000
# 3 -0.004497 -0.004702 0.027636 0.000000 -0.010893 0.000000
# 4 0.000000 0.000000 0.000000 0.058625 0.000000 -0.009694
# 5 -0.002101 -0.001923 -0.010893 0.000000 0.073051 0.000000
# 6 0.000000 0.000000 0.000000 -0.009694 0.000000 0.032386
#
#
# Mechanical properties :
#
#
# Convention : Reuss Voigt Hill
#
# Bulk Modulus (GPa) = 37.08127 52.62474 44.85300
# Shear Modulus (GPa) = 19.20133 22.91031 21.05582
#
# Velocity S-wave (km/s) = 3.47546 3.79632 3.63943
# Velocity P-wave (km/s) = 6.27946 7.23328 6.77318
#
# Compressibility (1/GPa) = 0.02696780
#
# Stress axis : x y z
#
# Youngs Moduli (GPa) = 84.93259 56.34328 36.18512
#
# Poissons Ratio (x) = 0.33219 0.16272
# Poissons Ratio (y) = 0.50074 0.17016
# Poissons Ratio (z) = 0.38194 0.26495
#
# Static dielectric constant tensor:
#      x y z
#    x 3.136550 0.000000 0.006350 
#    y 0.000000 3.133480 0.000000 
#    z 0.006350 0.000000 2.666570 
# 
# 
# High freq. dielectric constant tensor:
#      x y z
#    x 1.616530 0.000000 0.004480 
#    y 0.000000 1.623800 0.000000 
#    z 0.004480 0.000000 1.552210 
# 
# From -- ./inp_files/248434.got.cif
#   From: 2010.06.25/outbox.cif.g09.slc.cpg/sg12_125_cif.got.tgz:248434.got - 2010.06.28 00:19:55.
