data_PCOD8080457
_publ_section_title
;
Structure prediction by ZEFSAII (Michael W. Deem and Ramdas Pophale) SiO2 
 PCOD8080457
Probable space group: C 2/M
;
_chemical_formula_sum "Si O2"
_cell_formula_units_Z 64
_cell_length_a 24.702862
_cell_length_b 8.789602
_cell_length_c 23.920291
_cell_angle_alpha 90.000000
_cell_angle_beta 133.743432
_cell_angle_gamma 90.000000
_cell_volume 3752.205931
_symmetry_space_group_name_H-M "C 2/M"
_symmetry_group_IT_number 12
_symmetry_cell_setting 'monoclinic'
loop_
_space_group_symop_operation_xyz
x,y,z
-x,y,-z
-x,-y,-z
x,-y,z
1/2+x,1/2+y,z
1/2-x,1/2+y,-z
1/2-x,1/2-y,-z
1/2+x,1/2-y,z
loop_
_atom_site_type_symbol
_atom_site_label
_atom_site_fract_x
_atom_site_fract_y
_atom_site_fract_z
Si Si1 0.775640 0.178789 0.576230
Si Si2 0.974177 0.178432 0.593476
Si Si3 0.295905 0.678833 0.166242
Si Si4 0.913385 0.677754 0.166622
Si Si5 0.868154 0.323741 0.316877
Si Si6 0.192686 0.675907 0.000278
Si Si7 0.644058 0.824074 0.564289
Si Si8 0.571739 0.821455 0.324336
O O1 0.750000 0.250000 0.500000
O O2 0.717971 0.225515 0.583580
O O3 0.856547 0.241923 0.652253
O O4 0.780362 0.000000 0.571649
O O5 0.926964 0.224049 0.505030
O O6 0.937821 0.265370 0.619399
O O7 0.059571 0.224903 0.646098
O O8 0.969274 0.000000 0.600777
O O9 0.300467 0.500000 0.182161
O O10 0.364637 0.723533 0.174705
O O11 0.301497 0.771043 0.228083
O O12 0.215319 0.726223 0.079746
O O13 0.900936 0.500000 0.172393
O O14 0.999997 0.722766 0.235457
O O15 0.890024 0.711539 0.084467
O O16 0.887570 0.500000 0.321054
O O17 0.840439 0.292019 0.359665
O O18 0.209898 0.500000 0.009682
O O19 0.250000 0.750000 0.000000
O O20 0.623978 0.000000 0.539305
O O21 0.585863 0.000000 0.336117
#
# Coordination Sequence:
#
# PCOD8080457 Si02
#       8
#     8   8   8   8   8   8   8   8
#     4  11  22  37  56  75  96 127 168 214 259 299
#     4  12  23  34  52  76 102 131 166 209 251 294
#     4  10  18  28  46  72 102 131 163 205 246 289
#     4   9  17  30  48  69  99 136 167 196 240 301
#     4  11  22  36  52  71 100 137 171 204 245 303
#     4   8  15  27  43  67  97 130 164 197 238 290
#     4  10  23  40  55  70  95 133 173 208 250 301
#     4  11  21  33  52  76 103 135 168 203 247 300
#
# _framework density 17.056633000000001
#
# number of rings (size 3 to 8) (size 9 to 14) (size 15 to 20)
#    0.000    1.750    2.500    3.000    0.000    4.000 
#    0.000    0.000    0.000    0.000    0.000    0.875 
#    0.000    7.000    0.000    0.000    0.000    0.000 
#
# Total GULP energy -396653.510573 kJ/mol
# GULP energy per Si atom -12395.422205 kJ/mol
# Density = 1.701781 g / cm^3
# Si number density = 17.056633 Si / 1000 Ang^3
#
#
#
# Elastic Constant Matrix: (Units=GPa)
#
#
# Indices 1 2 3 4 5 6 
#
# 1 54.5540 18.4069 34.8553 0.0000 -6.6884 0.0000
# 2 18.4069 49.5446 33.4711 0.0000 -1.3984 0.0000
# 3 34.8553 33.4711 149.3047 0.0000 -5.6918 0.0000
# 4 0.0000 0.0000 0.0000 25.6363 0.0000 0.8156
# 5 -6.6884 -1.3984 -5.6918 0.0000 18.0496 0.0000
# 6 0.0000 0.0000 0.0000 0.8156 0.0000 21.0787
#
#
#
# Elastic Compliance Matrix: (Units=1/GPa)
#
#
# Indices 1 2 3 4 5 6 
#
# 1 0.023722 -0.005956 -0.003932 0.000000 0.007089 0.000000
# 2 -0.005956 0.025282 -0.004339 0.000000 -0.001617 0.000000
# 3 -0.003932 -0.004339 0.008624 0.000000 0.000926 0.000000
# 4 0.000000 0.000000 0.000000 0.039055 0.000000 -0.001511
# 5 0.007089 -0.001617 0.000926 0.000000 0.058196 0.000000
# 6 0.000000 0.000000 0.000000 -0.001511 0.000000 0.047500
#
#
# Mechanical properties :
#
#
# Convention : Reuss Voigt Hill
#
# Bulk Modulus (GPa) = 34.27889 47.42999 40.85444
# Shear Modulus (GPa) = 20.78495 24.06425 22.42460
#
# Velocity S-wave (km/s) = 3.49461 3.76020 3.62983
# Velocity P-wave (km/s) = 6.03521 6.83519 6.44762
#
# Compressibility (1/GPa) = 0.02917247
#
# Stress axis : x y z
#
# Youngs Moduli (GPa) = 42.15556 39.55321 115.95943
#
# Poissons Ratio (x) = 0.23560 0.45598
# Poissons Ratio (y) = 0.25110 0.50314
# Poissons Ratio (z) = 0.16577 0.17162
#
# Static dielectric constant tensor:
#      x y z
#    x 3.026050 0.000000 0.115830 
#    y 0.000000 3.231310 0.000000 
#    z 0.115830 0.000000 4.010380 
# 
# 
# High freq. dielectric constant tensor:
#      x y z
#    x 1.610100 0.000000 0.001230 
#    y 0.000000 1.668610 0.000000 
#    z 0.001230 0.000000 1.675210 
# 
# From -- ./inp_files/324101.got.cif
#   From: 2010.06.25/outbox.cif.g09.slc.cpg/sg12_163_cif.got.tgz:324101.got - 2010.06.28 00:19:55.
