data_PCOD8080332
_publ_section_title
;
Structure prediction by ZEFSAII (Michael W. Deem and Ramdas Pophale) SiO2 
 PCOD8080332
Probable space group: C 2/M
;
_chemical_formula_sum "Si O2"
_cell_formula_units_Z 48
_cell_length_a 21.625007
_cell_length_b 14.238698
_cell_length_c 23.823746
_cell_angle_alpha 90.000000
_cell_angle_beta 156.970911
_cell_angle_gamma 90.000000
_cell_volume 2869.681347
_symmetry_space_group_name_H-M "C 2/M"
_symmetry_group_IT_number 12
_symmetry_cell_setting 'monoclinic'
loop_
_space_group_symop_operation_xyz
x,y,z
-x,y,-z
-x,-y,-z
x,-y,z
1/2+x,1/2+y,z
1/2-x,1/2+y,-z
1/2-x,1/2-y,-z
1/2+x,1/2-y,z
loop_
_atom_site_type_symbol
_atom_site_label
_atom_site_fract_x
_atom_site_fract_y
_atom_site_fract_z
Si Si1 0.102332 0.109568 0.031461
Si Si2 0.390912 0.225094 0.240339
Si Si3 0.016559 0.392965 0.240511
Si Si4 0.716396 0.605742 0.918497
Si Si5 0.771223 0.752861 0.451319
Si Si6 0.044392 0.891475 0.208440
O O1 0.264688 0.167619 0.171354
O O2 0.146660 0.000000 0.065690
O O3 0.000000 0.134774 0.000000
O O4 0.001871 0.139371 0.892956
O O5 0.444384 0.162471 0.232562
O O6 0.313308 0.323046 0.156718
O O7 0.541619 0.251227 0.405493
O O8 0.046427 0.500000 0.283922
O O9 0.181654 0.347774 0.356860
O O10 0.897036 0.386384 0.088744
O O11 0.678800 0.500000 0.866297
O O12 0.605809 0.632569 0.878607
O O13 0.750000 0.750000 0.500000
O O14 0.695901 0.663983 0.357135
O O15 0.091334 0.000000 0.250107
#
# Coordination Sequence:
#
# PCOD8080332 Si02
#       6
#     8   8   8   8   8   8
#     4  10  21  36  55  75  96 134 183 218 244 284
#     4  11  19  32  48  73 105 132 166 208 255 301
#     4  10  18  28  44  70 102 135 161 197 248 307
#     4  10  18  29  50  76 101 133 167 204 257 306
#     4  10  20  29  43  74 104 138 158 198 251 321
#     4  10  18  32  50  72 105 137 166 206 253 299
#
# _framework density 16.726596000000001
#
# number of rings (size 3 to 8) (size 9 to 14) (size 15 to 20)
#    0.000    1.833    5.000    2.000    0.000    4.000 
#    0.000    0.833    0.000    3.500    0.000    0.000 
#    0.000    5.333    0.000    0.000    0.000    0.000 
#
# Total GULP energy -297573.784679 kJ/mol
# GULP energy per Si atom -12398.907695 kJ/mol
# Density = 1.668853 g / cm^3
# Si number density = 16.726596 Si / 1000 Ang^3
#
#
#
# Elastic Constant Matrix: (Units=GPa)
#
#
# Indices 1 2 3 4 5 6 
#
# 1 64.2535 35.7334 40.9776 -0.0024 11.4488 -0.0003
# 2 35.7334 99.0128 56.6077 -0.0043 14.6576 0.0004
# 3 40.9776 56.6077 122.0209 0.0082 20.3754 0.0070
# 4 -0.0024 -0.0043 0.0082 22.4918 -0.0010 -2.7827
# 5 11.4488 14.6576 20.3754 -0.0010 17.0745 0.0001
# 6 -0.0003 0.0004 0.0070 -2.7827 0.0001 16.5660
#
#
#
# Elastic Compliance Matrix: (Units=1/GPa)
#
#
# Indices 1 2 3 4 5 6 
#
# 1 0.021846 -0.004621 -0.004258 0.000003 -0.005601 0.000003
# 2 -0.004621 0.015108 -0.004756 0.000004 -0.004195 0.000002
# 3 -0.004258 -0.004756 0.013329 -0.000008 -0.008968 -0.000007
# 4 0.000003 0.000004 -0.000008 0.045404 0.000006 0.007627
# 5 -0.005601 -0.004195 -0.008968 0.000006 0.076625 0.000004
# 6 0.000003 0.000002 -0.000007 0.007627 0.000004 0.061646
#
#
# Mechanical properties :
#
#
# Convention : Reuss Voigt Hill
#
# Bulk Modulus (GPa) = 43.45294 61.32494 52.38894
# Shear Modulus (GPa) = 18.59426 21.35769 19.97598
#
# Velocity S-wave (km/s) = 3.33777 3.57721 3.45956
# Velocity P-wave (km/s) = 6.39445 7.33516 6.88090
#
# Compressibility (1/GPa) = 0.02301340
#
# Stress axis : x y z
#
# Youngs Moduli (GPa) = 45.77398 66.19110 75.02303
#
# Poissons Ratio (x) = 0.30587 0.31941
# Poissons Ratio (y) = 0.21152 0.35684
# Poissons Ratio (z) = 0.19488 0.31483
#
# Static dielectric constant tensor:
#      x y z
#    x 2.770490 -0.000020 0.234700 
#    y -0.000020 3.395160 -0.000150 
#    z 0.234700 -0.000150 3.644840 
# 
# 
# High freq. dielectric constant tensor:
#      x y z
#    x 1.583960 0.000000 0.011960 
#    y 0.000000 1.655840 0.000000 
#    z 0.011960 0.000000 1.656130 
# 
# From -- ./inp_files/85140.got.cif
#   From: 2010.06.25/outbox.cif.g09.slc.cpg/sg12_43_cif.got.tgz:85140.got - 2010.06.28 00:19:55.
