data_PCOD8080346
_publ_section_title
;
Structure prediction by ZEFSAII (Michael W. Deem and Ramdas Pophale) SiO2 
 PCOD8080346
Probable space group: C 2/M
;
_chemical_formula_sum "Si O2"
_cell_formula_units_Z 64
_cell_length_a 27.972072
_cell_length_b 22.470225
_cell_length_c 12.656851
_cell_angle_alpha 90.000000
_cell_angle_beta 149.232533
_cell_angle_gamma 90.000000
_cell_volume 4069.584863
_symmetry_space_group_name_H-M "C 2/M"
_symmetry_group_IT_number 12
_symmetry_cell_setting 'monoclinic'
loop_
_space_group_symop_operation_xyz
x,y,z
-x,y,-z
-x,-y,-z
x,-y,z
1/2+x,1/2+y,z
1/2-x,1/2+y,-z
1/2-x,1/2-y,-z
1/2+x,1/2-y,z
loop_
_atom_site_type_symbol
_atom_site_label
_atom_site_fract_x
_atom_site_fract_y
_atom_site_fract_z
Si Si1 0.102567 0.429594 0.820673
Si Si2 0.978055 0.740825 0.080942
Si Si3 0.895513 0.432807 0.807599
Si Si4 0.608015 0.929905 0.594618
Si Si5 0.274142 0.932572 0.375032
Si Si6 0.324892 0.277025 0.508239
Si Si7 0.332229 0.853386 0.869101
Si Si8 0.679240 0.677226 0.274554
O O1 0.112488 0.500000 0.860284
O O2 0.138150 0.412426 0.770648
O O3 0.995900 0.407015 0.630075
O O4 0.166033 0.393860 0.023649
O O5 0.070243 0.757168 0.325284
O O6 0.924513 0.687321 0.037335
O O7 0.910232 0.797673 0.956457
O O8 0.000000 0.723671 0.000000
O O9 0.897390 0.500000 0.856044
O O10 0.857274 0.430685 0.616935
O O11 0.830533 0.394032 0.760959
O O12 0.000000 0.406684 0.000000
O O13 0.684368 0.906404 0.656061
O O14 0.602395 0.000000 0.573486
O O15 0.190816 0.890084 0.255295
O O16 0.235322 0.000000 0.288932
O O17 0.263939 0.314745 0.307989
O O18 0.338470 0.320165 0.634409
O O19 0.272605 0.215482 0.432812
#
# Coordination Sequence:
#
# PCOD8080346 Si02
#       8
#     8   8   8   8   8   8   8   8
#     4   9  17  29  44  66  96 122 149 179 219 276
#     4   9  19  30  45  63  88 124 157 186 214 260
#     4  10  19  25  36  66 101 120 134 172 231 277
#     4   8  16  29  43  65  93 124 153 177 213 269
#     4  10  18  28  45  66  90 118 148 186 225 261
#     4   9  18  30  43  64  92 120 152 185 218 266
#     4  11  18  27  46  68  91 119 152 179 224 269
#     4   9  17  30  45  65  89 120 153 182 221 266
#
# _framework density 15.726419999999999
#
# number of rings (size 3 to 8) (size 9 to 14) (size 15 to 20)
#    0.000    2.625    1.250    3.000    3.500    2.000 
#    0.000    0.000    0.000    7.875    0.000    0.000 
#    0.000    3.000    0.000    0.000    0.000    0.000 
#
# Total GULP energy -396590.104547 kJ/mol
# GULP energy per Si atom -12393.440767 kJ/mol
# Density = 1.569063 g / cm^3
# Si number density = 15.726420 Si / 1000 Ang^3
#
#
#
# Elastic Constant Matrix: (Units=GPa)
#
#
# Indices 1 2 3 4 5 6 
#
# 1 53.4670 28.3407 24.2343 0.0000 -7.3469 0.0000
# 2 28.3407 65.5226 27.9500 0.0000 -0.8037 0.0000
# 3 24.2343 27.9500 75.5143 0.0000 6.2444 0.0000
# 4 0.0000 0.0000 0.0000 17.6430 0.0000 2.0366
# 5 -7.3469 -0.8037 6.2444 0.0000 23.1481 0.0000
# 6 0.0000 0.0000 0.0000 2.0366 0.0000 15.9988
#
#
#
# Elastic Compliance Matrix: (Units=1/GPa)
#
#
# Indices 1 2 3 4 5 6 
#
# 1 0.027892 -0.009213 -0.006389 0.000000 0.010256 0.000000
# 2 -0.009213 0.021308 -0.004858 0.000000 -0.000874 0.000000
# 3 -0.006389 -0.004858 0.017667 0.000000 -0.006962 0.000000
# 4 0.000000 0.000000 0.000000 0.057525 0.000000 -0.007323
# 5 0.010256 -0.000874 -0.006962 0.000000 0.048303 0.000000
# 6 0.000000 0.000000 0.000000 -0.007323 0.000000 0.063437
#
#
# Mechanical properties :
#
#
# Convention : Reuss Voigt Hill
#
# Bulk Modulus (GPa) = 38.54054 39.50601 39.02327
# Shear Modulus (GPa) = 17.50081 18.95655 18.22868
#
# Velocity S-wave (km/s) = 3.33953 3.47565 3.40827
# Velocity P-wave (km/s) = 6.27933 6.42512 6.35264
#
# Compressibility (1/GPa) = 0.02594671
#
# Stress axis : x y z
#
# Youngs Moduli (GPa) = 35.85286 46.92999 56.60332
#
# Poissons Ratio (x) = 0.43236 0.36165
# Poissons Ratio (y) = 0.33031 0.27498
# Poissons Ratio (z) = 0.22907 0.22798
#
# Static dielectric constant tensor:
#      x y z
#    x 3.002520 0.000000 -0.007830 
#    y 0.000000 2.970370 0.000000 
#    z -0.007830 0.000000 2.869000 
# 
# 
# High freq. dielectric constant tensor:
#      x y z
#    x 1.572120 0.000000 -0.002030 
#    y 0.000000 1.597260 0.000000 
#    z -0.002030 0.000000 1.584120 
# 
# From -- ./inp_files/184998.got.cif
#   From: 2010.06.25/outbox.cif.g09.slc.cpg/sg12_93_cif.got.tgz:184998.got - 2010.06.28 00:19:55.
