data_PCOD8080516
_publ_section_title
;
Structure prediction by ZEFSAII (Michael W. Deem and Ramdas Pophale) SiO2 
 PCOD8080516
Probable space group: C 2/M
;
_chemical_formula_sum "Si O2"
_cell_formula_units_Z 56
_cell_length_a 29.467114
_cell_length_b 9.010486
_cell_length_c 11.899434
_cell_angle_alpha 90.000000
_cell_angle_beta 89.700770
_cell_angle_gamma 90.000000
_cell_volume 3159.411549
_symmetry_space_group_name_H-M "C 2/M"
_symmetry_group_IT_number 12
_symmetry_cell_setting 'monoclinic'
loop_
_space_group_symop_operation_xyz
x,y,z
-x,y,-z
-x,-y,-z
x,-y,z
1/2+x,1/2+y,z
1/2-x,1/2+y,-z
1/2-x,1/2-y,-z
1/2+x,1/2-y,z
loop_
_atom_site_type_symbol
_atom_site_label
_atom_site_fract_x
_atom_site_fract_y
_atom_site_fract_z
Si Si1 0.451307 0.176054 0.955648
Si Si2 0.143823 0.673047 0.423972
Si Si3 0.598083 0.674106 0.232816
Si Si4 0.868266 0.670544 0.105167
Si Si5 0.822762 0.331294 0.888197
Si Si6 0.261819 0.168020 0.698040
Si Si7 0.669715 0.175749 0.666035
O O1 0.413329 0.236111 0.044779
O O2 0.447765 0.000000 0.940863
O O3 0.500000 0.226633 0.000000
O O4 0.443783 0.250502 0.833550
O O5 0.132870 0.500000 0.413540
O O6 0.104099 0.761310 0.359006
O O7 0.193340 0.709050 0.372892
O O8 0.143545 0.725941 0.553837
O O9 0.589687 0.500000 0.239917
O O10 0.643672 0.711421 0.165065
O O11 0.878290 0.500000 0.130037
O O12 0.856159 0.746480 0.225021
O O13 0.824331 0.690312 0.023048
O O14 0.840068 0.500000 0.859004
O O15 0.773415 0.309630 0.831695
O O16 0.221687 0.273814 0.661081
O O17 0.246562 0.000000 0.674177
O O18 0.671522 0.000000 0.674305
#
# Coordination Sequence:
#
# PCOD8080516 Si02
#       7
#     8   8   8   8   8   8   8
#     4   9  17  32  55  76  94 118 143 172 220 280
#     4   9  18  32  46  61  88 126 162 191 222 261
#     4  10  18  28  47  73  95 115 146 190 229 261
#     4   8  15  29  47  68  92 116 148 186 224 270
#     4   8  15  30  47  62  89 125 154 186 228 272
#     4   9  17  28  42  61  87 122 162 198 227 259
#     4  10  19  29  44  65  90 122 156 193 230 262
#
# _framework density 17.724820999999999
#
# number of rings (size 3 to 8) (size 9 to 14) (size 15 to 20)
#    0.000    3.000    0.000    3.429    0.000    3.714 
#    0.000    2.857    0.000    0.857    0.000    6.000 
#    0.000    0.000    0.000    0.000    0.000    0.000 
#
# Total GULP energy -346914.931280 kJ/mol
# GULP energy per Si atom -12389.818974 kJ/mol
# Density = 1.768448 g / cm^3
# Si number density = 17.724821 Si / 1000 Ang^3
#
#
#
# Elastic Constant Matrix: (Units=GPa)
#
#
# Indices 1 2 3 4 5 6 
#
# 1 40.2147 23.2509 48.2569 0.0000 15.4886 0.0000
# 2 23.2509 47.1763 44.9777 0.0000 11.9027 0.0000
# 3 48.2569 44.9777 173.5168 0.0000 16.2283 0.0000
# 4 0.0000 0.0000 0.0000 17.1877 0.0000 7.0198
# 5 15.4886 11.9027 16.2283 0.0000 27.3392 0.0000
# 6 0.0000 0.0000 0.0000 7.0198 0.0000 15.2199
#
#
#
# Elastic Compliance Matrix: (Units=1/GPa)
#
#
# Indices 1 2 3 4 5 6 
#
# 1 0.048902 -0.010996 -0.009112 0.000000 -0.017508 0.000000
# 2 -0.010996 0.032572 -0.004914 0.000000 -0.005034 0.000000
# 3 -0.009112 -0.004914 0.009411 0.000000 0.001716 0.000000
# 4 0.000000 0.000000 0.000000 0.071685 0.000000 -0.033063
# 5 -0.017508 -0.005034 0.001716 0.000000 0.047670 0.000000
# 6 0.000000 0.000000 0.000000 -0.033063 0.000000 0.080953
#
#
# Mechanical properties :
#
#
# Convention : Reuss Voigt Hill
#
# Bulk Modulus (GPa) = 24.48632 54.87542 39.68087
# Shear Modulus (GPa) = 14.09045 21.57752 17.83399
#
# Velocity S-wave (km/s) = 2.82255 3.49286 3.17544
# Velocity P-wave (km/s) = 4.94642 6.87703 5.99002
#
# Compressibility (1/GPa) = 0.04083913
#
# Stress axis : x y z
#
# Youngs Moduli (GPa) = 20.44899 30.70141 106.26244
#
# Poissons Ratio (x) = 0.33761 0.96830
# Poissons Ratio (y) = 0.22487 0.52217
# Poissons Ratio (z) = 0.18634 0.15087
#
# Static dielectric constant tensor:
#      x y z
#    x 2.979140 0.000000 0.104520 
#    y 0.000000 2.988460 0.000000 
#    z 0.104520 0.000000 3.845890 
# 
# 
# High freq. dielectric constant tensor:
#      x y z
#    x 1.635150 0.000000 0.018260 
#    y 0.000000 1.659890 0.000000 
#    z 0.018260 0.000000 1.703310 
# 
# From -- ./inp_files/186846.got.cif
#   From: 2010.06.25/outbox.cif.g09.slc.cpg/sg12_94_cif.got.tgz:186846.got - 2010.06.28 00:19:55.
