data_PCOD8080956
_publ_section_title
;
Structure prediction by ZEFSAII (Michael W. Deem and Ramdas Pophale) SiO2 
 PCOD8080956
Probable space group: C 2/M
;
_chemical_formula_sum "Si O2"
_cell_formula_units_Z 64
_cell_length_a 23.619742
_cell_length_b 9.318205
_cell_length_c 23.716169
_cell_angle_alpha 90.000000
_cell_angle_beta 44.556248
_cell_angle_gamma 90.000000
_cell_volume 3662.243194
_symmetry_space_group_name_H-M "C 2/M"
_symmetry_group_IT_number 12
_symmetry_cell_setting 'monoclinic'
loop_
_space_group_symop_operation_xyz
x,y,z
-x,y,-z
-x,-y,-z
x,-y,z
1/2+x,1/2+y,z
1/2-x,1/2+y,-z
1/2-x,1/2-y,-z
1/2+x,1/2-y,z
loop_
_atom_site_type_symbol
_atom_site_label
_atom_site_fract_x
_atom_site_fract_y
_atom_site_fract_z
Si Si1 0.025142 0.330778 0.422152
Si Si2 0.759758 0.166963 0.355238
Si Si3 0.270628 0.663044 0.851485
Si Si4 0.370724 0.169422 0.463692
Si Si5 0.098167 0.166558 0.667502
Si Si6 0.322963 0.834212 0.975475
Si Si7 0.204235 0.670362 0.274896
Si Si8 0.080998 0.168547 0.173994
O O1 0.030766 0.500000 0.425876
O O2 0.112115 0.273056 0.341509
O O3 0.000000 0.262165 0.500000
O O4 0.959700 0.288161 0.422009
O O5 0.694759 0.231109 0.445543
O O6 0.850563 0.196903 0.312028
O O7 0.748288 0.229060 0.300299
O O8 0.739434 0.000000 0.365748
O O9 0.282013 0.500000 0.823285
O O10 0.253937 0.761253 0.809324
O O11 0.351679 0.711384 0.827503
O O12 0.190583 0.677221 0.947531
O O13 0.358659 0.245935 0.412641
O O14 0.360575 0.000000 0.462105
O O15 0.006489 0.216718 0.741826
O O16 0.102058 0.000000 0.648389
O O17 0.403741 0.756533 0.895150
O O18 0.322382 0.000000 0.956676
O O19 0.250000 0.750000 0.000000
O O20 0.210687 0.500000 0.264566
O O21 0.084291 0.000000 0.157623
#
# Coordination Sequence:
#
# PCOD8080956 Si02
#       8
#     8   8   8   8   8   8   8   8
#     4   9  15  26  45  67  91 119 152 193 236 271
#     4   9  18  32  48  66  91 126 165 202 237 276
#     4   9  18  31  46  70 100 122 142 182 238 285
#     4  10  18  30  49  70  92 121 162 205 240 282
#     4  10  20  33  48  67  95 127 158 198 245 283
#     4   9  17  30  50  74 101 128 152 185 233 286
#     4  10  18  29  48  70  91 123 164 197 229 278
#     4   9  18  32  49  70  98 128 156 191 236 283
#
# _framework density 17.475628
#
# number of rings (size 3 to 8) (size 9 to 14) (size 15 to 20)
#    0.000    2.625    1.250    2.250    0.000    3.000 
#    0.000    1.250    0.000    1.500    0.000    5.250 
#    0.000    0.000    0.000    0.000    0.000    0.000 
#
# Total GULP energy -396664.132517 kJ/mol
# GULP energy per Si atom -12395.754141 kJ/mol
# Density = 1.743585 g / cm^3
# Si number density = 17.475628 Si / 1000 Ang^3
#
#
#
# Elastic Constant Matrix: (Units=GPa)
#
#
# Indices 1 2 3 4 5 6 
#
# 1 81.1378 26.6249 45.5495 0.0000 12.3111 0.0001
# 2 26.6249 47.2159 42.9560 0.0001 10.0203 0.0001
# 3 45.5495 42.9560 112.6788 -0.0001 19.1112 0.0000
# 4 0.0000 0.0001 -0.0001 27.5390 0.0000 6.6594
# 5 12.3111 10.0203 19.1112 0.0000 20.5572 0.0000
# 6 0.0001 0.0001 0.0000 6.6594 0.0000 15.4671
#
#
#
# Elastic Compliance Matrix: (Units=1/GPa)
#
#
# Indices 1 2 3 4 5 6 
#
# 1 0.016916 -0.004749 -0.004395 0.000000 -0.003730 0.000000
# 2 -0.004749 0.034219 -0.010422 0.000000 -0.004147 0.000000
# 3 -0.004395 -0.010422 0.015810 0.000000 -0.006985 0.000000
# 4 0.000000 0.000000 0.000000 0.040532 0.000000 -0.017451
# 5 -0.003730 -0.004147 -0.006985 0.000000 0.059393 0.000000
# 6 0.000000 0.000000 0.000000 -0.017451 0.000000 0.072167
#
#
# Mechanical properties :
#
#
# Convention : Reuss Voigt Hill
#
# Bulk Modulus (GPa) = 35.95533 52.36591 44.16062
# Shear Modulus (GPa) = 17.39486 21.10611 19.25048
#
# Velocity S-wave (km/s) = 3.15838 3.47903 3.32258
# Velocity P-wave (km/s) = 5.82407 6.79473 6.32804
#
# Compressibility (1/GPa) = 0.02781229
#
# Stress axis : x y z
#
# Youngs Moduli (GPa) = 59.11414 29.22350 63.25301
#
# Poissons Ratio (x) = 0.13877 0.27802
# Poissons Ratio (y) = 0.28072 0.65924
# Poissons Ratio (z) = 0.25983 0.30457
#
# Static dielectric constant tensor:
#      x y z
#    x 3.143710 0.000000 0.004740 
#    y 0.000000 3.010200 0.000000 
#    z 0.004740 0.000000 3.585090 
# 
# 
# High freq. dielectric constant tensor:
#      x y z
#    x 1.654950 0.000000 0.005780 
#    y 0.000000 1.647740 0.000000 
#    z 0.005780 0.000000 1.678920 
# 
# From -- ./inp_files/348557.got.cif
#   From: 2010.06.25/outbox.cif.g09.slc.cpg/sg12_175_cif.got.tgz:348557.got - 2010.06.28 00:19:55.
