data_PCOD8080921
_publ_section_title
;
Structure prediction by ZEFSAII (Michael W. Deem and Ramdas Pophale) SiO2 
 PCOD8080921
Probable space group: C 2/M
;
_chemical_formula_sum "Si O2"
_cell_formula_units_Z 64
_cell_length_a 29.945800
_cell_length_b 8.959241
_cell_length_c 23.213254
_cell_angle_alpha 90.000000
_cell_angle_beta 39.794388
_cell_angle_gamma 90.000000
_cell_volume 3986.084577
_symmetry_space_group_name_H-M "C 2/M"
_symmetry_group_IT_number 12
_symmetry_cell_setting 'monoclinic'
loop_
_space_group_symop_operation_xyz
x,y,z
-x,y,-z
-x,-y,-z
x,-y,z
1/2+x,1/2+y,z
1/2-x,1/2+y,-z
1/2-x,1/2-y,-z
1/2+x,1/2-y,z
loop_
_atom_site_type_symbol
_atom_site_label
_atom_site_fract_x
_atom_site_fract_y
_atom_site_fract_z
Si Si1 0.995253 0.825877 0.886869
Si Si2 0.359144 0.325953 0.196570
Si Si3 0.776827 0.825098 0.386977
Si Si4 0.500324 0.171041 0.760970
Si Si5 0.639059 0.823729 0.925707
Si Si6 0.648872 0.172833 0.583416
Si Si7 0.348503 0.171021 0.887708
Si Si8 0.277716 0.326698 0.061953
O O1 0.066170 0.789232 0.849917
O O2 0.001826 0.776373 0.814628
O O3 0.977720 0.000000 0.905978
O O4 0.933507 0.740145 0.979646
O O5 0.353788 0.500000 0.185397
O O6 0.298089 0.276340 0.301576
O O7 0.347392 0.226212 0.152596
O O8 0.696863 0.776415 0.481414
O O9 0.829745 0.754767 0.379726
O O10 0.788320 0.000000 0.381000
O O11 0.566859 0.206604 0.653809
O O12 0.430206 0.197992 0.793021
O O13 0.503436 0.000000 0.779671
O O14 0.703993 0.765820 0.899316
O O15 0.636014 0.000000 0.932449
O O16 0.662488 0.000000 0.581197
O O17 0.302617 0.206928 0.876464
O O18 0.334477 0.000000 0.920992
O O19 0.328230 0.278785 0.959974
O O20 0.290388 0.500000 0.062201
#
# Coordination Sequence:
#
# PCOD8080921 Si02
#       8
#     8   8   8   8   8   8   8   8
#     4  11  21  33  48  68  95 129 164 194 227 275
#     4  10  21  35  49  66  93 128 166 200 231 274
#     4   9  17  31  47  67  94 126 160 194 230 273
#     4  10  18  29  47  73 101 127 154 189 233 279
#     4  12  24  35  48  67  93 125 163 203 240 279
#     4   9  17  28  47  71  97 125 154 190 234 278
#     4   9  18  31  48  70  96 124 155 193 236 282
#     4  10  19  32  49  68  92 124 159 195 236 282
#
# _framework density 16.055855999999999
#
# number of rings (size 3 to 8) (size 9 to 14) (size 15 to 20)
#    0.000    2.000    2.500    2.250    0.000    3.500 
#    0.000    0.000    0.000    0.000    0.000    0.875 
#    0.000    7.000    0.000    0.000    0.000    0.000 
#
# Total GULP energy -396701.759505 kJ/mol
# GULP energy per Si atom -12396.929985 kJ/mol
# Density = 1.601931 g / cm^3
# Si number density = 16.055856 Si / 1000 Ang^3
#
#
#
# Elastic Constant Matrix: (Units=GPa)
#
#
# Indices 1 2 3 4 5 6 
#
# 1 111.7647 47.2917 68.5777 -0.0060 -11.9249 0.0095
# 2 47.2917 72.9298 45.3119 -0.0193 0.4479 0.0196
# 3 68.5777 45.3119 117.2544 -0.0031 -11.9602 0.0099
# 4 -0.0060 -0.0193 -0.0031 19.3102 0.0001 3.8529
# 5 -11.9249 0.4479 -11.9602 0.0001 22.0757 -0.0015
# 6 0.0095 0.0196 0.0099 3.8529 -0.0015 22.1624
#
#
#
# Elastic Compliance Matrix: (Units=1/GPa)
#
#
# Indices 1 2 3 4 5 6 
#
# 1 0.016242 -0.006591 -0.006397 -0.000003 0.005441 0.000003
# 2 -0.006591 0.021129 -0.004993 0.000022 -0.006694 -0.000018
# 3 -0.006397 -0.004993 0.014668 -0.000005 0.004592 0.000002
# 4 -0.000003 0.000022 -0.000005 0.053647 -0.000006 -0.009327
# 5 0.005441 -0.006694 0.004592 -0.000006 0.050862 0.000006
# 6 0.000003 -0.000018 0.000002 -0.009327 0.000006 0.046743
#
#
# Mechanical properties :
#
#
# Convention : Reuss Voigt Hill
#
# Bulk Modulus (GPa) = 62.20323 69.36795 65.78559
# Shear Modulus (GPa) = 20.44040 22.09415 21.26728
#
# Velocity S-wave (km/s) = 3.57190 3.71358 3.64343
# Velocity P-wave (km/s) = 7.47243 7.85401 7.66559
#
# Compressibility (1/GPa) = 0.01607633
#
# Stress axis : x y z
#
# Youngs Moduli (GPa) = 61.56794 47.32774 68.17529
#
# Poissons Ratio (x) = 0.31194 0.43614
# Poissons Ratio (y) = 0.40580 0.34041
# Poissons Ratio (z) = 0.39387 0.23632
#
# Static dielectric constant tensor:
#      x y z
#    x 3.130630 -0.000080 -0.256080 
#    y -0.000080 3.130060 0.000060 
#    z -0.256080 0.000060 3.307980 
# 
# 
# High freq. dielectric constant tensor:
#      x y z
#    x 1.601780 0.000000 -0.016840 
#    y 0.000000 1.624190 0.000000 
#    z -0.016840 0.000000 1.603970 
# 
# From -- ./inp_files/326820.got.cif
#   From: 2010.06.25/outbox.cif.g09.slc.cpg/sg12_164_cif.got.tgz:326820.got - 2010.06.28 00:19:55.
