data_PCOD8080000
_publ_section_title
;
Structure prediction by ZEFSAII (Michael W. Deem and Ramdas Pophale) SiO2 
 PCOD8080000
Probable space group: C 2/M
;
_chemical_formula_sum "Si O2"
_cell_formula_units_Z 56
_cell_length_a 27.024061
_cell_length_b 8.862542
_cell_length_c 24.855561
_cell_angle_alpha 90.000000
_cell_angle_beta 143.841669
_cell_angle_gamma 90.000000
_cell_volume 3512.353519
_symmetry_space_group_name_H-M "C 2/M"
_symmetry_group_IT_number 12
_symmetry_cell_setting 'monoclinic'
loop_
_space_group_symop_operation_xyz
x,y,z
-x,y,-z
-x,-y,-z
x,-y,z
1/2+x,1/2+y,z
1/2-x,1/2+y,-z
1/2-x,1/2-y,-z
1/2+x,1/2-y,z
loop_
_atom_site_type_symbol
_atom_site_label
_atom_site_fract_x
_atom_site_fract_y
_atom_site_fract_z
Si Si1 0.851361 0.174682 0.532834
Si Si2 0.457167 0.820800 0.538150
Si Si3 0.884960 0.179035 0.370143
Si Si4 0.087663 0.174103 0.185796
Si Si5 0.195433 0.677687 0.190213
Si Si6 0.178943 0.173226 0.372782
Si Si7 0.946065 0.666785 0.006575
O O1 0.920946 0.274791 0.564142
O O2 0.862501 0.207623 0.605924
O O3 0.758643 0.220994 0.432253
O O4 0.865203 0.000000 0.530707
O O5 0.398168 0.748538 0.440716
O O6 0.550762 0.754185 0.615296
O O7 0.459311 0.000000 0.533329
O O8 0.792269 0.221924 0.268612
O O9 0.899324 0.000000 0.385345
O O10 0.158251 0.250833 0.211412
O O11 0.108893 0.207598 0.266556
O O12 0.090150 0.000000 0.173884
O O13 0.992867 0.231137 0.091688
O O14 0.182822 0.500000 0.185762
O O15 0.145107 0.731457 0.092081
O O16 0.209911 0.000000 0.397160
O O17 0.936926 0.500000 0.023615
O O18 0.000000 0.661471 0.000000
#
# Coordination Sequence:
#
# PCOD8080000 Si02
#       7
#     8   8   8   8   8   8   8
#     4  10  19  32  48  64  86 118 152 182 215 258
#     4  11  21  32  45  65  93 118 143 181 223 256
#     4  10  19  32  49  67  86 115 153 181 212 261
#     4  10  18  27  42  65  91 117 144 176 216 258
#     4   9  18  30  44  63  88 117 147 179 212 252
#     4   9  19  32  45  65  91 116 146 184 221 256
#     4   8  15  28  42  59  86 116 144 175 212 254
#
# _framework density 15.943725000000001
#
# number of rings (size 3 to 8) (size 9 to 14) (size 15 to 20)
#    0.000    2.429    0.000    5.143    0.000    7.714 
#    0.000    0.000    0.000    0.000    0.000    1.000 
#    0.000    0.000    0.000    0.000    0.000    0.000 
#
# Total GULP energy -347142.575892 kJ/mol
# GULP energy per Si atom -12397.949139 kJ/mol
# Density = 1.590744 g / cm^3
# Si number density = 15.943725 Si / 1000 Ang^3
#
#
#
# Elastic Constant Matrix: (Units=GPa)
#
#
# Indices 1 2 3 4 5 6 
#
# 1 82.9559 39.7673 53.6326 0.0000 4.2165 0.0000
# 2 39.7673 77.0240 47.8125 0.0000 3.9995 0.0000
# 3 53.6326 47.8125 143.3631 0.0000 8.2949 0.0000
# 4 0.0000 0.0000 0.0000 22.0372 0.0000 -0.3298
# 5 4.2165 3.9995 8.2949 0.0000 21.4632 0.0000
# 6 0.0000 0.0000 0.0000 -0.3298 0.0000 21.7737
#
#
#
# Elastic Compliance Matrix: (Units=1/GPa)
#
#
# Indices 1 2 3 4 5 6 
#
# 1 0.018171 -0.006498 -0.004597 0.000000 -0.000582 0.000000
# 2 -0.006498 0.018715 -0.003767 0.000000 -0.000755 0.000000
# 3 -0.004597 -0.003767 0.010084 0.000000 -0.002292 0.000000
# 4 0.000000 0.000000 0.000000 0.045388 0.000000 0.000688
# 5 -0.000582 -0.000755 -0.002292 0.000000 0.047732 0.000000
# 6 0.000000 0.000000 0.000000 0.000688 0.000000 0.045937
#
#
# Mechanical properties :
#
#
# Convention : Reuss Voigt Hill
#
# Bulk Modulus (GPa) = 57.98293 65.08531 61.53412
# Shear Modulus (GPa) = 22.57319 23.86355 23.21837
#
# Velocity S-wave (km/s) = 3.76680 3.87296 3.82025
# Velocity P-wave (km/s) = 7.44074 7.80451 7.62479
#
# Compressibility (1/GPa) = 0.01724645
#
# Stress axis : x y z
#
# Youngs Moduli (GPa) = 55.03189 53.43174 99.16608
#
# Poissons Ratio (x) = 0.34719 0.45588
# Poissons Ratio (y) = 0.35759 0.37357
# Poissons Ratio (z) = 0.25299 0.20129
#
# Static dielectric constant tensor:
#      x y z
#    x 2.829050 0.000000 0.058610 
#    y 0.000000 3.122740 0.000000 
#    z 0.058610 0.000000 3.332580 
# 
# 
# High freq. dielectric constant tensor:
#      x y z
#    x 1.579060 0.000000 0.001920 
#    y 0.000000 1.623430 0.000000 
#    z 0.001920 0.000000 1.611800 
# 
# From -- ./inp_files/348633.got.cif
#   From: 2010.06.25/outbox.cif.g09.slc.cpg/sg12_175_cif.got.tgz:348633.got - 2010.06.28 00:19:55.
