data_PCOD8080924
_publ_section_title
;
Structure prediction by ZEFSAII (Michael W. Deem and Ramdas Pophale) SiO2 
 PCOD8080924
Probable space group: C 2/M
;
_chemical_formula_sum "Si O2"
_cell_formula_units_Z 64
_cell_length_a 30.240600
_cell_length_b 13.238128
_cell_length_c 11.053587
_cell_angle_alpha 90.000000
_cell_angle_beta 123.459517
_cell_angle_gamma 90.000000
_cell_volume 3691.728472
_symmetry_space_group_name_H-M "C 2/M"
_symmetry_group_IT_number 12
_symmetry_cell_setting 'monoclinic'
loop_
_space_group_symop_operation_xyz
x,y,z
-x,y,-z
-x,-y,-z
x,-y,z
1/2+x,1/2+y,z
1/2-x,1/2+y,-z
1/2-x,1/2-y,-z
1/2+x,1/2-y,z
loop_
_atom_site_type_symbol
_atom_site_label
_atom_site_fract_x
_atom_site_fract_y
_atom_site_fract_z
Si Si1 0.028034 0.386333 0.812028
Si Si2 0.327139 0.809434 0.636578
Si Si3 0.722494 0.385132 0.356778
Si Si4 0.752934 0.116735 0.885814
Si Si5 0.864361 0.382775 0.943515
Si Si6 0.442082 0.199466 0.386084
Si Si7 0.584458 0.119340 0.398103
Si Si8 0.333376 0.756503 0.119583
O O1 0.019805 0.500000 0.839103
O O2 0.045047 0.382934 0.696722
O O3 0.970143 0.337304 0.744009
O O4 0.074856 0.339305 0.964267
O O5 0.322699 0.691314 0.664634
O O6 0.273996 0.861401 0.512024
O O7 0.342556 0.872922 0.777017
O O8 0.369497 0.817050 0.593823
O O9 0.703778 0.500000 0.352021
O O10 0.733268 0.365954 0.232843
O O11 0.699596 0.179828 0.831280
O O12 0.742331 0.000000 0.898823
O O13 0.802357 0.152701 0.043937
O O14 0.863786 0.500000 0.982020
O O15 0.831380 0.320665 0.992277
O O16 0.500000 0.255237 0.500000
O O17 0.417795 0.141610 0.463259
O O18 0.393224 0.268479 0.259494
O O19 0.593655 0.000000 0.392157
#
# Coordination Sequence:
#
# PCOD8080924 Si02
#       8
#     8   8   8   8   8   8   8   8
#     4   8  16  28  45  71 102 131 161 194 239 294
#     4  11  21  32  49  72  97 130 168 199 242 294
#     4  10  21  37  52  68  94 129 169 209 245 284
#     4  10  20  35  54  74  98 131 171 212 249 293
#     4  10  18  30  46  72 106 134 156 194 246 296
#     4   9  17  30  50  74 103 133 166 201 246 300
#     4  10  18  29  47  73 102 135 165 195 236 293
#     4  10  19  32  52  77 102 129 167 206 252 301
#
# _framework density 17.336054000000001
#
# number of rings (size 3 to 8) (size 9 to 14) (size 15 to 20)
#    0.000    2.250    1.250    2.625    0.000    4.500 
#    0.000    1.875    0.000    0.375    0.000    8.750 
#    0.000    0.000    0.000    0.000    0.000    0.000 
#
# Total GULP energy -396454.636299 kJ/mol
# GULP energy per Si atom -12389.207384 kJ/mol
# Density = 1.729660 g / cm^3
# Si number density = 17.336054 Si / 1000 Ang^3
#
#
#
# Elastic Constant Matrix: (Units=GPa)
#
#
# Indices 1 2 3 4 5 6 
#
# 1 142.5805 69.0536 32.5147 0.0000 2.8646 0.0000
# 2 69.0536 90.3942 27.7701 0.0000 -3.3906 0.0000
# 3 32.5147 27.7701 85.2715 0.0000 13.1043 0.0000
# 4 0.0000 0.0000 0.0000 19.0394 0.0000 -2.1759
# 5 2.8646 -3.3906 13.1043 0.0000 30.0547 0.0000
# 6 0.0000 0.0000 0.0000 -2.1759 0.0000 21.3562
#
#
#
# Elastic Compliance Matrix: (Units=1/GPa)
#
#
# Indices 1 2 3 4 5 6 
#
# 1 0.011396 -0.008323 -0.001419 0.000000 -0.001406 0.000000
# 2 -0.008323 0.018695 -0.003602 0.000000 0.004473 0.000000
# 3 -0.001419 -0.003602 0.014451 0.000000 -0.006572 0.000000
# 4 0.000000 0.000000 0.000000 0.053142 0.000000 0.005414
# 5 -0.001406 0.004473 -0.006572 0.000000 0.036777 0.000000
# 6 0.000000 0.000000 0.000000 0.005414 0.000000 0.047377
#
#
# Mechanical properties :
#
#
# Convention : Reuss Voigt Hill
#
# Bulk Modulus (GPa) = 56.00673 64.10254 60.05464
# Shear Modulus (GPa) = 23.31261 26.68391 24.99826
#
# Velocity S-wave (km/s) = 3.67106 3.92754 3.80146
# Velocity P-wave (km/s) = 7.09546 7.59106 7.34744
#
# Compressibility (1/GPa) = 0.01785500
#
# Stress axis : x y z
#
# Youngs Moduli (GPa) = 87.74915 53.49087 69.19740
#
# Poissons Ratio (x) = 0.44518 0.09819
# Poissons Ratio (y) = 0.73029 0.24926
# Poissons Ratio (z) = 0.12451 0.19269
#
# Static dielectric constant tensor:
#      x y z
#    x 3.449740 0.000000 0.228780 
#    y 0.000000 2.955260 0.000000 
#    z 0.228780 0.000000 3.417610 
# 
# 
# High freq. dielectric constant tensor:
#      x y z
#    x 1.675380 0.000000 0.006470 
#    y 0.000000 1.621320 0.000000 
#    z 0.006470 0.000000 1.685180 
# 
# From -- ./inp_files/104698.got.cif
#   From: 2010.06.25/outbox.cif.g09.slc.cpg/sg12_53_cif.got.tgz:104698.got - 2010.06.28 00:19:55.
