data_PCOD8080416
_publ_section_title
;
Structure prediction by ZEFSAII (Michael W. Deem and Ramdas Pophale) SiO2 
 PCOD8080416
Probable space group: C 2/M
;
_chemical_formula_sum "Si O2"
_cell_formula_units_Z 56
_cell_length_a 24.852681
_cell_length_b 9.279391
_cell_length_c 14.561932
_cell_angle_alpha 90.000000
_cell_angle_beta 65.249510
_cell_angle_gamma 90.000000
_cell_volume 3049.750628
_symmetry_space_group_name_H-M "C 2/M"
_symmetry_group_IT_number 12
_symmetry_cell_setting 'monoclinic'
loop_
_space_group_symop_operation_xyz
x,y,z
-x,y,-z
-x,-y,-z
x,-y,z
1/2+x,1/2+y,z
1/2-x,1/2+y,-z
1/2-x,1/2-y,-z
1/2+x,1/2-y,z
loop_
_atom_site_type_symbol
_atom_site_label
_atom_site_fract_x
_atom_site_fract_y
_atom_site_fract_z
Si Si1 0.774392 0.832774 0.744923
Si Si2 0.302065 0.841015 0.029563
Si Si3 0.228885 0.830101 0.605082
Si Si4 0.896865 0.164396 0.231728
Si Si5 0.143754 0.165661 0.159781
Si Si6 0.922922 0.340774 0.036657
Si Si7 0.974172 0.833831 0.848153
O O1 0.727948 0.783181 0.855891
O O2 0.766923 0.730597 0.662986
O O3 0.839862 0.810137 0.744392
O O4 0.764698 0.000000 0.723183
O O5 0.371760 0.851275 0.998120
O O6 0.276871 0.000000 0.022948
O O7 0.301770 0.735984 0.939928
O O8 0.250000 0.750000 0.500000
O O9 0.158965 0.794109 0.665119
O O10 0.240695 0.000000 0.588204
O O11 0.895922 0.261824 0.143167
O O12 0.959587 0.186292 0.241544
O O13 0.890290 0.000000 0.203548
O O14 0.076667 0.220804 0.186938
O O15 0.147338 0.000000 0.131047
O O16 0.945247 0.500000 0.049050
O O17 0.974839 0.255215 0.944271
O O18 0.962733 0.000000 0.881960
#
# Coordination Sequence:
#
# PCOD8080416 Si02
#       7
#     8   8   8   8   8   8   8
#     4  10  19  34  53  75 104 136 170 213 260 304
#     4   9  17  28  44  70 107 143 173 208 247 293
#     4  11  24  40  59  80  99 128 171 221 273 317
#     4  10  20  34  52  72  99 135 172 211 258 307
#     4   9  18  30  49  75 105 141 175 205 244 298
#     4  10  18  28  45  73 107 142 175 207 248 299
#     4   9  18  32  48  72 107 141 173 207 242 296
#
# _framework density 18.362158000000001
#
# number of rings (size 3 to 8) (size 9 to 14) (size 15 to 20)
#    0.000    2.286    1.429    1.714    0.000    4.571 
#    0.000    0.000    0.000    0.857    0.000    6.000 
#    0.000    0.000    0.000    0.000    0.000    0.000 
#
# Total GULP energy -346953.220216 kJ/mol
# GULP energy per Si atom -12391.186436 kJ/mol
# Density = 1.832037 g / cm^3
# Si number density = 18.362158 Si / 1000 Ang^3
#
#
#
# Elastic Constant Matrix: (Units=GPa)
#
#
# Indices 1 2 3 4 5 6 
#
# 1 102.7965 41.2953 60.1025 0.0000 0.4022 0.0000
# 2 41.2953 84.6505 60.8655 0.0000 2.9359 0.0000
# 3 60.1025 60.8655 109.2216 0.0000 3.3831 0.0000
# 4 0.0000 0.0000 0.0000 28.7232 0.0000 4.5858
# 5 0.4022 2.9359 3.3831 0.0000 22.8139 0.0000
# 6 0.0000 0.0000 0.0000 4.5858 0.0000 21.2109
#
#
#
# Elastic Compliance Matrix: (Units=1/GPa)
#
#
# Indices 1 2 3 4 5 6 
#
# 1 0.014618 -0.002270 -0.006812 0.000000 0.001044 0.000000
# 2 -0.002270 0.020083 -0.009909 0.000000 -0.001075 0.000000
# 3 -0.006812 -0.009909 0.018468 0.000000 -0.001343 0.000000
# 4 0.000000 0.000000 0.000000 0.036060 0.000000 -0.007796
# 5 0.001044 -0.001075 -0.001343 0.000000 0.044152 0.000000
# 6 0.000000 0.000000 0.000000 -0.007796 0.000000 0.048831
#
#
# Mechanical properties :
#
#
# Convention : Reuss Voigt Hill
#
# Bulk Modulus (GPa) = 65.84335 69.02169 67.43252
# Shear Modulus (GPa) = 22.19708 23.50996 22.85352
#
# Velocity S-wave (km/s) = 3.48062 3.58208 3.53171
# Velocity P-wave (km/s) = 7.21727 7.40129 7.30986
#
# Compressibility (1/GPa) = 0.01518756
#
# Stress axis : x y z
#
# Youngs Moduli (GPa) = 68.40756 49.79413 54.14886
#
# Poissons Ratio (x) = 0.11302 0.36884
# Poissons Ratio (y) = 0.15527 0.53657
# Poissons Ratio (z) = 0.46597 0.49341
#
# Static dielectric constant tensor:
#      x y z
#    x 3.943710 0.000000 -0.116890 
#    y 0.000000 3.548340 0.000000 
#    z -0.116890 0.000000 2.963560 
# 
# 
# High freq. dielectric constant tensor:
#      x y z
#    x 1.741350 0.000000 -0.007480 
#    y 0.000000 1.713320 0.000000 
#    z -0.007480 0.000000 1.657140 
# 
# From -- ./inp_files/243630.got.cif
#   From: 2010.06.25/outbox.cif.g09.slc.cpg/sg12_122_cif.got.tgz:243630.got - 2010.06.28 00:19:55.
