data_PCOD8080222
_publ_section_title
;
Structure prediction by ZEFSAII (Michael W. Deem and Ramdas Pophale) SiO2 
 PCOD8080222
Probable space group: C 2/M
;
_chemical_formula_sum "Si O2"
_cell_formula_units_Z 56
_cell_length_a 27.916967
_cell_length_b 9.000304
_cell_length_c 14.073676
_cell_angle_alpha 90.000000
_cell_angle_beta 81.490270
_cell_angle_gamma 90.000000
_cell_volume 3497.238005
_symmetry_space_group_name_H-M "C 2/M"
_symmetry_group_IT_number 12
_symmetry_cell_setting 'monoclinic'
loop_
_space_group_symop_operation_xyz
x,y,z
-x,y,-z
-x,-y,-z
x,-y,z
1/2+x,1/2+y,z
1/2-x,1/2+y,-z
1/2-x,1/2-y,-z
1/2+x,1/2-y,z
loop_
_atom_site_type_symbol
_atom_site_label
_atom_site_fract_x
_atom_site_fract_y
_atom_site_fract_z
Si Si1 0.161033 0.675054 0.680926
Si Si2 0.889987 0.675303 0.977632
Si Si3 0.758640 0.325965 0.722712
Si Si4 0.796941 0.669960 0.519833
Si Si5 0.711312 0.174874 0.078460
Si Si6 0.085636 0.175539 0.833240
Si Si7 0.508438 0.163594 0.109028
O O1 0.156224 0.500000 0.703369
O O2 0.210592 0.732631 0.714141
O O3 0.159858 0.711394 0.566606
O O4 0.115428 0.760955 0.736251
O O5 0.890553 0.500000 0.000354
O O6 0.842168 0.726244 0.936356
O O7 0.935689 0.716786 0.895895
O O8 0.892011 0.760913 0.076507
O O9 0.744501 0.500000 0.729321
O O10 0.801839 0.296393 0.631539
O O11 0.780053 0.272129 0.816409
O O12 0.785254 0.500000 0.507199
O O13 0.750000 0.750000 0.500000
O O14 0.717172 0.000000 0.066569
O O15 0.750000 0.250000 0.000000
O O16 0.029478 0.221842 0.834011
O O17 0.089384 0.000000 0.834407
O O18 0.500650 0.000000 0.157145
O O19 0.500000 0.153211 0.000000
#
# Coordination Sequence:
#
# PCOD8080222 Si02
#       7
#     8   8   8   8   8   8   8
#     4  10  18  28  43  63  87 115 143 172 211 258
#     4   9  18  32  46  61  85 117 147 172 205 252
#     4   9  17  30  45  63  87 113 143 179 213 243
#     4   8  15  27  43  61  82 109 140 174 212 252
#     4  10  20  31  44  63  88 117 146 174 203 240
#     4  11  20  28  42  65  89 111 138 177 218 251
#     4   8  15  29  46  61  81 110 141 173 211 256
#
# _framework density 16.012636000000001
#
# number of rings (size 3 to 8) (size 9 to 14) (size 15 to 20)
#    0.000    2.714    0.000    3.429    0.000    6.571 
#    0.000    0.000    0.000    0.000    0.000    1.000 
#    0.000    8.000    0.000    0.000    0.000    0.000 
#
# Total GULP energy -346893.990671 kJ/mol
# GULP energy per Si atom -12389.071095 kJ/mol
# Density = 1.597619 g / cm^3
# Si number density = 16.012636 Si / 1000 Ang^3
#
#
#
# Elastic Constant Matrix: (Units=GPa)
#
#
# Indices 1 2 3 4 5 6 
#
# 1 111.1079 36.1651 60.4984 0.0000 -16.8294 0.0000
# 2 36.1651 63.0619 44.3435 0.0000 -13.6715 0.0000
# 3 60.4984 44.3435 127.7095 0.0000 -18.0045 0.0000
# 4 0.0000 0.0000 0.0000 18.3682 0.0000 -4.5688
# 5 -16.8294 -13.6715 -18.0045 0.0000 22.7400 0.0000
# 6 0.0000 0.0000 0.0000 -4.5688 0.0000 20.5945
#
#
#
# Elastic Compliance Matrix: (Units=1/GPa)
#
#
# Indices 1 2 3 4 5 6 
#
# 1 0.013197 -0.003556 -0.004437 0.000000 0.004116 0.000000
# 2 -0.003556 0.023210 -0.005379 0.000000 0.007064 0.000000
# 3 -0.004437 -0.005379 0.012248 0.000000 0.003180 0.000000
# 4 0.000000 0.000000 0.000000 0.057621 0.000000 0.012783
# 5 0.004116 0.007064 0.003180 0.000000 0.053786 0.000000
# 6 0.000000 0.000000 0.000000 0.012783 0.000000 0.051393
#
#
# Mechanical properties :
#
#
# Convention : Reuss Voigt Hill
#
# Bulk Modulus (GPa) = 45.63634 64.87703 55.25668
# Shear Modulus (GPa) = 20.36639 23.06538 21.71589
#
# Velocity S-wave (km/s) = 3.57023 3.79944 3.68662
# Velocity P-wave (km/s) = 6.74963 7.73639 7.25980
#
# Compressibility (1/GPa) = 0.02191236
#
# Stress axis : x y z
#
# Youngs Moduli (GPa) = 75.77488 43.08416 81.64685
#
# Poissons Ratio (x) = 0.15322 0.36223
# Poissons Ratio (y) = 0.26948 0.43915
# Poissons Ratio (z) = 0.33618 0.23173
#
# Static dielectric constant tensor:
#      x y z
#    x 3.212110 0.000000 -0.238630 
#    y 0.000000 3.046740 0.000000 
#    z -0.238630 0.000000 3.502600 
# 
# 
# High freq. dielectric constant tensor:
#      x y z
#    x 1.592020 0.000000 -0.024760 
#    y 0.000000 1.617200 0.000000 
#    z -0.024760 0.000000 1.606470 
# 
# From -- ./inp_files/247829.got.cif
#   From: 2010.06.25/outbox.cif.g09.slc.cpg/sg12_124_cif.got.tgz:247829.got - 2010.06.28 00:19:55.
