data_PCOD8080364
_publ_section_title
;
Structure prediction by ZEFSAII (Michael W. Deem and Ramdas Pophale) SiO2 
 PCOD8080364
Probable space group: C 2/M
;
_chemical_formula_sum "Si O2"
_cell_formula_units_Z 56
_cell_length_a 29.674091
_cell_length_b 9.027695
_cell_length_c 18.936601
_cell_angle_alpha 90.000000
_cell_angle_beta 38.643237
_cell_angle_gamma 90.000000
_cell_volume 3167.869899
_symmetry_space_group_name_H-M "C 2/M"
_symmetry_group_IT_number 12
_symmetry_cell_setting 'monoclinic'
loop_
_space_group_symop_operation_xyz
x,y,z
-x,y,-z
-x,-y,-z
x,-y,z
1/2+x,1/2+y,z
1/2-x,1/2+y,-z
1/2-x,1/2-y,-z
1/2+x,1/2-y,z
loop_
_atom_site_type_symbol
_atom_site_label
_atom_site_fract_x
_atom_site_fract_y
_atom_site_fract_z
Si Si1 0.195549 0.175564 0.918117
Si Si2 0.392721 0.834075 0.583348
Si Si3 0.843580 0.823531 0.775780
Si Si4 0.914866 0.825451 0.832452
Si Si5 0.067777 0.825728 0.599556
Si Si6 0.768673 0.163890 0.275564
Si Si7 0.276383 0.673543 0.538015
O O1 0.262912 0.262959 0.867447
O O2 0.181909 0.214186 0.851707
O O3 0.210639 0.000000 0.907667
O O4 0.124979 0.229455 0.047673
O O5 0.396659 0.742074 0.650959
O O6 0.440617 0.754067 0.465470
O O7 0.311178 0.838631 0.657202
O O8 0.422243 0.000000 0.559722
O O9 0.873960 0.765489 0.813296
O O10 0.842789 0.000000 0.769817
O O11 0.998877 0.775777 0.730772
O O12 0.911212 0.000000 0.833843
O O13 0.140712 0.777975 0.550647
O O14 0.068571 0.000000 0.583566
O O15 0.774065 0.275728 0.334696
O O16 0.791079 0.000000 0.274854
O O17 0.267886 0.500000 0.539657
O O18 0.250000 0.750000 0.500000
#
# Coordination Sequence:
#
# PCOD8080364 Si02
#       7
#     8   8   8   8   8   8   8
#     4   9  17  31  49  68  94 128 162 198 232 266
#     4   9  17  30  46  65  93 126 158 198 240 278
#     4  10  18  28  45  68  93 125 165 205 235 267
#     4   9  18  31  47  67  94 128 163 197 234 271
#     4   9  18  33  50  69  93 123 157 191 232 285
#     4   8  15  28  47  69  92 118 150 186 226 269
#     4  10  19  31  52  76  95 114 142 184 232 283
#
# _framework density 17.677492999999998
#
# number of rings (size 3 to 8) (size 9 to 14) (size 15 to 20)
#    0.000    2.857    0.000    2.571    0.000    4.571 
#    0.000    5.714    0.000    0.857    0.000    6.000 
#    0.000    0.000    0.000    0.000    0.000    0.000 
#
# Total GULP energy -347056.599271 kJ/mol
# GULP energy per Si atom -12394.878545 kJ/mol
# Density = 1.763726 g / cm^3
# Si number density = 17.677493 Si / 1000 Ang^3
#
#
#
# Elastic Constant Matrix: (Units=GPa)
#
#
# Indices 1 2 3 4 5 6 
#
# 1 74.8678 37.0731 72.7468 0.0148 21.6533 -0.0011
# 2 37.0731 66.5731 44.2450 0.0011 10.1525 0.0007
# 3 72.7468 44.2450 148.8805 0.0074 19.5374 -0.0070
# 4 0.0148 0.0011 0.0074 22.9662 -0.0071 5.9698
# 5 21.6533 10.1525 19.5374 -0.0071 25.1732 0.0018
# 6 -0.0011 0.0007 -0.0070 5.9698 0.0018 20.6783
#
#
#
# Elastic Compliance Matrix: (Units=1/GPa)
#
#
# Indices 1 2 3 4 5 6 
#
# 1 0.033827 -0.008443 -0.011855 -0.000024 -0.016490 0.000007
# 2 -0.008443 0.021123 -0.002212 0.000006 0.000461 -0.000004
# 3 -0.011855 -0.002212 0.013040 0.000003 0.000969 0.000003
# 4 -0.000024 0.000006 0.000003 0.047075 0.000030 -0.013591
# 5 -0.016490 0.000461 0.000969 0.000030 0.052971 -0.000014
# 6 0.000007 -0.000004 0.000003 -0.013591 -0.000014 0.052283
#
#
# Mechanical properties :
#
#
# Convention : Reuss Voigt Hill
#
# Bulk Modulus (GPa) = 43.53944 66.49458 55.01701
# Shear Modulus (GPa) = 18.31520 22.84730 20.58125
#
# Velocity S-wave (km/s) = 3.22230 3.59897 3.41583
# Velocity P-wave (km/s) = 6.20707 7.41398 6.83721
#
# Compressibility (1/GPa) = 0.02296768
#
# Stress axis : x y z
#
# Youngs Moduli (GPa) = 29.56240 47.34164 76.68799
#
# Poissons Ratio (x) = 0.39972 0.90916
# Poissons Ratio (y) = 0.24961 0.16965
# Poissons Ratio (z) = 0.35047 0.10473
#
# Static dielectric constant tensor:
#      x y z
#    x 3.042880 -0.000010 0.199070 
#    y -0.000010 3.264850 0.000040 
#    z 0.199070 0.000040 3.827530 
# 
# 
# High freq. dielectric constant tensor:
#      x y z
#    x 1.649720 0.000000 0.017310 
#    y 0.000000 1.675320 0.000000 
#    z 0.017310 0.000000 1.689180 
# 
# From -- ./inp_files/287319.got.cif
#   From: 2010.06.25/outbox.cif.g09.slc.cpg/sg12_144_cif.got.tgz:287319.got - 2010.06.28 00:19:55.
