data_PCOD8080174
_publ_section_title
;
Structure prediction by ZEFSAII (Michael W. Deem and Ramdas Pophale) SiO2 
 PCOD8080174
Probable space group: C 2/M
;
_chemical_formula_sum "Si O2"
_cell_formula_units_Z 56
_cell_length_a 25.421936
_cell_length_b 8.924260
_cell_length_c 17.114157
_cell_angle_alpha 90.000000
_cell_angle_beta 120.536873
_cell_angle_gamma 90.000000
_cell_volume 3344.197987
_symmetry_space_group_name_H-M "C 2/M"
_symmetry_group_IT_number 12
_symmetry_cell_setting 'monoclinic'
loop_
_space_group_symop_operation_xyz
x,y,z
-x,y,-z
-x,-y,-z
x,-y,z
1/2+x,1/2+y,z
1/2-x,1/2+y,-z
1/2-x,1/2-y,-z
1/2+x,1/2-y,z
loop_
_atom_site_type_symbol
_atom_site_label
_atom_site_fract_x
_atom_site_fract_y
_atom_site_fract_z
Si Si1 0.507278 0.821370 0.220262
Si Si2 0.555341 0.178302 0.094260
Si Si3 0.528939 0.178142 0.405552
Si Si4 0.130546 0.677882 0.893785
Si Si5 0.174099 0.677867 0.094542
Si Si6 0.907552 0.322112 0.396909
Si Si7 0.800972 0.678048 0.208821
O O1 0.546651 0.762532 0.176429
O O2 0.538946 0.762846 0.324548
O O3 0.438247 0.758260 0.163157
O O4 0.504860 0.000000 0.217057
O O5 0.619496 0.236382 0.108831
O O6 0.553777 0.000000 0.090126
O O7 0.500000 0.241817 0.000000
O O8 0.582766 0.232338 0.505549
O O9 0.463768 0.238548 0.387243
O O10 0.527109 0.000000 0.403789
O O11 0.127413 0.500000 0.890279
O O12 0.170283 0.736659 0.850930
O O13 0.161780 0.734849 0.997121
O O14 0.179595 0.500000 0.101357
O O15 0.235590 0.749400 0.173636
O O16 0.908241 0.500000 0.393549
O O17 0.843991 0.264514 0.312538
O O18 0.794581 0.500000 0.203363
#
# Coordination Sequence:
#
# PCOD8080174 Si02
#       7
#     8   8   8   8   8   8   8
#     4   9  13  20  37  60  84 104 128 171 217 244
#     4   9  15  24  39  58  79 106 139 173 206 237
#     4   8  12  19  34  58  84 104 126 166 215 247
#     4   9  15  24  39  61  86 109 133 165 206 246
#     4  10  19  29  41  60  86 113 140 168 199 240
#     4   8  13  21  35  57  84 107 128 162 208 250
#     4  10  18  28  42  61  86 114 138 162 201 251
#
# _framework density 16.745419999999999
#
# number of rings (size 3 to 8) (size 9 to 14) (size 15 to 20)
#    0.000    3.000    2.857    1.286    0.000    0.000 
#    0.000    0.000    0.000    1.286    0.000    2.000 
#    0.000    0.000    0.000    0.000    0.000    0.000 
#
# Total GULP energy -346955.689432 kJ/mol
# GULP energy per Si atom -12391.274623 kJ/mol
# Density = 1.670731 g / cm^3
# Si number density = 16.745420 Si / 1000 Ang^3
#
#
#
# Elastic Constant Matrix: (Units=GPa)
#
#
# Indices 1 2 3 4 5 6 
#
# 1 130.3233 11.6153 90.6454 0.0000 0.1742 0.0000
# 2 11.6153 6.3286 13.1541 0.0000 1.8902 0.0000
# 3 90.6454 13.1541 177.2844 0.0000 -6.7495 0.0000
# 4 0.0000 0.0000 0.0000 12.7197 0.0000 6.7169
# 5 0.1742 1.8902 -6.7495 0.0000 30.5819 0.0000
# 6 0.0000 0.0000 0.0000 6.7169 0.0000 10.9722
#
#
#
# Elastic Compliance Matrix: (Units=1/GPa)
#
#
# Indices 1 2 3 4 5 6 
#
# 1 0.012588 -0.011223 -0.005627 0.000000 -0.000620 0.000000
# 2 -0.011223 0.203651 -0.009933 0.000000 -0.014716 0.000000
# 3 -0.005627 -0.009933 0.009358 0.000000 0.002711 0.000000
# 4 0.000000 0.000000 0.000000 0.116173 0.000000 -0.071118
# 5 -0.000620 -0.014716 0.002711 0.000000 0.034211 0.000000
# 6 0.000000 0.000000 0.000000 -0.071118 0.000000 0.134676
#
#
# Mechanical properties :
#
#
# Convention : Reuss Voigt Hill
#
# Bulk Modulus (GPa) = 5.81285 60.52955 33.17120
# Shear Modulus (GPa) = 8.04419 24.08952 16.06685
#
# Velocity S-wave (km/s) = 2.19414 3.79697 3.10090
# Velocity P-wave (km/s) = 3.14608 7.44634 5.71602
#
# Compressibility (1/GPa) = 0.17203256
#
# Stress axis : x y z
#
# Youngs Moduli (GPa) = 79.43868 4.91036 106.85927
#
# Poissons Ratio (x) = 0.05511 0.60133
# Poissons Ratio (y) = 0.89150 1.06139
# Poissons Ratio (z) = 0.44703 0.04877
#
# Static dielectric constant tensor:
#      x y z
#    x 3.229500 0.000000 -0.204920 
#    y 0.000000 2.418150 0.000000 
#    z -0.204920 0.000000 3.558680 
# 
# 
# High freq. dielectric constant tensor:
#      x y z
#    x 1.631850 0.000000 -0.009250 
#    y 0.000000 1.569580 0.000000 
#    z -0.009250 0.000000 1.656600 
# 
# From -- ./inp_files/282610.got.cif
#   From: 2010.06.25/outbox.cif.g09.slc.cpg/sg12_142_cif.got.tgz:282610.got - 2010.06.28 00:19:55.
