data_PCOD8080549
_publ_section_title
;
Structure prediction by ZEFSAII (Michael W. Deem and Ramdas Pophale) SiO2 
 PCOD8080549
Probable space group: C 2/M
;
_chemical_formula_sum "Si O2"
_cell_formula_units_Z 28
_cell_length_a 19.212743
_cell_length_b 18.499773
_cell_length_c 7.113171
_cell_angle_alpha 90.000000
_cell_angle_beta 134.974892
_cell_angle_gamma 90.000000
_cell_volume 1788.521875
_symmetry_space_group_name_H-M "C 2/M"
_symmetry_group_IT_number 12
_symmetry_cell_setting 'monoclinic'
loop_
_space_group_symop_operation_xyz
x,y,z
-x,y,-z
-x,-y,-z
x,-y,z
1/2+x,1/2+y,z
1/2-x,1/2+y,-z
1/2-x,1/2-y,-z
1/2+x,1/2-y,z
loop_
_atom_site_type_symbol
_atom_site_label
_atom_site_fract_x
_atom_site_fract_y
_atom_site_fract_z
Si Si1 0.393310 0.735586 0.804509
Si Si2 0.726163 0.788092 0.759634
Si Si3 0.500000 0.873290 0.000000
Si Si4 0.913071 0.580686 0.466288
O O1 0.344759 0.737125 0.502918
O O2 0.325029 0.696837 0.827917
O O3 0.412106 0.819389 0.903782
O O4 0.500000 0.694988 0.000000
O O5 0.678481 0.865227 0.717080
O O6 0.750000 0.750000 0.000000
O O7 0.459205 0.924644 0.761227
O O8 0.878522 0.500000 0.340679
O O9 0.000000 0.610116 0.500000
#
# Coordination Sequence:
#
# PCOD8080549 Si02
#       4
#     8   8   4   8
#     4   8  17  30  45  70  93 111 154 199 220 273
#     4  10  18  28  48  68  92 125 155 188 231 268
#     4   8  15  30  48  64  93 116 146 186 237 268
#     4  10  19  29  44  68  97 123 150 185 233 286
#
# _framework density 15.655386
#
# number of rings (size 3 to 8) (size 9 to 14) (size 15 to 20)
#    0.857    2.000    0.000    2.143    0.000    0.000 
#    0.000    0.000    0.000    0.857    0.000    2.000 
#    0.000    0.000    0.000    0.000    0.000    0.000 
#
# Total GULP energy -173435.459121 kJ/mol
# GULP energy per Si atom -12388.247080 kJ/mol
# Density = 1.561975 g / cm^3
# Si number density = 15.655386 Si / 1000 Ang^3
#
#
#
# Elastic Constant Matrix: (Units=GPa)
#
#
# Indices 1 2 3 4 5 6 
#
# 1 138.5297 50.8088 47.8327 0.0000 11.3099 0.0000
# 2 50.8088 66.2825 29.1580 0.0000 -1.6028 0.0000
# 3 47.8327 29.1580 101.1299 0.0000 3.2041 0.0000
# 4 0.0000 0.0000 0.0000 13.3202 0.0000 -12.4716
# 5 11.3099 -1.6028 3.2041 0.0000 22.6297 0.0000
# 6 0.0000 0.0000 0.0000 -12.4716 0.0000 -29.0651
#
#
#
# Elastic Compliance Matrix: (Units=1/GPa)
#
#
# Indices 1 2 3 4 5 6 
#
# 1 0.011571 -0.007658 -0.003078 0.000000 -0.005890 0.000000
# 2 -0.007658 0.022432 -0.003031 0.000000 0.005845 0.000000
# 3 -0.003078 -0.003031 0.012231 0.000000 -0.000408 0.000000
# 4 0.000000 0.000000 0.000000 0.053557 0.000000 -0.022981
# 5 -0.005890 0.005845 -0.000408 0.000000 0.047605 0.000000
# 6 0.000000 0.000000 0.000000 -0.022981 0.000000 -0.024545
#
#
# Mechanical properties :
#
#
# Convention : Reuss Voigt Hill
#
# Bulk Modulus (GPa) = 53.47656 62.39343 57.93500
# Shear Modulus (GPa) = 31.92460 13.25314 22.58887
#
# Velocity S-wave (km/s) = 4.52066 2.91272 3.80265
# Velocity P-wave (km/s) = 7.84099 7.15910 7.50779
#
# Compressibility (1/GPa) = 0.01869978
#
# Stress axis : x y z
#
# Youngs Moduli (GPa) = 86.42132 44.57960 81.75938
#
# Poissons Ratio (x) = 0.34140 0.25169
# Poissons Ratio (y) = 0.66183 0.24778
# Poissons Ratio (z) = 0.26604 0.13510
#
# Static dielectric constant tensor:
#      x y z
#    x 3.009240 0.000000 0.050810 
#    y 0.000000 2.586920 0.000000 
#    z 0.050810 0.000000 3.041150 
# 
# 
# High freq. dielectric constant tensor:
#      x y z
#    x 1.600390 0.000000 -0.004740 
#    y 0.000000 1.559000 0.000000 
#    z -0.004740 0.000000 1.607660 
# 
# From -- ./inp_files/9745.got.cif
#   From: 2010.06.25/outbox.cif.g09.slc.cpg/sg12_5_cif.got.tgz:9745.got - 2010.06.28 00:19:55.
