data_PCOD8080581
_publ_section_title
;
Structure prediction by ZEFSAII (Michael W. Deem and Ramdas Pophale) SiO2 
 PCOD8080581
Probable space group: C 2/M
;
_chemical_formula_sum "Si O2"
_cell_formula_units_Z 64
_cell_length_a 23.529393
_cell_length_b 9.002317
_cell_length_c 19.819774
_cell_angle_alpha 90.000000
_cell_angle_beta 121.492219
_cell_angle_gamma 90.000000
_cell_volume 3579.856737
_symmetry_space_group_name_H-M "C 2/M"
_symmetry_group_IT_number 12
_symmetry_cell_setting 'monoclinic'
loop_
_space_group_symop_operation_xyz
x,y,z
-x,y,-z
-x,-y,-z
x,-y,z
1/2+x,1/2+y,z
1/2-x,1/2+y,-z
1/2-x,1/2-y,-z
1/2+x,1/2-y,z
loop_
_atom_site_type_symbol
_atom_site_label
_atom_site_fract_x
_atom_site_fract_y
_atom_site_fract_z
Si Si1 0.784415 0.324802 0.712698
Si Si2 0.808113 0.325802 0.077314
Si Si3 0.295768 0.167851 0.227231
Si Si4 0.583781 0.832516 0.412473
Si Si5 0.425712 0.827412 0.752270
Si Si6 0.941949 0.825586 0.168386
Si Si7 0.209100 0.824673 0.534147
Si Si8 0.940333 0.330616 0.305205
O O1 0.783913 0.500000 0.712000
O O2 0.756072 0.270890 0.766322
O O3 0.860137 0.268242 0.750358
O O4 0.738396 0.265931 0.623078
O O5 0.809514 0.500000 0.063217
O O6 0.796114 0.291401 0.148652
O O7 0.877949 0.254946 0.095708
O O8 0.750000 0.250000 0.000000
O O9 0.371380 0.191572 0.303505
O O10 0.272225 0.000000 0.224172
O O11 0.585793 0.799057 0.334125
O O12 0.631574 0.720766 0.482001
O O13 0.507251 0.810585 0.391634
O O14 0.608483 0.000000 0.441731
O O15 0.488994 0.736408 0.820194
O O16 0.438846 0.000000 0.774572
O O17 0.942842 0.790369 0.248115
O O18 0.936722 0.000000 0.152058
O O19 0.250000 0.750000 0.500000
O O20 0.216461 0.000000 0.531853
O O21 0.940382 0.500000 0.274110
#
# Coordination Sequence:
#
# PCOD8080581 Si02
#       8
#     8   8   8   8   8   8   8   8
#     4  10  21  35  50  70 101 140 175 212 260 310
#     4  10  20  36  58  84 111 137 165 202 249 299
#     4   9  19  35  54  77 103 133 169 207 248 302
#     4   9  16  30  50  70  94 128 170 219 266 305
#     4   9  17  32  49  68 100 138 173 211 258 304
#     4  10  18  28  48  80 107 130 168 211 250 295
#     4  11  21  33  47  69  99 132 173 220 265 308
#     4   8  16  32  50  68  98 134 167 209 260 308
#
# _framework density 17.87781
#
# number of rings (size 3 to 8) (size 9 to 14) (size 15 to 20)
#    0.000    2.500    1.250    3.375    0.000    6.000 
#    0.000    0.625    0.000    4.500    0.000    5.250 
#    0.000    0.000    0.000    0.000    0.000    0.000 
#
# Total GULP energy -396644.207945 kJ/mol
# GULP energy per Si atom -12395.131498 kJ/mol
# Density = 1.783712 g / cm^3
# Si number density = 17.877810 Si / 1000 Ang^3
#
#
#
# Elastic Constant Matrix: (Units=GPa)
#
#
# Indices 1 2 3 4 5 6 
#
# 1 120.0310 44.9722 54.1208 0.0000 29.2822 0.0000
# 2 44.9722 82.5234 45.8874 0.0000 18.5440 0.0000
# 3 54.1208 45.8874 84.5241 0.0000 32.0071 0.0000
# 4 0.0000 0.0000 0.0000 28.3579 0.0000 6.0755
# 5 29.2822 18.5440 32.0071 0.0000 30.8161 0.0000
# 6 0.0000 0.0000 0.0000 6.0755 0.0000 30.6290
#
#
#
# Elastic Compliance Matrix: (Units=1/GPa)
#
#
# Indices 1 2 3 4 5 6 
#
# 1 0.012934 -0.003381 -0.004224 0.000000 -0.005869 0.000000
# 2 -0.003381 0.018264 -0.007920 0.000000 0.000449 0.000000
# 3 -0.004224 -0.007920 0.025566 0.000000 -0.017774 0.000000
# 4 0.000000 0.000000 0.000000 0.036829 0.000000 -0.007305
# 5 -0.005869 0.000449 -0.017774 0.000000 0.056218 0.000000
# 6 0.000000 0.000000 0.000000 -0.007305 0.000000 0.034098
#
#
# Mechanical properties :
#
#
# Convention : Reuss Voigt Hill
#
# Bulk Modulus (GPa) = 38.89030 64.11550 51.50290
# Shear Modulus (GPa) = 22.36840 27.43381 24.90111
#
# Velocity S-wave (km/s) = 3.54104 3.92154 3.73614
# Velocity P-wave (km/s) = 6.20639 7.51303 6.89075
#
# Compressibility (1/GPa) = 0.02571335
#
# Stress axis : x y z
#
# Youngs Moduli (GPa) = 77.31443 54.75383 39.11466
#
# Poissons Ratio (x) = 0.18513 0.16521
# Poissons Ratio (y) = 0.26142 0.30979
# Poissons Ratio (z) = 0.32657 0.43365
#
# Static dielectric constant tensor:
#      x y z
#    x 3.437770 0.000000 0.463840 
#    y 0.000000 3.224750 0.000000 
#    z 0.463840 0.000000 3.235410 
# 
# 
# High freq. dielectric constant tensor:
#      x y z
#    x 1.686870 0.000000 0.038340 
#    y 0.000000 1.688900 0.000000 
#    z 0.038340 0.000000 1.662110 
# 
# From -- ./inp_files/324309.got.cif
#   From: 2010.06.25/outbox.cif.g09.slc.cpg/sg12_163_cif.got.tgz:324309.got - 2010.06.28 00:19:55.
