data_PCOD8080426
_publ_section_title
;
Structure prediction by ZEFSAII (Michael W. Deem and Ramdas Pophale) SiO2 
 PCOD8080426
Probable space group: C 2/M
;
_chemical_formula_sum "Si O2"
_cell_formula_units_Z 56
_cell_length_a 32.163781
_cell_length_b 14.087120
_cell_length_c 9.469515
_cell_angle_alpha 90.000000
_cell_angle_beta 54.439325
_cell_angle_gamma 90.000000
_cell_volume 3490.395683
_symmetry_space_group_name_H-M "C 2/M"
_symmetry_group_IT_number 12
_symmetry_cell_setting 'monoclinic'
loop_
_space_group_symop_operation_xyz
x,y,z
-x,y,-z
-x,-y,-z
x,-y,z
1/2+x,1/2+y,z
1/2-x,1/2+y,-z
1/2-x,1/2-y,-z
1/2+x,1/2-y,z
loop_
_atom_site_type_symbol
_atom_site_label
_atom_site_fract_x
_atom_site_fract_y
_atom_site_fract_z
Si Si1 0.686329 0.399488 0.280696
Si Si2 0.721269 0.847551 0.046202
Si Si3 0.724696 0.391742 0.516098
Si Si4 0.134958 0.389596 0.999060
Si Si5 0.557848 0.889837 0.393088
Si Si6 0.669661 0.793004 0.666197
Si Si7 0.359268 0.796032 0.592235
O O1 0.655484 0.500000 0.348225
O O2 0.716755 0.380085 0.365186
O O3 0.648527 0.311051 0.329953
O O4 0.730528 0.416785 0.074079
O O5 0.687033 0.863273 0.255273
O O6 0.750000 0.750000 0.000000
O O7 0.683424 0.851501 0.988595
O O8 0.713366 0.500000 0.589393
O O9 0.687155 0.315448 0.665976
O O10 0.782652 0.364545 0.436937
O O11 0.142464 0.500000 0.947793
O O12 0.130898 0.328573 0.863592
O O13 0.083566 0.372679 0.189998
O O14 0.500000 0.852617 0.500000
O O15 0.586448 0.832014 0.459381
O O16 0.560117 0.000000 0.431090
O O17 0.639431 0.798272 0.578541
#
# Coordination Sequence:
#
# PCOD8080426 Si02
#       7
#     8   8   8   8   8   8   8
#     4   9  15  27  45  65  91 126 160 181 213 271
#     4   9  16  26  42  62  90 124 157 185 213 263
#     4   9  17  27  41  63  97 135 160 180 215 263
#     4  10  18  30  49  67  90 125 155 182 230 283
#     4   9  19  36  54  68  86 116 152 194 244 288
#     4  10  18  28  46  67  96 127 157 190 224 267
#     4   9  19  30  45  69  92 118 154 197 231 267
#
# _framework density 16.044027
#
# number of rings (size 3 to 8) (size 9 to 14) (size 15 to 20)
#    0.000    2.714    1.429    0.857    2.000    1.714 
#    0.000    0.714    0.000    3.000    0.000    0.000 
#    0.000    4.571    0.000    0.000    0.000    0.000 
#
# Total GULP energy -346880.755764 kJ/mol
# GULP energy per Si atom -12388.598420 kJ/mol
# Density = 1.600751 g / cm^3
# Si number density = 16.044027 Si / 1000 Ang^3
#
#
#
# Elastic Constant Matrix: (Units=GPa)
#
#
# Indices 1 2 3 4 5 6 
#
# 1 78.0009 45.4644 40.2625 0.0000 -11.3829 0.0000
# 2 45.4644 103.8264 42.7941 0.0000 -2.6822 0.0000
# 3 40.2625 42.7941 77.6960 0.0000 -0.8915 0.0000
# 4 0.0000 0.0000 0.0000 19.2749 0.0000 2.4154
# 5 -11.3829 -2.6822 -0.8915 0.0000 20.3399 0.0000
# 6 0.0000 0.0000 0.0000 2.4154 0.0000 21.2525
#
#
#
# Elastic Compliance Matrix: (Units=1/GPa)
#
#
# Indices 1 2 3 4 5 6 
#
# 1 0.022143 -0.006119 -0.007976 0.000000 0.011236 0.000000
# 2 -0.006119 0.014188 -0.004664 0.000000 -0.001758 0.000000
# 3 -0.007976 -0.004664 0.019524 0.000000 -0.004223 0.000000
# 4 0.000000 0.000000 0.000000 0.052631 0.000000 -0.005982
# 5 0.011236 -0.001758 -0.004223 0.000000 0.055036 0.000000
# 6 0.000000 0.000000 0.000000 -0.005982 0.000000 0.047733
#
#
# Mechanical properties :
#
#
# Convention : Reuss Voigt Hill
#
# Bulk Modulus (GPa) = 54.53005 57.39612 55.96309
# Shear Modulus (GPa) = 19.61678 20.90694 20.26186
#
# Velocity S-wave (km/s) = 3.50048 3.61376 3.55757
# Velocity P-wave (km/s) = 7.09925 7.29823 7.19943
#
# Compressibility (1/GPa) = 0.01833851
#
# Stress axis : x y z
#
# Youngs Moduli (GPa) = 45.16022 70.48389 51.21867
#
# Poissons Ratio (x) = 0.43127 0.40851
# Poissons Ratio (y) = 0.27632 0.23888
# Poissons Ratio (z) = 0.36019 0.32873
#
# Static dielectric constant tensor:
#      x y z
#    x 2.754480 0.000000 0.069120 
#    y 0.000000 -0.665510 0.000000 
#    z 0.069120 0.000000 3.139450 
# 
# 
# High freq. dielectric constant tensor:
#      x y z
#    x 1.579590 0.000000 0.015060 
#    y 0.000000 1.621810 0.000000 
#    z 0.015060 0.000000 1.602860 
# 
# From -- ./inp_files/96516.got.cif
#   From: 2010.06.25/outbox.cif.g09.slc.cpg/sg12_49_cif.got.tgz:96516.got - 2010.06.28 00:19:55.
