data_PCOD8080768
_publ_section_title
;
Structure prediction by ZEFSAII (Michael W. Deem and Ramdas Pophale) SiO2 
 PCOD8080768
Probable space group: C 2/M
;
_chemical_formula_sum "Si O2"
_cell_formula_units_Z 64
_cell_length_a 27.586985
_cell_length_b 9.005064
_cell_length_c 19.521086
_cell_angle_alpha 90.000000
_cell_angle_beta 131.781968
_cell_angle_gamma 90.000000
_cell_volume 3616.186752
_symmetry_space_group_name_H-M "C 2/M"
_symmetry_group_IT_number 12
_symmetry_cell_setting 'monoclinic'
loop_
_space_group_symop_operation_xyz
x,y,z
-x,y,-z
-x,-y,-z
x,-y,z
1/2+x,1/2+y,z
1/2-x,1/2+y,-z
1/2-x,1/2-y,-z
1/2+x,1/2-y,z
loop_
_atom_site_type_symbol
_atom_site_label
_atom_site_fract_x
_atom_site_fract_y
_atom_site_fract_z
Si Si1 0.797037 0.672570 0.597578
Si Si2 0.954786 0.831721 0.380786
Si Si3 0.676311 0.825426 0.736469
Si Si4 0.419027 0.832802 0.516897
Si Si5 0.711194 0.327218 0.642999
Si Si6 0.438878 0.333203 0.203482
Si Si7 0.809536 0.675255 0.093734
Si Si8 0.062494 0.665467 0.305390
O O1 0.797420 0.500000 0.578053
O O2 0.750000 0.750000 0.500000
O O3 0.773024 0.699450 0.652408
O O4 0.870296 0.735906 0.659902
O O5 0.895573 0.731615 0.354404
O O6 0.949484 0.829860 0.294278
O O7 0.024780 0.762947 0.469166
O O8 0.949061 0.000000 0.403074
O O9 0.726588 0.746043 0.731707
O O10 0.694410 0.778645 0.830223
O O11 0.679047 0.000000 0.729417
O O12 0.350228 0.752729 0.448493
O O13 0.437648 0.842025 0.613328
O O14 0.415348 0.000000 0.482819
O O15 0.695825 0.500000 0.637437
O O16 0.427715 0.500000 0.166398
O O17 0.376261 0.235644 0.124250
O O18 0.502021 0.266720 0.224516
O O19 0.807003 0.500000 0.081344
O O20 0.750000 0.750000 0.000000
O O21 0.052603 0.500000 0.265935
#
# Coordination Sequence:
#
# PCOD8080768 Si02
#       8
#     8   8   8   8   8   8   8   8
#     4  10  20  33  49  70  96 131 176 221 260 296
#     4   9  17  30  47  67  94 126 164 206 245 287
#     4  10  21  36  51  70  98 130 163 198 243 297
#     4  10  18  29  46  66  92 129 170 209 251 294
#     4  11  22  33  47  68  96 130 171 214 253 292
#     4   9  17  29  48  75 103 130 161 200 244 294
#     4  10  20  35  57  82 106 131 158 194 240 299
#     4   9  17  30  47  68  97 132 169 212 255 293
#
# _framework density 17.6982
#
# number of rings (size 3 to 8) (size 9 to 14) (size 15 to 20)
#    0.000    2.250    1.250    2.250    0.000    6.500 
#    0.000    2.500    0.000    0.000    0.000    0.875 
#    0.000    7.000    0.000    0.000    0.000    0.000 
#
# Total GULP energy -396819.850295 kJ/mol
# GULP energy per Si atom -12400.620322 kJ/mol
# Density = 1.765792 g / cm^3
# Si number density = 17.698200 Si / 1000 Ang^3
#
#
#
# Elastic Constant Matrix: (Units=GPa)
#
#
# Indices 1 2 3 4 5 6 
#
# 1 115.1350 52.5952 33.6051 0.0000 20.6438 0.0000
# 2 52.5952 109.5659 33.7618 0.0000 11.3708 0.0000
# 3 33.6051 33.7618 75.2570 0.0000 18.8924 0.0000
# 4 0.0000 0.0000 0.0000 25.3549 0.0000 4.5080
# 5 20.6438 11.3708 18.8924 0.0000 22.6064 0.0000
# 6 0.0000 0.0000 0.0000 4.5080 0.0000 27.5010
#
#
#
# Elastic Compliance Matrix: (Units=1/GPa)
#
#
# Indices 1 2 3 4 5 6 
#
# 1 0.012765 -0.004829 -0.001540 0.000000 -0.007940 0.000000
# 2 -0.004829 0.012471 -0.003759 0.000000 0.001279 0.000000
# 3 -0.001540 -0.003759 0.018773 0.000000 -0.012391 0.000000
# 4 0.000000 0.000000 0.000000 0.040624 0.000000 -0.006659
# 5 -0.007940 0.001279 -0.012391 0.000000 0.061199 0.000000
# 6 0.000000 0.000000 0.000000 -0.006659 0.000000 0.037454
#
#
# Mechanical properties :
#
#
# Convention : Reuss Voigt Hill
#
# Bulk Modulus (GPa) = 42.10305 59.98691 51.04498
# Shear Modulus (GPa) = 23.64533 27.09217 25.36875
#
# Velocity S-wave (km/s) = 3.65914 3.91677 3.79015
# Velocity P-wave (km/s) = 6.45705 7.37718 6.93240
#
# Compressibility (1/GPa) = 0.02375125
#
# Stress axis : x y z
#
# Youngs Moduli (GPa) = 78.34190 80.18873 53.26872
#
# Poissons Ratio (x) = 0.38721 0.08205
# Poissons Ratio (y) = 0.37829 0.20025
# Poissons Ratio (z) = 0.12067 0.30146
#
# Static dielectric constant tensor:
#      x y z
#    x 3.506610 0.000000 0.069350 
#    y 0.000000 3.490330 0.000000 
#    z 0.069350 0.000000 2.987780 
# 
# 
# High freq. dielectric constant tensor:
#      x y z
#    x 1.682510 0.000000 0.008540 
#    y 0.000000 1.698870 0.000000 
#    z 0.008540 0.000000 1.643990 
# 
# From -- ./inp_files/326935.got.cif
#   From: 2010.06.25/outbox.cif.g09.slc.cpg/sg12_164_cif.got.tgz:326935.got - 2010.06.28 00:19:55.
