data_PCOD8080143
_publ_section_title
;
Structure prediction by ZEFSAII (Michael W. Deem and Ramdas Pophale) SiO2 
 PCOD8080143
Probable space group: C 2/M
;
_chemical_formula_sum "Si O2"
_cell_formula_units_Z 56
_cell_length_a 26.864201
_cell_length_b 13.430835
_cell_length_c 17.642143
_cell_angle_alpha 90.000000
_cell_angle_beta 144.642520
_cell_angle_gamma 90.000000
_cell_volume 3683.526700
_symmetry_space_group_name_H-M "C 2/M"
_symmetry_group_IT_number 12
_symmetry_cell_setting 'monoclinic'
loop_
_space_group_symop_operation_xyz
x,y,z
-x,y,-z
-x,-y,-z
x,-y,z
1/2+x,1/2+y,z
1/2-x,1/2+y,-z
1/2-x,1/2-y,-z
1/2+x,1/2-y,z
loop_
_atom_site_type_symbol
_atom_site_label
_atom_site_fract_x
_atom_site_fract_y
_atom_site_fract_z
Si Si1 0.485032 0.259868 0.067045
Si Si2 0.816897 0.884630 0.838692
Si Si3 0.482048 0.887556 0.764112
Si Si4 0.294799 0.110693 0.587622
Si Si5 0.506531 0.118406 0.628134
Si Si6 0.170995 0.815256 0.310437
Si Si7 0.365302 0.118130 0.337526
O O1 0.473898 0.169253 0.111324
O O2 0.568035 0.326000 0.192157
O O3 0.500000 0.219001 0.000000
O O4 0.400264 0.325809 0.969489
O O5 0.797759 0.869190 0.726292
O O6 0.732813 0.843350 0.778654
O O7 0.833295 0.000000 0.876003
O O8 0.378840 0.882806 0.639263
O O9 0.508692 0.838547 0.716376
O O10 0.515976 0.000000 0.812373
O O11 0.211972 0.129583 0.432862
O O12 0.302009 0.197537 0.659825
O O13 0.287630 0.000000 0.616032
O O14 0.423986 0.160238 0.479349
O O15 0.593459 0.151001 0.691747
O O16 0.499398 0.000000 0.624026
O O17 0.365604 0.000000 0.344630
#
# Coordination Sequence:
#
# PCOD8080143 Si02
#       7
#     8   8   8   8   8   8   8
#     4   9  19  30  38  55  81 108 141 171 191 224
#     4  10  18  28  41  55  77 110 139 163 197 237
#     4   9  16  27  43  60  80 106 132 162 204 245
#     4   9  16  26  41  61  83 105 129 163 206 242
#     4   8  13  23  41  64  83  97 120 158 204 248
#     4   9  17  27  40  59  80 105 136 168 196 235
#     4   8  14  24  40  62  83 100 122 158 203 246
#
# _framework density 15.202821
#
# number of rings (size 3 to 8) (size 9 to 14) (size 15 to 20)
#    0.000    3.143    0.000    2.143    0.000    5.714 
#    0.000    2.857    0.000    0.000    0.000    0.000 
#    0.000    1.143    0.000   17.857    0.000    1.286 
#
# Total GULP energy -346995.943698 kJ/mol
# GULP energy per Si atom -12392.712275 kJ/mol
# Density = 1.516822 g / cm^3
# Si number density = 15.202821 Si / 1000 Ang^3
#
#
#
# Elastic Constant Matrix: (Units=GPa)
#
#
# Indices 1 2 3 4 5 6 
#
# 1 94.8849 28.2173 51.2720 0.0000 1.4545 0.0000
# 2 28.2173 50.0223 27.3570 0.0000 1.6667 0.0000
# 3 51.2720 27.3570 94.1104 0.0000 7.4610 0.0000
# 4 0.0000 0.0000 0.0000 17.3348 0.0000 -1.7546
# 5 1.4545 1.6667 7.4610 0.0000 24.8353 0.0000
# 6 0.0000 0.0000 0.0000 -1.7546 0.0000 13.1559
#
#
#
# Elastic Compliance Matrix: (Units=1/GPa)
#
#
# Indices 1 2 3 4 5 6 
#
# 1 0.016002 -0.005045 -0.007380 0.000000 0.001618 0.000000
# 2 -0.005045 0.025366 -0.004624 0.000000 -0.000018 0.000000
# 3 -0.007380 -0.004624 0.016321 0.000000 -0.004160 0.000000
# 4 0.000000 0.000000 0.000000 0.058477 0.000000 0.007799
# 5 0.001618 -0.000018 -0.004160 0.000000 0.041422 0.000000
# 6 0.000000 0.000000 0.000000 0.007799 0.000000 0.077052
#
#
# Mechanical properties :
#
#
# Convention : Reuss Voigt Hill
#
# Bulk Modulus (GPa) = 42.38776 50.30111 46.34444
# Shear Modulus (GPa) = 18.07662 19.87662 18.97662
#
# Velocity S-wave (km/s) = 3.45197 3.61976 3.53686
# Velocity P-wave (km/s) = 6.62044 7.11539 6.87237
#
# Compressibility (1/GPa) = 0.02359172
#
# Stress axis : x y z
#
# Youngs Moduli (GPa) = 62.49075 39.42267 61.27259
#
# Poissons Ratio (x) = 0.19887 0.45220
# Poissons Ratio (y) = 0.31524 0.28332
# Poissons Ratio (z) = 0.46119 0.18229
#
# Static dielectric constant tensor:
#      x y z
#    x 3.050230 0.000000 0.055130 
#    y 0.000000 2.722620 0.000000 
#    z 0.055130 0.000000 2.940040 
# 
# 
# High freq. dielectric constant tensor:
#      x y z
#    x 1.571890 0.000000 0.006230 
#    y 0.000000 1.546860 0.000000 
#    z 0.006230 0.000000 1.581630 
# 
# From -- ./inp_files/240412.got.cif
#   From: 2010.06.25/outbox.cif.g09.slc.cpg/sg12_121_cif.got.tgz:240412.got - 2010.06.28 00:19:55.
