data_PCOD8080473
_publ_section_title
;
Structure prediction by ZEFSAII (Michael W. Deem and Ramdas Pophale) SiO2 
 PCOD8080473
Probable space group: C 2/M
;
_chemical_formula_sum "Si O2"
_cell_formula_units_Z 48
_cell_length_a 15.672641
_cell_length_b 9.335848
_cell_length_c 23.545211
_cell_angle_alpha 90.000000
_cell_angle_beta 133.600905
_cell_angle_gamma 90.000000
_cell_volume 2494.788065
_symmetry_space_group_name_H-M "C 2/M"
_symmetry_group_IT_number 12
_symmetry_cell_setting 'monoclinic'
loop_
_space_group_symop_operation_xyz
x,y,z
-x,y,-z
-x,-y,-z
x,-y,z
1/2+x,1/2+y,z
1/2-x,1/2+y,-z
1/2-x,1/2-y,-z
1/2+x,1/2-y,z
loop_
_atom_site_type_symbol
_atom_site_label
_atom_site_fract_x
_atom_site_fract_y
_atom_site_fract_z
Si Si1 0.615295 0.158942 0.513802
Si Si2 0.974378 0.336035 0.827046
Si Si3 0.938845 0.331671 0.343933
Si Si4 0.349990 0.830823 0.184132
Si Si5 0.590103 0.330709 0.090379
Si Si6 0.233765 0.163226 0.655762
O O1 0.500000 0.160599 0.500000
O O2 0.568421 0.205368 0.429430
O O3 0.711565 0.268268 0.583091
O O4 0.671155 0.000000 0.537822
O O5 0.990187 0.500000 0.854695
O O6 0.090310 0.276953 0.847010
O O7 0.952990 0.238157 0.871203
O O8 0.870650 0.326369 0.733274
O O9 0.912471 0.500000 0.340600
O O10 0.932629 0.286418 0.275265
O O11 0.835896 0.247106 0.328001
O O12 0.218211 0.768522 0.131449
O O13 0.341589 0.000000 0.176949
O O14 0.594478 0.500000 0.102033
O O15 0.500000 0.286653 0.000000
O O16 0.189660 0.000000 0.633732
#
# Coordination Sequence:
#
# PCOD8080473 Si02
#       6
#     8   8   8   8   8   8
#     4   8  15  26  44  71  98 133 183 219 251 306
#     4  10  21  36  55  80 109 144 178 210 261 326
#     4   9  16  30  52  72  96 140 185 215 252 310
#     4   9  18  35  57  78 107 144 177 212 261 320
#     4  10  21  38  61  85 106 134 175 220 264 313
#     4  10  18  28  46  73 105 137 173 217 265 306
#
# _framework density 19.240113000000001
#
# number of rings (size 3 to 8) (size 9 to 14) (size 15 to 20)
#    0.000    2.667    1.667    1.500    0.000    4.667 
#    0.000    2.500    0.000    0.000    0.000    0.000 
#    0.000    0.000    0.000    0.000    0.000    0.000 
#
# Total GULP energy -297464.002799 kJ/mol
# GULP energy per Si atom -12394.333450 kJ/mol
# Density = 1.919632 g / cm^3
# Si number density = 19.240113 Si / 1000 Ang^3
#
#
#
# Elastic Constant Matrix: (Units=GPa)
#
#
# Indices 1 2 3 4 5 6 
#
# 1 111.9463 28.7171 56.4095 0.0000 -9.6855 0.0000
# 2 28.7171 53.0467 38.9828 0.0000 0.0788 0.0000
# 3 56.4095 38.9828 131.3116 0.0000 -4.6714 0.0000
# 4 0.0000 0.0000 0.0000 26.2582 0.0000 -2.4078
# 5 -9.6855 0.0788 -4.6714 0.0000 9.1116 0.0000
# 6 0.0000 0.0000 0.0000 -2.4078 0.0000 19.5399
#
#
#
# Elastic Compliance Matrix: (Units=1/GPa)
#
#
# Indices 1 2 3 4 5 6 
#
# 1 0.013008 -0.004173 -0.003927 0.000000 0.011849 0.000000
# 2 -0.004173 0.025591 -0.006081 0.000000 -0.007775 0.000000
# 3 -0.003927 -0.006081 0.011165 0.000000 0.001602 0.000000
# 4 0.000000 0.000000 0.000000 0.038519 0.000000 0.004746
# 5 0.011849 -0.007775 0.001602 0.000000 0.123235 0.000000
# 6 0.000000 0.000000 0.000000 0.004746 0.000000 0.051762
#
#
# Mechanical properties :
#
#
# Convention : Reuss Voigt Hill
#
# Bulk Modulus (GPa) = 46.72882 60.50258 53.61570
# Shear Modulus (GPa) = 16.73496 22.46162 19.59829
#
# Velocity S-wave (km/s) = 2.95243 3.42048 3.19504
# Velocity P-wave (km/s) = 5.99686 6.86396 6.44501
#
# Compressibility (1/GPa) = 0.02140007
#
# Stress axis : x y z
#
# Youngs Moduli (GPa) = 76.87808 39.07644 89.56610
#
# Poissons Ratio (x) = 0.16307 0.35177
# Poissons Ratio (y) = 0.32082 0.54466
# Poissons Ratio (z) = 0.30193 0.23763
#
# Static dielectric constant tensor:
#      x y z
#    x 3.419790 0.000000 0.014320 
#    y 0.000000 3.343490 0.000000 
#    z 0.014320 0.000000 3.917510 
# 
# 
# High freq. dielectric constant tensor:
#      x y z
#    x 1.727840 0.000000 -0.002890 
#    y 0.000000 1.724510 0.000000 
#    z -0.002890 0.000000 1.758110 
# 
# From -- ./inp_files/342053.got.cif
#   From: 2010.06.25/outbox.cif.g09.slc.cpg/sg12_172_cif.got.tgz:342053.got - 2010.06.28 00:19:55.
