data_PCOD8080653
_publ_section_title
;
Structure prediction by ZEFSAII (Michael W. Deem and Ramdas Pophale) SiO2 
 PCOD8080653
Probable space group: C 2/M
;
_chemical_formula_sum "Si O2"
_cell_formula_units_Z 64
_cell_length_a 28.533442
_cell_length_b 9.397985
_cell_length_c 15.596219
_cell_angle_alpha 90.000000
_cell_angle_beta 90.000000
_cell_angle_gamma 90.000000
_cell_volume 4182.233114
_symmetry_space_group_name_H-M "C 2/M"
_symmetry_group_IT_number 12
_symmetry_cell_setting 'monoclinic'
loop_
_space_group_symop_operation_xyz
x,y,z
-x,y,-z
-x,-y,-z
x,-y,z
1/2+x,1/2+y,z
1/2-x,1/2+y,-z
1/2-x,1/2-y,-z
1/2+x,1/2-y,z
loop_
_atom_site_type_symbol
_atom_site_label
_atom_site_fract_x
_atom_site_fract_y
_atom_site_fract_z
Si Si1 0.946214 0.830183 0.185724
Si Si2 0.947261 0.330916 0.500000
Si Si3 0.105809 0.332922 0.668042
Si Si4 0.794422 0.335656 0.401929
Si Si5 0.394191 0.832922 0.668042
Si Si6 0.555186 0.345578 1.000000
Si Si7 0.053786 0.830183 0.185724
Si Si8 0.705578 0.835656 0.401929
O O1 0.911584 0.753632 0.250551
O O2 0.931795 0.769992 0.090416
O O3 0.000000 0.789542 0.207345
O O4 0.939728 0.000000 0.189899
O O5 0.945718 0.500000 0.500000
O O6 0.921388 0.274512 0.415351
O O7 0.921388 0.274512 0.584649
O O8 0.000000 0.271585 0.500000
O O9 0.096229 0.500000 0.681697
O O10 0.160732 0.300879 0.656318
O O11 0.781285 0.500000 0.396644
O O12 0.750000 0.250000 0.365661
O O13 0.805784 0.291965 0.500000
O O14 0.411584 0.746368 0.749449
O O15 0.339268 0.800879 0.656318
O O16 0.403771 0.000000 0.681697
O O17 0.579767 0.500000 1.000000
O O18 0.500000 0.369224 0.000000
O O19 0.568205 0.269992 0.090416
O O20 0.060272 0.000000 0.189899
O O21 0.718715 0.000000 0.396644
#
# Coordination Sequence:
#
# PCOD8080653 Si02
#       8
#     8   8   8   8   8   8   8   8
#     4   9  17  29  45  65  89 117 149 182 215 255
#     4   9  16  26  40  57  83 121 153 169 194 247
#     4  10  18  29  44  64  88 116 149 181 214 256
#     4   9  17  30  46  63  84 111 146 185 221 258
#     4  10  18  29  44  64  88 116 149 181 214 256
#     4   7  12  26  45  61  82 115 148 177 214 259
#     4   9  17  29  45  65  89 117 149 182 215 255
#     4   9  17  30  46  63  84 111 146 185 221 258
#
# _framework density 15.30283
#
# number of rings (size 3 to 8) (size 9 to 14) (size 15 to 20)
#    0.000    3.000    1.250    2.250    0.000    2.500 
#    0.000    1.250    0.000    4.500    0.000    0.875 
#    0.000    0.000    0.000    0.000    0.000    0.000 
#
# Total GULP energy -396544.490903 kJ/mol
# GULP energy per Si atom -12392.015341 kJ/mol
# Density = 1.526800 g / cm^3
# Si number density = 15.302830 Si / 1000 Ang^3
#
#
#
# Elastic Constant Matrix: (Units=GPa)
#
#
# Indices 1 2 3 4 5 6 
#
# 1 100.9949 41.6754 61.3276 0.0000 0.0001 0.0000
# 2 41.6754 36.2175 40.2323 0.0000 0.0000 0.0000
# 3 61.3276 40.2323 129.0178 0.0000 0.0001 0.0000
# 4 0.0000 0.0000 0.0000 16.3065 0.0000 0.0000
# 5 0.0001 0.0000 0.0001 0.0000 10.4867 0.0000
# 6 0.0000 0.0000 0.0000 0.0000 0.0000 24.4985
#
#
#
# Elastic Compliance Matrix: (Units=1/GPa)
#
#
# Indices 1 2 3 4 5 6 
#
# 1 0.019857 -0.018917 -0.003540 0.000000 0.000000 0.000000
# 2 -0.018917 0.060267 -0.009801 0.000000 0.000000 0.000000
# 3 -0.003540 -0.009801 0.012490 0.000000 0.000000 0.000000
# 4 0.000000 0.000000 0.000000 0.061325 0.000000 0.000000
# 5 0.000000 0.000000 0.000000 0.000000 0.095359 0.000000
# 6 0.000000 0.000000 0.000000 0.000000 0.000000 0.040819
#
#
# Mechanical properties :
#
#
# Convention : Reuss Voigt Hill
#
# Bulk Modulus (GPa) = 35.59086 61.41119 48.50102
# Shear Modulus (GPa) = 13.73630 18.45801 16.09715
#
# Velocity S-wave (km/s) = 2.99930 3.47678 3.24683
# Velocity P-wave (km/s) = 5.94160 7.50567 6.76896
#
# Compressibility (1/GPa) = 0.02809710
#
# Stress axis : x y z
#
# Youngs Moduli (GPa) = 50.35934 16.59293 80.06515
#
# Poissons Ratio (x) = 0.31390 0.28342
# Poissons Ratio (y) = 0.95267 0.78472
# Poissons Ratio (z) = 0.17827 0.16263
#
# Static dielectric constant tensor:
#      x y z
#    x 2.852070 0.000000 0.000000 
#    y 0.000000 2.658760 0.000000 
#    z 0.000000 0.000000 3.090270 
# 
# 
# High freq. dielectric constant tensor:
#      x y z
#    x 1.570630 0.000000 0.000000 
#    y 0.000000 1.560450 0.000000 
#    z 0.000000 0.000000 1.581900 
# 
# From -- ./inp_files/248371.got.cif
#   From: 2010.06.25/outbox.cif.g09.slc.cpg/sg12_125_cif.got.tgz:248371.got - 2010.06.28 00:19:55.
