data_PCOD8080411
_publ_section_title
;
Structure prediction by ZEFSAII (Michael W. Deem and Ramdas Pophale) SiO2 
 PCOD8080411
Probable space group: C 2/M
;
_chemical_formula_sum "Si O2"
_cell_formula_units_Z 64
_cell_length_a 19.256250
_cell_length_b 8.844248
_cell_length_c 20.621128
_cell_angle_alpha 90.000000
_cell_angle_beta 83.900192
_cell_angle_gamma 90.000000
_cell_volume 3492.040032
_symmetry_space_group_name_H-M "C 2/M"
_symmetry_group_IT_number 12
_symmetry_cell_setting 'monoclinic'
loop_
_space_group_symop_operation_xyz
x,y,z
-x,y,-z
-x,-y,-z
x,-y,z
1/2+x,1/2+y,z
1/2-x,1/2+y,-z
1/2-x,1/2-y,-z
1/2+x,1/2-y,z
loop_
_atom_site_type_symbol
_atom_site_label
_atom_site_fract_x
_atom_site_fract_y
_atom_site_fract_z
Si Si1 0.211966 0.676870 0.775979
Si Si2 0.680606 0.175312 0.324015
Si Si3 0.385758 0.175707 0.332453
Si Si4 0.533890 0.175821 0.280652
Si Si5 0.261707 0.819799 0.429244
Si Si6 0.077995 0.670553 0.018626
Si Si7 0.874136 0.177800 0.109230
Si Si8 0.025932 0.177564 0.145191
O O1 0.228087 0.500000 0.780115
O O2 0.281079 0.759913 0.743405
O O3 0.148859 0.711572 0.733124
O O4 0.190107 0.742950 0.847556
O O5 0.598017 0.198514 0.322973
O O6 0.701197 0.265762 0.386560
O O7 0.700125 0.000000 0.330570
O O8 0.464505 0.241419 0.323754
O O9 0.336456 0.241859 0.394538
O O10 0.389863 0.000000 0.345329
O O11 0.547207 0.267362 0.213925
O O12 0.523312 0.000000 0.263152
O O13 0.250000 0.750000 0.500000
O O14 0.259229 0.000000 0.433159
O O15 0.106247 0.500000 0.020992
O O16 0.079530 0.746398 0.089224
O O17 0.127007 0.763739 0.964583
O O18 0.000000 0.675258 0.000000
O O19 0.946409 0.224496 0.137054
O O20 0.862472 0.000000 0.110939
O O21 0.036018 0.000000 0.138710
#
# Coordination Sequence:
#
# PCOD8080411 Si02
#       8
#     8   8   8   8   8   8   8   8
#     4  10  18  31  52  74 102 138 177 219 261 314
#     4  10  21  35  54  80 109 138 172 215 261 308
#     4   8  16  31  53  78 101 132 176 213 248 297
#     4  10  19  34  54  76 105 140 176 215 258 313
#     4  10  20  37  60  83 108 140 175 213 254 306
#     4   9  17  28  43  65  96 136 177 217 263 319
#     4  10  18  28  45  72 103 132 172 225 273 312
#     4  10  19  29  45  72 104 136 170 218 271 312
#
# _framework density 18.327396
#
# number of rings (size 3 to 8) (size 9 to 14) (size 15 to 20)
#    0.000    2.375    1.250    3.000    0.000    3.500 
#    0.000    1.250    0.000    4.500    0.000    0.000 
#    0.000    0.000    0.000    0.000    0.000    0.000 
#
# Total GULP energy -396764.644494 kJ/mol
# GULP energy per Si atom -12398.895140 kJ/mol
# Density = 1.828568 g / cm^3
# Si number density = 18.327396 Si / 1000 Ang^3
#
#
#
# Elastic Constant Matrix: (Units=GPa)
#
#
# Indices 1 2 3 4 5 6 
#
# 1 79.0697 36.1978 45.2682 0.0000 -6.0006 0.0000
# 2 36.1978 78.7639 39.5998 0.0000 -10.1897 0.0000
# 3 45.2682 39.5998 126.5418 0.0000 -24.2132 0.0000
# 4 0.0000 0.0000 0.0000 34.8837 0.0000 -3.5673
# 5 -6.0006 -10.1897 -24.2132 0.0000 18.9055 0.0000
# 6 0.0000 0.0000 0.0000 -3.5673 0.0000 21.0659
#
#
#
# Elastic Compliance Matrix: (Units=1/GPa)
#
#
# Indices 1 2 3 4 5 6 
#
# 1 0.018287 -0.006249 -0.005457 0.000000 -0.004554 0.000000
# 2 -0.006249 0.017312 -0.002353 0.000000 0.004334 0.000000
# 3 -0.005457 -0.002353 0.013269 0.000000 0.013994 0.000000
# 4 0.000000 0.000000 0.000000 0.029172 0.000000 0.004940
# 5 -0.004554 0.004334 0.013994 0.000000 0.071708 0.000000
# 6 0.000000 0.000000 0.000000 0.004940 0.000000 0.048307
#
#
# Mechanical properties :
#
#
# Convention : Reuss Voigt Hill
#
# Bulk Modulus (GPa) = 48.19667 58.50079 53.34873
# Shear Modulus (GPa) = 21.45107 25.85833 23.65470
#
# Velocity S-wave (km/s) = 3.42488 3.76029 3.59649
# Velocity P-wave (km/s) = 6.48031 7.13037 6.81310
#
# Compressibility (1/GPa) = 0.02074832
#
# Stress axis : x y z
#
# Youngs Moduli (GPa) = 54.68387 57.76425 75.36550
#
# Poissons Ratio (x) = 0.36100 0.41130
# Poissons Ratio (y) = 0.34175 0.17730
# Poissons Ratio (z) = 0.29844 0.13589
#
# Static dielectric constant tensor:
#      x y z
#    x 0.675340 0.000000 1.639960 
#    y 0.000000 3.357320 0.000000 
#    z 1.639960 0.000000 1.930080 
# 
# 
# High freq. dielectric constant tensor:
#      x y z
#    x 1.686920 0.000000 -0.021540 
#    y 0.000000 1.712290 0.000000 
#    z -0.021540 0.000000 1.701940 
# 
# From -- ./inp_files/281285.got.cif
#   From: 2010.06.25/outbox.cif.g09.slc.cpg/sg12_141_cif.got.tgz:281285.got - 2010.06.28 00:19:55.
