data_PCOD8080785
_publ_section_title
;
Structure prediction by ZEFSAII (Michael W. Deem and Ramdas Pophale) SiO2 
 PCOD8080785
Probable space group: C 2/M
;
_chemical_formula_sum "Si O2"
_cell_formula_units_Z 56
_cell_length_a 8.854511
_cell_length_b 25.057933
_cell_length_c 15.455174
_cell_angle_alpha 90.000000
_cell_angle_beta 89.318646
_cell_angle_gamma 90.000000
_cell_volume 3428.885755
_symmetry_space_group_name_H-M "C 2/M"
_symmetry_group_IT_number 12
_symmetry_cell_setting 'monoclinic'
loop_
_space_group_symop_operation_xyz
x,y,z
-x,y,-z
-x,-y,-z
x,-y,z
1/2+x,1/2+y,z
1/2-x,1/2+y,-z
1/2-x,1/2-y,-z
1/2+x,1/2-y,z
loop_
_atom_site_type_symbol
_atom_site_label
_atom_site_fract_x
_atom_site_fract_y
_atom_site_fract_z
Si Si1 0.175517 0.694118 0.979094
Si Si2 0.349492 0.059753 0.825949
Si Si3 0.164552 0.936619 0.664011
Si Si4 0.321937 0.436667 0.683051
Si Si5 0.166639 0.390778 0.849594
Si Si6 0.177783 0.908737 0.986149
Si Si7 0.830962 0.436705 0.494465
O O1 0.190350 0.671625 0.879224
O O2 0.250000 0.750000 0.000000
O O3 0.266684 0.651523 0.037783
O O4 0.000000 0.696828 0.000000
O O5 0.265015 0.084225 0.743092
O O6 0.489304 0.097246 0.847497
O O7 0.231578 0.055093 0.906105
O O8 0.408225 0.000000 0.804575
O O9 0.231910 0.913321 0.574204
O O10 0.993724 0.916973 0.676550
O O11 0.164949 0.000000 0.661870
O O12 0.306014 0.500000 0.700484
O O13 0.243913 0.402628 0.758406
O O14 0.241506 0.419190 0.595246
O O15 0.242009 0.427524 0.924696
O O16 0.000000 0.913063 0.000000
O O17 0.834146 0.500000 0.501687
O O18 0.000000 0.413410 0.500000
#
# Coordination Sequence:
#
# PCOD8080785 Si02
#       7
#     8   8   8   8   8   8   8
#     4  10  20  38  56  75  93 125 158 210 262 304
#     4  11  20  32  48  67 103 141 171 205 241 292
#     4   9  18  29  43  65  94 136 180 210 239 279
#     4  10  18  29  46  68 101 137 169 207 247 287
#     4  10  20  33  47  73  96 127 167 204 246 306
#     4  10  20  34  49  71  98 128 166 210 243 300
#     4   9  16  27  43  64  91 133 180 211 241 280
#
# _framework density 16.331835000000002
#
# number of rings (size 3 to 8) (size 9 to 14) (size 15 to 20)
#    0.857    1.286    1.429    3.429    0.000    6.000 
#    0.000    0.000    0.000    0.000    0.000    0.000 
#    0.000    1.143    0.571    0.000    0.000    0.000 
#
# Total GULP energy -346957.638562 kJ/mol
# GULP energy per Si atom -12391.344234 kJ/mol
# Density = 1.629466 g / cm^3
# Si number density = 16.331835 Si / 1000 Ang^3
#
#
#
# Elastic Constant Matrix: (Units=GPa)
#
#
# Indices 1 2 3 4 5 6 
#
# 1 143.4032 26.6783 70.4368 0.0000 -1.1438 0.0000
# 2 26.6783 46.7998 25.6958 0.0000 2.6877 0.0000
# 3 70.4368 25.6958 146.0432 0.0000 -0.3235 0.0000
# 4 0.0000 0.0000 0.0000 9.8098 0.0000 4.1160
# 5 -1.1438 2.6877 -0.3235 0.0000 35.8169 0.0000
# 6 0.0000 0.0000 0.0000 4.1160 0.0000 19.8033
#
#
#
# Elastic Compliance Matrix: (Units=1/GPa)
#
#
# Indices 1 2 3 4 5 6 
#
# 1 0.009569 -0.003267 -0.004039 0.000000 0.000514 0.000000
# 2 -0.003267 0.024886 -0.002808 0.000000 -0.001997 0.000000
# 3 -0.004039 -0.002808 0.009290 0.000000 0.000166 0.000000
# 4 0.000000 0.000000 0.000000 0.111678 0.000000 -0.023212
# 5 0.000514 -0.001997 0.000166 0.000000 0.028088 0.000000
# 6 0.000000 0.000000 0.000000 -0.023212 0.000000 0.055321
#
#
# Mechanical properties :
#
#
# Convention : Reuss Voigt Hill
#
# Bulk Modulus (GPa) = 42.52070 64.65200 53.58635
# Shear Modulus (GPa) = 18.73377 27.31503 23.02440
#
# Velocity S-wave (km/s) = 3.39052 4.09406 3.75879
# Velocity P-wave (km/s) = 6.43580 7.87533 7.19167
#
# Compressibility (1/GPa) = 0.02351796
#
# Stress axis : x y z
#
# Youngs Moduli (GPa) = 104.50186 40.18335 107.64480
#
# Poissons Ratio (x) = 0.13126 0.43482
# Poissons Ratio (y) = 0.34137 0.30221
# Poissons Ratio (z) = 0.42212 0.11282
#
# Static dielectric constant tensor:
#      x y z
#    x 3.254000 0.000000 0.044770 
#    y 0.000000 3.477380 0.000000 
#    z 0.044770 0.000000 3.186290 
# 
# 
# High freq. dielectric constant tensor:
#      x y z
#    x 1.652040 0.000000 0.002110 
#    y 0.000000 1.558060 0.000000 
#    z 0.002110 0.000000 1.633580 
# 
# From -- ./inp_files/200382.got.cif
#   From: 2010.06.25/outbox.cif.g09.slc.cpg/sg12_101_cif.got.tgz:200382.got - 2010.06.28 00:19:55.
