data_PCOD8080406
_publ_section_title
;
Structure prediction by ZEFSAII (Michael W. Deem and Ramdas Pophale) SiO2 
 PCOD8080406
Probable space group: C 2/M
;
_chemical_formula_sum "Si O2"
_cell_formula_units_Z 56
_cell_length_a 25.355223
_cell_length_b 9.215768
_cell_length_c 14.948866
_cell_angle_alpha 90.000000
_cell_angle_beta 74.378240
_cell_angle_gamma 90.000000
_cell_volume 3364.036713
_symmetry_space_group_name_H-M "C 2/M"
_symmetry_group_IT_number 12
_symmetry_cell_setting 'monoclinic'
loop_
_space_group_symop_operation_xyz
x,y,z
-x,y,-z
-x,-y,-z
x,-y,z
1/2+x,1/2+y,z
1/2-x,1/2+y,-z
1/2-x,1/2-y,-z
1/2+x,1/2-y,z
loop_
_atom_site_type_symbol
_atom_site_label
_atom_site_fract_x
_atom_site_fract_y
_atom_site_fract_z
Si Si1 0.829242 0.169167 0.411473
Si Si2 0.813842 0.670953 0.110838
Si Si3 0.207786 0.332335 0.406063
Si Si4 0.622494 0.828571 0.091316
Si Si5 0.107036 0.670816 0.763136
Si Si6 0.504373 0.172737 0.098695
Si Si7 0.296145 0.169957 0.794909
O O1 0.828523 0.234953 0.511429
O O2 0.771889 0.202157 0.388860
O O3 0.877289 0.245453 0.334153
O O4 0.841864 0.000000 0.412600
O O5 0.804233 0.500000 0.109998
O O6 0.850830 0.713342 0.178290
O O7 0.755645 0.746340 0.143822
O O8 0.843307 0.731859 0.008520
O O9 0.195619 0.500000 0.432841
O O10 0.191052 0.288954 0.313304
O O11 0.560431 0.767534 0.117677
O O12 0.651188 0.782857 0.170911
O O13 0.619680 0.000000 0.082460
O O14 0.108171 0.500000 0.743340
O O15 0.046877 0.726094 0.819070
O O16 0.503463 0.000000 0.094878
O O17 0.500000 0.234578 0.000000
O O18 0.283458 0.000000 0.809750
#
# Coordination Sequence:
#
# PCOD8080406 Si02
#       7
#     8   8   8   8   8   8   8
#     4  10  19  31  48  69  94 123 154 193 241 287
#     4  10  18  28  45  71  99 129 159 187 225 280
#     4   9  18  31  46  67  94 122 154 193 237 282
#     4   9  17  29  46  69  97 129 163 193 227 272
#     4  10  18  28  48  73  98 124 155 196 234 272
#     4   9  15  27  47  71  96 124 161 200 229 260
#     4  10  19  31  47  69  99 129 154 191 238 281
#
# _framework density 16.646667000000001
#
# number of rings (size 3 to 8) (size 9 to 14) (size 15 to 20)
#    0.000    2.429    2.857    0.857    0.000    1.143 
#    0.000    0.000    0.000    3.000    0.000    6.000 
#    0.000    0.000    0.000    0.000    0.000    0.000 
#
# Total GULP energy -347197.814580 kJ/mol
# GULP energy per Si atom -12399.921949 kJ/mol
# Density = 1.660878 g / cm^3
# Si number density = 16.646667 Si / 1000 Ang^3
#
#
#
# Elastic Constant Matrix: (Units=GPa)
#
#
# Indices 1 2 3 4 5 6 
#
# 1 124.1746 29.3564 69.9457 0.0000 -5.9377 0.0000
# 2 29.3564 33.3730 39.8180 0.0000 -6.3947 0.0000
# 3 69.9457 39.8180 139.7949 0.0000 -11.4198 0.0000
# 4 0.0000 0.0000 0.0000 21.2763 0.0000 -4.2492
# 5 -5.9377 -6.3947 -11.4198 0.0000 24.5776 0.0000
# 6 0.0000 0.0000 0.0000 -4.2492 0.0000 15.9480
#
#
#
# Elastic Compliance Matrix: (Units=1/GPa)
#
#
# Indices 1 2 3 4 5 6 
#
# 1 0.011753 -0.005114 -0.004471 0.000000 -0.000568 0.000000
# 2 -0.005114 0.048491 -0.010731 0.000000 0.006395 0.000000
# 3 -0.004471 -0.010731 0.012609 0.000000 0.001987 0.000000
# 4 0.000000 0.000000 0.000000 0.049642 0.000000 0.013227
# 5 -0.000568 0.006395 0.001987 0.000000 0.043137 0.000000
# 6 0.000000 0.000000 0.000000 0.013227 0.000000 0.066228
#
#
# Mechanical properties :
#
#
# Convention : Reuss Voigt Hill
#
# Bulk Modulus (GPa) = 31.03359 63.95366 47.49362
# Shear Modulus (GPa) = 17.65345 22.90855 20.28100
#
# Velocity S-wave (km/s) = 3.26003 3.71369 3.49423
# Velocity P-wave (km/s) = 5.73179 7.54257 6.69865
#
# Compressibility (1/GPa) = 0.03222315
#
# Stress axis : x y z
#
# Youngs Moduli (GPa) = 85.08394 20.62242 79.30909
#
# Poissons Ratio (x) = 0.10545 0.35455
# Poissons Ratio (y) = 0.43508 0.85105
# Poissons Ratio (z) = 0.38037 0.22129
#
# Static dielectric constant tensor:
#      x y z
#    x 3.191860 0.000000 0.011570 
#    y 0.000000 2.830430 0.000000 
#    z 0.011570 0.000000 3.196100 
# 
# 
# High freq. dielectric constant tensor:
#      x y z
#    x 1.625760 0.000000 -0.001620 
#    y 0.000000 1.611490 0.000000 
#    z -0.001620 0.000000 1.646920 
# 
# From -- ./inp_files/237435.got.cif
#   From: 2010.06.25/outbox.cif.g09.slc.cpg/sg12_119_cif.got.tgz:237435.got - 2010.06.28 00:19:55.
