data_PCOD8080003
_publ_section_title
;
Structure prediction by ZEFSAII (Michael W. Deem and Ramdas Pophale) SiO2 
 PCOD8080003
Probable space group: C 2/M
;
_chemical_formula_sum "Si O2"
_cell_formula_units_Z 56
_cell_length_a 32.420066
_cell_length_b 8.953438
_cell_length_c 17.552379
_cell_angle_alpha 90.000000
_cell_angle_beta 41.616905
_cell_angle_gamma 90.000000
_cell_volume 3383.793179
_symmetry_space_group_name_H-M "C 2/M"
_symmetry_group_IT_number 12
_symmetry_cell_setting 'monoclinic'
loop_
_space_group_symop_operation_xyz
x,y,z
-x,y,-z
-x,-y,-z
x,-y,z
1/2+x,1/2+y,z
1/2-x,1/2+y,-z
1/2-x,1/2-y,-z
1/2+x,1/2-y,z
loop_
_atom_site_type_symbol
_atom_site_label
_atom_site_fract_x
_atom_site_fract_y
_atom_site_fract_z
Si Si1 0.284386 0.172945 0.561733
Si Si2 0.789517 0.826603 0.705615
Si Si3 0.812099 0.668551 0.824589
Si Si4 0.166478 0.168457 0.057488
Si Si5 0.838083 0.327288 0.328121
Si Si6 0.072626 0.173792 0.902097
Si Si7 0.145662 0.326408 0.935602
O O1 0.314633 0.241807 0.595979
O O2 0.222027 0.261926 0.630006
O O3 0.333620 0.193104 0.425314
O O4 0.267489 0.000000 0.597468
O O5 0.825044 0.758821 0.729221
O O6 0.716138 0.797953 0.812991
O O7 0.806045 0.000000 0.677253
O O8 0.836699 0.500000 0.781522
O O9 0.849261 0.747391 0.841983
O O10 0.739641 0.669715 0.942894
O O11 0.141174 0.000000 0.097629
O O12 0.132072 0.251885 0.036016
O O13 0.842541 0.500000 0.298312
O O14 0.898676 0.241326 0.214992
O O15 0.100368 0.253996 0.937177
O O16 0.088729 0.000000 0.884480
O O17 0.000000 0.204708 0.000000
O O18 0.130629 0.500000 0.963544
#
# Coordination Sequence:
#
# PCOD8080003 Si02
#       7
#     8   8   8   8   8   8   8
#     4  10  19  30  47  68  93 121 153 191 231 278
#     4  10  18  27  42  65  92 121 155 188 226 275
#     4   9  16  25  38  58  86 119 152 185 224 268
#     4   9  16  26  40  58  84 117 151 187 226 270
#     4  10  20  33  48  68  90 119 155 192 235 279
#     4  11  23  36  50  68  91 121 158 199 240 279
#     4  10  19  30  45  64  87 118 156 192 230 277
#
# _framework density 16.549475000000001
#
# number of rings (size 3 to 8) (size 9 to 14) (size 15 to 20)
#    0.000    2.143    1.429    3.000    0.000    7.429 
#    0.000    0.000    0.000    0.000    0.000    0.000 
#    0.000    1.143    0.000   12.000    0.000    7.143 
#
# Total GULP energy -347241.789664 kJ/mol
# GULP energy per Si atom -12401.492488 kJ/mol
# Density = 1.651181 g / cm^3
# Si number density = 16.549475 Si / 1000 Ang^3
#
#
#
# Elastic Constant Matrix: (Units=GPa)
#
#
# Indices 1 2 3 4 5 6 
#
# 1 94.9221 61.8854 42.1278 0.0002 34.1387 0.0001
# 2 61.8854 124.9824 36.2719 0.0047 14.2559 -0.0028
# 3 42.1278 36.2719 53.3652 0.0014 14.3108 -0.0011
# 4 0.0002 0.0047 0.0014 22.2955 -0.0001 9.5840
# 5 34.1387 14.2559 14.3108 -0.0001 27.0982 -0.0002
# 6 0.0001 -0.0028 -0.0011 9.5840 -0.0002 31.6353
#
#
#
# Elastic Compliance Matrix: (Units=1/GPa)
#
#
# Indices 1 2 3 4 5 6 
#
# 1 0.032370 -0.009376 -0.011146 0.000003 -0.029961 -0.000003
# 2 -0.009376 0.012771 -0.003081 -0.000003 0.006720 0.000002
# 3 -0.011146 -0.003081 0.029628 -0.000002 0.000017 0.000001
# 4 0.000003 -0.000003 -0.000002 0.051568 -0.000002 -0.015622
# 5 -0.029961 0.006720 0.000017 -0.000002 0.071104 0.000002
# 6 -0.000003 0.000002 0.000001 -0.015622 0.000002 0.036343
#
#
# Mechanical properties :
#
#
# Convention : Reuss Voigt Hill
#
# Bulk Modulus (GPa) = 36.28136 61.53775 48.90956
# Shear Modulus (GPa) = 17.23078 25.07145 21.15111
#
# Velocity S-wave (km/s) = 3.23021 3.89644 3.57887
# Velocity P-wave (km/s) = 5.99024 7.58339 6.83340
#
# Compressibility (1/GPa) = 0.02756236
#
# Stress axis : x y z
#
# Youngs Moduli (GPa) = 30.89271 78.30084 33.75198
#
# Poissons Ratio (x) = 0.73413 0.37622
# Poissons Ratio (y) = 0.28964 0.10400
# Poissons Ratio (z) = 0.34434 0.24126
#
# Static dielectric constant tensor:
#      x y z
#    x 3.050890 0.000000 0.423930 
#    y 0.000000 3.340870 0.000000 
#    z 0.423930 0.000000 2.858520 
# 
# 
# High freq. dielectric constant tensor:
#      x y z
#    x 1.624000 0.000000 0.046420 
#    y 0.000000 1.662210 0.000000 
#    z 0.046420 0.000000 1.588030 
# 
# From -- ./inp_files/281729.got.cif
#   From: 2010.06.25/outbox.cif.g09.slc.cpg/sg12_141_cif.got.tgz:281729.got - 2010.06.28 00:19:55.
