data_PCOD8080369
_publ_section_title
;
Structure prediction by ZEFSAII (Michael W. Deem and Ramdas Pophale) SiO2 
 PCOD8080369
Probable space group: C 2/M
;
_chemical_formula_sum "Si O2"
_cell_formula_units_Z 56
_cell_length_a 26.888762
_cell_length_b 9.082148
_cell_length_c 17.213223
_cell_angle_alpha 90.000000
_cell_angle_beta 125.853131
_cell_angle_gamma 90.000000
_cell_volume 3407.107732
_symmetry_space_group_name_H-M "C 2/M"
_symmetry_group_IT_number 12
_symmetry_cell_setting 'monoclinic'
loop_
_space_group_symop_operation_xyz
x,y,z
-x,y,-z
-x,-y,-z
x,-y,z
1/2+x,1/2+y,z
1/2-x,1/2+y,-z
1/2-x,1/2-y,-z
1/2+x,1/2-y,z
loop_
_atom_site_type_symbol
_atom_site_label
_atom_site_fract_x
_atom_site_fract_y
_atom_site_fract_z
Si Si1 0.766182 0.330354 0.286322
Si Si2 0.759399 0.670211 0.886159
Si Si3 0.535846 0.170266 0.713834
Si Si4 0.282782 0.325691 0.458491
Si Si5 0.091305 0.667236 0.600222
Si Si6 0.423079 0.328217 0.566697
Si Si7 0.839416 0.330512 0.103111
O O1 0.747047 0.500000 0.280726
O O2 0.726927 0.259039 0.180497
O O3 0.753417 0.241674 0.353654
O O4 0.836302 0.312477 0.325487
O O5 0.748322 0.500000 0.855595
O O6 0.699331 0.728196 0.875258
O O7 0.818761 0.692236 0.995337
O O8 0.562072 0.216325 0.654108
O O9 0.473066 0.259948 0.672003
O O10 0.588407 0.210404 0.825002
O O11 0.518678 0.000000 0.702438
O O12 0.271805 0.500000 0.448946
O O13 0.250000 0.250000 0.500000
O O14 0.354690 0.285219 0.530857
O O15 0.074371 0.500000 0.563471
O O16 0.063591 0.766886 0.507008
O O17 0.432536 0.500000 0.573636
O O18 0.829265 0.500000 0.120877
#
# Coordination Sequence:
#
# PCOD8080369 Si02
#       7
#     8   8   8   8   8   8   8
#     4  10  18  31  50  70  97 129 161 196 237 283
#     4  10  18  28  45  68  95 127 165 205 240 273
#     4  10  18  30  45  63  91 130 168 193 223 275
#     4  10  21  37  54  74  97 120 153 196 243 290
#     4   9  17  29  44  62  89 128 165 191 220 271
#     4  10  21  32  44  67  95 119 151 196 238 279
#     4   9  18  31  44  63  94 132 169 202 233 273
#
# _framework density 16.436228
#
# number of rings (size 3 to 8) (size 9 to 14) (size 15 to 20)
#    0.000    2.286    1.429    2.143    0.000    5.714 
#    0.000    0.000    0.000    0.000    0.000    1.000 
#    0.000    8.000    0.000    0.000    0.000    0.000 
#
# Total GULP energy -347192.037960 kJ/mol
# GULP energy per Si atom -12399.715641 kJ/mol
# Density = 1.639882 g / cm^3
# Si number density = 16.436228 Si / 1000 Ang^3
#
#
#
# Elastic Constant Matrix: (Units=GPa)
#
#
# Indices 1 2 3 4 5 6 
#
# 1 52.4705 38.1601 49.0221 0.0000 -3.6912 0.0000
# 2 38.1601 87.6659 59.5920 0.0000 -1.1352 0.0000
# 3 49.0221 59.5920 121.0199 0.0000 7.5882 0.0000
# 4 0.0000 0.0000 0.0000 29.2335 0.0000 -0.1818
# 5 -3.6912 -1.1352 7.5882 0.0000 22.8443 0.0000
# 6 0.0000 0.0000 0.0000 -0.1818 0.0000 22.9730
#
#
#
# Elastic Compliance Matrix: (Units=1/GPa)
#
#
# Indices 1 2 3 4 5 6 
#
# 1 0.035949 -0.007877 -0.011257 0.000000 0.009156 0.000000
# 2 -0.007877 0.019190 -0.006371 0.000000 0.001797 0.000000
# 3 -0.011257 -0.006371 0.016437 0.000000 -0.007595 0.000000
# 4 0.000000 0.000000 0.000000 0.034209 0.000000 0.000271
# 5 0.009156 0.001797 -0.007595 0.000000 0.047866 0.000000
# 6 0.000000 0.000000 0.000000 0.000271 0.000000 0.043531
#
#
# Mechanical properties :
#
#
# Convention : Reuss Voigt Hill
#
# Bulk Modulus (GPa) = 48.62876 61.63384 55.13130
# Shear Modulus (GPa) = 19.60414 22.63566 21.11990
#
# Velocity S-wave (km/s) = 3.45735 3.71506 3.58852
# Velocity P-wave (km/s) = 6.75191 7.48214 7.12639
#
# Compressibility (1/GPa) = 0.02056396
#
# Stress axis : x y z
#
# Youngs Moduli (GPa) = 27.81740 52.11032 60.83987
#
# Poissons Ratio (x) = 0.41049 0.68488
# Poissons Ratio (y) = 0.21913 0.38762
# Poissons Ratio (z) = 0.31314 0.33201
#
# Static dielectric constant tensor:
#      x y z
#    x 2.825590 0.000000 0.179990 
#    y 0.000000 3.179150 0.000000 
#    z 0.179990 0.000000 3.301730 
# 
# 
# High freq. dielectric constant tensor:
#      x y z
#    x 1.588230 0.000000 0.014790 
#    y 0.000000 1.642490 0.000000 
#    z 0.014790 0.000000 1.634290 
# 
# From -- ./inp_files/244317.got.cif
#   From: 2010.06.25/outbox.cif.g09.slc.cpg/sg12_123_cif.got.tgz:244317.got - 2010.06.28 00:19:55.
