data_PCOD8080184
_publ_section_title
;
Structure prediction by ZEFSAII (Michael W. Deem and Ramdas Pophale) SiO2 
 PCOD8080184
Probable space group: C 2/M
;
_chemical_formula_sum "Si O2"
_cell_formula_units_Z 56
_cell_length_a 27.607869
_cell_length_b 8.882007
_cell_length_c 17.727081
_cell_angle_alpha 90.000000
_cell_angle_beta 53.144902
_cell_angle_gamma 90.000000
_cell_volume 3478.206198
_symmetry_space_group_name_H-M "C 2/M"
_symmetry_group_IT_number 12
_symmetry_cell_setting 'monoclinic'
loop_
_space_group_symop_operation_xyz
x,y,z
-x,y,-z
-x,-y,-z
x,-y,z
1/2+x,1/2+y,z
1/2-x,1/2+y,-z
1/2-x,1/2-y,-z
1/2+x,1/2-y,z
loop_
_atom_site_type_symbol
_atom_site_label
_atom_site_fract_x
_atom_site_fract_y
_atom_site_fract_z
Si Si1 0.161009 0.824746 0.604410
Si Si2 0.454596 0.672811 0.200824
Si Si3 0.587400 0.326865 0.059314
Si Si4 0.268473 0.169270 0.211199
Si Si5 0.407509 0.170018 0.099559
Si Si6 0.290118 0.820417 0.027168
Si Si7 0.764510 0.821750 0.602740
O O1 0.090800 0.787023 0.687581
O O2 0.177482 0.776110 0.502728
O O3 0.203227 0.738270 0.623170
O O4 0.175249 0.000000 0.601449
O O5 0.444626 0.500000 0.184862
O O6 0.523958 0.696932 0.163511
O O7 0.441618 0.778705 0.142350
O O8 0.608097 0.500000 0.042000
O O9 0.574258 0.278367 0.985912
O O10 0.640000 0.227867 0.048698
O O11 0.336175 0.176879 0.179843
O O12 0.265398 0.245700 0.130991
O O13 0.228590 0.242352 0.317062
O O14 0.246463 0.000000 0.218270
O O15 0.427650 0.000000 0.060960
O O16 0.287344 0.000000 0.026967
O O17 0.250000 0.750000 0.000000
O O18 0.757053 0.000000 0.616025
#
# Coordination Sequence:
#
# PCOD8080184 Si02
#       7
#     8   8   8   8   8   8   8
#     4   9  17  26  40  62  89 121 156 189 217 254
#     4  10  19  29  40  61  92 125 155 185 222 262
#     4  10  20  32  45  62  89 121 151 184 225 269
#     4   8  15  27  44  65  88 115 145 181 222 265
#     4  10  18  28  42  62  89 121 158 191 219 259
#     4  10  20  35  52  71  91 111 143 184 231 278
#     4   9  15  27  43  61  87 120 154 186 222 258
#
# _framework density 16.100252999999999
#
# number of rings (size 3 to 8) (size 9 to 14) (size 15 to 20)
#    0.000    2.571    1.429    2.571    0.000    2.857 
#    0.000    0.714    0.000    0.000    0.000    1.000 
#    0.000    8.000    0.000    0.000    0.000    0.000 
#
# Total GULP energy -346893.618076 kJ/mol
# GULP energy per Si atom -12389.057788 kJ/mol
# Density = 1.606361 g / cm^3
# Si number density = 16.100253 Si / 1000 Ang^3
#
#
#
# Elastic Constant Matrix: (Units=GPa)
#
#
# Indices 1 2 3 4 5 6 
#
# 1 83.5456 26.6815 64.1666 0.0000 5.5313 0.0000
# 2 26.6815 47.3351 27.5152 -0.0003 -0.3570 0.0000
# 3 64.1666 27.5152 127.5328 -0.0002 -3.9079 0.0001
# 4 0.0000 -0.0003 -0.0002 16.6359 0.0000 0.5700
# 5 5.5313 -0.3570 -3.9079 0.0000 19.1856 0.0000
# 6 0.0000 0.0000 0.0001 0.5700 0.0000 21.3293
#
#
#
# Elastic Compliance Matrix: (Units=1/GPa)
#
#
# Indices 1 2 3 4 5 6 
#
# 1 0.022498 -0.006875 -0.010102 0.000000 -0.008672 0.000000
# 2 -0.006875 0.026263 -0.002145 0.000000 0.002034 0.000000
# 3 -0.010102 -0.002145 0.013559 0.000000 0.005634 0.000000
# 4 0.000000 0.000000 0.000000 0.060166 0.000000 -0.001608
# 5 -0.008672 0.002034 0.005634 0.000000 0.055808 0.000000
# 6 0.000000 0.000000 0.000000 -0.001608 0.000000 0.046927
#
#
# Mechanical properties :
#
#
# Convention : Reuss Voigt Hill
#
# Bulk Modulus (GPa) = 41.53362 55.01557 48.27459
# Shear Modulus (GPa) = 18.41680 20.76683 19.59182
#
# Velocity S-wave (km/s) = 3.38580 3.59534 3.49214
# Velocity P-wave (km/s) = 6.41387 7.17496 6.80507
#
# Compressibility (1/GPa) = 0.02407688
#
# Stress axis : x y z
#
# Youngs Moduli (GPa) = 44.44818 38.07594 73.74987
#
# Poissons Ratio (x) = 0.26176 0.74503
# Poissons Ratio (y) = 0.30557 0.15820
# Poissons Ratio (z) = 0.44902 0.08167
#
# Static dielectric constant tensor:
#      x y z
#    x 2.746240 0.000000 -0.082660 
#    y 0.000000 3.030370 0.000000 
#    z -0.082660 0.000000 3.524310 
# 
# 
# High freq. dielectric constant tensor:
#      x y z
#    x 1.572060 0.000000 -0.009200 
#    y 0.000000 1.614390 0.000000 
#    z -0.009200 0.000000 1.626420 
# 
# From -- ./inp_files/291455.got.cif
#   From: 2010.06.25/outbox.cif.g09.slc.cpg/sg12_146_cif.got.tgz:291455.got - 2010.06.28 00:19:55.
