data_PCOD8080205
_publ_section_title
;
Structure prediction by ZEFSAII (Michael W. Deem and Ramdas Pophale) SiO2 
 PCOD8080205
Probable space group: C 2/M
;
_chemical_formula_sum "Si O2"
_cell_formula_units_Z 56
_cell_length_a 30.443408
_cell_length_b 9.817241
_cell_length_c 13.544750
_cell_angle_alpha 90.000000
_cell_angle_beta 61.841656
_cell_angle_gamma 90.000000
_cell_volume 3569.014724
_symmetry_space_group_name_H-M "C 2/M"
_symmetry_group_IT_number 12
_symmetry_cell_setting 'monoclinic'
loop_
_space_group_symop_operation_xyz
x,y,z
-x,y,-z
-x,-y,-z
x,-y,z
1/2+x,1/2+y,z
1/2-x,1/2+y,-z
1/2-x,1/2-y,-z
1/2+x,1/2-y,z
loop_
_atom_site_type_symbol
_atom_site_label
_atom_site_fract_x
_atom_site_fract_y
_atom_site_fract_z
Si Si1 0.786646 0.153057 0.576664
Si Si2 0.293312 0.354661 0.340418
Si Si3 0.880502 0.342369 0.468431
Si Si4 0.005939 0.849139 0.186604
Si Si5 0.599863 0.250618 0.765070
Si Si6 0.968783 0.156406 0.435728
Si Si7 0.948105 0.353804 0.999587
O O1 0.737340 0.228063 0.674745
O O2 0.778097 0.135885 0.470381
O O3 0.832575 0.253849 0.549367
O O4 0.793427 0.000000 0.615961
O O5 0.278081 0.500000 0.307255
O O6 0.352738 0.345611 0.268326
O O7 0.875409 0.500000 0.508618
O O8 0.889827 0.345804 0.340346
O O9 0.925064 0.267060 0.478285
O O10 0.950195 0.836059 0.201694
O O11 0.005181 0.819861 0.304061
O O12 0.024599 0.000000 0.143620
O O13 0.048073 0.754657 0.092566
O O14 0.594471 0.170363 0.873700
O O15 0.000000 0.184840 0.500000
O O16 0.948009 0.000000 0.455055
O O17 0.937637 0.500000 0.960909
O O18 0.000000 0.355001 0.000000
#
# Coordination Sequence:
#
# PCOD8080205 Si02
#       7
#     8   8   8   8   8   8   8
#     4   9  17  27  38  54  79 110 139 168 205 245
#     4   9  16  25  38  56  78 106 142 177 203 232
#     4  10  18  28  43  61  82 108 140 174 204 239
#     4   9  17  28  42  59  79 106 139 171 203 240
#     4   9  17  26  40  58  82 113 143 169 201 239
#     4   9  18  32  47  62  82 107 134 167 209 253
#     4   9  17  27  38  54  79 110 140 168 200 238
#
# _framework density 15.690604
#
# number of rings (size 3 to 8) (size 9 to 14) (size 15 to 20)
#    0.000    2.857    0.000    1.714    0.000   14.286 
#    0.000    0.000    0.000    0.000    0.000    0.000 
#    0.000    1.143    0.000    2.714    0.000    3.714 
#
# Total GULP energy -346868.548571 kJ/mol
# GULP energy per Si atom -12388.162449 kJ/mol
# Density = 1.565489 g / cm^3
# Si number density = 15.690604 Si / 1000 Ang^3
#
#
#
# Elastic Constant Matrix: (Units=GPa)
#
#
# Indices 1 2 3 4 5 6 
#
# 1 53.4780 47.9940 34.1390 0.0000 -2.2044 0.0000
# 2 47.9940 145.4123 38.5337 0.0000 -1.8168 0.0000
# 3 34.1390 38.5337 60.4545 0.0000 -2.8830 0.0000
# 4 0.0000 0.0000 0.0000 32.6876 0.0000 0.1989
# 5 -2.2044 -1.8168 -2.8830 0.0000 16.0575 0.0000
# 6 0.0000 0.0000 0.0000 0.1989 0.0000 17.1409
#
#
#
# Elastic Compliance Matrix: (Units=1/GPa)
#
#
# Indices 1 2 3 4 5 6 
#
# 1 0.035108 -0.007621 -0.014907 0.000000 0.001281 0.000000
# 2 -0.007621 0.009929 -0.002039 0.000000 -0.000289 0.000000
# 3 -0.014907 -0.002039 0.026376 0.000000 0.002459 0.000000
# 4 0.000000 0.000000 0.000000 0.030595 0.000000 -0.000355
# 5 0.001281 -0.000289 0.002459 0.000000 0.062861 0.000000
# 6 0.000000 0.000000 0.000000 -0.000355 0.000000 0.058344
#
#
# Mechanical properties :
#
#
# Convention : Reuss Voigt Hill
#
# Bulk Modulus (GPa) = 44.88450 55.63093 50.25772
# Shear Modulus (GPa) = 17.87163 22.42241 20.14702
#
# Velocity S-wave (km/s) = 3.37857 3.78436 3.58721
# Velocity P-wave (km/s) = 6.62478 7.39101 7.01836
#
# Compressibility (1/GPa) = 0.02227940
#
# Stress axis : x y z
#
# Youngs Moduli (GPa) = 28.48359 100.71405 37.91310
#
# Poissons Ratio (x) = 0.76757 0.56516
# Poissons Ratio (y) = 0.21708 0.07730
# Poissons Ratio (z) = 0.42460 0.20534
#
# Static dielectric constant tensor:
#      x y z
#    x 2.660660 0.000000 -0.199750 
#    y 0.000000 3.336470 0.000000 
#    z -0.199750 0.000000 2.931610 
# 
# 
# High freq. dielectric constant tensor:
#      x y z
#    x 1.556450 0.000000 -0.026640 
#    y 0.000000 1.620620 0.000000 
#    z -0.026640 0.000000 1.569400 
# 
# From -- ./inp_files/248132.got.cif
#   From: 2010.06.25/outbox.cif.g09.slc.cpg/sg12_125_cif.got.tgz:248132.got - 2010.06.28 00:19:55.
