data_PCOD8080994
_publ_section_title
;
Structure prediction by ZEFSAII (Michael W. Deem and Ramdas Pophale) SiO2 
 PCOD8080994
Probable space group: C 2/M
;
_chemical_formula_sum "Si O2"
_cell_formula_units_Z 64
_cell_length_a 25.485664
_cell_length_b 9.680132
_cell_length_c 22.723598
_cell_angle_alpha 90.000000
_cell_angle_beta 39.650964
_cell_angle_gamma 90.000000
_cell_volume 3577.249808
_symmetry_space_group_name_H-M "C 2/M"
_symmetry_group_IT_number 12
_symmetry_cell_setting 'monoclinic'
loop_
_space_group_symop_operation_xyz
x,y,z
-x,y,-z
-x,-y,-z
x,-y,z
1/2+x,1/2+y,z
1/2-x,1/2+y,-z
1/2-x,1/2-y,-z
1/2+x,1/2-y,z
loop_
_atom_site_type_symbol
_atom_site_label
_atom_site_fract_x
_atom_site_fract_y
_atom_site_fract_z
Si Si1 0.159704 0.836459 0.914126
Si Si2 0.564615 0.753283 0.398473
Si Si3 0.452674 0.334311 0.770167
Si Si4 0.564432 0.652735 0.574344
Si Si5 0.659956 0.845136 0.208964
Si Si6 0.196208 0.838848 0.374651
Si Si7 0.351291 0.336151 0.209539
Si Si8 0.479045 0.336245 0.879963
O O1 0.250172 0.784915 0.853446
O O2 0.137957 0.788510 0.867088
O O3 0.156538 0.000000 0.919814
O O4 0.092195 0.772825 0.016973
O O5 0.500000 0.827688 0.500000
O O6 0.510357 0.644800 0.408130
O O7 0.605189 0.856542 0.315903
O O8 0.638780 0.675493 0.366943
O O9 0.440972 0.500000 0.775129
O O10 0.531927 0.281079 0.663587
O O11 0.373411 0.258186 0.811995
O O12 0.465489 0.283375 0.825435
O O13 0.592600 0.500000 0.565256
O O14 0.644887 0.721974 0.475347
O O15 0.664951 0.000000 0.178512
O O16 0.275854 0.744227 0.303398
O O17 0.220224 0.000000 0.360494
O O18 0.335028 0.500000 0.228742
O O19 0.432353 0.287525 0.173912
O O20 0.474592 0.500000 0.885910
#
# Coordination Sequence:
#
# PCOD8080994 Si02
#       8
#     8   8   8   8   8   8   8   8
#     4   9  17  31  51  76 102 125 160 206 252 296
#     4   9  16  27  45  71 100 132 164 196 235 290
#     4   9  18  34  53  73  97 129 173 209 234 281
#     4   8  15  28  46  69  98 130 163 198 237 287
#     4  10  19  31  48  75 106 132 155 197 255 300
#     4  10  18  29  48  73 100 131 163 199 247 294
#     4  10  19  33  52  75 101 128 164 208 249 289
#     4   9  18  33  55  74  91 129 177 211 238 283
#
# _framework density 17.890839
#
# number of rings (size 3 to 8) (size 9 to 14) (size 15 to 20)
#    0.000    2.750    1.250    0.750    0.000    4.250 
#    0.000    6.250    0.000    3.000    0.000    0.000 
#    0.000    0.000    0.000    0.000    0.000    0.000 
#
# Total GULP energy -396451.190327 kJ/mol
# GULP energy per Si atom -12389.099698 kJ/mol
# Density = 1.785012 g / cm^3
# Si number density = 17.890839 Si / 1000 Ang^3
#
#
#
# Elastic Constant Matrix: (Units=GPa)
#
#
# Indices 1 2 3 4 5 6 
#
# 1 128.0909 29.1016 80.6688 0.0047 -0.8018 -0.0024
# 2 29.1016 40.3818 27.3325 0.0128 -3.5231 -0.0096
# 3 80.6688 27.3325 139.1421 0.0093 -10.9502 -0.0064
# 4 0.0047 0.0128 0.0093 18.6451 -0.0029 -2.6390
# 5 -0.8018 -3.5231 -10.9502 -0.0029 25.7228 0.0025
# 6 -0.0024 -0.0096 -0.0064 -2.6390 0.0025 18.8404
#
#
#
# Elastic Compliance Matrix: (Units=1/GPa)
#
#
# Indices 1 2 3 4 5 6 
#
# 1 0.013365 -0.005188 -0.006987 0.000003 -0.003268 -0.000002
# 2 -0.005188 0.030637 -0.002786 -0.000016 0.002848 0.000011
# 3 -0.006987 -0.002786 0.012145 -0.000002 0.004571 0.000001
# 4 0.000003 -0.000016 -0.000002 0.054718 0.000003 0.007664
# 5 -0.003268 0.002848 0.004571 0.000003 0.041110 -0.000003
# 6 -0.000002 0.000011 0.000001 0.007664 -0.000003 0.054151
#
#
# Mechanical properties :
#
#
# Convention : Reuss Voigt Hill
#
# Bulk Modulus (GPa) = 38.13197 64.64674 51.38935
# Shear Modulus (GPa) = 20.42573 24.00911 22.21742
#
# Velocity S-wave (km/s) = 3.38255 3.66728 3.52779
# Velocity P-wave (km/s) = 6.05107 7.35828 6.73646
#
# Compressibility (1/GPa) = 0.02622472
#
# Stress axis : x y z
#
# Youngs Moduli (GPa) = 74.82071 32.64044 82.34167
#
# Poissons Ratio (x) = 0.16934 0.57530
# Poissons Ratio (y) = 0.38817 0.22942
# Poissons Ratio (z) = 0.52275 0.09094
#
# Static dielectric constant tensor:
#      x y z
#    x 3.243760 0.000000 0.063000 
#    y 0.000000 2.839230 0.000000 
#    z 0.063000 0.000000 3.704820 
# 
# 
# High freq. dielectric constant tensor:
#      x y z
#    x 1.679270 0.000000 0.001010 
#    y 0.000000 1.642840 0.000000 
#    z 0.001010 0.000000 1.709020 
# 
# From -- ./inp_files/250873.got.cif
#   From: 2010.06.25/outbox.cif.g09.slc.cpg/sg12_126_cif.got.tgz:250873.got - 2010.06.28 00:19:55.
