data_PCOD8080366
_publ_section_title
;
Structure prediction by ZEFSAII (Michael W. Deem and Ramdas Pophale) SiO2 
 PCOD8080366
Probable space group: C 2/M
;
_chemical_formula_sum "Si O2"
_cell_formula_units_Z 56
_cell_length_a 22.749699
_cell_length_b 8.826401
_cell_length_c 18.558643
_cell_angle_alpha 90.000000
_cell_angle_beta 117.977594
_cell_angle_gamma 90.000000
_cell_volume 3291.021457
_symmetry_space_group_name_H-M "C 2/M"
_symmetry_group_IT_number 12
_symmetry_cell_setting 'monoclinic'
loop_
_space_group_symop_operation_xyz
x,y,z
-x,y,-z
-x,-y,-z
x,-y,z
1/2+x,1/2+y,z
1/2-x,1/2+y,-z
1/2-x,1/2-y,-z
1/2+x,1/2-y,z
loop_
_atom_site_type_symbol
_atom_site_label
_atom_site_fract_x
_atom_site_fract_y
_atom_site_fract_z
Si Si1 0.157501 0.822699 0.399527
Si Si2 0.293579 0.322527 0.425402
Si Si3 0.854933 0.176284 0.047977
Si Si4 0.771595 0.323705 0.117361
Si Si5 0.250344 0.678443 0.732195
Si Si6 0.989729 0.320604 0.074498
Si Si7 0.387511 0.179570 0.759227
O O1 0.227090 0.751506 0.417178
O O2 0.148231 0.794919 0.480850
O O3 0.102435 0.741854 0.317278
O O4 0.158006 0.000000 0.382507
O O5 0.282186 0.500000 0.406561
O O6 0.306625 0.242186 0.355703
O O7 0.828643 0.227808 0.110913
O O8 0.921591 0.263896 0.068590
O O9 0.870814 0.000000 0.059050
O O10 0.800610 0.218106 0.956119
O O11 0.786894 0.500000 0.114015
O O12 0.773111 0.277604 0.201622
O O13 0.258186 0.500000 0.727602
O O14 0.321034 0.755148 0.756995
O O15 0.987678 0.500000 0.071457
O O16 0.050262 0.262243 0.158594
O O17 0.000000 0.254973 0.000000
O O18 0.383042 0.000000 0.755023
#
# Coordination Sequence:
#
# PCOD8080366 Si02
#       7
#     8   8   8   8   8   8   8
#     4   9  16  26  40  59  87 121 152 185 225 268
#     4   9  16  25  39  61  89 119 150 185 225 270
#     4  10  20  33  51  71  90 119 156 192 228 265
#     4   9  19  34  49  68  94 121 151 188 230 273
#     4  10  18  28  45  68  94 123 152 187 229 269
#     4  10  21  35  49  67  94 126 155 186 227 271
#     4  10  19  29  44  66  92 124 157 188 225 270
#
# _framework density 17.015995
#
# number of rings (size 3 to 8) (size 9 to 14) (size 15 to 20)
#    0.000    2.429    0.000    4.714    0.000    4.857 
#    0.000    0.000    0.000    0.000    0.000    1.000 
#    0.000    8.000    0.000    0.000    0.000    0.000 
#
# Total GULP energy -347020.176530 kJ/mol
# GULP energy per Si atom -12393.577733 kJ/mol
# Density = 1.697727 g / cm^3
# Si number density = 17.015995 Si / 1000 Ang^3
#
#
#
# Elastic Constant Matrix: (Units=GPa)
#
#
# Indices 1 2 3 4 5 6 
#
# 1 52.2552 9.3135 51.5491 0.0000 -9.6616 0.0000
# 2 9.3135 47.7906 41.7354 0.0000 -6.6377 0.0000
# 3 51.5491 41.7354 160.1128 0.0000 -25.0792 0.0000
# 4 0.0000 0.0000 0.0000 28.8636 0.0000 -2.5710
# 5 -9.6616 -6.6377 -25.0792 0.0000 26.1914 0.0000
# 6 0.0000 0.0000 0.0000 -2.5710 0.0000 21.1688
#
#
#
# Elastic Compliance Matrix: (Units=1/GPa)
#
#
# Indices 1 2 3 4 5 6 
#
# 1 0.028504 0.003190 -0.009688 0.000000 0.002046 0.000000
# 2 0.003190 0.027449 -0.008127 0.000000 0.000351 0.000000
# 3 -0.009688 -0.008127 0.012471 0.000000 0.006308 0.000000
# 4 0.000000 0.000000 0.000000 0.035025 0.000000 0.004254
# 5 0.002046 0.000351 0.006308 0.000000 0.045065 0.000000
# 6 0.000000 0.000000 0.000000 0.004254 0.000000 0.047756
#
#
# Mechanical properties :
#
#
# Convention : Reuss Voigt Hill
#
# Bulk Modulus (GPa) = 25.52724 51.70608 38.61666
# Shear Modulus (GPa) = 20.95763 25.74880 23.35322
#
# Velocity S-wave (km/s) = 3.51328 3.89422 3.70865
# Velocity P-wave (km/s) = 5.61178 7.11847 6.40955
#
# Compressibility (1/GPa) = 0.03917383
#
# Stress axis : x y z
#
# Youngs Moduli (GPa) = 35.08333 36.43131 80.18558
#
# Poissons Ratio (x) = -0.11621 0.77682
# Poissons Ratio (y) = -0.11191 0.65165
# Poissons Ratio (z) = 0.33988 0.29607
#
# Static dielectric constant tensor:
#      x y z
#    x 2.850230 0.000000 -0.382250 
#    y 0.000000 3.253570 0.000000 
#    z -0.382250 0.000000 4.058920 
# 
# 
# High freq. dielectric constant tensor:
#      x y z
#    x 1.606330 0.000000 -0.025500 
#    y 0.000000 1.668770 0.000000 
#    z -0.025500 0.000000 1.671760 
# 
# From -- ./inp_files/323802.got.cif
#   From: 2010.06.25/outbox.cif.g09.slc.cpg/sg12_162_cif.got.tgz:323802.got - 2010.06.28 00:19:55.
