data_PCOD8080146
_publ_section_title
;
Structure prediction by ZEFSAII (Michael W. Deem and Ramdas Pophale) SiO2 
 PCOD8080146
Probable space group: C 2/M
;
_chemical_formula_sum "Si O2"
_cell_formula_units_Z 64
_cell_length_a 24.543089
_cell_length_b 9.187643
_cell_length_c 18.379191
_cell_angle_alpha 90.000000
_cell_angle_beta 80.091568
_cell_angle_gamma 90.000000
_cell_volume 4082.563948
_symmetry_space_group_name_H-M "C 2/M"
_symmetry_group_IT_number 12
_symmetry_cell_setting 'monoclinic'
loop_
_space_group_symop_operation_xyz
x,y,z
-x,y,-z
-x,-y,-z
x,-y,z
1/2+x,1/2+y,z
1/2-x,1/2+y,-z
1/2-x,1/2-y,-z
1/2+x,1/2-y,z
loop_
_atom_site_type_symbol
_atom_site_label
_atom_site_fract_x
_atom_site_fract_y
_atom_site_fract_z
Si Si1 0.956729 0.330418 0.801508
Si Si2 0.558181 0.835193 0.527573
Si Si3 0.843862 0.667256 0.743760
Si Si4 0.492246 0.665141 0.336719
Si Si5 0.669187 0.332309 0.998500
Si Si6 0.227765 0.330576 0.111309
Si Si7 0.953901 0.169136 0.953138
Si Si8 0.608190 0.664004 0.392391
O O1 0.971731 0.500000 0.799636
O O2 0.895683 0.302966 0.784524
O O3 0.961224 0.266290 0.880643
O O4 0.001588 0.248852 0.740872
O O5 0.500000 0.835289 0.500000
O O6 0.553456 0.748155 0.604401
O O7 0.604280 0.756195 0.467480
O O8 0.577414 0.000000 0.538944
O O9 0.843163 0.500000 0.718498
O O10 0.788704 0.710926 0.802035
O O11 0.846007 0.765314 0.671117
O O12 0.472445 0.500000 0.327087
O O13 0.549769 0.666096 0.365866
O O14 0.678442 0.500000 0.015376
O O15 0.708357 0.288172 0.920762
O O16 0.686229 0.246526 0.066033
O O17 0.605360 0.299684 0.995021
O O18 0.216593 0.500000 0.102654
O O19 0.959606 0.000000 0.929808
O O20 0.000000 0.216613 0.000000
O O21 0.626311 0.500000 0.407200
#
# Coordination Sequence:
#
# PCOD8080146 Si02
#       8
#     8   8   8   8   8   8   8   8
#     4  10  18  28  41  57  76 100 134 171 206 245
#     4   9  15  23  34  49  71 100 133 165 197 232
#     4   9  16  25  37  54  77 102 128 164 204 240
#     4   9  16  25  37  52  72  99 131 167 202 236
#     4   9  17  28  43  60  78 102 133 167 207 250
#     4   9  16  27  42  60  80 102 130 169 209 246
#     4  10  20  32  44  59  81 108 137 171 210 251
#     4   9  16  23  33  50  73 101 133 163 193 234
#
# _framework density 15.676423
#
# number of rings (size 3 to 8) (size 9 to 14) (size 15 to 20)
#    0.000    2.750    1.250    1.500    0.000    5.750 
#    0.000    0.000    0.000    0.000    0.000    0.000 
#    0.000    0.000    0.000    1.125    0.000   11.375 
#
# Total GULP energy -396681.273402 kJ/mol
# GULP energy per Si atom -12396.289794 kJ/mol
# Density = 1.564074 g / cm^3
# Si number density = 15.676423 Si / 1000 Ang^3
#
#
#
# Elastic Constant Matrix: (Units=GPa)
#
#
# Indices 1 2 3 4 5 6 
#
# 1 48.0072 24.9271 36.6956 0.0000 -14.0784 0.0000
# 2 24.9271 103.8171 67.6770 0.0000 -16.0265 0.0000
# 3 36.6956 67.6770 125.4721 0.0000 -33.9528 0.0000
# 4 0.0000 0.0000 0.0000 32.8857 0.0000 -3.7021
# 5 -14.0784 -16.0265 -33.9528 0.0000 18.9195 0.0000
# 6 0.0000 0.0000 0.0000 -3.7021 0.0000 9.4978
#
#
#
# Elastic Compliance Matrix: (Units=1/GPa)
#
#
# Indices 1 2 3 4 5 6 
#
# 1 0.028614 -0.002618 -0.003489 0.000000 0.012813 0.000000
# 2 -0.002618 0.015215 -0.008710 0.000000 -0.004691 0.000000
# 3 -0.003489 -0.008710 0.021364 0.000000 0.028365 0.000000
# 4 0.000000 0.000000 0.000000 0.031804 0.000000 0.012397
# 5 0.012813 -0.004691 0.028365 0.000000 0.109320 0.000000
# 6 0.000000 0.000000 0.000000 0.012397 0.000000 0.110119
#
#
# Mechanical properties :
#
#
# Convention : Reuss Voigt Hill
#
# Bulk Modulus (GPa) = 28.12293 59.54396 43.83345
# Shear Modulus (GPa) = 13.96942 22.12705 18.04823
#
# Velocity S-wave (km/s) = 2.98838 3.76105 3.39676
# Velocity P-wave (km/s) = 5.46679 7.54495 6.58833
#
# Compressibility (1/GPa) = 0.03555817
#
# Stress axis : x y z
#
# Youngs Moduli (GPa) = 34.94776 65.72505 46.80710
#
# Poissons Ratio (x) = 0.17206 0.16332
# Poissons Ratio (y) = 0.09149 0.40771
# Poissons Ratio (z) = 0.12194 0.57250
#
# Static dielectric constant tensor:
#      x y z
#    x 2.578830 0.000000 -0.380810 
#    y 0.000000 3.135740 0.000000 
#    z -0.380810 0.000000 3.133250 
# 
# 
# High freq. dielectric constant tensor:
#      x y z
#    x 1.528300 0.000000 -0.036360 
#    y 0.000000 1.614570 0.000000 
#    z -0.036360 0.000000 1.606930 
# 
# From -- ./inp_files/294543.got.cif
#   From: 2010.06.25/outbox.cif.g09.slc.cpg/sg12_148_cif.got.tgz:294543.got - 2010.06.28 00:19:55.
