data_PCOD8080595
_publ_section_title
;
Structure prediction by ZEFSAII (Michael W. Deem and Ramdas Pophale) SiO2 
 PCOD8080595
Probable space group: C 2/M
;
_chemical_formula_sum "Si O2"
_cell_formula_units_Z 64
_cell_length_a 23.379846
_cell_length_b 8.986485
_cell_length_c 16.940004
_cell_angle_alpha 90.000000
_cell_angle_beta 85.036363
_cell_angle_gamma 90.000000
_cell_volume 3545.792039
_symmetry_space_group_name_H-M "C 2/M"
_symmetry_group_IT_number 12
_symmetry_cell_setting 'monoclinic'
loop_
_space_group_symop_operation_xyz
x,y,z
-x,y,-z
-x,-y,-z
x,-y,z
1/2+x,1/2+y,z
1/2-x,1/2+y,-z
1/2-x,1/2-y,-z
1/2+x,1/2-y,z
loop_
_atom_site_type_symbol
_atom_site_label
_atom_site_fract_x
_atom_site_fract_y
_atom_site_fract_z
Si Si1 0.858061 0.174342 0.668671
Si Si2 0.061207 0.175167 0.960542
Si Si3 0.622694 0.831624 0.086756
Si Si4 0.230307 0.673784 0.422851
Si Si5 0.180994 0.831806 0.727512
Si Si6 0.787199 0.669115 0.805605
Si Si7 0.427408 0.174214 0.207727
Si Si8 0.549887 0.827591 0.250743
O O1 0.830590 0.255120 0.595809
O O2 0.818495 0.209462 0.748417
O O3 0.922009 0.234788 0.680665
O O4 0.860821 0.000000 0.651816
O O5 0.074968 0.243747 0.874937
O O6 0.061377 0.000000 0.951113
O O7 0.110747 0.222214 0.015837
O O8 0.000000 0.233822 0.000000
O O9 0.689191 0.810905 0.107811
O O10 0.581026 0.791622 0.164419
O O11 0.611552 0.000000 0.059458
O O12 0.221138 0.500000 0.438159
O O13 0.250000 0.750000 0.500000
O O14 0.278569 0.705537 0.351257
O O15 0.218637 0.810245 0.803973
O O16 0.127640 0.720144 0.734063
O O17 0.157511 0.000000 0.725420
O O18 0.803509 0.500000 0.774307
O O19 0.483715 0.221036 0.250164
O O20 0.427096 0.000000 0.191097
O O21 0.556000 0.000000 0.271429
#
# Coordination Sequence:
#
# PCOD8080595 Si02
#       8
#     8   8   8   8   8   8   8   8
#     4  10  18  28  49  80 108 134 170 213 253 301
#     4  11  22  33  47  71 103 134 172 223 273 315
#     4   9  16  30  51  71  95 129 174 220 265 313
#     4  10  20  36  59  85 113 141 169 207 254 303
#     4   9  19  36  55  77 108 138 167 208 259 309
#     4   8  16  32  51  71  99 136 170 211 264 311
#     4  11  22  35  53  74 101 140 181 217 259 313
#     4   9  18  32  49  71 101 137 174 216 262 305
#
# _framework density 18.049564
#
# number of rings (size 3 to 8) (size 9 to 14) (size 15 to 20)
#    0.000    2.375    1.250    3.750    0.000    6.000 
#    0.000    0.625    0.000    0.750    0.000    5.250 
#    0.000    0.000    0.000    0.000    0.000    0.000 
#
# Total GULP energy -396691.180525 kJ/mol
# GULP energy per Si atom -12396.599391 kJ/mol
# Density = 1.800848 g / cm^3
# Si number density = 18.049564 Si / 1000 Ang^3
#
#
#
# Elastic Constant Matrix: (Units=GPa)
#
#
# Indices 1 2 3 4 5 6 
#
# 1 118.1555 51.9797 50.4587 0.0000 27.5324 0.0000
# 2 51.9797 94.7987 47.7130 0.0000 19.7924 0.0000
# 3 50.4587 47.7130 78.1532 0.0000 29.4271 0.0000
# 4 0.0000 0.0000 0.0000 28.6905 0.0000 4.0408
# 5 27.5324 19.7924 29.4271 0.0000 30.4055 0.0000
# 6 0.0000 0.0000 0.0000 4.0408 0.0000 28.7881
#
#
#
# Elastic Compliance Matrix: (Units=1/GPa)
#
#
# Indices 1 2 3 4 5 6 
#
# 1 0.013249 -0.004120 -0.003983 0.000000 -0.005461 0.000000
# 2 -0.004120 0.016549 -0.007539 0.000000 0.000255 0.000000
# 3 -0.003983 -0.007539 0.026375 0.000000 -0.017013 0.000000
# 4 0.000000 0.000000 0.000000 0.035558 0.000000 -0.004991
# 5 -0.005461 0.000255 -0.017013 0.000000 0.054133 0.000000
# 6 0.000000 0.000000 0.000000 -0.004991 0.000000 0.035437
#
#
# Mechanical properties :
#
#
# Convention : Reuss Voigt Hill
#
# Bulk Modulus (GPa) = 40.17741 65.71223 52.94482
# Shear Modulus (GPa) = 22.63654 26.97389 24.80522
#
# Velocity S-wave (km/s) = 3.54522 3.86999 3.71115
# Velocity P-wave (km/s) = 6.25027 7.51363 6.91088
#
# Compressibility (1/GPa) = 0.02488961
#
# Stress axis : x y z
#
# Youngs Moduli (GPa) = 75.47579 60.42606 37.91438
#
# Poissons Ratio (x) = 0.24896 0.15100
# Poissons Ratio (y) = 0.31097 0.28584
# Poissons Ratio (z) = 0.30060 0.45556
#
# Static dielectric constant tensor:
#      x y z
#    x 3.548810 0.000000 0.386180 
#    y 0.000000 3.269780 0.000000 
#    z 0.386180 0.000000 3.080890 
# 
# 
# High freq. dielectric constant tensor:
#      x y z
#    x 1.697160 0.000000 0.035080 
#    y 0.000000 1.701470 0.000000 
#    z 0.035080 0.000000 1.664000 
# 
# From -- ./inp_files/287652.got.cif
#   From: 2010.06.25/outbox.cif.g09.slc.cpg/sg12_144_cif.got.tgz:287652.got - 2010.06.28 00:19:55.
