data_PCOD8080091
_publ_section_title
;
Structure prediction by ZEFSAII (Michael W. Deem and Ramdas Pophale) SiO2 
 PCOD8080091
Probable space group: C 2/M
;
_chemical_formula_sum "Si O2"
_cell_formula_units_Z 64
_cell_length_a 20.887667
_cell_length_b 9.747224
_cell_length_c 23.193713
_cell_angle_alpha 90.000000
_cell_angle_beta 50.051436
_cell_angle_gamma 90.000000
_cell_volume 3620.111739
_symmetry_space_group_name_H-M "C 2/M"
_symmetry_group_IT_number 12
_symmetry_cell_setting 'monoclinic'
loop_
_space_group_symop_operation_xyz
x,y,z
-x,y,-z
-x,-y,-z
x,-y,z
1/2+x,1/2+y,z
1/2-x,1/2+y,-z
1/2-x,1/2-y,-z
1/2+x,1/2-y,z
loop_
_atom_site_type_symbol
_atom_site_label
_atom_site_fract_x
_atom_site_fract_y
_atom_site_fract_z
Si Si1 0.968997 0.840442 0.854898
Si Si2 0.725792 0.840902 0.313093
Si Si3 0.371840 0.649172 0.802623
Si Si4 0.461971 0.158050 0.584809
Si Si5 0.372863 0.336068 0.304800
Si Si6 0.039492 0.152985 0.634387
Si Si7 0.234678 0.841018 0.836739
Si Si8 0.925339 0.836339 0.004242
O O1 0.890071 0.817443 0.858769
O O2 0.941337 0.773288 0.931610
O O3 0.053627 0.775060 0.778997
O O4 0.986696 0.000000 0.855436
O O5 0.632199 0.776935 0.362641
O O6 0.783141 0.781010 0.332311
O O7 0.778130 0.816224 0.224093
O O8 0.710913 0.000000 0.333870
O O9 0.327249 0.500000 0.822717
O O10 0.459184 0.642006 0.720340
O O11 0.319076 0.769047 0.806182
O O12 0.500000 0.170167 0.500000
O O13 0.523212 0.242511 0.591620
O O14 0.460298 0.000000 0.607173
O O15 0.376279 0.500000 0.298968
O O16 0.387048 0.293730 0.364056
O O17 0.060922 0.000000 0.597678
O O18 0.247008 0.000000 0.842873
O O19 0.159029 0.778565 0.917742
O O20 0.920762 0.000000 0.006101
O O21 0.000000 0.782414 0.000000
#
# Coordination Sequence:
#
# PCOD8080091 Si02
#       8
#     8   8   8   8   8   8   8   8
#     4   8  14  25  40  61  91 121 150 188 235 277
#     4   9  16  28  46  69  94 120 156 196 228 272
#     4   9  17  29  45  65  90 122 152 183 230 280
#     4  10  20  33  50  72  99 128 151 181 234 289
#     4   8  14  26  47  70  91 121 160 196 230 270
#     4   9  17  31  51  72  92 120 158 195 230 271
#     4  10  18  27  45  70  91 117 155 195 233 269
#     4   9  16  25  39  63  92 117 148 197 242 267
#
# _framework density 17.679010999999999
#
# number of rings (size 3 to 8) (size 9 to 14) (size 15 to 20)
#    0.000    3.000    1.250    2.250    0.000    3.750 
#    0.000    0.625    0.000    1.875    0.000    3.500 
#    0.000    0.000    0.000    0.000    0.000    0.000 
#
# Total GULP energy -396469.589961 kJ/mol
# GULP energy per Si atom -12389.674686 kJ/mol
# Density = 1.763877 g / cm^3
# Si number density = 17.679011 Si / 1000 Ang^3
#
#
#
# Elastic Constant Matrix: (Units=GPa)
#
#
# Indices 1 2 3 4 5 6 
#
# 1 116.9738 34.5367 29.8698 0.0000 17.8177 0.0000
# 2 34.5367 31.7708 18.8804 0.0001 9.5560 -0.0002
# 3 29.8698 18.8804 49.0487 0.0000 10.9267 0.0000
# 4 0.0000 0.0001 0.0000 7.0592 0.0000 -0.4380
# 5 17.8177 9.5560 10.9267 0.0000 25.4719 0.0000
# 6 0.0000 -0.0002 0.0000 -0.4380 0.0000 16.3054
#
#
#
# Elastic Compliance Matrix: (Units=1/GPa)
#
#
# Indices 1 2 3 4 5 6 
#
# 1 0.013262 -0.011658 -0.002761 0.000000 -0.003719 0.000000
# 2 -0.011658 0.053238 -0.011898 -0.000001 -0.006714 0.000001
# 3 -0.002761 -0.011898 0.027890 0.000000 -0.005569 0.000000
# 4 0.000000 -0.000001 0.000000 0.141896 0.000000 0.003812
# 5 -0.003719 -0.006714 -0.005569 0.000000 0.046769 0.000000
# 6 0.000000 0.000001 0.000000 0.003812 0.000000 0.061432
#
#
# Mechanical properties :
#
#
# Convention : Reuss Voigt Hill
#
# Bulk Modulus (GPa) = 23.94771 40.48524 32.21647
# Shear Modulus (GPa) = 12.16433 17.40105 14.78269
#
# Velocity S-wave (km/s) = 2.62595 3.14072 2.89480
# Velocity P-wave (km/s) = 4.77173 6.00850 5.42547
#
# Compressibility (1/GPa) = 0.04175765
#
# Stress axis : x y z
#
# Youngs Moduli (GPa) = 75.40153 18.78356 35.85568
#
# Poissons Ratio (x) = 0.21897 0.09898
# Poissons Ratio (y) = 0.87901 0.42661
# Poissons Ratio (z) = 0.20815 0.22349
#
# Static dielectric constant tensor:
#      x y z
#    x 3.665260 0.000000 0.030780 
#    y 0.000000 2.822920 0.000000 
#    z 0.030780 0.000000 3.365450 
# 
# 
# High freq. dielectric constant tensor:
#      x y z
#    x 1.694920 0.000000 0.009150 
#    y 0.000000 1.619300 0.000000 
#    z 0.009150 0.000000 1.674710 
# 
# From -- ./inp_files/346653.got.cif
#   From: 2010.06.25/outbox.cif.g09.slc.cpg/sg12_174_cif.got.tgz:346653.got - 2010.06.28 00:19:55.
