data_PCOD8080777
_publ_section_title
;
Structure prediction by ZEFSAII (Michael W. Deem and Ramdas Pophale) SiO2 
 PCOD8080777
Probable space group: C 2/M
;
_chemical_formula_sum "Si O2"
_cell_formula_units_Z 56
_cell_length_a 25.144195
_cell_length_b 9.259925
_cell_length_c 15.161621
_cell_angle_alpha 90.000000
_cell_angle_beta 74.212591
_cell_angle_gamma 90.000000
_cell_volume 3396.966863
_symmetry_space_group_name_H-M "C 2/M"
_symmetry_group_IT_number 12
_symmetry_cell_setting 'monoclinic'
loop_
_space_group_symop_operation_xyz
x,y,z
-x,y,-z
-x,-y,-z
x,-y,z
1/2+x,1/2+y,z
1/2-x,1/2+y,-z
1/2-x,1/2-y,-z
1/2+x,1/2-y,z
loop_
_atom_site_type_symbol
_atom_site_label
_atom_site_fract_x
_atom_site_fract_y
_atom_site_fract_z
Si Si1 0.238320 0.831554 0.915277
Si Si2 0.552715 0.671448 0.775544
Si Si3 0.545012 0.828904 0.604371
Si Si4 0.119843 0.170641 0.910910
Si Si5 0.930354 0.829951 0.884586
Si Si6 0.646949 0.832340 0.213980
Si Si7 0.574037 0.830227 0.402788
O O1 0.182194 0.770869 0.896600
O O2 0.287700 0.803740 0.823460
O O3 0.232415 0.000000 0.941167
O O4 0.250000 0.750000 0.000000
O O5 0.556320 0.500000 0.763031
O O6 0.570415 0.746556 0.676496
O O7 0.594340 0.731297 0.831684
O O8 0.491268 0.721078 0.830461
O O9 0.578831 0.776043 0.501823
O O10 0.481766 0.775651 0.619848
O O11 0.549503 0.000000 0.618245
O O12 0.120842 0.000000 0.903504
O O13 0.080823 0.217774 0.009687
O O14 0.884441 0.755831 0.845939
O O15 0.923167 0.000000 0.876155
O O16 0.626775 0.781828 0.320608
O O17 0.632445 0.000000 0.206312
O O18 0.568177 0.000000 0.412179
#
# Coordination Sequence:
#
# PCOD8080777 Si02
#       7
#     8   8   8   8   8   8   8
#     4  10  19  31  49  69  90 120 154 189 225 261
#     4  10  19  30  46  68  93 123 155 186 221 268
#     4   9  16  29  48  66  89 121 150 184 231 273
#     4   9  18  32  46  63  93 128 156 179 218 275
#     4  10  18  29  46  67  92 124 153 181 222 269
#     4  10  18  29  48  71  93 116 149 190 227 266
#     4   8  15  28  46  67  91 119 148 182 229 278
#
# _framework density 16.485295000000001
#
# number of rings (size 3 to 8) (size 9 to 14) (size 15 to 20)
#    0.000    2.571    2.857    1.286    0.000    1.714 
#    0.000    3.571    0.000    2.571    0.000    0.000 
#    0.000    0.000    0.000    0.000    0.000    0.000 
#
# Total GULP energy -347071.514319 kJ/mol
# GULP energy per Si atom -12395.411226 kJ/mol
# Density = 1.644777 g / cm^3
# Si number density = 16.485295 Si / 1000 Ang^3
#
#
#
# Elastic Constant Matrix: (Units=GPa)
#
#
# Indices 1 2 3 4 5 6 
#
# 1 81.3101 19.2185 52.5488 0.0000 8.3343 0.0000
# 2 19.2185 22.6878 26.8512 0.0000 3.3728 0.0000
# 3 52.5488 26.8512 144.3575 0.0000 7.0092 0.0000
# 4 0.0000 0.0000 0.0000 25.0534 0.0000 3.6390
# 5 8.3343 3.3728 7.0092 0.0000 27.8684 0.0000
# 6 0.0000 0.0000 0.0000 3.6390 0.0000 16.2379
#
#
#
# Elastic Compliance Matrix: (Units=1/GPa)
#
#
# Indices 1 2 3 4 5 6 
#
# 1 0.017750 -0.009119 -0.004617 0.000000 -0.003043 0.000000
# 2 -0.009119 0.061704 -0.008026 0.000000 -0.002722 0.000000
# 3 -0.004617 -0.008026 0.010110 0.000000 -0.000191 0.000000
# 4 0.000000 0.000000 0.000000 0.041258 0.000000 -0.009246
# 5 -0.003043 -0.002722 -0.000191 0.000000 0.037170 0.000000
# 6 0.000000 0.000000 0.000000 -0.009246 0.000000 0.063656
#
#
# Mechanical properties :
#
#
# Convention : Reuss Voigt Hill
#
# Bulk Modulus (GPa) = 21.71989 49.51025 35.61507
# Shear Modulus (GPa) = 17.21055 23.81439 20.51247
#
# Velocity S-wave (km/s) = 3.23460 3.80489 3.53127
# Velocity P-wave (km/s) = 5.21096 7.02859 6.18689
#
# Compressibility (1/GPa) = 0.04604076
#
# Stress axis : x y z
#
# Youngs Moduli (GPa) = 56.33814 16.20637 98.91031
#
# Poissons Ratio (x) = 0.14778 0.45671
# Poissons Ratio (y) = 0.51372 0.79383
# Poissons Ratio (z) = 0.26014 0.13007
#
# Static dielectric constant tensor:
#      x y z
#    x 3.239640 0.000000 -0.153790 
#    y 0.000000 2.812400 0.000000 
#    z -0.153790 0.000000 3.511270 
# 
# 
# High freq. dielectric constant tensor:
#      x y z
#    x 1.617650 0.000000 -0.007040 
#    y 0.000000 1.604100 0.000000 
#    z -0.007040 0.000000 1.643060 
# 
# From -- ./inp_files/173841.got.cif
#   From: 2010.06.25/outbox.cif.g09.slc.cpg/sg12_87_cif.got.tgz:173841.got - 2010.06.28 00:19:55.
