data_PCOD8080474
_publ_section_title
;
Structure prediction by ZEFSAII (Michael W. Deem and Ramdas Pophale) SiO2 
 PCOD8080474
Probable space group: C 2/M
;
_chemical_formula_sum "Si O2"
_cell_formula_units_Z 40
_cell_length_a 20.702592
_cell_length_b 8.789429
_cell_length_c 14.283755
_cell_angle_alpha 90.000000
_cell_angle_beta 121.040884
_cell_angle_gamma 90.000000
_cell_volume 2226.932322
_symmetry_space_group_name_H-M "C 2/M"
_symmetry_group_IT_number 12
_symmetry_cell_setting 'monoclinic'
loop_
_space_group_symop_operation_xyz
x,y,z
-x,y,-z
-x,-y,-z
x,-y,z
1/2+x,1/2+y,z
1/2-x,1/2+y,-z
1/2-x,1/2-y,-z
1/2+x,1/2-y,z
loop_
_atom_site_type_symbol
_atom_site_label
_atom_site_fract_x
_atom_site_fract_y
_atom_site_fract_z
Si Si1 0.818697 0.819171 0.492561
Si Si2 0.460211 0.824894 0.064098
Si Si3 0.732942 0.320702 0.275259
Si Si4 0.800715 0.177658 0.958935
Si Si5 0.600572 0.824038 0.292587
O O1 0.750000 0.750000 0.500000
O O2 0.806840 0.757400 0.378058
O O3 0.893538 0.754118 0.599830
O O4 0.819572 0.000000 0.494380
O O5 0.515434 0.805040 0.193756
O O6 0.437653 0.000000 0.031167
O O7 0.500000 0.761166 0.000000
O O8 0.386175 0.731552 0.031866
O O9 0.735518 0.500000 0.295022
O O10 0.734640 0.277978 0.167575
O O11 0.655718 0.256542 0.260185
O O12 0.800111 0.000000 0.973731
O O13 0.750000 0.250000 0.000000
O O14 0.624268 0.000000 0.317142
#
# Coordination Sequence:
#
# PCOD8080474 Si02
#       5
#     8   8   8   8   8
#     4  10  18  28  46  73 105 139 173 217 265 314
#     4  10  20  35  56  81 110 143 179 221 270 321
#     4  10  19  32  50  75 105 139 178 220 264 315
#     4  11  24  38  56  79 109 146 183 224 268 322
#     4  10  18  30  51  78 108 140 172 217 267 315
#
# _framework density 17.961928
#
# number of rings (size 3 to 8) (size 9 to 14) (size 15 to 20)
#    0.000    1.800    2.000    6.000    0.000    4.400 
#    0.000    0.000    0.000    1.200    0.000    8.400 
#    0.000    0.000    0.000    0.000    0.000    0.000 
#
# Total GULP energy -247968.622528 kJ/mol
# GULP energy per Si atom -12398.431126 kJ/mol
# Density = 1.792105 g / cm^3
# Si number density = 17.961928 Si / 1000 Ang^3
#
#
#
# Elastic Constant Matrix: (Units=GPa)
#
#
# Indices 1 2 3 4 5 6 
#
# 1 82.7672 31.2823 60.0581 0.0000 -6.6231 0.0000
# 2 31.2823 103.8858 83.2790 0.0000 -6.2276 0.0000
# 3 60.0581 83.2790 160.4266 0.0000 -0.7629 0.0000
# 4 0.0000 0.0000 0.0000 33.7465 0.0000 1.9578
# 5 -6.6231 -6.2276 -0.7629 0.0000 17.3257 0.0000
# 6 0.0000 0.0000 0.0000 1.9578 0.0000 25.4331
#
#
#
# Elastic Compliance Matrix: (Units=1/GPa)
#
#
# Indices 1 2 3 4 5 6 
#
# 1 0.017273 0.000597 -0.006745 0.000000 0.006520 0.000000
# 2 0.000597 0.017059 -0.009051 0.000000 0.005961 0.000000
# 3 -0.006745 -0.009051 0.013432 0.000000 -0.005240 0.000000
# 4 0.000000 0.000000 0.000000 0.029766 0.000000 -0.002291
# 5 0.006520 0.005961 -0.005240 0.000000 0.062122 0.000000
# 6 0.000000 0.000000 0.000000 -0.002291 0.000000 0.039495
#
#
# Mechanical properties :
#
#
# Convention : Reuss Voigt Hill
#
# Bulk Modulus (GPa) = 57.58446 77.36872 67.47659
# Shear Modulus (GPa) = 23.21987 26.79840 25.00913
#
# Velocity S-wave (km/s) = 3.59935 3.86677 3.73546
# Velocity P-wave (km/s) = 7.02869 7.94375 7.50019
#
# Compressibility (1/GPa) = 0.01736580
#
# Stress axis : x y z
#
# Youngs Moduli (GPa) = 57.89482 58.62057 74.45015
#
# Poissons Ratio (x) = -0.03499 0.50217
# Poissons Ratio (y) = -0.03455 0.67381
# Poissons Ratio (z) = 0.39051 0.53055
#
# Static dielectric constant tensor:
#      x y z
#    x 2.885240 0.000000 0.000620 
#    y 0.000000 3.450660 0.000000 
#    z 0.000620 0.000000 4.093470 
# 
# 
# High freq. dielectric constant tensor:
#      x y z
#    x 1.635160 0.000000 0.006580 
#    y 0.000000 1.711740 0.000000 
#    z 0.006580 0.000000 1.723790 
# 
# From -- ./inp_files/229486.got.cif
#   From: 2010.06.25/outbox.cif.g09.slc.cpg/sg12_115_cif.got.tgz:229486.got - 2010.06.28 00:19:55.
