data_PCOD8080767
_publ_section_title
;
Structure prediction by ZEFSAII (Michael W. Deem and Ramdas Pophale) SiO2 
 PCOD8080767
Probable space group: C 2/M
;
_chemical_formula_sum "Si O2"
_cell_formula_units_Z 64
_cell_length_a 27.551872
_cell_length_b 9.059393
_cell_length_c 14.667393
_cell_angle_alpha 90.000000
_cell_angle_beta 86.783651
_cell_angle_gamma 90.000000
_cell_volume 3655.261891
_symmetry_space_group_name_H-M "C 2/M"
_symmetry_group_IT_number 12
_symmetry_cell_setting 'monoclinic'
loop_
_space_group_symop_operation_xyz
x,y,z
-x,y,-z
-x,-y,-z
x,-y,z
1/2+x,1/2+y,z
1/2-x,1/2+y,-z
1/2-x,1/2-y,-z
1/2+x,1/2-y,z
loop_
_atom_site_type_symbol
_atom_site_label
_atom_site_fract_x
_atom_site_fract_y
_atom_site_fract_z
Si Si1 0.442235 0.325840 0.265148
Si Si2 0.588565 0.165487 0.204793
Si Si3 0.486029 0.673794 0.901058
Si Si4 0.589478 0.333413 0.482493
Si Si5 0.339562 0.335795 0.693793
Si Si6 0.139029 0.328213 0.641403
Si Si7 0.515004 0.167949 0.380472
Si Si8 0.247984 0.671331 0.596476
O O1 0.436210 0.500000 0.271756
O O2 0.470710 0.277752 0.171508
O O3 0.389557 0.246670 0.270518
O O4 0.468894 0.267842 0.354871
O O5 0.564406 0.251858 0.122997
O O6 0.640437 0.237472 0.224957
O O7 0.552966 0.170887 0.294244
O O8 0.598654 0.000000 0.171310
O O9 0.477806 0.500000 0.898384
O O10 0.500000 0.729039 0.000000
O O11 0.576101 0.500000 0.516266
O O12 0.619432 0.342729 0.386890
O O13 0.623701 0.252772 0.550706
O O14 0.540440 0.237398 0.468233
O O15 0.329300 0.500000 0.732683
O O16 0.289781 0.265426 0.659044
O O17 0.125841 0.500000 0.636009
O O18 0.196289 0.303805 0.650697
O O19 0.498525 0.000000 0.402486
O O20 0.258553 0.500000 0.576286
O O21 0.250000 0.750000 0.500000
#
# Coordination Sequence:
#
# PCOD8080767 Si02
#       8
#     8   8   8   8   8   8   8   8
#     4  10  20  34  50  69  95 125 158 194 235 288
#     4   9  17  28  46  74 102 127 155 192 239 288
#     4   9  18  34  56  79 101 126 155 189 234 292
#     4  10  18  29  46  66  90 124 167 206 241 281
#     4   9  17  30  47  67  94 128 165 206 245 282
#     4  11  22  33  46  66  95 128 164 204 246 286
#     4   9  17  30  46  65  93 125 160 198 238 282
#     4  10  20  33  49  69  93 127 171 214 251 285
#
# _framework density 17.509004999999998
#
# number of rings (size 3 to 8) (size 9 to 14) (size 15 to 20)
#    0.000    2.375    1.250    1.875    0.000    5.750 
#    0.000    2.500    0.000    0.000    0.000    0.875 
#    0.000    0.000    0.000    0.000    0.000    0.000 
#
# Total GULP energy -396805.226914 kJ/mol
# GULP energy per Si atom -12400.163341 kJ/mol
# Density = 1.746915 g / cm^3
# Si number density = 17.509005 Si / 1000 Ang^3
#
#
#
# Elastic Constant Matrix: (Units=GPa)
#
#
# Indices 1 2 3 4 5 6 
#
# 1 106.0769 49.2759 36.0383 0.0000 24.6880 0.0000
# 2 49.2759 98.0573 31.1402 0.0000 15.0209 0.0000
# 3 36.0383 31.1402 84.4307 0.0000 20.8704 0.0000
# 4 0.0000 0.0000 0.0000 19.6023 0.0000 3.4145
# 5 24.6880 15.0209 20.8704 0.0000 25.0555 0.0000
# 6 0.0000 0.0000 0.0000 3.4145 0.0000 26.1072
#
#
#
# Elastic Compliance Matrix: (Units=1/GPa)
#
#
# Indices 1 2 3 4 5 6 
#
# 1 0.014854 -0.005344 -0.001943 0.000000 -0.009813 0.000000
# 2 -0.005344 0.013845 -0.002613 0.000000 -0.000858 0.000000
# 3 -0.001943 -0.002613 0.016090 0.000000 -0.009921 0.000000
# 4 0.000000 0.000000 0.000000 0.052204 0.000000 -0.006828
# 5 -0.009813 -0.000858 -0.009921 0.000000 0.058359 0.000000
# 6 0.000000 0.000000 0.000000 -0.006828 0.000000 0.039197
#
#
# Mechanical properties :
#
#
# Convention : Reuss Voigt Hill
#
# Bulk Modulus (GPa) = 40.02080 57.94150 48.98115
# Shear Modulus (GPa) = 22.45401 25.62702 24.04051
#
# Velocity S-wave (km/s) = 3.58498 3.82992 3.70947
# Velocity P-wave (km/s) = 6.32796 7.26099 6.81047
#
# Compressibility (1/GPa) = 0.02498701
#
# Stress axis : x y z
#
# Youngs Moduli (GPa) = 67.32328 72.22908 62.15167
#
# Poissons Ratio (x) = 0.38598 0.12079
# Poissons Ratio (y) = 0.35977 0.16242
# Poissons Ratio (z) = 0.13084 0.18876
#
# Static dielectric constant tensor:
#      x y z
#    x 3.426420 0.000000 0.119920 
#    y 0.000000 3.425600 0.000000 
#    z 0.119920 0.000000 3.011940 
# 
# 
# High freq. dielectric constant tensor:
#      x y z
#    x 1.672720 0.000000 0.012100 
#    y 0.000000 1.687200 0.000000 
#    z 0.012100 0.000000 1.637000 
# 
# From -- ./inp_files/244096.got.cif
#   From: 2010.06.25/outbox.cif.g09.slc.cpg/sg12_123_cif.got.tgz:244096.got - 2010.06.28 00:19:55.
