data_PCOD8080321
_publ_section_title
;
Structure prediction by ZEFSAII (Michael W. Deem and Ramdas Pophale) SiO2 
 PCOD8080321
Probable space group: C 2/M
;
_chemical_formula_sum "Si O2"
_cell_formula_units_Z 48
_cell_length_a 23.894818
_cell_length_b 9.284917
_cell_length_c 19.720076
_cell_angle_alpha 90.000000
_cell_angle_beta 39.877434
_cell_angle_gamma 90.000000
_cell_volume 2805.099334
_symmetry_space_group_name_H-M "C 2/M"
_symmetry_group_IT_number 12
_symmetry_cell_setting 'monoclinic'
loop_
_space_group_symop_operation_xyz
x,y,z
-x,y,-z
-x,-y,-z
x,-y,z
1/2+x,1/2+y,z
1/2-x,1/2+y,-z
1/2-x,1/2-y,-z
1/2+x,1/2-y,z
loop_
_atom_site_type_symbol
_atom_site_label
_atom_site_fract_x
_atom_site_fract_y
_atom_site_fract_z
Si Si1 0.635842 0.664257 0.792444
Si Si2 0.502883 0.160734 0.745821
Si Si3 0.312161 0.831958 0.889861
Si Si4 0.806491 0.836865 0.119779
Si Si5 0.830111 0.170324 0.391695
Si Si6 0.527095 0.159176 0.068436
O O1 0.604003 0.500000 0.816623
O O2 0.707722 0.685295 0.785691
O O3 0.674486 0.710996 0.684036
O O4 0.551691 0.755929 0.895042
O O5 0.412022 0.223341 0.800424
O O6 0.581579 0.269844 0.655107
O O7 0.496296 0.151316 0.831793
O O8 0.522334 0.000000 0.698366
O O9 0.281215 0.804043 0.841098
O O10 0.309329 0.000000 0.912543
O O11 0.250000 0.750000 0.000000
O O12 0.836892 0.000000 0.077238
O O13 0.880713 0.734586 0.022851
O O14 0.750000 0.250000 0.500000
O O15 0.824283 0.000000 0.409616
O O16 0.533015 0.000000 0.031220
#
# Coordination Sequence:
#
# PCOD8080321 Si02
#       6
#     8   8   8   8   8   8
#     4   9  19  33  47  68  96 126 161 199 243 293
#     4   9  18  32  48  71 101 129 163 202 238 282
#     4  10  19  31  48  70 100 137 171 201 232 275
#     4  10  19  30  46  67  97 135 167 195 232 283
#     4  10  20  35  56  76  94 119 156 205 256 299
#     4  10  18  28  44  68  99 132 164 199 238 280
#
# _framework density 17.111694
#
# number of rings (size 3 to 8) (size 9 to 14) (size 15 to 20)
#    0.000    2.333    1.667    1.500    0.000    4.667 
#    0.000    0.000    0.000    1.000    0.000    7.000 
#    0.000    0.000    0.000    0.000    0.000    0.000 
#
# Total GULP energy -297478.402034 kJ/mol
# GULP energy per Si atom -12394.933418 kJ/mol
# Density = 1.707275 g / cm^3
# Si number density = 17.111694 Si / 1000 Ang^3
#
#
#
# Elastic Constant Matrix: (Units=GPa)
#
#
# Indices 1 2 3 4 5 6 
#
# 1 127.0149 41.3805 47.6034 0.0000 -20.1125 -0.0003
# 2 41.3805 84.8852 50.3368 -0.0016 -11.8693 0.0022
# 3 47.6034 50.3368 87.7057 -0.0003 -20.8946 0.0001
# 4 0.0000 -0.0016 -0.0003 26.0864 0.0003 -6.3089
# 5 -20.1125 -11.8693 -20.8946 0.0003 20.4846 -0.0005
# 6 -0.0003 0.0022 0.0001 -6.3089 -0.0005 19.1941
#
#
#
# Elastic Compliance Matrix: (Units=1/GPa)
#
#
# Indices 1 2 3 4 5 6 
#
# 1 0.010793 -0.002723 -0.002835 0.000000 0.006127 0.000001
# 2 -0.002723 0.018546 -0.009568 0.000001 -0.001687 -0.000002
# 3 -0.002835 -0.009568 0.021728 0.000000 0.013835 0.000001
# 4 0.000000 0.000001 0.000000 0.041645 0.000000 0.013688
# 5 0.006127 -0.001687 0.013835 0.000000 0.067967 0.000002
# 6 0.000001 -0.000002 0.000001 0.013688 0.000002 0.056599
#
#
# Mechanical properties :
#
#
# Convention : Reuss Voigt Hill
#
# Bulk Modulus (GPa) = 48.04516 64.24968 56.14742
# Shear Modulus (GPa) = 19.64874 23.83868 21.74371
#
# Velocity S-wave (km/s) = 3.39228 3.73650 3.56855
# Velocity P-wave (km/s) = 6.59407 7.49960 7.06137
#
# Compressibility (1/GPa) = 0.02081375
#
# Stress axis : x y z
#
# Youngs Moduli (GPa) = 92.65057 53.91975 46.02344
#
# Poissons Ratio (x) = 0.14685 0.13050
# Poissons Ratio (y) = 0.25233 0.44035
# Poissons Ratio (z) = 0.26271 0.51590
#
# Static dielectric constant tensor:
#      x y z
#    x 3.533130 0.000000 -0.012970 
#    y 0.000000 3.490180 0.000000 
#    z -0.012970 0.000000 2.921890 
# 
# 
# High freq. dielectric constant tensor:
#      x y z
#    x 1.668530 0.000000 -0.000380 
#    y 0.000000 1.667250 0.000000 
#    z -0.000380 0.000000 1.620150 
# 
# From -- ./inp_files/236617.got.cif
#   From: 2010.06.25/outbox.cif.g09.slc.cpg/sg12_119_cif.got.tgz:236617.got - 2010.06.28 00:19:55.
