data_PCOD8080372
_publ_section_title
;
Structure prediction by ZEFSAII (Michael W. Deem and Ramdas Pophale) SiO2 
 PCOD8080372
Probable space group: C 2/M
;
_chemical_formula_sum "Si O2"
_cell_formula_units_Z 56
_cell_length_a 20.207224
_cell_length_b 9.678178
_cell_length_c 21.048230
_cell_angle_alpha 90.000000
_cell_angle_beta 47.350827
_cell_angle_gamma 90.000000
_cell_volume 3027.665607
_symmetry_space_group_name_H-M "C 2/M"
_symmetry_group_IT_number 12
_symmetry_cell_setting 'monoclinic'
loop_
_space_group_symop_operation_xyz
x,y,z
-x,y,-z
-x,-y,-z
x,-y,z
1/2+x,1/2+y,z
1/2-x,1/2+y,-z
1/2-x,1/2-y,-z
1/2+x,1/2-y,z
loop_
_atom_site_type_symbol
_atom_site_label
_atom_site_fract_x
_atom_site_fract_y
_atom_site_fract_z
Si Si1 0.944254 0.342417 0.429351
Si Si2 0.332064 0.339098 0.582255
Si Si3 0.656957 0.839934 0.629649
Si Si4 0.248495 0.661073 0.772283
Si Si5 0.377805 0.161824 0.764778
Si Si6 0.542508 0.836141 0.908405
Si Si7 0.986880 0.335828 0.811020
O O1 0.945411 0.500000 0.452149
O O2 0.922114 0.245379 0.504341
O O3 0.864437 0.317833 0.430271
O O4 0.039228 0.303293 0.336028
O O5 0.352746 0.500000 0.558225
O O6 0.253246 0.279982 0.587576
O O7 0.304024 0.307482 0.672464
O O8 0.578018 0.770265 0.722790
O O9 0.660076 0.000000 0.646255
O O10 0.252879 0.500000 0.787274
O O11 0.291957 0.748537 0.800965
O O12 0.145559 0.711087 0.831873
O O13 0.402855 0.207706 0.821002
O O14 0.353921 0.000000 0.776777
O O15 0.481253 0.786423 0.888125
O O16 0.539239 0.000000 0.914698
O O17 0.500000 0.770632 0.000000
O O18 0.994523 0.500000 0.801516
#
# Coordination Sequence:
#
# PCOD8080372 Si02
#       7
#     8   8   8   8   8   8   8
#     4   9  18  30  45  67  93 127 169 206 233 272
#     4  10  18  28  45  68  96 128 160 200 250 288
#     4   8  13  25  44  65  92 123 159 201 243 283
#     4  10  20  33  50  74 102 129 158 202 252 291
#     4   9  19  34  51  69  97 138 171 195 233 289
#     4   9  16  29  53  81 101 120 157 206 247 287
#     4   8  13  27  50  72  94 126 166 200 235 286
#
# _framework density 18.496098
#
# number of rings (size 3 to 8) (size 9 to 14) (size 15 to 20)
#    0.000    3.000    1.429    2.143    0.000    1.714 
#    0.000    3.571    0.000    2.143    0.000    0.000 
#    0.000    0.000    0.000    0.000    0.000    0.000 
#
# Total GULP energy -346946.167567 kJ/mol
# GULP energy per Si atom -12390.934556 kJ/mol
# Density = 1.845400 g / cm^3
# Si number density = 18.496098 Si / 1000 Ang^3
#
#
#
# Elastic Constant Matrix: (Units=GPa)
#
#
# Indices 1 2 3 4 5 6 
#
# 1 104.5334 34.2758 30.5766 0.0000 7.6116 0.0000
# 2 34.2758 33.8835 25.3141 -0.0001 4.9594 0.0000
# 3 30.5766 25.3141 77.5842 -0.0001 17.9637 0.0000
# 4 0.0000 -0.0001 -0.0001 13.3357 0.0000 -0.6603
# 5 7.6116 4.9594 17.9637 0.0000 13.1684 0.0000
# 6 0.0000 0.0000 0.0000 -0.6603 0.0000 25.1473
#
#
#
# Elastic Compliance Matrix: (Units=1/GPa)
#
#
# Indices 1 2 3 4 5 6 
#
# 1 0.014446 -0.013777 -0.000681 0.000000 -0.002232 0.000000
# 2 -0.013777 0.052304 -0.013037 0.000000 0.006049 0.000000
# 3 -0.000681 -0.013037 0.023655 0.000000 -0.026965 0.000000
# 4 0.000000 0.000000 0.000000 0.075084 0.000000 0.001971
# 5 -0.002232 0.006049 -0.026965 0.000000 0.111736 0.000000
# 6 0.000000 0.000000 0.000000 0.001971 0.000000 0.039817
#
#
# Mechanical properties :
#
#
# Convention : Reuss Voigt Hill
#
# Bulk Modulus (GPa) = 28.23718 44.03713 36.13715
# Shear Modulus (GPa) = 13.02637 18.71924 15.87281
#
# Velocity S-wave (km/s) = 2.65670 3.18475 2.93263
# Velocity P-wave (km/s) = 4.97096 6.11425 5.57201
#
# Compressibility (1/GPa) = 0.03541431
#
# Stress axis : x y z
#
# Youngs Moduli (GPa) = 69.22537 19.11903 42.27490
#
# Poissons Ratio (x) = 0.26341 0.02879
# Poissons Ratio (y) = 0.95374 0.55112
# Poissons Ratio (z) = 0.04715 0.24925
#
# Static dielectric constant tensor:
#      x y z
#    x 3.530160 0.000000 0.152380 
#    y 0.000000 2.868910 0.000000 
#    z 0.152380 0.000000 3.354420 
# 
# 
# High freq. dielectric constant tensor:
#      x y z
#    x 1.725850 0.000000 0.010160 
#    y 0.000000 1.661670 0.000000 
#    z 0.010160 0.000000 1.701660 
# 
# From -- ./inp_files/282609.got.cif
#   From: 2010.06.25/outbox.cif.g09.slc.cpg/sg12_142_cif.got.tgz:282609.got - 2010.06.28 00:19:55.
