data_PCOD8080490
_publ_section_title
;
Structure prediction by ZEFSAII (Michael W. Deem and Ramdas Pophale) SiO2 
 PCOD8080490
Probable space group: C 2/M
;
_chemical_formula_sum "Si O2"
_cell_formula_units_Z 64
_cell_length_a 17.832938
_cell_length_b 24.998856
_cell_length_c 19.026741
_cell_angle_alpha 90.000000
_cell_angle_beta 150.975857
_cell_angle_gamma 90.000000
_cell_volume 4115.367734
_symmetry_space_group_name_H-M "C 2/M"
_symmetry_group_IT_number 12
_symmetry_cell_setting 'monoclinic'
loop_
_space_group_symop_operation_xyz
x,y,z
-x,y,-z
-x,-y,-z
x,-y,z
1/2+x,1/2+y,z
1/2-x,1/2+y,-z
1/2-x,1/2-y,-z
1/2+x,1/2-y,z
loop_
_atom_site_type_symbol
_atom_site_label
_atom_site_fract_x
_atom_site_fract_y
_atom_site_fract_z
Si Si1 0.238730 0.757683 0.308097
Si Si2 0.449319 0.559083 0.383787
Si Si3 0.113491 0.559552 0.150873
Si Si4 0.374231 0.191710 0.151539
Si Si5 0.943606 0.848910 0.621436
Si Si6 0.452023 0.759486 0.354788
Si Si7 0.964442 0.195071 0.160343
Si Si8 0.359775 0.148367 0.712082
O O1 0.301889 0.764441 0.281357
O O2 0.382409 0.771905 0.475896
O O3 0.175184 0.697542 0.264529
O O4 0.096355 0.797665 0.208724
O O5 0.500000 0.585821 0.500000
O O6 0.527683 0.500000 0.441383
O O7 0.267848 0.553648 0.233212
O O8 0.494265 0.594495 0.354236
O O9 0.055871 0.500000 0.126594
O O10 0.141372 0.594391 0.243539
O O11 0.000000 0.586197 0.000000
O O12 0.426275 0.195516 0.274874
O O13 0.414872 0.248787 0.152115
O O14 0.473841 0.149148 0.189261
O O15 0.195615 0.172362 0.002552
O O16 0.764484 0.847729 0.452635
O O17 0.044001 0.801426 0.669251
O O18 0.963615 0.844427 0.721839
#
# Coordination Sequence:
#
# PCOD8080490 Si02
#       8
#     8   8   8   8   8   8   8   8
#     4   9  17  29  44  64  85 113 150 181 218 258
#     4  10  19  31  46  65  89 116 150 188 220 253
#     4  10  21  33  44  63  91 120 150 187 225 258
#     4   9  18  30  41  60  87 113 144 181 222 257
#     4  10  18  28  47  63  85 116 151 182 217 260
#     4   9  17  28  45  63  86 115 146 183 216 263
#     4   9  18  30  41  61  86 112 144 184 219 258
#     4  10  18  30  45  63  84 118 151 180 219 262
#
# _framework density 15.551466
#
# number of rings (size 3 to 8) (size 9 to 14) (size 15 to 20)
#    0.000    2.500    1.250    1.500    3.500    3.500 
#    4.500    0.000    0.000    0.000    0.000    0.000 
#    0.000    1.000    0.000    7.500    0.000    2.250 
#
# Total GULP energy -396546.257885 kJ/mol
# GULP energy per Si atom -12392.070559 kJ/mol
# Density = 1.551607 g / cm^3
# Si number density = 15.551466 Si / 1000 Ang^3
#
#
#
# Elastic Constant Matrix: (Units=GPa)
#
#
# Indices 1 2 3 4 5 6 
#
# 1 88.8700 27.6038 30.6606 -0.0001 17.0028 0.0001
# 2 27.6038 48.6315 16.3291 0.0000 0.9367 0.0000
# 3 30.6606 16.3291 72.7085 -0.0005 9.6042 0.0000
# 4 -0.0001 0.0000 -0.0005 17.7410 -0.0003 -2.2070
# 5 17.0028 0.9367 9.6042 -0.0003 25.8135 0.0000
# 6 0.0001 0.0000 0.0000 -2.2070 0.0000 18.1007
#
#
#
# Elastic Compliance Matrix: (Units=1/GPa)
#
#
# Indices 1 2 3 4 5 6 
#
# 1 0.016966 -0.008071 -0.004106 0.000000 -0.009354 0.000000
# 2 -0.008071 0.026109 -0.003194 0.000000 0.005557 0.000000
# 3 -0.004106 -0.003194 0.016648 0.000000 -0.003374 0.000000
# 4 0.000000 0.000000 0.000000 0.057235 0.000001 0.006979
# 5 -0.009354 0.005557 -0.003374 0.000001 0.045954 0.000000
# 6 0.000000 0.000000 0.000000 0.006979 0.000000 0.056097
#
#
# Mechanical properties :
#
#
# Convention : Reuss Voigt Hill
#
# Bulk Modulus (GPa) = 34.50603 39.93299 37.21951
# Shear Modulus (GPa) = 19.27434 21.37217 20.32325
#
# Velocity S-wave (km/s) = 3.52432 3.71116 3.61894
# Velocity P-wave (km/s) = 6.22877 6.64058 6.43797
#
# Compressibility (1/GPa) = 0.02898044
#
# Stress axis : x y z
#
# Youngs Moduli (GPa) = 58.94286 38.30025 60.06716
#
# Poissons Ratio (x) = 0.30912 0.24664
# Poissons Ratio (y) = 0.47573 0.19187
# Poissons Ratio (z) = 0.24202 0.12234
#
# Static dielectric constant tensor:
#      x y z
#    x 2.926160 0.000000 0.115670 
#    y 0.000000 2.733090 0.000000 
#    z 0.115670 0.000000 3.172830 
# 
# 
# High freq. dielectric constant tensor:
#      x y z
#    x 1.582290 0.000000 0.010930 
#    y 0.000000 1.550160 0.000000 
#    z 0.010930 0.000000 1.610350 
# 
# From -- ./inp_files/78767.got.cif
#   From: 2010.06.25/outbox.cif.g09.slc.cpg/sg12_40_cif.got.tgz:78767.got - 2010.06.28 00:19:55.
