data_PCOD8080729
_publ_section_title
;
Structure prediction by ZEFSAII (Michael W. Deem and Ramdas Pophale) SiO2 
 PCOD8080729
Probable space group: C 2/M
;
_chemical_formula_sum "Si O2"
_cell_formula_units_Z 64
_cell_length_a 20.616599
_cell_length_b 9.100363
_cell_length_c 24.982369
_cell_angle_alpha 90.000000
_cell_angle_beta 129.383832
_cell_angle_gamma 90.000000
_cell_volume 3622.761771
_symmetry_space_group_name_H-M "C 2/M"
_symmetry_group_IT_number 12
_symmetry_cell_setting 'monoclinic'
loop_
_space_group_symop_operation_xyz
x,y,z
-x,y,-z
-x,-y,-z
x,-y,z
1/2+x,1/2+y,z
1/2-x,1/2+y,-z
1/2-x,1/2-y,-z
1/2+x,1/2-y,z
loop_
_atom_site_type_symbol
_atom_site_label
_atom_site_fract_x
_atom_site_fract_y
_atom_site_fract_z
Si Si1 0.075539 0.826183 0.927841
Si Si2 0.321141 0.827751 0.701763
Si Si3 0.378447 0.665516 0.569639
Si Si4 0.818996 0.826040 0.916583
Si Si5 0.780162 0.333764 0.435768
Si Si6 0.474139 0.169989 0.704778
Si Si7 0.117225 0.174234 0.164031
Si Si8 0.635855 0.172929 0.854141
O O1 0.121470 0.754047 0.902056
O O2 0.979012 0.777805 0.879356
O O3 0.084656 0.000000 0.927406
O O4 0.120649 0.766530 0.004970
O O5 0.242859 0.756207 0.629580
O O6 0.407369 0.793227 0.716023
O O7 0.326049 0.754141 0.762279
O O8 0.304605 0.000000 0.698771
O O9 0.402561 0.500000 0.566193
O O10 0.297746 0.668117 0.565040
O O11 0.359551 0.756755 0.505842
O O12 0.456250 0.737518 0.641892
O O13 0.851469 0.766224 0.876842
O O14 0.724093 0.772728 0.876568
O O15 0.823717 0.000000 0.918218
O O16 0.804651 0.500000 0.433156
O O17 0.565136 0.215988 0.773985
O O18 0.469043 0.000000 0.686096
O O19 0.128355 0.000000 0.175898
O O20 0.634390 0.000000 0.864974
#
# Coordination Sequence:
#
# PCOD8080729 Si02
#       8
#     8   8   8   8   8   8   8   8
#     4  10  19  32  52  74  96 124 162 207 252 296
#     4  10  18  29  45  67  96 127 162 201 242 287
#     4   9  16  25  40  64  94 126 158 195 238 282
#     4   9  19  34  51  71  96 128 165 205 247 296
#     4   9  16  26  41  64  95 128 160 194 237 286
#     4   9  17  28  43  64  92 126 160 196 238 287
#     4  10  19  32  50  71  96 128 166 204 246 295
#     4  10  19  33  51  71  97 129 165 203 247 294
#
# _framework density 17.666080999999998
#
# number of rings (size 3 to 8) (size 9 to 14) (size 15 to 20)
#    0.000    2.500    1.250    1.875    0.000    5.500 
#    0.000    1.250    0.000    1.500    0.000    0.875 
#    0.000    7.000    0.000    0.000    0.000    0.000 
#
# Total GULP energy -396833.540731 kJ/mol
# GULP energy per Si atom -12401.048148 kJ/mol
# Density = 1.762587 g / cm^3
# Si number density = 17.666081 Si / 1000 Ang^3
#
#
#
# Elastic Constant Matrix: (Units=GPa)
#
#
# Indices 1 2 3 4 5 6 
#
# 1 60.3235 22.1838 40.4552 0.0000 -7.9610 0.0000
# 2 22.1838 69.9439 56.5697 0.0000 -5.8469 0.0000
# 3 40.4552 56.5697 163.3959 0.0000 -11.9810 0.0000
# 4 0.0000 0.0000 0.0000 30.5743 0.0000 -5.1252
# 5 -7.9610 -5.8469 -11.9810 0.0000 8.4568 0.0000
# 6 0.0000 0.0000 0.0000 -5.1252 0.0000 15.4116
#
#
#
# Elastic Compliance Matrix: (Units=1/GPa)
#
#
# Indices 1 2 3 4 5 6 
#
# 1 0.021730 -0.003069 -0.003318 0.000000 0.013634 0.000000
# 2 -0.003069 0.020442 -0.006130 0.000000 0.002560 0.000000
# 3 -0.003318 -0.006130 0.009512 0.000000 0.006115 0.000000
# 4 0.000000 0.000000 0.000000 0.034638 0.000000 0.011519
# 5 0.013634 0.002560 0.006115 0.000000 0.141516 0.000000
# 6 0.000000 0.000000 0.000000 0.011519 0.000000 0.068717
#
#
# Mechanical properties :
#
#
# Convention : Reuss Voigt Hill
#
# Bulk Modulus (GPa) = 37.52146 59.12006 48.32076
# Shear Modulus (GPa) = 15.12984 22.51884 18.82434
#
# Velocity S-wave (km/s) = 2.92966 3.57416 3.26784
# Velocity P-wave (km/s) = 5.72095 7.11131 6.45368
#
# Compressibility (1/GPa) = 0.02665142
#
# Stress axis : x y z
#
# Youngs Moduli (GPa) = 46.01857 48.91831 105.12812
#
# Poissons Ratio (x) = 0.15012 0.34882
# Poissons Ratio (y) = 0.14122 0.64442
# Poissons Ratio (z) = 0.15269 0.29986
#
# Static dielectric constant tensor:
#      x y z
#    x 2.967130 0.000000 0.008200 
#    y 0.000000 3.181020 0.000000 
#    z 0.008200 0.000000 3.498400 
# 
# 
# High freq. dielectric constant tensor:
#      x y z
#    x 1.635590 0.000000 -0.001120 
#    y 0.000000 1.673870 0.000000 
#    z -0.001120 0.000000 1.702750 
# 
# From -- ./inp_files/319085.got.cif
#   From: 2010.06.25/outbox.cif.g09.slc.cpg/sg12_160_cif.got.tgz:319085.got - 2010.06.28 00:19:55.
