data_PCOD8080171
_publ_section_title
;
Structure prediction by ZEFSAII (Michael W. Deem and Ramdas Pophale) SiO2 
 PCOD8080171
Probable space group: C 2/M
;
_chemical_formula_sum "Si O2"
_cell_formula_units_Z 64
_cell_length_a 31.844741
_cell_length_b 8.870016
_cell_length_c 30.314327
_cell_angle_alpha 90.000000
_cell_angle_beta 150.062831
_cell_angle_gamma 90.000000
_cell_volume 4273.208891
_symmetry_space_group_name_H-M "C 2/M"
_symmetry_group_IT_number 12
_symmetry_cell_setting 'monoclinic'
loop_
_space_group_symop_operation_xyz
x,y,z
-x,y,-z
-x,-y,-z
x,-y,z
1/2+x,1/2+y,z
1/2-x,1/2+y,-z
1/2-x,1/2-y,-z
1/2+x,1/2-y,z
loop_
_atom_site_type_symbol
_atom_site_label
_atom_site_fract_x
_atom_site_fract_y
_atom_site_fract_z
Si Si1 0.391750 0.823414 0.485548
Si Si2 0.085470 0.676915 0.670964
Si Si3 0.552891 0.675657 0.807091
Si Si4 0.900482 0.169576 0.404884
Si Si5 0.795228 0.176254 0.000080
Si Si6 0.335434 0.678769 0.172286
Si Si7 0.209490 0.826062 0.529661
Si Si8 0.366143 0.675393 0.634114
O O1 0.487326 0.779022 0.584642
O O2 0.361044 0.742551 0.412848
O O3 0.331453 0.772761 0.469629
O O4 0.383759 0.000000 0.470440
O O5 0.100011 0.500000 0.689239
O O6 0.125125 0.731673 0.660833
O O7 0.134228 0.763913 0.753286
O O8 0.541908 0.500000 0.787759
O O9 0.604978 0.704394 0.900047
O O10 0.601593 0.741355 0.808523
O O11 0.459513 0.743883 0.726844
O O12 0.000000 0.170358 0.500000
O O13 0.865812 0.000000 0.367771
O O14 0.775065 0.000000 0.979794
O O15 0.750000 0.250000 0.000000
O O16 0.758787 0.255654 0.922940
O O17 0.330122 0.500000 0.167550
O O18 0.304699 0.770834 0.609274
O O19 0.155723 0.799343 0.436797
O O20 0.209750 0.000000 0.544064
O O21 0.358397 0.500000 0.640083
#
# Coordination Sequence:
#
# PCOD8080171 Si02
#       8
#     8   8   8   8   8   8   8   8
#     4  10  19  30  44  61  83 112 143 174 209 248
#     4  10  19  29  42  62  86 111 141 175 208 245
#     4   8  15  27  43  59  78 109 144 175 209 249
#     4   9  17  29  44  61  82 109 139 171 207 247
#     4   9  16  27  41  59  82 108 140 175 211 250
#     4  10  18  28  42  61  85 113 143 173 209 251
#     4  10  19  29  42  61  84 110 141 177 213 248
#     4   9  17  30  44  58  80 110 143 178 213 247
#
# _framework density 14.977036
#
# number of rings (size 3 to 8) (size 9 to 14) (size 15 to 20)
#    0.000    2.625    0.000    3.750    0.000    4.500 
#    0.000    3.750    0.000    0.000    0.000    0.000 
#    0.000    1.000    0.000   10.750    0.000    4.750 
#
# Total GULP energy -396685.663066 kJ/mol
# GULP energy per Si atom -12396.426971 kJ/mol
# Density = 1.494295 g / cm^3
# Si number density = 14.977036 Si / 1000 Ang^3
#
#
#
# Elastic Constant Matrix: (Units=GPa)
#
#
# Indices 1 2 3 4 5 6 
#
# 1 66.0584 24.0240 37.1313 0.0000 -6.5469 0.0000
# 2 24.0240 62.2153 35.5165 0.0001 -5.0992 0.0001
# 3 37.1313 35.5165 100.9338 0.0000 -3.1882 0.0000
# 4 0.0000 0.0001 0.0000 22.0609 0.0000 -4.5949
# 5 -6.5469 -5.0992 -3.1882 0.0000 18.2955 0.0000
# 6 0.0000 0.0001 0.0000 -4.5949 0.0000 25.4166
#
#
#
# Elastic Compliance Matrix: (Units=1/GPa)
#
#
# Indices 1 2 3 4 5 6 
#
# 1 0.020470 -0.004100 -0.005925 0.000000 0.005150 0.000000
# 2 -0.004100 0.021293 -0.005875 0.000000 0.003444 0.000000
# 3 -0.005925 -0.005875 0.014114 0.000000 -0.001298 0.000000
# 4 0.000000 0.000000 0.000000 0.047103 0.000000 0.008515
# 5 0.005150 0.003444 -0.001298 0.000000 0.057235 0.000000
# 6 0.000000 0.000000 0.000000 0.008515 0.000000 0.040884
#
#
# Mechanical properties :
#
#
# Convention : Reuss Voigt Hill
#
# Bulk Modulus (GPa) = 41.53595 46.95011 44.24303
# Shear Modulus (GPa) = 20.75347 21.99030 21.37188
#
# Velocity S-wave (km/s) = 3.72652 3.83596 3.78163
# Velocity P-wave (km/s) = 6.80509 7.14392 6.97656
#
# Compressibility (1/GPa) = 0.02407553
#
# Stress axis : x y z
#
# Youngs Moduli (GPa) = 48.85184 46.96462 70.85344
#
# Poissons Ratio (x) = 0.19255 0.41982
# Poissons Ratio (y) = 0.20028 0.41629
# Poissons Ratio (z) = 0.28946 0.27594
#
# Static dielectric constant tensor:
#      x y z
#    x 2.746480 0.000000 -0.056350 
#    y 0.000000 2.985240 0.000000 
#    z -0.056350 0.000000 3.096530 
# 
# 
# High freq. dielectric constant tensor:
#      x y z
#    x 1.544730 0.000000 -0.012490 
#    y 0.000000 1.582190 0.000000 
#    z -0.012490 0.000000 1.557850 
# 
# From -- ./inp_files/384589.got.cif
#   From: 2010.06.25/outbox.cif.g09.slc.cpg/sg12_193_cif.got.tgz:384589.got - 2010.06.28 00:19:55.
