data_PCOD8080214
_publ_section_title
;
Structure prediction by ZEFSAII (Michael W. Deem and Ramdas Pophale) SiO2 
 PCOD8080214
Probable space group: C 2/M
;
_chemical_formula_sum "Si O2"
_cell_formula_units_Z 64
_cell_length_a 28.839126
_cell_length_b 9.317386
_cell_length_c 13.965575
_cell_angle_alpha 90.000000
_cell_angle_beta 92.775625
_cell_angle_gamma 90.000000
_cell_volume 3748.221115
_symmetry_space_group_name_H-M "C 2/M"
_symmetry_group_IT_number 12
_symmetry_cell_setting 'monoclinic'
loop_
_space_group_symop_operation_xyz
x,y,z
-x,y,-z
-x,-y,-z
x,-y,z
1/2+x,1/2+y,z
1/2-x,1/2+y,-z
1/2-x,1/2-y,-z
1/2+x,1/2-y,z
loop_
_atom_site_type_symbol
_atom_site_label
_atom_site_fract_x
_atom_site_fract_y
_atom_site_fract_z
Si Si1 0.238129 0.841294 0.811116
Si Si2 0.362074 0.663855 0.903661
Si Si3 0.192349 0.337976 0.956174
Si Si4 0.687195 0.338002 0.285590
Si Si5 0.399030 0.161749 0.181550
Si Si6 0.549936 0.331914 0.968575
Si Si7 0.351707 0.340624 0.324011
Si Si8 0.798311 0.832959 0.502228
O O1 0.233875 0.752845 0.910401
O O2 0.271559 0.766434 0.739018
O O3 0.188366 0.852607 0.758011
O O4 0.257057 0.000000 0.837308
O O5 0.351689 0.500000 0.933807
O O6 0.357674 0.683813 0.788036
O O7 0.413410 0.706856 0.943591
O O8 0.322505 0.765137 0.945313
O O9 0.209594 0.500000 0.976039
O O10 0.148213 0.337561 0.882534
O O11 0.706275 0.500000 0.276339
O O12 0.674190 0.308885 0.394905
O O13 0.391302 0.237060 0.284268
O O14 0.416474 0.000000 0.201230
O O15 0.438307 0.247613 0.127241
O O16 0.550269 0.500000 0.944259
O O17 0.500000 0.280158 0.000000
O O18 0.372628 0.500000 0.344089
O O19 0.331707 0.274723 0.421228
O O20 0.750000 0.750000 0.500000
O O21 0.787142 0.000000 0.481730
#
# Coordination Sequence:
#
# PCOD8080214 Si02
#       8
#     8   8   8   8   8   8   8   8
#     4  10  18  28  43  62  85 118 157 193 226 262
#     4   9  18  32  46  64  90 118 147 181 223 272
#     4   9  17  29  44  62  86 118 154 188 223 264
#     4  10  20  31  44  62  88 119 152 191 230 266
#     4   9  17  28  45  70  95 118 146 184 227 268
#     4   9  17  31  52  74  95 119 145 176 220 277
#     4   9  17  29  44  63  89 120 154 192 229 263
#     4  10  19  31  46  65  88 119 159 199 235 265
#
# _framework density 17.074764999999999
#
# number of rings (size 3 to 8) (size 9 to 14) (size 15 to 20)
#    0.000    2.625    1.250    1.125    0.000    5.250 
#    0.000    0.000    0.000    0.000    0.000    0.875 
#    0.000    7.000    0.000    0.000    0.000    0.000 
#
# Total GULP energy -396715.622519 kJ/mol
# GULP energy per Si atom -12397.363204 kJ/mol
# Density = 1.703590 g / cm^3
# Si number density = 17.074765 Si / 1000 Ang^3
#
#
#
# Elastic Constant Matrix: (Units=GPa)
#
#
# Indices 1 2 3 4 5 6 
#
# 1 65.3644 38.7539 40.1363 0.0000 -19.9788 0.0000
# 2 38.7539 94.7544 50.2230 0.0000 -18.1115 0.0000
# 3 40.1363 50.2230 129.8568 0.0000 -22.5436 0.0000
# 4 0.0000 0.0000 0.0000 18.6583 0.0000 -7.9927
# 5 -19.9788 -18.1115 -22.5436 0.0000 24.2532 0.0000
# 6 0.0000 0.0000 0.0000 -7.9927 0.0000 16.4118
#
#
#
# Elastic Compliance Matrix: (Units=1/GPa)
#
#
# Indices 1 2 3 4 5 6 
#
# 1 0.024717 -0.005996 -0.003056 0.000000 0.013042 0.000000
# 2 -0.005996 0.015541 -0.003577 0.000000 0.003341 0.000000
# 3 -0.003056 -0.003577 0.010884 0.000000 0.004928 0.000000
# 4 0.000000 0.000000 0.000000 0.067724 0.000000 0.032982
# 5 0.013042 0.003341 0.004928 0.000000 0.059051 0.000000
# 6 0.000000 0.000000 0.000000 0.032982 0.000000 0.076994
#
#
# Mechanical properties :
#
#
# Convention : Reuss Voigt Hill
#
# Bulk Modulus (GPa) = 38.63585 60.91134 49.77359
# Shear Modulus (GPa) = 17.31311 22.58884 19.95098
#
# Velocity S-wave (km/s) = 3.18773 3.64117 3.42197
# Velocity P-wave (km/s) = 6.01875 7.30946 6.69528
#
# Compressibility (1/GPa) = 0.02588270
#
# Stress axis : x y z
#
# Youngs Moduli (GPa) = 40.45797 64.34772 91.87385
#
# Poissons Ratio (x) = 0.38585 0.28079
# Poissons Ratio (y) = 0.24260 0.32865
# Poissons Ratio (z) = 0.12365 0.23018
#
# Static dielectric constant tensor:
#      x y z
#    x 2.827370 0.000000 -0.066140 
#    y 0.000000 3.412560 0.000000 
#    z -0.066140 0.000000 3.342250 
# 
# 
# High freq. dielectric constant tensor:
#      x y z
#    x 1.608010 0.000000 -0.008480 
#    y 0.000000 1.666270 0.000000 
#    z -0.008480 0.000000 1.659150 
# 
# From -- ./inp_files/248323.got.cif
#   From: 2010.06.25/outbox.cif.g09.slc.cpg/sg12_125_cif.got.tgz:248323.got - 2010.06.28 00:19:55.
