data_PCOD8080707
_publ_section_title
;
Structure prediction by ZEFSAII (Michael W. Deem and Ramdas Pophale) SiO2 
 PCOD8080707
Probable space group: C 2/M
;
_chemical_formula_sum "Si O2"
_cell_formula_units_Z 64
_cell_length_a 35.253402
_cell_length_b 9.289612
_cell_length_c 11.792943
_cell_angle_alpha 90.000000
_cell_angle_beta 71.965515
_cell_angle_gamma 90.000000
_cell_volume 3672.333506
_symmetry_space_group_name_H-M "C 2/M"
_symmetry_group_IT_number 12
_symmetry_cell_setting 'monoclinic'
loop_
_space_group_symop_operation_xyz
x,y,z
-x,y,-z
-x,-y,-z
x,-y,z
1/2+x,1/2+y,z
1/2-x,1/2+y,-z
1/2-x,1/2-y,-z
1/2+x,1/2-y,z
loop_
_atom_site_type_symbol
_atom_site_label
_atom_site_fract_x
_atom_site_fract_y
_atom_site_fract_z
Si Si1 0.139446 0.329588 0.185159
Si Si2 0.820653 0.330118 0.623959
Si Si3 0.085937 0.668686 0.837429
Si Si4 0.285745 0.836520 0.018739
Si Si5 0.835603 0.669886 0.359644
Si Si6 0.934292 0.331406 0.886074
Si Si7 0.489830 0.662290 0.140840
Si Si8 0.738335 0.164503 0.708153
O O1 0.138087 0.500000 0.179556
O O2 0.149544 0.277423 0.303716
O O3 0.096673 0.273577 0.180553
O O4 0.173249 0.271179 0.068237
O O5 0.813673 0.500000 0.637568
O O6 0.840672 0.285152 0.486329
O O7 0.777633 0.259386 0.677729
O O8 0.080423 0.500000 0.817256
O O9 0.127486 0.729795 0.748197
O O10 0.051213 0.752311 0.802466
O O11 0.084571 0.699944 0.972795
O O12 0.286374 0.825497 0.152880
O O13 0.280752 0.000000 0.981827
O O14 0.250000 0.750000 0.000000
O O15 0.834722 0.500000 0.344124
O O16 0.792567 0.727938 0.356455
O O17 0.943961 0.500000 0.864734
O O18 0.974795 0.244065 0.826226
O O19 0.485750 0.500000 0.191809
O O20 0.500000 0.661434 0.000000
O O21 0.750931 0.000000 0.670490
#
# Coordination Sequence:
#
# PCOD8080707 Si02
#       8
#     8   8   8   8   8   8   8   8
#     4   9  17  29  46  67  91 120 155 192 229 268
#     4  10  19  32  48  65  91 125 159 196 235 271
#     4   9  16  29  49  70  91 118 153 187 223 272
#     4  10  18  29  45  65  91 121 152 189 232 274
#     4   9  18  31  48  69  91 120 159 199 232 266
#     4   9  16  28  48  71  92 118 152 186 222 273
#     4   9  17  29  46  71 101 122 138 175 232 283
#     4  10  19  31  47  67  92 122 158 197 235 275
#
# _framework density 17.427610999999999
#
# number of rings (size 3 to 8) (size 9 to 14) (size 15 to 20)
#    0.000    2.625    1.250    1.500    0.000    4.500 
#    0.000    2.500    0.000    3.750    0.000    5.250 
#    0.000    0.000    0.000    0.000    0.000    0.000 
#
# Total GULP energy -396692.519483 kJ/mol
# GULP energy per Si atom -12396.641234 kJ/mol
# Density = 1.738795 g / cm^3
# Si number density = 17.427611 Si / 1000 Ang^3
#
#
#
# Elastic Constant Matrix: (Units=GPa)
#
#
# Indices 1 2 3 4 5 6 
#
# 1 155.2981 40.9949 44.8047 0.0000 20.2722 0.0000
# 2 40.9949 46.6236 20.2029 0.0000 6.2761 0.0000
# 3 44.8047 20.2029 68.5243 0.0000 14.8941 0.0000
# 4 0.0000 0.0000 0.0000 12.8521 0.0000 -1.5443
# 5 20.2722 6.2761 14.8941 0.0000 20.3725 0.0000
# 6 0.0000 0.0000 0.0000 -1.5443 0.0000 24.0698
#
#
#
# Elastic Compliance Matrix: (Units=1/GPa)
#
#
# Indices 1 2 3 4 5 6 
#
# 1 0.009804 -0.006452 -0.003352 0.000000 -0.005317 0.000000
# 2 -0.006452 0.028962 -0.004490 0.000000 0.000780 0.000000
# 3 -0.003352 -0.004490 0.020311 0.000000 -0.010130 0.000000
# 4 0.000000 0.000000 0.000000 0.078413 0.000000 0.005031
# 5 -0.005317 0.000780 -0.010130 0.000000 0.061542 0.000000
# 6 0.000000 0.000000 0.000000 0.005031 0.000000 0.041869
#
#
# Mechanical properties :
#
#
# Convention : Reuss Voigt Hill
#
# Bulk Modulus (GPa) = 32.79933 53.60565 43.20249
# Shear Modulus (GPa) = 17.87947 22.42177 20.15062
#
# Velocity S-wave (km/s) = 3.20649 3.59076 3.40405
# Velocity P-wave (km/s) = 5.70701 6.92945 6.34772
#
# Compressibility (1/GPa) = 0.03048842
#
# Stress axis : x y z
#
# Youngs Moduli (GPa) = 102.00416 34.52839 49.23487
#
# Poissons Ratio (x) = 0.22277 0.16505
# Poissons Ratio (y) = 0.65810 0.22106
# Poissons Ratio (z) = 0.34194 0.15503
#
# Static dielectric constant tensor:
#      x y z
#    x 3.429270 0.000000 0.098730 
#    y 0.000000 3.060810 0.000000 
#    z 0.098730 0.000000 3.342200 
# 
# 
# High freq. dielectric constant tensor:
#      x y z
#    x 1.679690 0.000000 0.005550 
#    y 0.000000 1.643510 0.000000 
#    z 0.005550 0.000000 1.654120 
# 
# From -- ./inp_files/182025.got.cif
#   From: 2010.06.25/outbox.cif.g09.slc.cpg/sg12_92_cif.got.tgz:182025.got - 2010.06.28 00:19:55.
