data_PCOD8080481
_publ_section_title
;
Structure prediction by ZEFSAII (Michael W. Deem and Ramdas Pophale) SiO2 
 PCOD8080481
Probable space group: C 2/M
;
_chemical_formula_sum "Si O2"
_cell_formula_units_Z 48
_cell_length_a 29.637373
_cell_length_b 14.116358
_cell_length_c 11.767431
_cell_angle_alpha 90.000000
_cell_angle_beta 34.670399
_cell_angle_gamma 90.000000
_cell_volume 2800.563216
_symmetry_space_group_name_H-M "C 2/M"
_symmetry_group_IT_number 12
_symmetry_cell_setting 'monoclinic'
loop_
_space_group_symop_operation_xyz
x,y,z
-x,y,-z
-x,-y,-z
x,-y,z
1/2+x,1/2+y,z
1/2-x,1/2+y,-z
1/2-x,1/2-y,-z
1/2+x,1/2-y,z
loop_
_atom_site_type_symbol
_atom_site_label
_atom_site_fract_x
_atom_site_fract_y
_atom_site_fract_z
Si Si1 0.584313 0.110578 0.271684
Si Si2 0.394692 0.210051 0.009269
Si Si3 0.047739 0.608798 0.747870
Si Si4 0.315932 0.893993 0.357542
Si Si5 0.193732 0.110473 0.807514
Si Si6 0.329827 0.889526 0.684591
O O1 0.500000 0.140945 0.500000
O O2 0.655588 0.132784 0.213271
O O3 0.581922 0.000000 0.244785
O O4 0.604591 0.170272 0.119257
O O5 0.319193 0.170745 0.237917
O O6 0.385080 0.324411 0.027368
O O7 0.473313 0.178748 0.913101
O O8 0.018733 0.500000 0.787695
O O9 0.100157 0.614323 0.751736
O O10 0.096721 0.651010 0.539810
O O11 0.243660 0.867300 0.590190
O O12 0.303491 0.000000 0.339407
O O13 0.245072 0.144816 0.811647
O O14 0.168963 0.000000 0.865634
O O15 0.331910 0.000000 0.652191
#
# Coordination Sequence:
#
# PCOD8080481 Si02
#       6
#     8   8   8   8   8   8
#     4  10  18  28  46  75 104 117 137 189 249 289
#     4  12  19  26  48  76  96 118 157 192 228 278
#     4   9  16  28  48  74  99 119 143 187 242 288
#     4   9  18  32  49  71  99 122 146 188 242 287
#     4   9  20  35  47  62  93 134 163 187 218 266
#     4   8  15  31  48  64  95 128 148 179 235 285
#
# _framework density 17.139408
#
# number of rings (size 3 to 8) (size 9 to 14) (size 15 to 20)
#    0.000    2.500    1.667    4.500    0.000    2.000 
#    0.000    0.000    0.000    2.500    0.000   10.500 
#    0.000    0.000    0.000    0.000    0.000    0.000 
#
# Total GULP energy -297389.062574 kJ/mol
# GULP energy per Si atom -12391.210941 kJ/mol
# Density = 1.710040 g / cm^3
# Si number density = 17.139408 Si / 1000 Ang^3
#
#
#
# Elastic Constant Matrix: (Units=GPa)
#
#
# Indices 1 2 3 4 5 6 
#
# 1 43.1871 29.8525 32.7561 0.0000 14.6589 0.0000
# 2 29.8525 89.6848 51.2252 0.0000 -1.6835 0.0000
# 3 32.7561 51.2252 56.7549 0.0000 5.3504 0.0000
# 4 0.0000 0.0000 0.0000 25.8214 0.0000 -5.8162
# 5 14.6589 -1.6835 5.3504 0.0000 29.4953 0.0000
# 6 0.0000 0.0000 0.0000 -5.8162 0.0000 13.0073
#
#
#
# Elastic Compliance Matrix: (Units=1/GPa)
#
#
# Indices 1 2 3 4 5 6 
#
# 1 0.051374 -0.003533 -0.024454 0.000000 -0.021298 0.000000
# 2 -0.003533 0.024060 -0.020319 0.000000 0.006815 0.000000
# 3 -0.024454 -0.020319 0.049889 0.000000 0.001944 0.000000
# 4 0.000000 0.000000 0.000000 0.043065 0.000000 0.019257
# 5 -0.021298 0.006815 0.001944 0.000000 0.044525 0.000000
# 6 0.000000 0.000000 0.000000 0.019257 0.000000 0.085491
#
#
# Mechanical properties :
#
#
# Convention : Reuss Voigt Hill
#
# Bulk Modulus (GPa) = 34.82962 46.36606 40.59784
# Shear Modulus (GPa) = 12.35836 18.71767 15.53802
#
# Velocity S-wave (km/s) = 2.68815 3.30825 3.01419
# Velocity P-wave (km/s) = 5.47726 6.45785 5.98766
#
# Compressibility (1/GPa) = 0.02871120
#
# Stress axis : x y z
#
# Youngs Moduli (GPa) = 19.46524 41.56357 20.04444
#
# Poissons Ratio (x) = 0.14683 0.49016
# Poissons Ratio (y) = 0.06877 0.40728
# Poissons Ratio (z) = 0.47600 0.84453
#
# Static dielectric constant tensor:
#      x y z
#    x 3.237340 0.000000 0.109520 
#    y 0.000000 2.894490 0.000000 
#    z 0.109520 0.000000 3.067640 
# 
# 
# High freq. dielectric constant tensor:
#      x y z
#    x 1.660880 0.000000 0.018110 
#    y 0.000000 1.625650 0.000000 
#    z 0.018110 0.000000 1.646670 
# 
# From -- ./inp_files/142741.got.cif
#   From: 2010.06.25/outbox.cif.g09.slc.cpg/sg12_72_cif.got.tgz:142741.got - 2010.06.28 00:19:55.
