data_PCOD8080035
_publ_section_title
;
Structure prediction by ZEFSAII (Michael W. Deem and Ramdas Pophale) SiO2 
 PCOD8080035
Probable space group: C 2/M
;
_chemical_formula_sum "Si O2"
_cell_formula_units_Z 48
_cell_length_a 19.450354
_cell_length_b 9.183057
_cell_length_c 20.356102
_cell_angle_alpha 90.000000
_cell_angle_beta 50.006679
_cell_angle_gamma 90.000000
_cell_volume 2785.517236
_symmetry_space_group_name_H-M "C 2/M"
_symmetry_group_IT_number 12
_symmetry_cell_setting 'monoclinic'
loop_
_space_group_symop_operation_xyz
x,y,z
-x,y,-z
-x,-y,-z
x,-y,z
1/2+x,1/2+y,z
1/2-x,1/2+y,-z
1/2-x,1/2-y,-z
1/2+x,1/2-y,z
loop_
_atom_site_type_symbol
_atom_site_label
_atom_site_fract_x
_atom_site_fract_y
_atom_site_fract_z
Si Si1 0.435303 0.328411 0.239387
Si Si2 0.270199 0.827035 0.779087
Si Si3 0.426775 0.672618 0.094321
Si Si4 0.044678 0.672923 0.279873
Si Si5 0.736388 0.827379 0.363047
Si Si6 0.054090 0.673110 0.529725
O O1 0.448605 0.500000 0.240432
O O2 0.448577 0.281622 0.155540
O O3 0.509556 0.244783 0.235222
O O4 0.335780 0.277945 0.324807
O O5 0.173119 0.772059 0.865045
O O6 0.351876 0.775430 0.775144
O O7 0.285188 0.765454 0.696326
O O8 0.270187 0.000000 0.775355
O O9 0.429500 0.500000 0.087169
O O10 0.500000 0.742915 0.000000
O O11 0.036722 0.500000 0.278691
O O12 0.987634 0.732724 0.377033
O O13 0.658161 0.773842 0.460634
O O14 0.735658 0.000000 0.358930
O O15 0.047068 0.500000 0.533848
O O16 0.000000 0.734542 0.500000
#
# Coordination Sequence:
#
# PCOD8080035 Si02
#       6
#     8   8   8   8   8   8
#     4   9  18  30  44  63  90 116 137 172 220 259
#     4   8  13  23  41  64  85 107 141 182 214 239
#     4   8  14  27  48  68  82 105 146 184 208 244
#     4  10  18  27  43  67  91 113 139 177 217 250
#     4   8  13  24  41  61  83 111 148 182 207 237
#     4   9  14  22  40  65  86 107 146 188 209 232
#
# _framework density 17.231987
#
# number of rings (size 3 to 8) (size 9 to 14) (size 15 to 20)
#    0.000    3.333    1.667    2.000    0.000    0.667 
#    0.000    0.833    0.000    5.000    0.000    0.000 
#    0.000    0.000    0.000    0.000    0.000    0.000 
#
# Total GULP energy -297346.563085 kJ/mol
# GULP energy per Si atom -12389.440129 kJ/mol
# Density = 1.719277 g / cm^3
# Si number density = 17.231987 Si / 1000 Ang^3
#
#
#
# Elastic Constant Matrix: (Units=GPa)
#
#
# Indices 1 2 3 4 5 6 
#
# 1 161.1195 24.4112 78.4843 0.0000 -10.8386 0.0000
# 2 24.4112 12.5340 13.9677 0.0001 0.8227 0.0000
# 3 78.4843 13.9677 128.7639 0.0000 -20.7156 0.0000
# 4 0.0000 0.0001 0.0000 7.9374 0.0000 5.2330
# 5 -10.8386 0.8227 -20.7156 0.0000 26.1212 0.0000
# 6 0.0000 0.0000 0.0000 5.2330 0.0000 22.6319
#
#
#
# Elastic Compliance Matrix: (Units=1/GPa)
#
#
# Indices 1 2 3 4 5 6 
#
# 1 0.011108 -0.016398 -0.004776 0.000000 0.001338 0.000000
# 2 -0.016398 0.118501 -0.005221 -0.000001 -0.014677 0.000000
# 3 -0.004776 -0.005221 0.012553 0.000000 0.008138 0.000000
# 4 0.000000 -0.000001 0.000000 0.148647 0.000000 -0.034371
# 5 0.001338 -0.014677 0.008138 0.000000 0.045754 0.000000
# 6 0.000000 0.000000 0.000000 -0.034371 0.000000 0.052133
#
#
# Mechanical properties :
#
#
# Convention : Reuss Voigt Hill
#
# Bulk Modulus (GPa) = 11.18929 59.57153 35.38041
# Shear Modulus (GPa) = 10.60949 23.70838 17.15894
#
# Velocity S-wave (km/s) = 2.48399 3.71325 3.15899
# Velocity P-wave (km/s) = 3.83854 7.28215 5.82083
#
# Compressibility (1/GPa) = 0.08937115
#
# Stress axis : x y z
#
# Youngs Moduli (GPa) = 90.02738 8.43875 79.66243
#
# Poissons Ratio (x) = 0.13838 0.38050
# Poissons Ratio (y) = 1.47630 0.41588
# Poissons Ratio (z) = 0.43001 0.04405
#
# Static dielectric constant tensor:
#      x y z
#    x 3.423340 0.000000 -0.351440 
#    y 0.000000 2.495230 0.000000 
#    z -0.351440 0.000000 3.529270 
# 
# 
# High freq. dielectric constant tensor:
#      x y z
#    x 1.672820 0.000000 -0.015410 
#    y 0.000000 1.589030 0.000000 
#    z -0.015410 0.000000 1.659510 
# 
# From -- ./inp_files/268204.got.cif
#   From: 2010.06.25/outbox.cif.g09.slc.cpg/sg12_135_cif.got.tgz:268204.got - 2010.06.28 00:19:55.
