data_PCOD8080866
_publ_section_title
;
Structure prediction by ZEFSAII (Michael W. Deem and Ramdas Pophale) SiO2 
 PCOD8080866
Probable space group: C 2/M
;
_chemical_formula_sum "Si O2"
_cell_formula_units_Z 56
_cell_length_a 23.508720
_cell_length_b 8.946937
_cell_length_c 15.015510
_cell_angle_alpha 90.000000
_cell_angle_beta 89.954274
_cell_angle_gamma 90.000000
_cell_volume 3158.226780
_symmetry_space_group_name_H-M "C 2/M"
_symmetry_group_IT_number 12
_symmetry_cell_setting 'monoclinic'
loop_
_space_group_symop_operation_xyz
x,y,z
-x,y,-z
-x,-y,-z
x,-y,z
1/2+x,1/2+y,z
1/2-x,1/2+y,-z
1/2-x,1/2-y,-z
1/2+x,1/2-y,z
loop_
_atom_site_type_symbol
_atom_site_label
_atom_site_fract_x
_atom_site_fract_y
_atom_site_fract_z
Si Si1 0.145163 0.828932 0.780777
Si Si2 0.414617 0.676174 0.671336
Si Si3 0.623365 0.324347 0.526128
Si Si4 0.040183 0.171987 0.680006
Si Si5 0.785568 0.324427 0.368089
Si Si6 0.692000 0.823188 0.263478
Si Si7 0.262229 0.329405 0.091335
O O1 0.076807 0.806482 0.771959
O O2 0.174168 0.711603 0.715349
O O3 0.171310 0.803605 0.879408
O O4 0.160665 0.000000 0.750437
O O5 0.410041 0.500000 0.690038
O O6 0.398915 0.717810 0.570601
O O7 0.477731 0.743817 0.690171
O O8 0.372250 0.761982 0.737908
O O9 0.632980 0.500000 0.538218
O O10 0.576274 0.263510 0.596770
O O11 0.684236 0.244519 0.544108
O O12 0.028458 0.000000 0.658437
O O13 0.777143 0.500000 0.380793
O O14 0.724168 0.251000 0.348125
O O15 0.721615 0.772076 0.171089
O O16 0.693294 0.000000 0.274599
O O17 0.249066 0.500000 0.072493
O O18 0.250000 0.250000 0.000000
#
# Coordination Sequence:
#
# PCOD8080866 Si02
#       7
#     8   8   8   8   8   8   8
#     4   8  15  30  50  72  98 126 152 186 238 285
#     4  10  19  30  48  72  94 125 168 204 232 270
#     4   9  17  30  47  68  96 128 162 202 244 277
#     4   8  14  28  50  71  94 126 164 200 231 270
#     4  10  18  29  47  69  92 122 163 204 236 275
#     4  10  21  36  49  66  97 130 154 186 243 296
#     4   9  18  32  53  77  96 117 147 186 235 289
#
# _framework density 17.731469000000001
#
# number of rings (size 3 to 8) (size 9 to 14) (size 15 to 20)
#    0.000    2.857    0.000    3.857    0.000    5.714 
#    0.000    2.857    0.000    5.143    0.000    6.000 
#    0.000    0.000    0.000    0.000    0.000    0.000 
#
# Total GULP energy -346952.863067 kJ/mol
# GULP energy per Si atom -12391.173681 kJ/mol
# Density = 1.769111 g / cm^3
# Si number density = 17.731469 Si / 1000 Ang^3
#
#
#
# Elastic Constant Matrix: (Units=GPa)
#
#
# Indices 1 2 3 4 5 6 
#
# 1 122.4491 27.2749 51.1348 0.0000 13.9544 0.0000
# 2 27.2749 53.2236 29.2411 0.0000 3.3392 0.0000
# 3 51.1348 29.2411 97.4462 0.0000 20.1539 0.0000
# 4 0.0000 0.0000 0.0000 24.3053 0.0000 1.5786
# 5 13.9544 3.3392 20.1539 0.0000 20.0518 0.0000
# 6 0.0000 0.0000 0.0000 1.5786 0.0000 23.1599
#
#
#
# Elastic Compliance Matrix: (Units=1/GPa)
#
#
# Indices 1 2 3 4 5 6 
#
# 1 0.010948 -0.003113 -0.004219 0.000000 -0.002860 0.000000
# 2 -0.003113 0.023619 -0.006424 0.000000 0.004690 0.000000
# 3 -0.004219 -0.006424 0.017138 0.000000 -0.013219 0.000000
# 4 0.000000 0.000000 0.000000 0.041326 0.000000 -0.002817
# 5 -0.002860 0.004690 -0.013219 0.000000 0.064366 0.000000
# 6 0.000000 0.000000 0.000000 -0.002817 0.000000 0.043370
#
#
# Mechanical properties :
#
#
# Convention : Reuss Voigt Hill
#
# Bulk Modulus (GPa) = 41.33529 54.26892 47.80211
# Shear Modulus (GPa) = 21.15563 24.53460 22.84511
#
# Velocity S-wave (km/s) = 3.45789 3.72381 3.59331
# Velocity P-wave (km/s) = 6.26938 7.01153 6.65081
#
# Compressibility (1/GPa) = 0.02419240
#
# Stress axis : x y z
#
# Youngs Moduli (GPa) = 91.34151 42.33902 58.35045
#
# Poissons Ratio (x) = 0.13179 0.24621
# Poissons Ratio (y) = 0.28433 0.37484
# Poissons Ratio (z) = 0.38541 0.27198
#
# Static dielectric constant tensor:
#      x y z
#    x 3.582270 0.000000 0.295440 
#    y 0.000000 3.043690 0.000000 
#    z 0.295440 0.000000 3.120820 
# 
# 
# High freq. dielectric constant tensor:
#      x y z
#    x 1.687700 0.000000 0.025040 
#    y 0.000000 1.664740 0.000000 
#    z 0.025040 0.000000 1.655670 
# 
# From -- ./inp_files/287084.got.cif
#   From: 2010.06.25/outbox.cif.g09.slc.cpg/sg12_144_cif.got.tgz:287084.got - 2010.06.28 00:19:55.
