data_PCOD8080483
_publ_section_title
;
Structure prediction by ZEFSAII (Michael W. Deem and Ramdas Pophale) SiO2 
 PCOD8080483
Probable space group: C 2/M
;
_chemical_formula_sum "Si O2"
_cell_formula_units_Z 48
_cell_length_a 22.163776
_cell_length_b 22.440945
_cell_length_c 14.103367
_cell_angle_alpha 90.000000
_cell_angle_beta 161.201794
_cell_angle_gamma 90.000000
_cell_volume 2260.381958
_symmetry_space_group_name_H-M "C 2/M"
_symmetry_group_IT_number 12
_symmetry_cell_setting 'monoclinic'
loop_
_space_group_symop_operation_xyz
x,y,z
-x,y,-z
-x,-y,-z
x,-y,z
1/2+x,1/2+y,z
1/2-x,1/2+y,-z
1/2-x,1/2-y,-z
1/2+x,1/2-y,z
loop_
_atom_site_type_symbol
_atom_site_label
_atom_site_fract_x
_atom_site_fract_y
_atom_site_fract_z
Si Si1 0.419716 0.754272 0.131214
Si Si2 0.152355 0.933479 0.645366
Si Si3 0.180464 0.749788 0.221865
Si Si4 0.922700 0.615553 0.192169
Si Si5 0.844060 0.111151 0.839078
Si Si6 0.872749 0.123785 0.098665
O O1 0.638547 0.734593 0.445148
O O2 0.418728 0.812251 0.196215
O O3 0.327875 0.694800 0.038351
O O4 0.310924 0.772853 0.873744
O O5 0.000000 0.935989 0.500000
O O6 0.073565 0.891871 0.444005
O O7 0.193982 0.000000 0.668658
O O8 0.340248 0.905305 0.968673
O O9 0.147822 0.819709 0.169166
O O10 0.000000 0.718387 0.000000
O O11 0.131774 0.588284 0.505551
O O12 0.797513 0.592647 0.095421
O O13 0.886501 0.098427 0.012657
O O14 0.000000 0.080787 0.000000
#
# Coordination Sequence:
#
# PCOD8080483 Si02
#       6
#     8   8   8   8   8   8
#     4  10  18  28  46  76 107 136 173 220 271 318
#     4   9  19  36  57  81 108 141 184 226 262 311
#     4   9  17  28  42  65 102 142 176 209 256 321
#     4  10  19  33  54  79 108 141 177 222 272 320
#     4   9  19  34  51  75 105 137 173 216 266 321
#     4  10  19  33  54  79 108 141 177 222 272 320
#
# _framework density 21.23535
#
# number of rings (size 3 to 8) (size 9 to 14) (size 15 to 20)
#    0.000    2.500    0.000    2.500    0.000    1.333 
#    0.000    6.667    0.000    7.000    0.000    0.000 
#    0.000    0.000    0.000    0.000    0.000    0.000 
#
# Total GULP energy -297324.566942 kJ/mol
# GULP energy per Si atom -12388.523623 kJ/mol
# Density = 2.118702 g / cm^3
# Si number density = 21.235350 Si / 1000 Ang^3
#
#
#
# Elastic Constant Matrix: (Units=GPa)
#
#
# Indices 1 2 3 4 5 6 
#
# 1 80.8329 15.0634 65.1815 0.0000 5.5414 0.0000
# 2 15.0634 51.6135 9.8291 0.0000 -14.1856 0.0000
# 3 65.1815 9.8291 150.8689 0.0000 -14.7924 0.0000
# 4 0.0000 0.0000 0.0000 16.1229 0.0000 -4.9747
# 5 5.5414 -14.1856 -14.7924 0.0000 33.2891 0.0000
# 6 0.0000 0.0000 0.0000 -4.9747 0.0000 0.5591
#
#
#
# Elastic Compliance Matrix: (Units=1/GPa)
#
#
# Indices 1 2 3 4 5 6 
#
# 1 0.023402 -0.008115 -0.010772 0.000000 -0.012141 0.000000
# 2 -0.008115 0.024801 0.003198 0.000000 0.013341 0.000000
# 3 -0.010772 0.003198 0.011902 0.000000 0.008445 0.000000
# 4 0.000000 0.000000 0.000000 -0.035534 0.000000 -0.316184
# 5 -0.012141 0.013341 0.008445 0.000000 0.041498 -0.000001
# 6 0.000000 0.000000 0.000000 -0.316184 -0.000001 -1.024754
#
#
# Mechanical properties :
#
#
# Convention : Reuss Voigt Hill
#
# Bulk Modulus (GPa) = 34.81118 51.49594 43.15356
# Shear Modulus (GPa) = -5.44823 22.87696 8.71436
#
# Velocity S-wave (km/s) = -1.60350 3.28579 2.02796
# Velocity P-wave (km/s) = 3.60560 6.22077 5.08421
#
# Compressibility (1/GPa) = 0.02872640
#
# Stress axis : x y z
#
# Youngs Moduli (GPa) = 42.73055 40.32144 84.01904
#
# Poissons Ratio (x) = 0.32722 0.90509
# Poissons Ratio (y) = 0.34677 -0.26873
# Poissons Ratio (z) = 0.46031 -0.12896
#
# Static dielectric constant tensor:
#      x y z
#    x 3.776410 0.000000 -0.012040 
#    y 0.000000 3.421080 0.000000 
#    z -0.012040 0.000000 4.127840 
# 
# 
# High freq. dielectric constant tensor:
#      x y z
#    x 1.812370 0.000000 -0.008250 
#    y 0.000000 1.786760 0.000000 
#    z -0.008250 0.000000 1.843940 
# 
# From -- ./inp_files/242065.got.cif
#   From: 2010.06.25/outbox.cif.g09.slc.cpg/sg12_122_cif.got.tgz:242065.got - 2010.06.28 00:19:55.
