data_PCOD8080802
_publ_section_title
;
Structure prediction by ZEFSAII (Michael W. Deem and Ramdas Pophale) SiO2 
 PCOD8080802
Probable space group: C 2/M
;
_chemical_formula_sum "Si O2"
_cell_formula_units_Z 64
_cell_length_a 25.049445
_cell_length_b 8.501037
_cell_length_c 17.806215
_cell_angle_alpha 90.000000
_cell_angle_beta 103.277419
_cell_angle_gamma 90.000000
_cell_volume 3690.410902
_symmetry_space_group_name_H-M "C 2/M"
_symmetry_group_IT_number 12
_symmetry_cell_setting 'monoclinic'
loop_
_space_group_symop_operation_xyz
x,y,z
-x,y,-z
-x,-y,-z
x,-y,z
1/2+x,1/2+y,z
1/2-x,1/2+y,-z
1/2-x,1/2-y,-z
1/2+x,1/2-y,z
loop_
_atom_site_type_symbol
_atom_site_label
_atom_site_fract_x
_atom_site_fract_y
_atom_site_fract_z
Si Si1 0.715082 0.683928 0.669077
Si Si2 0.485343 0.315148 0.076625
Si Si3 0.210148 0.681406 0.824302
Si Si4 0.866351 0.184132 0.079429
Si Si5 0.598351 0.682594 0.177768
Si Si6 0.330649 0.683555 0.662142
Si Si7 0.307692 0.683400 0.496372
Si Si8 0.178309 0.681235 0.083099
O O1 0.707350 0.500000 0.683557
O O2 0.693782 0.781420 0.733243
O O3 0.779346 0.715878 0.674516
O O4 0.678508 0.741755 0.584188
O O5 0.477145 0.500000 0.064079
O O6 0.427847 0.246953 0.088007
O O7 0.534095 0.274162 0.150526
O O8 0.500000 0.241513 0.000000
O O9 0.226101 0.500000 0.837558
O O10 0.158346 0.721798 0.858833
O O11 0.262061 0.785195 0.864317
O O12 0.865889 0.000000 0.098065
O O13 0.830774 0.213208 0.993317
O O14 0.608174 0.500000 0.160663
O O15 0.617086 0.721462 0.268721
O O16 0.632545 0.784277 0.130277
O O17 0.314276 0.500000 0.662696
O O18 0.347423 0.725678 0.580175
O O19 0.300882 0.500000 0.485764
O O20 0.250000 0.750000 0.500000
O O21 0.174926 0.500000 0.058346
#
# Coordination Sequence:
#
# PCOD8080802 Si02
#       8
#     8   8   8   8   8   8   8   8
#     4  10  18  29  46  69 100 132 165 199 244 294
#     4   9  17  32  54  76  97 127 166 205 247 292
#     4  12  24  37  51  71 100 131 168 207 249 298
#     4  11  22  38  56  72  96 130 170 208 247 293
#     4  10  18  31  52  76 101 134 169 202 242 291
#     4   9  16  27  46  71 101 133 166 198 240 289
#     4   8  15  26  41  66  98 131 161 197 237 288
#     4  12  23  35  51  74 102 131 166 203 247 293
#
# _framework density 17.342243
#
# number of rings (size 3 to 8) (size 9 to 14) (size 15 to 20)
#    0.000    1.875    2.500    3.375    0.000    0.500 
#    0.000    1.875    0.000    0.000    0.000    0.875 
#    0.000    7.000    0.000    0.000    0.000    0.000 
#
# Total GULP energy -396592.936999 kJ/mol
# GULP energy per Si atom -12393.529281 kJ/mol
# Density = 1.730277 g / cm^3
# Si number density = 17.342243 Si / 1000 Ang^3
#
#
#
# Elastic Constant Matrix: (Units=GPa)
#
#
# Indices 1 2 3 4 5 6 
#
# 1 73.2136 16.3869 47.2545 0.0000 -9.4030 0.0000
# 2 16.3869 39.5947 16.5882 0.0000 1.3046 0.0000
# 3 47.2545 16.5882 154.3122 0.0000 -1.3186 0.0000
# 4 0.0000 0.0000 0.0000 21.2278 0.0000 -3.6669
# 5 -9.4030 1.3046 -1.3186 0.0000 17.2694 0.0000
# 6 0.0000 0.0000 0.0000 -3.6669 0.0000 17.6785
#
#
#
# Elastic Compliance Matrix: (Units=1/GPa)
#
#
# Indices 1 2 3 4 5 6 
#
# 1 0.019924 -0.006376 -0.005323 0.000000 0.010924 0.000000
# 2 -0.006376 0.028572 -0.001168 0.000000 -0.005719 0.000000
# 3 -0.005323 -0.001168 0.008217 0.000000 -0.002182 0.000000
# 4 0.000000 0.000000 0.000000 0.048859 0.000000 0.010134
# 5 0.010924 -0.005719 -0.002182 0.000000 0.064119 0.000000
# 6 0.000000 0.000000 0.000000 0.010134 0.000000 0.058668
#
#
# Mechanical properties :
#
#
# Convention : Reuss Voigt Hill
#
# Bulk Modulus (GPa) = 32.27787 47.50887 39.89337
# Shear Modulus (GPa) = 18.90940 23.69453 21.30197
#
# Velocity S-wave (km/s) = 3.30565 3.70035 3.50855
# Velocity P-wave (km/s) = 5.76389 6.76100 6.28226
#
# Compressibility (1/GPa) = 0.03098097
#
# Stress axis : x y z
#
# Youngs Moduli (GPa) = 50.19065 34.99876 121.69648
#
# Poissons Ratio (x) = 0.22315 0.64773
# Poissons Ratio (y) = 0.32001 0.14213
# Poissons Ratio (z) = 0.26714 0.04087
#
# Static dielectric constant tensor:
#      x y z
#    x 3.019330 0.000000 0.059280 
#    y 0.000000 2.830450 0.000000 
#    z 0.059280 0.000000 3.853200 
# 
# 
# High freq. dielectric constant tensor:
#      x y z
#    x 1.623010 0.000000 0.002260 
#    y 0.000000 1.663590 0.000000 
#    z 0.002260 0.000000 1.685820 
# 
# From -- ./inp_files/287775.got.cif
#   From: 2010.06.25/outbox.cif.g09.slc.cpg/sg12_144_cif.got.tgz:287775.got - 2010.06.28 00:19:55.
