data_PCOD8080148
_publ_section_title
;
Structure prediction by ZEFSAII (Michael W. Deem and Ramdas Pophale) SiO2 
 PCOD8080148
Probable space group: C 2/M
;
_chemical_formula_sum "Si O2"
_cell_formula_units_Z 64
_cell_length_a 27.284473
_cell_length_b 9.147471
_cell_length_c 19.338209
_cell_angle_alpha 90.000000
_cell_angle_beta 121.754411
_cell_angle_gamma 90.000000
_cell_volume 4104.034673
_symmetry_space_group_name_H-M "C 2/M"
_symmetry_group_IT_number 12
_symmetry_cell_setting 'monoclinic'
loop_
_space_group_symop_operation_xyz
x,y,z
-x,y,-z
-x,-y,-z
x,-y,z
1/2+x,1/2+y,z
1/2-x,1/2+y,-z
1/2-x,1/2-y,-z
1/2+x,1/2-y,z
loop_
_atom_site_type_symbol
_atom_site_label
_atom_site_fract_x
_atom_site_fract_y
_atom_site_fract_z
Si Si1 0.549862 0.327848 0.984847
Si Si2 0.439933 0.165098 0.495048
Si Si3 0.545637 0.330231 0.826829
Si Si4 0.668174 0.828572 0.071978
Si Si5 0.841266 0.664678 0.091759
Si Si6 0.002302 0.168228 0.348149
Si Si7 0.617285 0.329176 0.664835
Si Si8 0.721079 0.169692 0.817078
O O1 0.563151 0.500000 0.999449
O O2 0.528394 0.282046 0.891725
O O3 0.500000 0.279959 0.000000
O O4 0.606971 0.239934 0.047999
O O5 0.500000 0.168638 0.500000
O O6 0.450008 0.232837 0.578677
O O7 0.393815 0.262650 0.419603
O O8 0.416672 0.000000 0.485331
O O9 0.557853 0.500000 0.833498
O O10 0.605234 0.262053 0.846557
O O11 0.496984 0.290918 0.733375
O O12 0.718175 0.749151 0.153026
O O13 0.667978 0.000000 0.089066
O O14 0.681260 0.795566 0.001188
O O15 0.864442 0.500000 0.109721
O O16 0.791067 0.688141 0.110169
O O17 0.938153 0.199309 0.328643
O O18 0.018936 0.000000 0.373581
O O19 0.631432 0.500000 0.668378
O O20 0.671743 0.245993 0.736179
O O21 0.725085 0.000000 0.798774
#
# Coordination Sequence:
#
# PCOD8080148 Si02
#       8
#     8   8   8   8   8   8   8   8
#     4   9  18  33  51  68  88 114 144 182 227 269
#     4   9  17  27  39  56  80 113 149 184 217 253
#     4   9  16  27  44  65  87 114 148 182 219 262
#     4  10  20  32  45  63  85 113 148 183 220 262
#     4   9  18  29  41  59  85 115 147 182 218 254
#     4   9  16  26  40  59  83 113 148 184 217 254
#     4  10  18  28  41  58  83 117 151 183 217 255
#     4  11  20  29  42  61  87 117 149 184 217 256
#
# _framework density 15.59441
#
# number of rings (size 3 to 8) (size 9 to 14) (size 15 to 20)
#    0.000    2.500    1.250    1.875    0.000    3.750 
#    0.000    0.000    0.000    0.000    0.000    0.000 
#    0.000    1.000    0.000    2.750    0.000    4.000 
#
# Total GULP energy -396691.466423 kJ/mol
# GULP energy per Si atom -12396.608326 kJ/mol
# Density = 1.555892 g / cm^3
# Si number density = 15.594410 Si / 1000 Ang^3
#
#
#
# Elastic Constant Matrix: (Units=GPa)
#
#
# Indices 1 2 3 4 5 6 
#
# 1 55.3744 36.3426 38.6659 0.0000 3.2599 0.0000
# 2 36.3426 87.4233 56.7738 0.0000 7.4821 0.0000
# 3 38.6659 56.7738 98.3592 0.0000 6.8148 0.0000
# 4 0.0000 0.0000 0.0000 30.3703 0.0000 3.7903
# 5 3.2599 7.4821 6.8148 0.0000 12.9919 0.0000
# 6 0.0000 0.0000 0.0000 3.7903 0.0000 15.5909
#
#
#
# Elastic Compliance Matrix: (Units=1/GPa)
#
#
# Indices 1 2 3 4 5 6 
#
# 1 0.027347 -0.007065 -0.006723 0.000000 0.000733 0.000000
# 2 -0.007065 0.020466 -0.008656 0.000000 -0.005473 0.000000
# 3 -0.006723 -0.008656 0.017998 0.000000 -0.002769 0.000000
# 4 0.000000 0.000000 0.000000 0.033957 0.000000 -0.008255
# 5 0.000733 -0.005473 -0.002769 0.000000 0.081391 0.000000
# 6 0.000000 0.000000 0.000000 -0.008255 0.000000 0.066147
#
#
# Mechanical properties :
#
#
# Convention : Reuss Voigt Hill
#
# Bulk Modulus (GPa) = 47.79770 56.08016 51.93893
# Shear Modulus (GPa) = 16.71295 19.08226 17.89761
#
# Velocity S-wave (km/s) = 3.27728 3.50188 3.39144
# Velocity P-wave (km/s) = 6.71102 7.23814 6.97956
#
# Compressibility (1/GPa) = 0.02092151
#
# Stress axis : x y z
#
# Youngs Moduli (GPa) = 36.56694 48.86259 55.56131
#
# Poissons Ratio (x) = 0.34522 0.37355
# Poissons Ratio (y) = 0.25835 0.48096
# Poissons Ratio (z) = 0.24585 0.42297
#
# Static dielectric constant tensor:
#      x y z
#    x 2.597510 0.000000 -0.132040 
#    y 0.000000 3.083180 0.000000 
#    z -0.132040 0.000000 3.110370 
# 
# 
# High freq. dielectric constant tensor:
#      x y z
#    x 1.535670 0.000000 -0.001410 
#    y 0.000000 1.611120 0.000000 
#    z -0.001410 0.000000 1.602210 
# 
# From -- ./inp_files/326858.got.cif
#   From: 2010.06.25/outbox.cif.g09.slc.cpg/sg12_164_cif.got.tgz:326858.got - 2010.06.28 00:19:55.
