data_PCOD8080129
_publ_section_title
;
Structure prediction by ZEFSAII (Michael W. Deem and Ramdas Pophale) SiO2 
 PCOD8080129
Probable space group: C 2/M
;
_chemical_formula_sum "Si O2"
_cell_formula_units_Z 64
_cell_length_a 21.123295
_cell_length_b 16.739907
_cell_length_c 20.068982
_cell_angle_alpha 90.000000
_cell_angle_beta 149.364362
_cell_angle_gamma 90.000000
_cell_volume 3616.176420
_symmetry_space_group_name_H-M "C 2/M"
_symmetry_group_IT_number 12
_symmetry_cell_setting 'monoclinic'
loop_
_space_group_symop_operation_xyz
x,y,z
-x,y,-z
-x,-y,-z
x,-y,z
1/2+x,1/2+y,z
1/2-x,1/2+y,-z
1/2-x,1/2-y,-z
1/2+x,1/2-y,z
loop_
_atom_site_type_symbol
_atom_site_label
_atom_site_fract_x
_atom_site_fract_y
_atom_site_fract_z
Si Si1 0.003380 0.187923 0.926394
Si Si2 0.266131 0.780857 0.714589
Si Si3 0.997155 0.191430 0.313332
Si Si4 0.776419 0.273853 0.181100
Si Si5 0.339006 0.172633 0.491291
Si Si6 0.588099 0.408067 0.516936
Si Si7 0.448310 0.908981 0.381613
Si Si8 0.416295 0.405270 0.726333
O O1 0.913082 0.265207 0.836483
O O2 0.954660 0.114961 0.836787
O O3 0.140171 0.213520 0.026479
O O4 0.000000 0.158036 0.000000
O O5 0.232637 0.781064 0.761990
O O6 0.190630 0.712601 0.606893
O O7 0.223245 0.867180 0.649105
O O8 0.105545 0.259175 0.409322
O O9 0.019840 0.127805 0.391664
O O10 0.991304 0.142616 0.239105
O O11 0.863805 0.232858 0.205090
O O12 0.828047 0.359010 0.251933
O O13 0.442786 0.105341 0.573276
O O14 0.221057 0.127683 0.415797
O O15 0.500000 0.392380 0.500000
O O16 0.615006 0.500000 0.528391
O O17 0.500000 0.882662 0.500000
O O18 0.405024 0.000000 0.342051
O O19 0.423260 0.500000 0.721234
#
# Coordination Sequence:
#
# PCOD8080129 Si02
#       8
#     8   8   8   8   8   8   8   8
#     4   9  21  37  55  74  97 141 184 216 256 306
#     4   9  16  32  52  75 103 135 174 213 250 306
#     4  10  20  32  55  78 106 139 176 211 260 311
#     4  10  18  33  52  74 103 137 180 219 250 300
#     4   9  18  32  52  74 105 137 174 204 261 316
#     4  10  18  29  52  83 109 131 165 214 267 307
#     4  10  18  27  47  78 108 134 168 217 271 309
#     4  11  22  36  51  75 110 139 172 217 264 311
#
# _framework density 17.698250999999999
#
# number of rings (size 3 to 8) (size 9 to 14) (size 15 to 20)
#    0.000    2.250    2.500    1.125    0.000    1.250 
#    0.000    0.000    0.000    4.875    0.000    0.000 
#    0.000    0.000    0.000    0.000    0.000    0.000 
#
# Total GULP energy -396699.528494 kJ/mol
# GULP energy per Si atom -12396.860265 kJ/mol
# Density = 1.765797 g / cm^3
# Si number density = 17.698251 Si / 1000 Ang^3
#
#
#
# Elastic Constant Matrix: (Units=GPa)
#
#
# Indices 1 2 3 4 5 6 
#
# 1 72.3515 43.0468 33.9869 -0.0012 6.4473 -0.0005
# 2 43.0468 107.2440 48.9181 -0.0029 11.7739 -0.0015
# 3 33.9869 48.9181 93.4741 -0.0043 20.5388 -0.0022
# 4 -0.0012 -0.0029 -0.0043 16.8050 -0.0021 -0.3464
# 5 6.4473 11.7739 20.5388 -0.0021 28.1143 -0.0010
# 6 -0.0005 -0.0015 -0.0022 -0.3464 -0.0010 23.8462
#
#
#
# Elastic Compliance Matrix: (Units=1/GPa)
#
#
# Indices 1 2 3 4 5 6 
#
# 1 0.019193 -0.005952 -0.004103 -0.000001 0.001088 0.000000
# 2 -0.005952 0.014101 -0.005024 0.000001 -0.000870 0.000000
# 3 -0.004103 -0.005024 0.016856 0.000002 -0.009269 0.000001
# 4 -0.000001 0.000001 0.000002 0.059524 0.000003 0.000865
# 5 0.001088 -0.000870 -0.009269 0.000003 0.042455 0.000001
# 6 0.000000 0.000000 0.000001 0.000865 0.000001 0.041948
#
#
# Mechanical properties :
#
#
# Convention : Reuss Voigt Hill
#
# Bulk Modulus (GPa) = 50.02049 58.33037 54.17543
# Shear Modulus (GPa) = 21.65452 23.56095 22.60774
#
# Velocity S-wave (km/s) = 3.50171 3.65260 3.57795
# Velocity P-wave (km/s) = 6.68383 7.12871 6.90985
#
# Compressibility (1/GPa) = 0.01999181
#
# Stress axis : x y z
#
# Youngs Moduli (GPa) = 52.10262 70.91796 59.32631
#
# Poissons Ratio (x) = 0.42210 0.24341
# Poissons Ratio (y) = 0.31011 0.29807
# Poissons Ratio (z) = 0.21377 0.35630
#
# Static dielectric constant tensor:
#      x y z
#    x 3.216230 0.000000 0.098040 
#    y 0.000000 3.117380 0.000000 
#    z 0.098040 0.000000 3.256030 
# 
# 
# High freq. dielectric constant tensor:
#      x y z
#    x 1.678850 0.000000 0.008240 
#    y 0.000000 1.671030 0.000000 
#    z 0.008240 0.000000 1.673500 
# 
# From -- ./inp_files/168084.got.cif
#   From: 2010.06.25/outbox.cif.g09.slc.cpg/sg12_85_cif.got.tgz:168084.got - 2010.06.28 00:19:55.
