data_PCOD8080409
_publ_section_title
;
Structure prediction by ZEFSAII (Michael W. Deem and Ramdas Pophale) SiO2 
 PCOD8080409
Probable space group: C 2/M
;
_chemical_formula_sum "Si O2"
_cell_formula_units_Z 64
_cell_length_a 25.510474
_cell_length_b 8.984573
_cell_length_c 15.432017
_cell_angle_alpha 90.000000
_cell_angle_beta 105.719630
_cell_angle_gamma 90.000000
_cell_volume 3404.740839
_symmetry_space_group_name_H-M "C 2/M"
_symmetry_group_IT_number 12
_symmetry_cell_setting 'monoclinic'
loop_
_space_group_symop_operation_xyz
x,y,z
-x,y,-z
-x,-y,-z
x,-y,z
1/2+x,1/2+y,z
1/2-x,1/2+y,-z
1/2-x,1/2-y,-z
1/2+x,1/2-y,z
loop_
_atom_site_type_symbol
_atom_site_label
_atom_site_fract_x
_atom_site_fract_y
_atom_site_fract_z
Si Si1 0.447822 0.173573 0.290751
Si Si2 0.344835 0.823292 0.908573
Si Si3 0.722753 0.667254 0.661715
Si Si4 0.876714 0.324512 0.102431
Si Si5 0.106755 0.822341 0.569619
Si Si6 0.570699 0.173152 0.382798
Si Si7 0.342478 0.821638 0.716845
Si Si8 0.776686 0.167798 0.136245
O O1 0.423205 0.235311 0.188555
O O2 0.422330 0.264477 0.357613
O O3 0.512153 0.200443 0.313985
O O4 0.434138 0.000000 0.298800
O O5 0.361839 0.762509 0.820885
O O6 0.284000 0.768892 0.905169
O O7 0.342901 0.000000 0.900988
O O8 0.384994 0.771147 0.005227
O O9 0.727787 0.500000 0.629794
O O10 0.669487 0.739277 0.591615
O O11 0.781619 0.743506 0.668302
O O12 0.709075 0.671527 0.756452
O O13 0.878186 0.500000 0.104996
O O14 0.817196 0.275488 0.104938
O O15 0.073654 0.763751 0.472755
O O16 0.105633 0.000000 0.571606
O O17 0.615429 0.236698 0.335778
O O18 0.580508 0.000000 0.407574
O O19 0.340578 0.000000 0.717705
O O20 0.783258 0.000000 0.103621
#
# Coordination Sequence:
#
# PCOD8080409 Si02
#       8
#     8   8   8   8   8   8   8   8
#     4  10  21  35  49  71 105 133 159 201 246 288
#     4   8  15  27  47  73  98 127 161 196 236 285
#     4   8  15  28  48  74  99 123 155 198 242 290
#     4  10  18  28  45  72 102 128 158 198 240 280
#     4  11  21  34  54  77  98 123 161 207 252 295
#     4  10  21  36  53  71  94 132 171 201 242 292
#     4   8  15  31  52  71  97 132 165 195 237 293
#     4   9  15  27  46  69  99 130 158 191 237 292
#
# _framework density 18.797318000000001
#
# number of rings (size 3 to 8) (size 9 to 14) (size 15 to 20)
#    0.000    2.750    1.250    2.625    0.000    2.500 
#    0.000    0.625    0.000    8.250    0.000    0.000 
#    0.000    3.000    0.000    0.000    0.000    0.000 
#
# Total GULP energy -396469.414029 kJ/mol
# GULP energy per Si atom -12389.669188 kJ/mol
# Density = 1.875453 g / cm^3
# Si number density = 18.797318 Si / 1000 Ang^3
#
#
#
# Elastic Constant Matrix: (Units=GPa)
#
#
# Indices 1 2 3 4 5 6 
#
# 1 79.8666 18.0617 34.5600 0.0000 -0.3612 0.0000
# 2 18.0617 15.2231 21.0549 0.0000 3.1006 0.0000
# 3 34.5600 21.0549 100.1829 0.0000 18.2318 0.0000
# 4 0.0000 0.0000 0.0000 11.1522 0.0000 1.3530
# 5 -0.3612 3.1006 18.2318 0.0000 16.5027 0.0000
# 6 0.0000 0.0000 0.0000 1.3530 0.0000 19.1839
#
#
#
# Elastic Compliance Matrix: (Units=1/GPa)
#
#
# Indices 1 2 3 4 5 6 
#
# 1 0.018356 -0.017797 -0.004097 0.000000 0.008272 0.000000
# 2 -0.017797 0.110212 -0.016502 0.000000 -0.002866 0.000000
# 3 -0.004097 -0.016502 0.017918 0.000000 -0.016784 0.000000
# 4 0.000000 0.000000 0.000000 0.090443 0.000000 -0.006379
# 5 0.008272 -0.002866 -0.016784 0.000000 0.079858 0.000000
# 6 0.000000 0.000000 0.000000 -0.006379 0.000000 0.052577
#
#
# Mechanical properties :
#
#
# Convention : Reuss Voigt Hill
#
# Bulk Modulus (GPa) = 14.34840 38.06953 26.20896
# Shear Modulus (GPa) = 10.65219 17.47416 14.06318
#
# Velocity S-wave (km/s) = 2.38310 3.05226 2.73820
# Velocity P-wave (km/s) = 3.90154 5.71999 4.89593
#
# Compressibility (1/GPa) = 0.06969416
#
# Stress axis : x y z
#
# Youngs Moduli (GPa) = 54.47811 9.07342 55.81026
#
# Poissons Ratio (x) = 0.16148 0.22868
# Poissons Ratio (y) = 0.96952 0.92097
# Poissons Ratio (z) = 0.22322 0.14973
#
# Static dielectric constant tensor:
#      x y z
#    x 3.494610 0.000000 0.155810 
#    y 0.000000 3.025310 0.000000 
#    z 0.155810 0.000000 3.870160 
# 
# 
# High freq. dielectric constant tensor:
#      x y z
#    x 1.716860 0.000000 0.009910 
#    y 0.000000 1.681180 0.000000 
#    z 0.009910 0.000000 1.743850 
# 
# From -- ./inp_files/244256.got.cif
#   From: 2010.06.25/outbox.cif.g09.slc.cpg/sg12_123_cif.got.tgz:244256.got - 2010.06.28 00:19:55.
