data_PCOD8080966
_publ_section_title
;
Structure prediction by ZEFSAII (Michael W. Deem and Ramdas Pophale) SiO2 
 PCOD8080966
Probable space group: C 2/M
;
_chemical_formula_sum "Si O2"
_cell_formula_units_Z 56
_cell_length_a 13.737395
_cell_length_b 13.183709
_cell_length_c 27.772457
_cell_angle_alpha 90.000000
_cell_angle_beta 38.459123
_cell_angle_gamma 90.000000
_cell_volume 3128.355172
_symmetry_space_group_name_H-M "C 2/M"
_symmetry_group_IT_number 12
_symmetry_cell_setting 'monoclinic'
loop_
_space_group_symop_operation_xyz
x,y,z
-x,y,-z
-x,-y,-z
x,-y,z
1/2+x,1/2+y,z
1/2-x,1/2+y,-z
1/2-x,1/2-y,-z
1/2+x,1/2-y,z
loop_
_atom_site_type_symbol
_atom_site_label
_atom_site_fract_x
_atom_site_fract_y
_atom_site_fract_z
Si Si1 0.858811 0.615458 0.185980
Si Si2 0.418894 0.885477 0.605908
Si Si3 0.097936 0.115897 0.077731
Si Si4 0.619020 0.301396 0.761548
Si Si5 0.922009 0.302595 0.978706
Si Si6 0.982603 0.120808 0.717085
Si Si7 0.778207 0.386849 0.554459
O O1 0.856505 0.500000 0.204814
O O2 0.903318 0.684124 0.214603
O O3 0.691079 0.650169 0.230671
O O4 0.984629 0.628272 0.095201
O O5 0.305464 0.821868 0.684583
O O6 0.342165 0.888679 0.583540
O O7 0.594122 0.834182 0.531214
O O8 0.431814 0.000000 0.621178
O O9 0.080732 0.185266 0.036904
O O10 0.947296 0.127101 0.170415
O O11 0.114256 0.000000 0.054452
O O12 0.248106 0.152370 0.050125
O O13 0.522114 0.320168 0.750681
O O14 0.000000 0.310541 0.000000
O O15 0.102207 0.158681 0.627866
O O16 0.002953 0.000000 0.718025
O O17 0.764707 0.500000 0.539277
#
# Coordination Sequence:
#
# PCOD8080966 Si02
#       7
#     8   8   8   8   8   8   8
#     4  10  21  34  48  68  94 122 155 193 231 274
#     4   8  12  21  40  67  95 119 145 186 233 269
#     4  10  20  33  50  73  98 122 152 190 230 274
#     4  10  18  29  48  71  94 121 156 191 229 274
#     4  10  21  35  51  71  94 122 156 190 228 276
#     4   9  16  29  50  72  94 122 154 191 232 272
#     4   7  11  20  38  66  94 117 147 185 226 270
#
# _framework density 17.900780000000001
#
# number of rings (size 3 to 8) (size 9 to 14) (size 15 to 20)
#    0.000    2.857    0.000    4.286    0.000    2.571 
#    0.000    0.714    0.000   10.286    0.000    8.000 
#    0.000    0.000    0.000    0.000    0.000    0.000 
#
# Total GULP energy -346897.564729 kJ/mol
# GULP energy per Si atom -12389.198740 kJ/mol
# Density = 1.786004 g / cm^3
# Si number density = 17.900780 Si / 1000 Ang^3
#
#
#
# Elastic Constant Matrix: (Units=GPa)
#
#
# Indices 1 2 3 4 5 6 
#
# 1 44.9179 20.8567 16.8260 0.0000 -1.6479 0.0000
# 2 20.8567 82.4408 29.9407 0.0001 2.9596 0.0000
# 3 16.8260 29.9407 118.9609 0.0001 -6.7318 0.0000
# 4 0.0000 0.0001 0.0001 15.5528 0.0000 -3.3157
# 5 -1.6479 2.9596 -6.7318 0.0000 16.6805 0.0000
# 6 0.0000 0.0000 0.0000 -3.3157 0.0000 16.1368
#
#
#
# Elastic Compliance Matrix: (Units=1/GPa)
#
#
# Indices 1 2 3 4 5 6 
#
# 1 0.025865 -0.005913 -0.002012 0.000000 0.002792 0.000000
# 2 -0.005913 0.014943 -0.003180 0.000000 -0.004519 0.000000
# 3 -0.002012 -0.003180 0.009734 0.000000 0.004294 0.000000
# 4 0.000000 0.000000 0.000000 0.067243 0.000000 0.013817
# 5 0.002792 -0.004519 0.004294 0.000000 0.062761 0.000000
# 6 0.000000 0.000000 0.000000 0.013817 0.000000 0.064809
#
#
# Mechanical properties :
#
#
# Convention : Reuss Voigt Hill
#
# Bulk Modulus (GPa) = 35.29702 42.39626 38.84664
# Shear Modulus (GPa) = 18.04994 21.58709 19.81851
#
# Velocity S-wave (km/s) = 3.17887 3.47642 3.33097
# Velocity P-wave (km/s) = 5.76494 6.31264 6.04500
#
# Compressibility (1/GPa) = 0.02833100
#
# Stress axis : x y z
#
# Youngs Moduli (GPa) = 38.66289 66.92044 102.73107
#
# Poissons Ratio (x) = 0.39570 0.20670
# Poissons Ratio (y) = 0.22861 0.32672
# Poissons Ratio (z) = 0.07779 0.21283
#
# Static dielectric constant tensor:
#      x y z
#    x 2.950330 0.000000 -0.366000 
#    y 0.000000 3.070050 0.000000 
#    z -0.366000 0.000000 3.917390 
# 
# 
# High freq. dielectric constant tensor:
#      x y z
#    x 1.653010 0.000000 -0.023910 
#    y 0.000000 1.664700 0.000000 
#    z -0.023910 0.000000 1.721820 
# 
# From -- ./inp_files/268841.got.cif
#   From: 2010.06.25/outbox.cif.g09.slc.cpg/sg12_135_cif.got.tgz:268841.got - 2010.06.28 00:19:55.
