data_PCOD8080616
_publ_section_title
;
Structure prediction by ZEFSAII (Michael W. Deem and Ramdas Pophale) SiO2 
 PCOD8080616
Probable space group: C 2/M
;
_chemical_formula_sum "Si O2"
_cell_formula_units_Z 56
_cell_length_a 27.050948
_cell_length_b 9.094310
_cell_length_c 14.307319
_cell_angle_alpha 90.000000
_cell_angle_beta 77.037350
_cell_angle_gamma 90.000000
_cell_volume 3430.044072
_symmetry_space_group_name_H-M "C 2/M"
_symmetry_group_IT_number 12
_symmetry_cell_setting 'monoclinic'
loop_
_space_group_symop_operation_xyz
x,y,z
-x,y,-z
-x,-y,-z
x,-y,z
1/2+x,1/2+y,z
1/2-x,1/2+y,-z
1/2-x,1/2-y,-z
1/2+x,1/2-y,z
loop_
_atom_site_type_symbol
_atom_site_label
_atom_site_fract_x
_atom_site_fract_y
_atom_site_fract_z
Si Si1 0.315653 0.828637 0.768883
Si Si2 0.182197 0.672583 0.604446
Si Si3 0.376056 0.331442 0.214521
Si Si4 0.211192 0.166257 0.899359
Si Si5 0.702224 0.328065 0.407489
Si Si6 0.858011 0.330227 0.940252
Si Si7 0.556967 0.173755 0.955422
O O1 0.263843 0.771861 0.838060
O O2 0.325920 0.731946 0.672961
O O3 0.360117 0.801733 0.827248
O O4 0.311723 0.000000 0.741786
O O5 0.171832 0.500000 0.601562
O O6 0.138487 0.746041 0.685120
O O7 0.237701 0.705338 0.624110
O O8 0.177712 0.743110 0.504369
O O9 0.389279 0.500000 0.232801
O O10 0.329154 0.318651 0.165541
O O11 0.424681 0.254832 0.146256
O O12 0.218151 0.000000 0.929865
O O13 0.192469 0.255954 0.996967
O O14 0.691385 0.500000 0.423655
O O15 0.850483 0.500000 0.964652
O O16 0.909232 0.274900 0.969481
O O17 0.560576 0.000000 0.937021
O O18 0.500000 0.224748 0.000000
#
# Coordination Sequence:
#
# PCOD8080616 Si02
#       7
#     8   8   8   8   8   8   8
#     4  10  18  29  42  61  91 124 156 188 224 267
#     4  10  19  31  46  65  91 124 159 192 226 266
#     4  10  18  29  47  69  94 121 154 192 230 275
#     4   9  17  27  40  60  89 122 151 185 224 263
#     4  10  20  30  44  65  91 125 161 193 223 262
#     4   9  18  29  44  64  87 119 156 190 226 271
#     4   9  18  33  50  69  94 121 153 194 236 277
#
# _framework density 16.326321
#
# number of rings (size 3 to 8) (size 9 to 14) (size 15 to 20)
#    0.000    2.429    1.429    1.714    0.000    3.143 
#    0.000    0.000    0.000    0.000    0.000    1.000 
#    0.000    8.000    0.000    0.000    0.000    0.000 
#
# Total GULP energy -347169.323994 kJ/mol
# GULP energy per Si atom -12398.904428 kJ/mol
# Density = 1.628916 g / cm^3
# Si number density = 16.326321 Si / 1000 Ang^3
#
#
#
# Elastic Constant Matrix: (Units=GPa)
#
#
# Indices 1 2 3 4 5 6 
#
# 1 55.9139 26.5253 45.8792 0.0000 -7.5425 0.0000
# 2 26.5253 75.5127 61.9503 0.0000 -3.4758 0.0000
# 3 45.8792 61.9503 128.4292 0.0000 -0.2366 0.0000
# 4 0.0000 0.0000 0.0000 33.6607 0.0000 -0.3823
# 5 -7.5425 -3.4758 -0.2366 0.0000 21.9119 0.0000
# 6 0.0000 0.0000 0.0000 -0.3823 0.0000 15.4137
#
#
#
# Elastic Compliance Matrix: (Units=1/GPa)
#
#
# Indices 1 2 3 4 5 6 
#
# 1 0.027210 -0.001960 -0.008758 0.000000 0.008961 0.000000
# 2 -0.001960 0.022307 -0.010055 0.000000 0.002755 0.000000
# 3 -0.008758 -0.010055 0.015757 0.000000 -0.004439 0.000000
# 4 0.000000 0.000000 0.000000 0.029717 0.000000 0.000737
# 5 0.008961 0.002755 -0.004439 0.000000 0.049111 0.000000
# 6 0.000000 0.000000 0.000000 0.000737 0.000000 0.064896
#
#
# Mechanical properties :
#
#
# Convention : Reuss Voigt Hill
#
# Bulk Modulus (GPa) = 42.14572 58.72947 50.43759
# Shear Modulus (GPa) = 19.34590 22.56401 20.95495
#
# Velocity S-wave (km/s) = 3.44605 3.72164 3.58649
# Velocity P-wave (km/s) = 6.45789 7.38362 6.93621
#
# Compressibility (1/GPa) = 0.02372720
#
# Stress axis : x y z
#
# Youngs Moduli (GPa) = 36.75166 44.82841 63.46362
#
# Poissons Ratio (x) = 0.08788 0.55582
# Poissons Ratio (y) = 0.07205 0.63812
# Poissons Ratio (z) = 0.32187 0.45075
#
# Static dielectric constant tensor:
#      x y z
#    x 2.892680 0.000000 0.112610 
#    y 0.000000 3.113920 0.000000 
#    z 0.112610 0.000000 3.065740 
# 
# 
# High freq. dielectric constant tensor:
#      x y z
#    x 1.585140 0.000000 0.012230 
#    y 0.000000 1.633850 0.000000 
#    z 0.012230 0.000000 1.625900 
# 
# From -- ./inp_files/186839.got.cif
#   From: 2010.06.25/outbox.cif.g09.slc.cpg/sg12_94_cif.got.tgz:186839.got - 2010.06.28 00:19:55.
