data_PCOD8080311
_publ_section_title
;
Structure prediction by ZEFSAII (Michael W. Deem and Ramdas Pophale) SiO2 
 PCOD8080311
Probable space group: C 2/M
;
_chemical_formula_sum "Si O2"
_cell_formula_units_Z 48
_cell_length_a 16.316793
_cell_length_b 23.596079
_cell_length_c 14.208919
_cell_angle_alpha 90.000000
_cell_angle_beta 149.817946
_cell_angle_gamma 90.000000
_cell_volume 2750.344442
_symmetry_space_group_name_H-M "C 2/M"
_symmetry_group_IT_number 12
_symmetry_cell_setting 'monoclinic'
loop_
_space_group_symop_operation_xyz
x,y,z
-x,y,-z
-x,-y,-z
x,-y,z
1/2+x,1/2+y,z
1/2-x,1/2+y,-z
1/2-x,1/2-y,-z
1/2+x,1/2-y,z
loop_
_atom_site_type_symbol
_atom_site_label
_atom_site_fract_x
_atom_site_fract_y
_atom_site_fract_z
Si Si1 0.525358 0.156490 0.240416
Si Si2 0.349986 0.674329 0.470176
Si Si3 0.160940 0.285647 0.106795
Si Si4 0.572775 0.064816 0.974966
Si Si5 0.045853 0.062209 0.651951
Si Si6 0.557159 0.215154 0.657642
O O1 0.702503 0.183138 0.397206
O O2 0.473519 0.166407 0.296279
O O3 0.385670 0.178895 0.030921
O O4 0.525331 0.090122 0.212491
O O5 0.281477 0.676964 0.294323
O O6 0.440504 0.615299 0.586231
O O7 0.469560 0.727066 0.603896
O O8 0.251498 0.228968 0.161273
O O9 0.000000 0.264482 0.000000
O O10 0.763535 0.075761 0.151104
O O11 0.523712 0.000000 0.928305
O O12 0.500000 0.093064 0.000000
O O13 0.000000 0.054425 0.500000
O O14 0.008835 0.000000 0.664140
O O15 0.500000 0.191810 0.500000
#
# Coordination Sequence:
#
# PCOD8080311 Si02
#       6
#     8   8   8   8   8   8
#     4  11  19  30  49  70  92 123 159 190 229 277
#     4  10  19  31  45  67  97 124 154 190 230 275
#     4   9  18  30  46  68  94 123 154 189 229 276
#     4  10  20  32  47  70  97 122 151 188 230 279
#     4  10  18  28  44  67  97 128 151 177 223 280
#     4  10  20  33  47  65  94 125 158 196 231 270
#
# _framework density 17.452359999999999
#
# number of rings (size 3 to 8) (size 9 to 14) (size 15 to 20)
#    0.000    2.000    0.000    7.000    0.000    2.000 
#    0.000    0.000    0.000    1.000    0.000    0.000 
#    0.000    3.333    0.000    0.000    0.000    0.000 
#
# Total GULP energy -297399.395629 kJ/mol
# GULP energy per Si atom -12391.641485 kJ/mol
# Density = 1.741264 g / cm^3
# Si number density = 17.452360 Si / 1000 Ang^3
#
#
#
# Elastic Constant Matrix: (Units=GPa)
#
#
# Indices 1 2 3 4 5 6 
#
# 1 92.5707 45.0362 33.8902 0.0000 -5.7374 0.0000
# 2 45.0362 72.1767 27.1553 0.0000 -4.2881 0.0000
# 3 33.8902 27.1553 58.2544 0.0000 6.7177 0.0000
# 4 0.0000 0.0000 0.0000 22.7618 0.0000 0.8862
# 5 -5.7374 -4.2881 6.7177 0.0000 20.1868 0.0000
# 6 0.0000 0.0000 0.0000 0.8862 0.0000 22.3729
#
#
#
# Elastic Compliance Matrix: (Units=1/GPa)
#
#
# Indices 1 2 3 4 5 6 
#
# 1 0.017685 -0.007972 -0.007234 0.000000 0.005740 0.000000
# 2 -0.007972 0.021236 -0.005740 0.000000 0.004155 0.000000
# 3 -0.007234 -0.005740 0.025403 0.000000 -0.011729 0.000000
# 4 0.000000 0.000000 0.000000 0.044001 0.000000 -0.001743
# 5 0.005740 0.004155 -0.011729 0.000000 0.055955 0.000000
# 6 0.000000 0.000000 0.000000 -0.001743 0.000000 0.044766
#
#
# Mechanical properties :
#
#
# Convention : Reuss Voigt Hill
#
# Bulk Modulus (GPa) = 44.58212 48.35167 46.46689
# Shear Modulus (GPa) = 19.34856 20.85898 20.10377
#
# Velocity S-wave (km/s) = 3.33325 3.46091 3.39768
# Velocity P-wave (km/s) = 6.35725 6.61329 6.48653
#
# Compressibility (1/GPa) = 0.02243052
#
# Stress axis : x y z
#
# Youngs Moduli (GPa) = 56.54374 47.08989 39.36516
#
# Poissons Ratio (x) = 0.37542 0.28478
# Poissons Ratio (y) = 0.45079 0.22597
# Poissons Ratio (z) = 0.40906 0.27031
#
# Static dielectric constant tensor:
#      x y z
#    x 2.799900 0.000000 -0.066710 
#    y 0.000000 3.383900 0.000000 
#    z -0.066710 0.000000 3.002570 
# 
# 
# High freq. dielectric constant tensor:
#      x y z
#    x 1.647550 0.000000 0.034940 
#    y 0.000000 1.655550 0.000000 
#    z 0.034940 0.000000 1.672650 
# 
# From -- ./inp_files/227834.got.cif
#   From: 2010.06.25/outbox.cif.g09.slc.cpg/sg12_114_cif.got.tgz:227834.got - 2010.06.28 00:19:55.
