data_PCOD8080064
_publ_section_title
;
Structure prediction by ZEFSAII (Michael W. Deem and Ramdas Pophale) SiO2 
 PCOD8080064
Probable space group: C 2/M
;
_chemical_formula_sum "Si O2"
_cell_formula_units_Z 64
_cell_length_a 25.067386
_cell_length_b 9.241665
_cell_length_c 17.944386
_cell_angle_alpha 90.000000
_cell_angle_beta 103.419893
_cell_angle_gamma 90.000000
_cell_volume 4043.567674
_symmetry_space_group_name_H-M "C 2/M"
_symmetry_group_IT_number 12
_symmetry_cell_setting 'monoclinic'
loop_
_space_group_symop_operation_xyz
x,y,z
-x,y,-z
-x,-y,-z
x,-y,z
1/2+x,1/2+y,z
1/2-x,1/2+y,-z
1/2-x,1/2-y,-z
1/2+x,1/2-y,z
loop_
_atom_site_type_symbol
_atom_site_label
_atom_site_fract_x
_atom_site_fract_y
_atom_site_fract_z
Si Si1 0.573092 0.330135 0.904709
Si Si2 0.235600 0.831230 0.070619
Si Si3 0.617170 0.329502 0.076004
Si Si4 0.652484 0.831632 0.822179
Si Si5 0.036353 0.671317 0.333958
Si Si6 0.046121 0.828077 0.188507
Si Si7 0.913727 0.671342 0.336890
Si Si8 0.439674 0.828782 0.500297
O O1 0.581046 0.500000 0.895444
O O2 0.621123 0.251534 0.876469
O O3 0.514066 0.277978 0.857287
O O4 0.579313 0.287465 0.993374
O O5 0.178903 0.768679 0.085942
O O6 0.282691 0.804761 0.147663
O O7 0.229733 0.000000 0.048808
O O8 0.250000 0.750000 0.000000
O O9 0.619862 0.500000 0.085220
O O10 0.589472 0.267439 0.141949
O O11 0.633239 0.772127 0.734759
O O12 0.637523 0.000000 0.825306
O O13 0.040479 0.500000 0.321724
O O14 0.061149 0.754650 0.271614
O O15 0.072783 0.721181 0.418625
O O16 0.973236 0.720124 0.325670
O O17 0.049158 0.000000 0.198032
O O18 0.913036 0.500000 0.340388
O O19 0.902249 0.729521 0.418580
O O20 0.500000 0.774197 0.500000
O O21 0.438140 0.000000 0.500570
#
# Coordination Sequence:
#
# PCOD8080064 Si02
#       8
#     8   8   8   8   8   8   8   8
#     4  10  18  29  45  61  81 113 147 173 204 248
#     4  10  19  31  47  64  83 109 142 177 214 249
#     4   9  18  32  45  58  81 115 149 177 201 242
#     4  10  18  27  44  68  88 107 135 175 217 249
#     4   9  15  25  42  62  85 111 137 168 210 251
#     4  10  19  29  43  62  84 113 148 175 202 246
#     4   8  13  23  39  61  88 110 132 167 208 250
#     4   7  11  20  37  59  81 110 139 159 196 255
#
# _framework density 15.827605999999999
#
# number of rings (size 3 to 8) (size 9 to 14) (size 15 to 20)
#    0.000    2.875    2.500    1.875    0.000    1.500 
#    0.000    1.250    0.000    5.625    0.000    0.875 
#    0.000    0.000    0.000    0.000    0.000    0.000 
#
# Total GULP energy -396425.987114 kJ/mol
# GULP energy per Si atom -12388.312097 kJ/mol
# Density = 1.579158 g / cm^3
# Si number density = 15.827606 Si / 1000 Ang^3
#
#
#
# Elastic Constant Matrix: (Units=GPa)
#
#
# Indices 1 2 3 4 5 6 
#
# 1 77.2534 15.3876 59.2211 0.0000 -11.6226 0.0000
# 2 15.3876 18.7241 22.3820 0.0000 -3.0690 0.0000
# 3 59.2211 22.3820 173.1507 0.0000 -13.9289 0.0000
# 4 0.0000 0.0000 0.0000 17.9855 0.0000 -3.6065
# 5 -11.6226 -3.0690 -13.9289 0.0000 19.9927 0.0000
# 6 0.0000 0.0000 0.0000 -3.6065 0.0000 13.9958
#
#
#
# Elastic Compliance Matrix: (Units=1/GPa)
#
#
# Indices 1 2 3 4 5 6 
#
# 1 0.019551 -0.009029 -0.004997 0.000000 0.006499 0.000000
# 2 -0.009029 0.067679 -0.005558 0.000000 0.001268 0.000000
# 3 -0.004997 -0.005558 0.008370 0.000000 0.002073 0.000000
# 4 0.000000 0.000000 0.000000 0.058630 0.000000 0.015108
# 5 0.006499 0.001268 0.002073 0.000000 0.055435 0.000000
# 6 0.000000 0.000000 0.000000 0.015108 0.000000 0.075343
#
#
# Mechanical properties :
#
#
# Convention : Reuss Voigt Hill
#
# Bulk Modulus (GPa) = 17.72063 51.45661 34.58862
# Shear Modulus (GPa) = 14.57781 21.87063 18.22422
#
# Velocity S-wave (km/s) = 3.03815 3.72129 3.39694
# Velocity P-wave (km/s) = 4.85051 7.14460 6.10626
#
# Compressibility (1/GPa) = 0.05643141
#
# Stress axis : x y z
#
# Youngs Moduli (GPa) = 51.14795 14.77559 119.47933
#
# Poissons Ratio (x) = 0.13341 0.59704
# Poissons Ratio (y) = 0.46181 0.66411
# Poissons Ratio (z) = 0.25559 0.08213
#
# Static dielectric constant tensor:
#      x y z
#    x 2.979950 0.000000 0.136860 
#    y 0.000000 2.657820 0.000000 
#    z 0.136860 0.000000 3.664870 
# 
# 
# High freq. dielectric constant tensor:
#      x y z
#    x 1.571790 0.000000 0.005260 
#    y 0.000000 1.569910 0.000000 
#    z 0.005260 0.000000 1.625670 
# 
# From -- ./inp_files/287743.got.cif
#   From: 2010.06.25/outbox.cif.g09.slc.cpg/sg12_144_cif.got.tgz:287743.got - 2010.06.28 00:19:55.
