data_PCOD8080578
_publ_section_title
;
Structure prediction by ZEFSAII (Michael W. Deem and Ramdas Pophale) SiO2 
 PCOD8080578
Probable space group: C 2/M
;
_chemical_formula_sum "Si O2"
_cell_formula_units_Z 40
_cell_length_a 21.102188
_cell_length_b 14.034895
_cell_length_c 15.776741
_cell_angle_alpha 90.000000
_cell_angle_beta 152.567015
_cell_angle_gamma 90.000000
_cell_volume 2152.694319
_symmetry_space_group_name_H-M "C 2/M"
_symmetry_group_IT_number 12
_symmetry_cell_setting 'monoclinic'
loop_
_space_group_symop_operation_xyz
x,y,z
-x,y,-z
-x,-y,-z
x,-y,z
1/2+x,1/2+y,z
1/2-x,1/2+y,-z
1/2-x,1/2-y,-z
1/2+x,1/2-y,z
loop_
_atom_site_type_symbol
_atom_site_label
_atom_site_fract_x
_atom_site_fract_y
_atom_site_fract_z
Si Si1 0.435988 0.107801 0.159750
Si Si2 0.404301 0.886798 0.810431
Si Si3 0.598408 0.103430 0.695958
Si Si4 0.333608 0.308783 0.220897
Si Si5 0.119845 0.888152 0.541609
O O1 0.540449 0.153024 0.214635
O O2 0.488747 0.115365 0.319392
O O3 0.413010 0.000000 0.103402
O O4 0.287378 0.157966 0.983859
O O5 0.245581 0.853771 0.631261
O O6 0.406050 0.000000 0.817159
O O7 0.500000 0.845639 0.000000
O O8 0.500000 0.100608 0.500000
O O9 0.693579 0.195874 0.796244
O O10 0.677737 0.000000 0.794357
O O11 0.483278 0.327775 0.355385
O O12 0.330685 0.367730 0.304151
O O13 0.087228 0.000000 0.493349
#
# Coordination Sequence:
#
# PCOD8080578 Si02
#       5
#     8   8   8   8   8
#     4  10  19  32  54  80 103 131 167 205 250 305
#     4   9  16  28  46  74 109 136 156 191 253 316
#     4  10  21  36  51  71 100 137 179 216 241 279
#     4  11  18  31  51  77 104 128 168 208 254 298
#     4  10  18  28  48  78 111 132 150 199 265 314
#
# _framework density 18.581365999999999
#
# number of rings (size 3 to 8) (size 9 to 14) (size 15 to 20)
#    0.000    2.000    4.000    3.000    0.000    0.000 
#    0.000    1.000    0.000    0.000    0.000    4.200 
#    0.000    1.000    0.000    0.000    0.000    0.000 
#
# Total GULP energy -247768.451386 kJ/mol
# GULP energy per Si atom -12388.422569 kJ/mol
# Density = 1.853907 g / cm^3
# Si number density = 18.581366 Si / 1000 Ang^3
#
#
#
# Elastic Constant Matrix: (Units=GPa)
#
#
# Indices 1 2 3 4 5 6 
#
# 1 116.8904 15.2516 70.2829 0.0000 1.4158 -0.0001
# 2 15.2516 82.5210 21.0321 0.0000 5.2481 -0.0001
# 3 70.2829 21.0321 79.0874 0.0000 7.0185 -0.0001
# 4 0.0000 0.0000 0.0000 6.3452 0.0000 1.3369
# 5 1.4158 5.2481 7.0185 0.0000 31.2864 -0.0001
# 6 -0.0001 -0.0001 -0.0001 1.3369 -0.0001 11.0657
#
#
#
# Elastic Compliance Matrix: (Units=1/GPa)
#
#
# Indices 1 2 3 4 5 6 
#
# 1 0.018669 0.000709 -0.017033 0.000000 0.002857 0.000000
# 2 0.000709 0.013089 -0.003993 0.000000 -0.001332 0.000000
# 3 -0.017033 -0.003993 0.029298 0.000000 -0.005132 0.000000
# 4 0.000000 0.000000 0.000000 0.161715 0.000000 -0.019537
# 5 0.002857 -0.001332 -0.005132 0.000000 0.033208 0.000000
# 6 0.000000 0.000000 0.000000 -0.019537 0.000000 0.092729
#
#
# Mechanical properties :
#
#
# Convention : Reuss Voigt Hill
#
# Bulk Modulus (GPa) = 48.96346 54.62579 51.79463
# Shear Modulus (GPa) = 12.62143 21.20163 16.91153
#
# Velocity S-wave (km/s) = 2.60907 3.38156 3.02012
# Velocity P-wave (km/s) = 5.95688 6.68644 6.33218
#
# Compressibility (1/GPa) = 0.02042339
#
# Stress axis : x y z
#
# Youngs Moduli (GPa) = 53.56332 76.39741 34.13147
#
# Poissons Ratio (x) = -0.05417 0.58137
# Poissons Ratio (y) = -0.03798 0.13628
# Poissons Ratio (z) = 0.91236 0.30504
#
# Static dielectric constant tensor:
#      x y z
#    x 3.644830 0.000000 0.037510 
#    y 0.000000 3.701100 0.000000 
#    z 0.037510 0.000000 3.262170 
# 
# 
# High freq. dielectric constant tensor:
#      x y z
#    x 1.713950 0.000000 -0.012780 
#    y 0.000000 1.710640 0.000000 
#    z -0.012780 0.000000 1.695510 
# 
# From -- ./inp_files/154678.got.cif
#   From: 2010.06.25/outbox.cif.g09.slc.cpg/sg12_78_cif.got.tgz:154678.got - 2010.06.28 00:19:55.
