data_PCOD8080586
_publ_section_title
;
Structure prediction by ZEFSAII (Michael W. Deem and Ramdas Pophale) SiO2 
 PCOD8080586
Probable space group: C 2/M
;
_chemical_formula_sum "Si O2"
_cell_formula_units_Z 48
_cell_length_a 10.153908
_cell_length_b 28.216208
_cell_length_c 8.356337
_cell_angle_alpha 90.000000
_cell_angle_beta 108.575174
_cell_angle_gamma 90.000000
_cell_volume 2269.411917
_symmetry_space_group_name_H-M "C 2/M"
_symmetry_group_IT_number 12
_symmetry_cell_setting 'monoclinic'
loop_
_space_group_symop_operation_xyz
x,y,z
-x,y,-z
-x,-y,-z
x,-y,z
1/2+x,1/2+y,z
1/2-x,1/2+y,-z
1/2-x,1/2-y,-z
1/2+x,1/2-y,z
loop_
_atom_site_type_symbol
_atom_site_label
_atom_site_fract_x
_atom_site_fract_y
_atom_site_fract_z
Si Si1 0.536635 0.399824 0.199937
Si Si2 0.651044 0.752852 0.611609
Si Si3 0.934688 0.598401 0.800113
Si Si4 0.709235 0.336165 0.828731
Si Si5 0.138214 0.500000 0.159709
Si Si6 0.448346 0.500000 0.160949
Si Si7 0.310583 0.853670 0.226045
O O1 0.439540 0.361438 0.249401
O O2 0.510472 0.452153 0.266915
O O3 0.694737 0.382439 0.281144
O O4 0.500000 0.402847 0.000000
O O5 0.500000 0.735984 0.500000
O O6 0.750000 0.750000 0.500000
O O7 0.701305 0.718536 0.774191
O O8 0.647183 0.806127 0.670270
O O9 0.816453 0.638375 0.750511
O O10 0.866688 0.547221 0.731823
O O11 0.054911 0.612370 0.722506
O O12 0.000000 0.595150 0.000000
O O13 0.759351 0.339695 0.030029
O O14 0.279410 0.500000 0.106941
O O15 0.000000 0.500000 0.000000
O O16 0.500000 0.500000 0.000000
#
# Coordination Sequence:
#
# PCOD8080586 Si02
#       7
#     8   8   8   8   4   4   8
#     4   9  18  30  52  81 117 148 183 227 281 332
#     4  12  25  40  59  84 112 147 194 242 293 342
#     4   9  18  30  52  81 117 149 187 225 280 335
#     4  10  19  37  58  82 112 153 188 233 282 339
#     4  10  18  28  48  84 124 153 180 226 287 338
#     4  10  18  28  48  84 124 152 180 228 285 339
#     4  10  21  37  56  84 114 152 190 234 282 339
#
# _framework density 21.150853999999999
#
# number of rings (size 3 to 8) (size 9 to 14) (size 15 to 20)
#    0.000    2.000    1.667    2.500    7.000    0.000 
#    0.000    6.667    0.000    0.000    0.000   23.333 
#    0.000    0.000    0.000    0.000    0.000    0.000 
#
# Total GULP energy -297528.723264 kJ/mol
# GULP energy per Si atom -12397.030136 kJ/mol
# Density = 2.110271 g / cm^3
# Si number density = 21.150854 Si / 1000 Ang^3
#
#
#
# Elastic Constant Matrix: (Units=GPa)
#
#
# Indices 1 2 3 4 5 6 
#
# 1 181.7719 57.7600 22.5878 0.0000 -23.1195 0.0000
# 2 57.7600 152.8496 23.3143 0.0000 -9.7923 0.0000
# 3 22.5878 23.3143 26.8833 0.0000 -6.7683 0.0000
# 4 0.0000 0.0000 0.0000 7.5226 0.0000 -4.5644
# 5 -23.1195 -9.7923 -6.7683 0.0000 18.3074 0.0000
# 6 0.0000 0.0000 0.0000 -4.5644 0.0000 39.6883
#
#
#
# Elastic Compliance Matrix: (Units=1/GPa)
#
#
# Indices 1 2 3 4 5 6 
#
# 1 0.007370 -0.001906 -0.002705 0.000000 0.007288 0.000000
# 2 -0.001906 0.008085 -0.005434 0.000000 -0.000091 0.000000
# 3 -0.002705 -0.005434 0.046962 0.000000 0.011040 0.000000
# 4 0.000000 0.000000 0.000000 0.142905 0.000000 0.016435
# 5 0.007288 -0.000091 0.011040 0.000000 0.067859 0.000000
# 6 0.000000 0.000000 0.000000 0.016435 0.000000 0.027086
#
#
# Mechanical properties :
#
#
# Convention : Reuss Voigt Hill
#
# Bulk Modulus (GPa) = 23.62434 63.20323 43.41378
# Shear Modulus (GPa) = 14.94917 30.29318 22.62118
#
# Velocity S-wave (km/s) = 2.66143 3.78861 3.27389
# Velocity P-wave (km/s) = 4.54291 7.00607 5.90436
#
# Compressibility (1/GPa) = 0.04232923
#
# Stress axis : x y z
#
# Youngs Moduli (GPa) = 135.68556 123.67849 21.29363
#
# Poissons Ratio (x) = 0.23567 0.05760
# Poissons Ratio (y) = 0.25855 0.11571
# Poissons Ratio (z) = 0.36703 0.67204
#
# Static dielectric constant tensor:
#      x y z
#    x 4.211490 0.000000 -0.223860 
#    y 0.000000 4.370320 0.000000 
#    z -0.223860 0.000000 3.304450 
# 
# 
# High freq. dielectric constant tensor:
#      x y z
#    x 1.848960 0.000000 -0.012420 
#    y 0.000000 1.849330 0.000000 
#    z -0.012420 0.000000 1.771510 
# 
# From -- ./inp_files/42259.got.cif
#   From: 2010.06.25/outbox.cif.g09.slc.cpg/sg12_22_cif.got.tgz:42259.got - 2010.06.28 00:19:55.
