data_PCOD8080320
_publ_section_title
;
Structure prediction by ZEFSAII (Michael W. Deem and Ramdas Pophale) SiO2 
 PCOD8080320
Probable space group: C 2/M
;
_chemical_formula_sum "Si O2"
_cell_formula_units_Z 64
_cell_length_a 24.776116
_cell_length_b 14.332260
_cell_length_c 11.768762
_cell_angle_alpha 90.000000
_cell_angle_beta 108.753697
_cell_angle_gamma 90.000000
_cell_volume 3957.191847
_symmetry_space_group_name_H-M "C 2/M"
_symmetry_group_IT_number 12
_symmetry_cell_setting 'monoclinic'
loop_
_space_group_symop_operation_xyz
x,y,z
-x,y,-z
-x,-y,-z
x,-y,z
1/2+x,1/2+y,z
1/2-x,1/2+y,-z
1/2-x,1/2-y,-z
1/2+x,1/2-y,z
loop_
_atom_site_type_symbol
_atom_site_label
_atom_site_fract_x
_atom_site_fract_y
_atom_site_fract_z
Si Si1 0.318487 0.608468 0.313104
Si Si2 0.687164 0.243013 0.507464
Si Si3 0.648156 0.275370 0.245424
Si Si4 0.689896 0.102449 0.151462
Si Si5 0.433880 0.610537 0.951866
Si Si6 0.739362 0.144278 0.959612
Si Si7 0.263861 0.108941 0.294283
Si Si8 0.138650 0.897399 0.892677
O O1 0.332661 0.500000 0.344467
O O2 0.333132 0.667096 0.434403
O O3 0.251964 0.623297 0.244690
O O4 0.353880 0.648930 0.227544
O O5 0.750000 0.250000 0.500000
O O6 0.643142 0.238734 0.372244
O O7 0.688096 0.151025 0.587948
O O8 0.648437 0.183557 0.166261
O O9 0.593348 0.336706 0.174543
O O10 0.703725 0.339322 0.267981
O O11 0.694069 0.101933 0.017459
O O12 0.667947 0.000000 0.175630
O O13 0.422565 0.500000 0.931532
O O14 0.500000 0.634812 0.000000
O O15 0.404943 0.651539 0.048662
O O16 0.799971 0.092462 0.005540
O O17 0.750000 0.250000 0.000000
O O18 0.713413 0.128724 0.817327
O O19 0.256593 0.000000 0.315875
O O20 0.114115 0.000000 0.853960
#
# Coordination Sequence:
#
# PCOD8080320 Si02
#       8
#     8   8   8   8   8   8   8   8
#     4   9  16  28  45  65  95 132 164 193 228 281
#     4  10  20  30  39  64  96 131 169 190 224 280
#     4  11  20  33  45  66  96 132 163 195 240 288
#     4  10  18  28  44  68  98 131 162 193 235 287
#     4  10  20  34  53  75  95 118 157 211 261 298
#     4  11  16  26  44  67 100 130 159 194 234 284
#     4  11  19  28  43  65  96 131 163 192 226 282
#     4   9  16  27  44  67  91 120 158 194 239 289
#
# _framework density 16.173085
#
# number of rings (size 3 to 8) (size 9 to 14) (size 15 to 20)
#    0.000    1.875    5.000    3.000    0.000    3.000 
#    0.000    0.000    0.000    1.125    0.000    3.500 
#    0.000    0.000    0.000    8.750    0.000    0.000 
#
# Total GULP energy -396532.622085 kJ/mol
# GULP energy per Si atom -12391.644440 kJ/mol
# Density = 1.613627 g / cm^3
# Si number density = 16.173085 Si / 1000 Ang^3
#
#
#
# Elastic Constant Matrix: (Units=GPa)
#
#
# Indices 1 2 3 4 5 6 
#
# 1 48.5329 23.7632 45.8286 0.0000 -4.7620 0.0000
# 2 23.7632 98.3102 41.4706 0.0000 -1.0641 0.0000
# 3 45.8286 41.4706 117.1873 0.0000 -16.0763 0.0000
# 4 0.0000 0.0000 0.0000 16.6521 0.0000 -3.6316
# 5 -4.7620 -1.0641 -16.0763 0.0000 19.8738 0.0000
# 6 0.0000 0.0000 0.0000 -3.6316 0.0000 15.3597
#
#
#
# Elastic Compliance Matrix: (Units=1/GPa)
#
#
# Indices 1 2 3 4 5 6 
#
# 1 0.033490 -0.002904 -0.012362 0.000000 -0.002130 0.000000
# 2 -0.002904 0.012384 -0.003657 0.000000 -0.002991 0.000000
# 3 -0.012362 -0.003657 0.016005 0.000000 0.009789 0.000000
# 4 0.000000 0.000000 0.000000 0.063317 0.000000 0.014971
# 5 -0.002130 -0.002991 0.009789 0.000000 0.057565 0.000000
# 6 0.000000 0.000000 0.000000 0.014971 0.000000 0.068645
#
#
# Mechanical properties :
#
#
# Convention : Reuss Voigt Hill
#
# Bulk Modulus (GPa) = 41.60822 54.01724 47.81273
# Shear Modulus (GPa) = 16.82009 20.57498 18.69754
#
# Velocity S-wave (km/s) = 3.22841 3.57062 3.40382
# Velocity P-wave (km/s) = 6.29917 7.10430 6.71382
#
# Compressibility (1/GPa) = 0.02403371
#
# Stress axis : x y z
#
# Youngs Moduli (GPa) = 29.85948 80.74824 62.48108
#
# Poissons Ratio (x) = 0.23446 0.77238
# Poissons Ratio (y) = 0.08670 0.22852
# Poissons Ratio (z) = 0.36912 0.29533
#
# Static dielectric constant tensor:
#      x y z
#    x 2.671010 0.000000 -0.329160 
#    y 0.000000 2.924440 0.000000 
#    z -0.329160 0.000000 3.437460 
# 
# 
# High freq. dielectric constant tensor:
#      x y z
#    x 1.556310 0.000000 -0.038650 
#    y 0.000000 1.626160 0.000000 
#    z -0.038650 0.000000 1.620870 
# 
# From -- ./inp_files/176173.got.cif
#   From: 2010.06.25/outbox.cif.g09.slc.cpg/sg12_89_cif.got.tgz:176173.got - 2010.06.28 00:19:55.
