data_PCOD8080140
_publ_section_title
;
Structure prediction by ZEFSAII (Michael W. Deem and Ramdas Pophale) SiO2 
 PCOD8080140
Probable space group: C 2/M
;
_chemical_formula_sum "Si O2"
_cell_formula_units_Z 56
_cell_length_a 27.026181
_cell_length_b 9.470154
_cell_length_c 17.155270
_cell_angle_alpha 90.000000
_cell_angle_beta 53.581546
_cell_angle_gamma 90.000000
_cell_volume 3533.252690
_symmetry_space_group_name_H-M "C 2/M"
_symmetry_group_IT_number 12
_symmetry_cell_setting 'monoclinic'
loop_
_space_group_symop_operation_xyz
x,y,z
-x,y,-z
-x,-y,-z
x,-y,z
1/2+x,1/2+y,z
1/2-x,1/2+y,-z
1/2-x,1/2-y,-z
1/2+x,1/2-y,z
loop_
_atom_site_type_symbol
_atom_site_label
_atom_site_fract_x
_atom_site_fract_y
_atom_site_fract_z
Si Si1 0.533359 0.165105 0.048200
Si Si2 0.328387 0.162424 0.056762
Si Si3 0.901388 0.662591 0.605493
Si Si4 0.484685 0.337733 0.785918
Si Si5 0.200873 0.836864 0.230838
Si Si6 0.659223 0.340201 0.100812
Si Si7 0.989118 0.336076 0.383931
O O1 0.605402 0.205359 0.970361
O O2 0.524976 0.000000 0.075793
O O3 0.500000 0.207251 0.000000
O O4 0.502144 0.256816 0.145514
O O5 0.274473 0.190341 0.171067
O O6 0.328132 0.000000 0.031800
O O7 0.311474 0.246534 0.994474
O O8 0.885079 0.500000 0.632722
O O9 0.837960 0.749441 0.669872
O O10 0.949749 0.711072 0.626476
O O11 0.930050 0.688481 0.493711
O O12 0.506746 0.500000 0.772256
O O13 0.413674 0.326308 0.832112
O O14 0.521213 0.260028 0.682379
O O15 0.182334 0.784656 0.162095
O O16 0.183967 0.000000 0.258801
O O17 0.680781 0.500000 0.066389
O O18 0.994493 0.500000 0.354497
#
# Coordination Sequence:
#
# PCOD8080140 Si02
#       7
#     8   8   8   8   8   8   8
#     4   9  18  33  50  67  88 115 148 185 225 267
#     4   9  18  29  43  62  84 114 149 182 216 259
#     4   9  18  29  43  62  87 121 157 186 211 248
#     4  10  18  28  45  68  92 117 147 182 222 265
#     4  10  18  28  40  60  90 119 148 180 215 256
#     4   9  17  27  38  58  88 118 146 176 209 253
#     4   9  17  30  44  62  88 119 155 187 213 250
#
# _framework density 15.849418
#
# number of rings (size 3 to 8) (size 9 to 14) (size 15 to 20)
#    0.000    2.714    1.429    1.714    0.000    2.571 
#    0.000    1.429    0.000    0.000    0.000    1.000 
#    0.000    0.000    0.000    0.000    0.000    0.000 
#
# Total GULP energy -347143.031779 kJ/mol
# GULP energy per Si atom -12397.965421 kJ/mol
# Density = 1.581334 g / cm^3
# Si number density = 15.849418 Si / 1000 Ang^3
#
#
#
# Elastic Constant Matrix: (Units=GPa)
#
#
# Indices 1 2 3 4 5 6 
#
# 1 52.4214 27.6273 38.8498 0.0000 5.0083 0.0000
# 2 27.6273 71.0224 59.1047 -0.0001 2.4772 -0.0002
# 3 38.8498 59.1047 104.5178 0.0000 -2.3871 0.0000
# 4 0.0000 -0.0001 0.0000 31.8133 0.0000 -1.8027
# 5 5.0083 2.4772 -2.3871 0.0000 21.9189 0.0000
# 6 0.0000 -0.0002 0.0000 -1.8027 0.0000 15.6596
#
#
#
# Elastic Compliance Matrix: (Units=1/GPa)
#
#
# Indices 1 2 3 4 5 6 
#
# 1 0.027924 -0.003498 -0.008559 0.000000 -0.006917 0.000000
# 2 -0.003498 0.027517 -0.014349 0.000000 -0.003873 0.000000
# 3 -0.008559 -0.014349 0.020998 0.000000 0.005864 0.000000
# 4 0.000000 0.000000 0.000000 0.031640 0.000000 0.003642
# 5 -0.006917 -0.003873 0.005864 0.000000 0.048280 0.000000
# 6 0.000000 0.000000 0.000000 0.003642 0.000000 0.064278
#
#
# Mechanical properties :
#
#
# Convention : Reuss Voigt Hill
#
# Bulk Modulus (GPa) = 42.32650 53.23615 47.78132
# Shear Modulus (GPa) = 17.77304 20.70367 19.23835
#
# Velocity S-wave (km/s) = 3.35232 3.61816 3.48777
# Velocity P-wave (km/s) = 6.46122 7.14957 6.81410
#
# Compressibility (1/GPa) = 0.02362586
#
# Stress axis : x y z
#
# Youngs Moduli (GPa) = 35.81152 36.34084 47.62411
#
# Poissons Ratio (x) = 0.12711 0.40764
# Poissons Ratio (y) = 0.12526 0.68337
# Poissons Ratio (z) = 0.30653 0.52146
#
# Static dielectric constant tensor:
#      x y z
#    x 2.790640 0.000000 -0.131320 
#    y 0.000000 3.038160 0.000000 
#    z -0.131320 0.000000 2.951460 
# 
# 
# High freq. dielectric constant tensor:
#      x y z
#    x 1.569210 0.000000 -0.013460 
#    y 0.000000 1.611580 0.000000 
#    z -0.013460 0.000000 1.601520 
# 
# From -- ./inp_files/243643.got.cif
#   From: 2010.06.25/outbox.cif.g09.slc.cpg/sg12_122_cif.got.tgz:243643.got - 2010.06.28 00:19:55.
