data_PCOD8080430
_publ_section_title
;
Structure prediction by ZEFSAII (Michael W. Deem and Ramdas Pophale) SiO2 
 PCOD8080430
Probable space group: C 2/M
;
_chemical_formula_sum "Si O2"
_cell_formula_units_Z 64
_cell_length_a 30.035951
_cell_length_b 9.111013
_cell_length_c 15.069681
_cell_angle_alpha 90.000000
_cell_angle_beta 77.905859
_cell_angle_gamma 90.000000
_cell_volume 4032.405685
_symmetry_space_group_name_H-M "C 2/M"
_symmetry_group_IT_number 12
_symmetry_cell_setting 'monoclinic'
loop_
_space_group_symop_operation_xyz
x,y,z
-x,y,-z
-x,-y,-z
x,-y,z
1/2+x,1/2+y,z
1/2-x,1/2+y,-z
1/2-x,1/2-y,-z
1/2+x,1/2-y,z
loop_
_atom_site_type_symbol
_atom_site_label
_atom_site_fract_x
_atom_site_fract_y
_atom_site_fract_z
Si Si1 0.400480 0.828045 0.576526
Si Si2 0.626495 0.826223 0.750748
Si Si3 0.459387 0.825672 0.712904
Si Si4 0.203828 0.170271 0.627486
Si Si5 0.195225 0.331132 0.449029
Si Si6 0.565935 0.329205 0.908656
Si Si7 0.059814 0.674319 0.622940
Si Si8 0.466740 0.329648 0.886575
O O1 0.423555 0.763050 0.655490
O O2 0.346444 0.793869 0.599684
O O3 0.423630 0.760550 0.478328
O O4 0.410226 0.000000 0.571739
O O5 0.676451 0.758261 0.714152
O O6 0.606787 0.766555 0.851540
O O7 0.593824 0.770249 0.685192
O O8 0.630515 0.000000 0.753928
O O9 0.509221 0.767987 0.663827
O O10 0.445963 0.761228 0.813910
O O11 0.458027 0.000000 0.720461
O O12 0.190759 0.228467 0.536012
O O13 0.257618 0.196371 0.622523
O O14 0.190942 0.000000 0.638087
O O15 0.191856 0.500000 0.483620
O O16 0.574960 0.500000 0.886456
O O17 0.518462 0.279590 0.883985
O O18 0.564137 0.297757 0.014452
O O19 0.060643 0.500000 0.620312
O O20 0.465671 0.500000 0.862806
#
# Coordination Sequence:
#
# PCOD8080430 Si02
#       8
#     8   8   8   8   8   8   8   8
#     4   9  16  28  46  65  90 123 158 192 221 258
#     4  11  19  29  47  69  93 122 153 188 229 269
#     4  10  18  28  46  69  90 120 160 191 219 260
#     4  10  19  29  45  67  92 120 153 191 232 275
#     4   9  17  31  47  65  89 121 158 193 227 265
#     4   9  18  32  48  65  89 122 154 183 226 277
#     4   9  16  26  41  64  92 121 152 184 216 254
#     4   9  18  32  47  64  91 123 150 185 230 273
#
# _framework density 15.871418999999999
#
# number of rings (size 3 to 8) (size 9 to 14) (size 15 to 20)
#    0.000    2.500    2.500    1.875    0.000    2.500 
#    0.000    1.875    0.000    0.750    0.000    0.875 
#    0.000    0.000    0.000    0.000    0.000    0.000 
#
# Total GULP energy -396759.060596 kJ/mol
# GULP energy per Si atom -12398.720644 kJ/mol
# Density = 1.583529 g / cm^3
# Si number density = 15.871419 Si / 1000 Ang^3
#
#
#
# Elastic Constant Matrix: (Units=GPa)
#
#
# Indices 1 2 3 4 5 6 
#
# 1 95.6617 33.3234 55.1517 0.0000 -8.2126 0.0000
# 2 33.3234 50.7034 39.6182 0.0000 -10.7507 0.0000
# 3 55.1517 39.6182 108.5384 0.0000 -7.0720 0.0000
# 4 0.0000 0.0000 0.0000 25.2582 0.0000 -4.0798
# 5 -8.2126 -10.7507 -7.0720 0.0000 26.2004 0.0000
# 6 0.0000 0.0000 0.0000 -4.0798 0.0000 17.5375
#
#
#
# Elastic Compliance Matrix: (Units=1/GPa)
#
#
# Indices 1 2 3 4 5 6 
#
# 1 0.015943 -0.005556 -0.006002 0.000000 0.001098 0.000000
# 2 -0.005556 0.031654 -0.008142 0.000000 0.009050 0.000000
# 3 -0.006002 -0.008142 0.015161 0.000000 -0.001130 0.000000
# 4 0.000000 0.000000 0.000000 0.041137 0.000000 0.009570
# 5 0.001098 0.009050 -0.001130 0.000000 0.041920 0.000000
# 6 0.000000 0.000000 0.000000 0.009570 0.000000 0.059247
#
#
# Mechanical properties :
#
#
# Convention : Reuss Voigt Hill
#
# Bulk Modulus (GPa) = 42.80753 56.78780 49.79766
# Shear Modulus (GPa) = 19.82178 22.25323 21.03750
#
# Velocity S-wave (km/s) = 3.53781 3.74852 3.64469
# Velocity P-wave (km/s) = 6.61197 7.38869 7.01109
#
# Compressibility (1/GPa) = 0.02336038
#
# Stress axis : x y z
#
# Youngs Moduli (GPa) = 62.72218 31.59122 65.95779
#
# Poissons Ratio (x) = 0.17552 0.39586
# Poissons Ratio (y) = 0.34848 0.53700
# Poissons Ratio (z) = 0.37644 0.25720
#
# Static dielectric constant tensor:
#      x y z
#    x 3.056830 0.000000 -0.067200 
#    y 0.000000 2.801620 0.000000 
#    z -0.067200 0.000000 2.972220 
# 
# 
# High freq. dielectric constant tensor:
#      x y z
#    x 1.595040 0.000000 -0.012350 
#    y 0.000000 1.591680 0.000000 
#    z -0.012350 0.000000 1.596550 
# 
# From -- ./inp_files/248319.got.cif
#   From: 2010.06.25/outbox.cif.g09.slc.cpg/sg12_125_cif.got.tgz:248319.got - 2010.06.28 00:19:55.
