data_PCOD8080752
_publ_section_title
;
Structure prediction by ZEFSAII (Michael W. Deem and Ramdas Pophale) SiO2 
 PCOD8080752
Probable space group: C 2/M
;
_chemical_formula_sum "Si O2"
_cell_formula_units_Z 64
_cell_length_a 31.213887
_cell_length_b 15.008133
_cell_length_c 9.335905
_cell_angle_alpha 90.000000
_cell_angle_beta 73.192101
_cell_angle_gamma 90.000000
_cell_volume 4186.680023
_symmetry_space_group_name_H-M "C 2/M"
_symmetry_group_IT_number 12
_symmetry_cell_setting 'monoclinic'
loop_
_space_group_symop_operation_xyz
x,y,z
-x,y,-z
-x,-y,-z
x,-y,z
1/2+x,1/2+y,z
1/2-x,1/2+y,-z
1/2-x,1/2-y,-z
1/2+x,1/2-y,z
loop_
_atom_site_type_symbol
_atom_site_label
_atom_site_fract_x
_atom_site_fract_y
_atom_site_fract_z
Si Si1 0.770070 0.360067 0.687264
Si Si2 0.508362 0.103714 0.149445
Si Si3 0.337926 0.784832 0.406718
Si Si4 0.580893 0.104243 0.590298
Si Si5 0.703106 0.598429 0.513109
Si Si6 0.590123 0.105933 0.253054
Si Si7 0.185789 0.596604 0.078276
Si Si8 0.271064 0.177924 0.232569
O O1 0.811855 0.346668 0.542857
O O2 0.729073 0.402687 0.639777
O O3 0.786001 0.419577 0.803807
O O4 0.756984 0.265996 0.766064
O O5 0.467358 0.119959 0.295129
O O6 0.552357 0.145700 0.182874
O O7 0.517587 0.000000 0.118108
O O8 0.500000 0.147175 0.000000
O O9 0.387724 0.824654 0.357191
O O10 0.333568 0.678829 0.451551
O O11 0.316782 0.800514 0.271776
O O12 0.578982 0.133350 0.426511
O O13 0.595861 0.000000 0.595023
O O14 0.680577 0.500000 0.516191
O O15 0.739449 0.610319 0.351328
O O16 0.638470 0.145621 0.158350
O O17 0.591204 0.000000 0.244653
O O18 0.174960 0.500000 0.023165
O O19 0.216483 0.646265 0.936084
#
# Coordination Sequence:
#
# PCOD8080752 Si02
#       8
#     8   8   8   8   8   8   8   8
#     4   9  17  31  43  58  84 116 149 182 218 258
#     4   9  18  30  43  61  86 114 141 173 213 254
#     4   9  18  30  44  65  84 113 154 184 214 257
#     4  10  18  29  46  61  86 121 146 173 208 256
#     4   9  17  31  47  61  85 116 150 188 223 257
#     4   9  18  29  40  60  85 114 148 174 202 247
#     4  11  19  26  41  63  87 115 150 181 208 253
#     4   9  19  29  41  60  87 115 144 186 224 252
#
# _framework density 15.286574999999999
#
# number of rings (size 3 to 8) (size 9 to 14) (size 15 to 20)
#    0.000    2.625    1.250    3.000    1.750    4.000 
#    0.000    0.000    0.000    0.000    0.000    0.000 
#    0.000    2.500    0.000    0.000    0.000    0.125 
#
# Total GULP energy -396502.922499 kJ/mol
# GULP energy per Si atom -12390.716328 kJ/mol
# Density = 1.525178 g / cm^3
# Si number density = 15.286575 Si / 1000 Ang^3
#
#
#
# Elastic Constant Matrix: (Units=GPa)
#
#
# Indices 1 2 3 4 5 6 
#
# 1 69.6708 11.8388 20.0911 0.0000 4.2012 0.0000
# 2 11.8388 55.6662 6.6733 0.0000 -1.3073 0.0000
# 3 20.0911 6.6733 73.2690 0.0000 -2.1056 0.0000
# 4 0.0000 0.0000 0.0000 12.2365 0.0000 2.6779
# 5 4.2012 -1.3073 -2.1056 0.0000 19.3479 0.0000
# 6 0.0000 0.0000 0.0000 2.6779 0.0000 14.7356
#
#
#
# Elastic Compliance Matrix: (Units=1/GPa)
#
#
# Indices 1 2 3 4 5 6 
#
# 1 0.016379 -0.003063 -0.004334 0.000000 -0.004235 0.000000
# 2 -0.003063 0.018757 -0.000815 0.000000 0.001844 0.000000
# 3 -0.004334 -0.000815 0.014983 0.000000 0.002517 0.000000
# 4 0.000000 0.000000 0.000000 0.085107 0.000000 -0.015467
# 5 -0.004235 0.001844 0.002517 0.000000 0.053003 0.000000
# 6 0.000000 0.000000 0.000000 -0.015467 0.000000 0.070674
#
#
# Mechanical properties :
#
#
# Convention : Reuss Voigt Hill
#
# Bulk Modulus (GPa) = 29.67910 30.64581 30.16246
# Shear Modulus (GPa) = 17.44838 19.93087 18.68963
#
# Velocity S-wave (km/s) = 3.38215 3.61476 3.50039
# Velocity P-wave (km/s) = 5.89145 6.12479 6.00925
#
# Compressibility (1/GPa) = 0.03369374
#
# Stress axis : x y z
#
# Youngs Moduli (GPa) = 61.05407 53.31416 66.74084
#
# Poissons Ratio (x) = 0.16332 0.28925
# Poissons Ratio (y) = 0.18703 0.05442
# Poissons Ratio (z) = 0.26461 0.04347
#
# Static dielectric constant tensor:
#      x y z
#    x 2.893650 0.000000 0.092160 
#    y 0.000000 2.670390 0.000000 
#    z 0.092160 0.000000 2.951970 
# 
# 
# High freq. dielectric constant tensor:
#      x y z
#    x 1.569720 0.000000 0.007060 
#    y 0.000000 1.545080 0.000000 
#    z 0.007060 0.000000 1.594320 
# 
# From -- ./inp_files/104572.got.cif
#   From: 2010.06.25/outbox.cif.g09.slc.cpg/sg12_53_cif.got.tgz:104572.got - 2010.06.28 00:19:55.
