data_PCOD8080597
_publ_section_title
;
Structure prediction by ZEFSAII (Michael W. Deem and Ramdas Pophale) SiO2 
 PCOD8080597
Probable space group: C 2/M
;
_chemical_formula_sum "Si O2"
_cell_formula_units_Z 56
_cell_length_a 28.548411
_cell_length_b 8.903918
_cell_length_c 14.355306
_cell_angle_alpha 90.000000
_cell_angle_beta 120.046977
_cell_angle_gamma 90.000000
_cell_volume 3158.641965
_symmetry_space_group_name_H-M "C 2/M"
_symmetry_group_IT_number 12
_symmetry_cell_setting 'monoclinic'
loop_
_space_group_symop_operation_xyz
x,y,z
-x,y,-z
-x,-y,-z
x,-y,z
1/2+x,1/2+y,z
1/2-x,1/2+y,-z
1/2-x,1/2-y,-z
1/2+x,1/2-y,z
loop_
_atom_site_type_symbol
_atom_site_label
_atom_site_fract_x
_atom_site_fract_y
_atom_site_fract_z
Si Si1 0.141316 0.330629 0.213688
Si Si2 0.465428 0.174371 0.233597
Si Si3 0.755022 0.176898 0.607006
Si Si4 0.151485 0.174982 0.563143
Si Si5 0.444364 0.322258 0.398133
Si Si6 0.910734 0.666698 0.647114
Si Si7 0.549710 0.821569 0.988467
O O1 0.164291 0.500000 0.224238
O O2 0.189837 0.218992 0.285598
O O3 0.096284 0.327658 0.249435
O O4 0.108164 0.276961 0.089685
O O5 0.434037 0.260468 0.284105
O O6 0.528073 0.203851 0.316263
O O7 0.450630 0.241892 0.117430
O O8 0.450137 0.000000 0.223355
O O9 0.750000 0.250000 0.500000
O O10 0.707303 0.233840 0.627797
O O11 0.751522 0.000000 0.589931
O O12 0.107606 0.231623 0.594543
O O13 0.127492 0.208794 0.437051
O O14 0.164114 0.000000 0.585360
O O15 0.500000 0.259244 0.500000
O O16 0.447266 0.500000 0.397258
O O17 0.894819 0.500000 0.594288
O O18 0.542659 0.000000 0.978597
O O19 0.500000 0.753557 0.000000
#
# Coordination Sequence:
#
# PCOD8080597 Si02
#       7
#     8   8   8   8   8   8   8
#     4  10  19  33  54  79 110 145 179 214 260 315
#     4  10  19  31  52  82 111 144 182 217 258 311
#     4  12  24  37  54  78 109 140 177 220 267 317
#     4  11  22  36  54  75 105 144 182 218 265 320
#     4  10  21  36  52  75 108 145 177 217 274 322
#     4  10  18  28  49  80 111 142 176 214 255 311
#     4   9  16  30  53  81 111 142 176 216 261 311
#
# _framework density 17.729137999999999
#
# number of rings (size 3 to 8) (size 9 to 14) (size 15 to 20)
#    0.000    1.714    4.286    1.714    0.000    1.429 
#    0.000    0.714    0.000    1.714    0.000    0.000 
#    0.000    0.000    0.000    0.000    0.000    0.000 
#
# Total GULP energy -347158.143364 kJ/mol
# GULP energy per Si atom -12398.505120 kJ/mol
# Density = 1.768879 g / cm^3
# Si number density = 17.729138 Si / 1000 Ang^3
#
#
#
# Elastic Constant Matrix: (Units=GPa)
#
#
# Indices 1 2 3 4 5 6 
#
# 1 107.7558 39.2355 46.4929 0.0000 -1.0732 0.0000
# 2 39.2355 58.9401 25.5497 0.0000 4.9011 0.0000
# 3 46.4929 25.5497 104.6207 0.0000 -8.1112 0.0000
# 4 0.0000 0.0000 0.0000 22.3556 0.0000 2.4338
# 5 -1.0732 4.9011 -8.1112 0.0000 21.8244 0.0000
# 6 0.0000 0.0000 0.0000 2.4338 0.0000 20.4872
#
#
#
# Elastic Compliance Matrix: (Units=1/GPa)
#
#
# Indices 1 2 3 4 5 6 
#
# 1 0.013834 -0.007418 -0.004278 0.000000 0.000756 0.000000
# 2 -0.007418 0.023793 -0.003044 0.000000 -0.006839 0.000000
# 3 -0.004278 -0.003044 0.012603 0.000000 0.005157 0.000000
# 4 0.000000 0.000000 0.000000 0.045318 0.000000 -0.005384
# 5 0.000756 -0.006839 0.005157 0.000000 0.049310 0.000000
# 6 0.000000 0.000000 0.000000 -0.005384 0.000000 0.049450
#
#
# Mechanical properties :
#
#
# Convention : Reuss Voigt Hill
#
# Bulk Modulus (GPa) = 48.19292 54.87473 51.53383
# Shear Modulus (GPa) = 21.67273 23.60266 22.63770
#
# Velocity S-wave (km/s) = 3.50013 3.65265 3.57720
# Velocity P-wave (km/s) = 6.60124 6.98627 6.79649
#
# Compressibility (1/GPa) = 0.02074994
#
# Stress axis : x y z
#
# Youngs Moduli (GPa) = 72.28327 42.02968 79.34848
#
# Poissons Ratio (x) = 0.31177 0.33944
# Poissons Ratio (y) = 0.53619 0.24156
# Poissons Ratio (z) = 0.30921 0.12795
#
# Static dielectric constant tensor:
#      x y z
#    x 3.363150 0.000000 -0.032110 
#    y 0.000000 3.072270 0.000000 
#    z -0.032110 0.000000 3.247380 
# 
# 
# High freq. dielectric constant tensor:
#      x y z
#    x 1.680360 0.000000 0.000600 
#    y 0.000000 1.666280 0.000000 
#    z 0.000600 0.000000 1.672850 
# 
# From -- ./inp_files/244277.got.cif
#   From: 2010.06.25/outbox.cif.g09.slc.cpg/sg12_123_cif.got.tgz:244277.got - 2010.06.28 00:19:55.
