data_PCOD8080545
_publ_section_title
;
Structure prediction by ZEFSAII (Michael W. Deem and Ramdas Pophale) SiO2 
 PCOD8080545
Probable space group: C 2/M
;
_chemical_formula_sum "Si O2"
_cell_formula_units_Z 64
_cell_length_a 24.602688
_cell_length_b 9.519596
_cell_length_c 15.351502
_cell_angle_alpha 90.000000
_cell_angle_beta 106.065884
_cell_angle_gamma 90.000000
_cell_volume 3455.016123
_symmetry_space_group_name_H-M "C 2/M"
_symmetry_group_IT_number 12
_symmetry_cell_setting 'monoclinic'
loop_
_space_group_symop_operation_xyz
x,y,z
-x,y,-z
-x,-y,-z
x,-y,z
1/2+x,1/2+y,z
1/2-x,1/2+y,-z
1/2-x,1/2-y,-z
1/2+x,1/2-y,z
loop_
_atom_site_type_symbol
_atom_site_label
_atom_site_fract_x
_atom_site_fract_y
_atom_site_fract_z
Si Si1 0.760708 0.338906 0.147246
Si Si2 0.568050 0.662998 0.362007
Si Si3 0.436630 0.337296 0.299498
Si Si4 0.616922 0.842517 0.871000
Si Si5 0.155265 0.662351 0.068873
Si Si6 0.741368 0.339318 0.686170
Si Si7 0.373481 0.662603 0.440819
Si Si8 0.368479 0.839528 0.745754
O O1 0.743239 0.500000 0.156207
O O2 0.816212 0.327342 0.113591
O O3 0.709744 0.259415 0.076757
O O4 0.774996 0.265594 0.244668
O O5 0.582847 0.500000 0.355667
O O6 0.502121 0.687482 0.348286
O O7 0.600881 0.729561 0.459935
O O8 0.587358 0.741934 0.283858
O O9 0.421987 0.500000 0.279545
O O10 0.420079 0.262033 0.202540
O O11 0.401693 0.272916 0.365712
O O12 0.596425 0.000000 0.839599
O O13 0.609649 0.810150 0.971400
O O14 0.175302 0.500000 0.076805
O O15 0.127712 0.698231 0.150138
O O16 0.737545 0.500000 0.719231
O O17 0.694553 0.314835 0.589903
O O18 0.804937 0.310080 0.680951
O O19 0.390772 0.500000 0.449667
O O20 0.385924 0.000000 0.736964
#
# Coordination Sequence:
#
# PCOD8080545 Si02
#       8
#     8   8   8   8   8   8   8   8
#     4  10  18  28  47  79 112 135 164 210 264 308
#     4  10  21  36  55  78 102 135 179 221 260 304
#     4  10  20  35  56  79 104 136 174 215 261 312
#     4  10  20  33  51  78 108 136 170 214 261 309
#     4   9  19  35  53  73 103 143 179 207 247 312
#     4   9  17  32  54  77 104 141 176 206 252 315
#     4   9  17  33  57  80 103 133 172 215 260 313
#     4   9  19  35  53  74 103 139 178 211 251 309
#
# _framework density 18.523792
#
# number of rings (size 3 to 8) (size 9 to 14) (size 15 to 20)
#    0.000    2.500    1.250    1.875    0.000    5.500 
#    0.000    1.875    0.000    5.250    0.000    0.000 
#    0.000    0.000    0.000    0.000    0.000    0.000 
#
# Total GULP energy -396713.224862 kJ/mol
# GULP energy per Si atom -12397.288277 kJ/mol
# Density = 1.848163 g / cm^3
# Si number density = 18.523792 Si / 1000 Ang^3
#
#
#
# Elastic Constant Matrix: (Units=GPa)
#
#
# Indices 1 2 3 4 5 6 
#
# 1 39.6374 18.0190 12.8622 0.0000 -8.6690 0.0000
# 2 18.0190 62.0751 33.6342 0.0000 -1.0756 0.0000
# 3 12.8622 33.6342 100.6408 0.0000 3.0938 0.0000
# 4 0.0000 0.0000 0.0000 25.0680 0.0000 -0.2206
# 5 -8.6690 -1.0756 3.0938 0.0000 19.8158 0.0000
# 6 0.0000 0.0000 0.0000 -0.2206 0.0000 27.5811
#
#
#
# Elastic Compliance Matrix: (Units=1/GPa)
#
#
# Indices 1 2 3 4 5 6 
#
# 1 0.032664 -0.008230 -0.001859 0.000000 0.014133 0.000000
# 2 -0.008230 0.021833 -0.006200 0.000000 -0.001447 0.000000
# 3 -0.001859 -0.006200 0.012341 0.000000 -0.003076 0.000000
# 4 0.000000 0.000000 0.000000 0.039894 0.000000 0.000319
# 5 0.014133 -0.001447 -0.003076 0.000000 0.057050 0.000000
# 6 0.000000 0.000000 0.000000 0.000319 0.000000 0.036259
#
#
# Mechanical properties :
#
#
# Convention : Reuss Voigt Hill
#
# Bulk Modulus (GPa) = 29.18833 36.82044 33.00439
# Shear Modulus (GPa) = 20.48863 23.68219 22.08541
#
# Velocity S-wave (km/s) = 3.32937 3.57945 3.45668
# Velocity P-wave (km/s) = 5.52911 6.08308 5.81270
#
# Compressibility (1/GPa) = 0.03426026
#
# Stress axis : x y z
#
# Youngs Moduli (GPa) = 30.61472 45.80266 81.03349
#
# Poissons Ratio (x) = 0.37694 0.15061
# Poissons Ratio (y) = 0.25195 0.50243
# Poissons Ratio (z) = 0.05690 0.28399
#
# Static dielectric constant tensor:
#      x y z
#    x 3.185690 0.000000 0.050970 
#    y 0.000000 3.284290 0.000000 
#    z 0.050970 0.000000 3.517270 
# 
# 
# High freq. dielectric constant tensor:
#      x y z
#    x 1.700240 0.000000 0.005510 
#    y 0.000000 1.702040 0.000000 
#    z 0.005510 0.000000 1.722540 
# 
# From -- ./inp_files/244139.got.cif
#   From: 2010.06.25/outbox.cif.g09.slc.cpg/sg12_123_cif.got.tgz:244139.got - 2010.06.28 00:19:55.
