data_PCOD8080154
_publ_section_title
;
Structure prediction by ZEFSAII (Michael W. Deem and Ramdas Pophale) SiO2 
 PCOD8080154
Probable space group: C 2/M
;
_chemical_formula_sum "Si O2"
_cell_formula_units_Z 64
_cell_length_a 27.138429
_cell_length_b 8.917385
_cell_length_c 17.137873
_cell_angle_alpha 90.000000
_cell_angle_beta 101.425766
_cell_angle_gamma 90.000000
_cell_volume 4065.237728
_symmetry_space_group_name_H-M "C 2/M"
_symmetry_group_IT_number 12
_symmetry_cell_setting 'monoclinic'
loop_
_space_group_symop_operation_xyz
x,y,z
-x,y,-z
-x,-y,-z
x,-y,z
1/2+x,1/2+y,z
1/2-x,1/2+y,-z
1/2-x,1/2-y,-z
1/2+x,1/2-y,z
loop_
_atom_site_type_symbol
_atom_site_label
_atom_site_fract_x
_atom_site_fract_y
_atom_site_fract_z
Si Si1 0.676053 0.326827 0.340104
Si Si2 0.057495 0.676613 0.032772
Si Si3 0.803148 0.673478 0.507045
Si Si4 0.126464 0.824654 0.168617
Si Si5 0.810653 0.173658 0.186081
Si Si6 0.205744 0.677457 0.085548
Si Si7 0.636294 0.675647 0.947896
Si Si8 0.212904 0.327004 0.667602
O O1 0.683064 0.500000 0.363000
O O2 0.659974 0.244316 0.415822
O O3 0.631408 0.301190 0.263408
O O4 0.729808 0.265001 0.324181
O O5 0.066201 0.500000 0.045676
O O6 0.073921 0.762363 0.117528
O O7 0.089329 0.733700 0.968274
O O8 0.000000 0.717187 0.000000
O O9 0.797789 0.500000 0.523758
O O10 0.750000 0.750000 0.500000
O O11 0.819639 0.700077 0.422095
O O12 0.169673 0.724662 0.144529
O O13 0.132746 0.000000 0.149179
O O14 0.761043 0.231848 0.126243
O O15 0.858155 0.205024 0.143558
O O16 0.817567 0.250965 0.271721
O O17 0.804604 0.000000 0.201860
O O18 0.202099 0.500000 0.069269
O O19 0.188161 0.767770 0.003417
O O20 0.629166 0.500000 0.963198
O O21 0.216450 0.500000 0.690044
#
# Coordination Sequence:
#
# PCOD8080154 Si02
#       8
#     8   8   8   8   8   8   8   8
#     4   9  17  28  41  61  86 114 149 185 217 253
#     4  10  21  36  51  67  87 110 141 181 225 270
#     4   9  17  27  39  57  81 114 153 187 218 253
#     4  10  18  29  46  67  89 114 148 183 218 261
#     4  10  20  29  40  61  87 116 150 183 212 252
#     4  10  18  28  41  60  86 116 149 179 215 253
#     4  10  20  32  45  63  85 111 146 181 217 260
#     4   9  17  28  40  57  84 118 153 183 215 250
#
# _framework density 15.743236
#
# number of rings (size 3 to 8) (size 9 to 14) (size 15 to 20)
#    0.000    2.375    1.250    4.500    0.000    6.000 
#    0.000    0.000    0.000    0.000    0.000    0.000 
#    0.000    1.000    0.000   11.000    0.000    8.000 
#
# Total GULP energy -396539.784233 kJ/mol
# GULP energy per Si atom -12391.868257 kJ/mol
# Density = 1.570740 g / cm^3
# Si number density = 15.743236 Si / 1000 Ang^3
#
#
#
# Elastic Constant Matrix: (Units=GPa)
#
#
# Indices 1 2 3 4 5 6 
#
# 1 45.3447 16.0369 38.6041 0.0000 6.2051 0.0000
# 2 16.0369 50.9708 45.8192 0.0000 2.6263 0.0000
# 3 38.6041 45.8192 131.8522 0.0000 0.8383 0.0000
# 4 0.0000 0.0000 0.0000 30.9566 0.0000 0.6568
# 5 6.2051 2.6263 0.8383 0.0000 13.7276 0.0000
# 6 0.0000 0.0000 0.0000 0.6568 0.0000 16.7913
#
#
#
# Elastic Compliance Matrix: (Units=1/GPa)
#
#
# Indices 1 2 3 4 5 6 
#
# 1 0.031868 -0.001479 -0.008730 0.000000 -0.013589 0.000000
# 2 -0.001479 0.028928 -0.009592 0.000000 -0.004280 0.000000
# 3 -0.008730 -0.009592 0.013442 0.000000 0.004961 0.000000
# 4 0.000000 0.000000 0.000000 0.032330 0.000000 -0.001265
# 5 -0.013589 -0.004280 0.004961 0.000000 0.079505 0.000000
# 6 0.000000 0.000000 0.000000 -0.001265 0.000000 0.059604
#
#
# Mechanical properties :
#
#
# Convention : Reuss Voigt Hill
#
# Bulk Modulus (GPa) = 28.87196 47.67646 38.27421
# Shear Modulus (GPa) = 16.84496 20.80892 18.82694
#
# Velocity S-wave (km/s) = 3.27460 3.63956 3.46189
# Velocity P-wave (km/s) = 5.71633 6.92902 6.35169
#
# Compressibility (1/GPa) = 0.03463568
#
# Stress axis : x y z
#
# Youngs Moduli (GPa) = 31.37918 34.56891 74.39257
#
# Poissons Ratio (x) = 0.05111 0.64947
# Poissons Ratio (y) = 0.04640 0.71360
# Poissons Ratio (z) = 0.27395 0.33160
#
# Static dielectric constant tensor:
#      x y z
#    x 2.604830 0.000000 0.095440 
#    y 0.000000 3.102140 0.000000 
#    z 0.095440 0.000000 3.371510 
# 
# 
# High freq. dielectric constant tensor:
#      x y z
#    x 1.538840 0.000000 0.001190 
#    y 0.000000 1.617050 0.000000 
#    z 0.001190 0.000000 1.612570 
# 
# From -- ./inp_files/291625.got.cif
#   From: 2010.06.25/outbox.cif.g09.slc.cpg/sg12_146_cif.got.tgz:291625.got - 2010.06.28 00:19:55.
