data_PCOD8080622
_publ_section_title
;
Structure prediction by ZEFSAII (Michael W. Deem and Ramdas Pophale) SiO2 
 PCOD8080622
Probable space group: C 2/M
;
_chemical_formula_sum "Si O2"
_cell_formula_units_Z 40
_cell_length_a 30.750336
_cell_length_b 17.605042
_cell_length_c 5.232966
_cell_angle_alpha 90.000000
_cell_angle_beta 108.323372
_cell_angle_gamma 90.000000
_cell_volume 2689.286655
_symmetry_space_group_name_H-M "C 2/M"
_symmetry_group_IT_number 12
_symmetry_cell_setting 'monoclinic'
loop_
_space_group_symop_operation_xyz
x,y,z
-x,y,-z
-x,-y,-z
x,-y,z
1/2+x,1/2+y,z
1/2-x,1/2+y,-z
1/2-x,1/2-y,-z
1/2+x,1/2-y,z
loop_
_atom_site_type_symbol
_atom_site_label
_atom_site_fract_x
_atom_site_fract_y
_atom_site_fract_z
Si Si1 0.278828 0.089176 0.842856
Si Si2 0.698892 0.332527 0.466369
Si Si3 0.289169 0.829321 0.370927
Si Si4 0.395275 0.590204 0.800045
Si Si5 0.448623 0.590207 0.398473
O O1 0.301177 0.129234 0.129922
O O2 0.283703 0.000000 0.885457
O O3 0.224961 0.112096 0.716688
O O4 0.305900 0.117980 0.639820
O O5 0.685789 0.252406 0.575231
O O6 0.733892 0.315802 0.294522
O O7 0.654490 0.373114 0.275181
O O8 0.389697 0.500000 0.791062
O O9 0.421072 0.619280 0.594528
O O10 0.423696 0.619022 0.096930
O O11 0.500000 0.623893 0.500000
O O12 0.450958 0.500000 0.405190
#
# Coordination Sequence:
#
# PCOD8080622 Si02
#       5
#     8   8   8   8   8
#     4  10  18  29  43  59  78 109 146 178 204 238
#     4   9  20  30  43  60  86 108 145 177 214 247
#     4   9  20  30  43  56  86 115 133 179 219 253
#     4  10  19  27  44  64  78 106 146 183 203 234
#     4   9  18  31  42  57  82 107 134 173 220 253
#
# _framework density 14.873832999999999
#
# number of rings (size 3 to 8) (size 9 to 14) (size 15 to 20)
#    1.200    1.400    0.000    2.400    2.800    2.400 
#    0.000    0.000    0.000    0.000    0.000    0.000 
#    0.000    0.000    0.000    0.000    0.000   70.000 
#
# Total GULP energy -247859.410678 kJ/mol
# GULP energy per Si atom -12392.970534 kJ/mol
# Density = 1.483998 g / cm^3
# Si number density = 14.873833 Si / 1000 Ang^3
#
#
#
# Elastic Constant Matrix: (Units=GPa)
#
#
# Indices 1 2 3 4 5 6 
#
# 1 40.6176 -0.7927 26.0370 0.0000 0.6323 0.0000
# 2 -0.7927 56.3489 22.3347 0.0000 0.9517 0.0000
# 3 26.0370 22.3347 105.1727 0.0000 -16.7307 0.0000
# 4 0.0000 0.0000 0.0000 13.5531 0.0000 -2.2000
# 5 0.6323 0.9517 -16.7307 0.0000 19.9629 0.0000
# 6 0.0000 0.0000 0.0000 -2.2000 0.0000 13.0592
#
#
#
# Elastic Compliance Matrix: (Units=1/GPa)
#
#
# Indices 1 2 3 4 5 6 
#
# 1 0.031526 0.004729 -0.010389 0.000000 -0.009931 0.000000
# 2 0.004729 0.020538 -0.006590 0.000000 -0.006652 0.000000
# 3 -0.010389 -0.006590 0.015671 0.000000 0.013777 0.000000
# 4 0.000000 0.000000 0.000000 0.075858 0.000000 0.012780
# 5 -0.009931 -0.006652 0.013777 0.000000 0.062271 0.000000
# 6 0.000000 0.000000 0.000000 0.012780 0.000000 0.078727
#
#
# Mechanical properties :
#
#
# Convention : Reuss Voigt Hill
#
# Bulk Modulus (GPa) = 23.12956 33.03304 28.08130
# Shear Modulus (GPa) = 15.45579 19.61907 17.53743
#
# Velocity S-wave (km/s) = 3.22705 3.63579 3.43750
# Velocity P-wave (km/s) = 5.42857 6.31524 5.88862
#
# Compressibility (1/GPa) = 0.04323472
#
# Stress axis : x y z
#
# Youngs Moduli (GPa) = 31.71966 48.69113 63.81126
#
# Poissons Ratio (x) = -0.23026 0.66292
# Poissons Ratio (y) = -0.15000 0.42054
# Poissons Ratio (z) = 0.32953 0.32089
#
# Static dielectric constant tensor:
#      x y z
#    x 2.598540 0.000000 -0.141690 
#    y 0.000000 2.634040 0.000000 
#    z -0.141690 0.000000 2.908330 
# 
# 
# High freq. dielectric constant tensor:
#      x y z
#    x 1.529130 0.000000 -0.021470 
#    y 0.000000 1.543130 0.000000 
#    z -0.021470 0.000000 1.576250 
# 
# From -- ./inp_files/28254.got.cif
#   From: 2010.06.25/outbox.cif.g09.slc.cpg/sg12_15_cif.got.tgz:28254.got - 2010.06.28 00:19:55.
