data_PCOD8080269
_publ_section_title
;
Structure prediction by ZEFSAII (Michael W. Deem and Ramdas Pophale) SiO2 
 PCOD8080269
Probable space group: C 2/M
;
_chemical_formula_sum "Si O2"
_cell_formula_units_Z 56
_cell_length_a 26.661126
_cell_length_b 12.683607
_cell_length_c 10.537593
_cell_angle_alpha 90.000000
_cell_angle_beta 103.374903
_cell_angle_gamma 90.000000
_cell_volume 3466.735865
_symmetry_space_group_name_H-M "C 2/M"
_symmetry_group_IT_number 12
_symmetry_cell_setting 'monoclinic'
loop_
_space_group_symop_operation_xyz
x,y,z
-x,y,-z
-x,-y,-z
x,-y,z
1/2+x,1/2+y,z
1/2-x,1/2+y,-z
1/2-x,1/2-y,-z
1/2+x,1/2-y,z
loop_
_atom_site_type_symbol
_atom_site_label
_atom_site_fract_x
_atom_site_fract_y
_atom_site_fract_z
Si Si1 0.611914 0.121413 0.936258
Si Si2 0.674049 0.621258 0.157865
Si Si3 0.194759 0.782108 0.918245
Si Si4 0.606350 0.796689 0.210914
Si Si5 0.690756 0.122449 0.443706
Si Si6 0.999297 0.616488 0.850234
Si Si7 0.266883 0.740867 0.319488
O O1 0.657007 0.182319 0.891626
O O2 0.556297 0.159739 0.847410
O O3 0.619922 0.000000 0.908906
O O4 0.616364 0.135684 0.090222
O O5 0.673725 0.500000 0.198225
O O6 0.623972 0.676533 0.192558
O O7 0.724727 0.677845 0.240406
O O8 0.671798 0.630590 0.002007
O O9 0.201899 0.817849 0.776023
O O10 0.250000 0.750000 0.000000
O O11 0.637996 0.849214 0.342734
O O12 0.545981 0.802129 0.216567
O O13 0.693327 0.192415 0.572430
O O14 0.739947 0.148989 0.384341
O O15 0.692147 0.000000 0.480406
O O16 0.989221 0.500000 0.784119
O O17 0.000000 0.602496 0.000000
#
# Coordination Sequence:
#
# PCOD8080269 Si02
#       7
#     8   8   8   8   8   8   8
#     4   9  16  26  43  65  86 111 143 177 219 266
#     4   9  17  29  44  62  86 115 145 179 218 257
#     4   9  18  29  42  61  83 110 143 178 211 251
#     4   9  16  26  42  65  88 111 143 179 213 254
#     4  10  18  28  44  63  87 116 145 179 214 256
#     4   8  13  23  41  63  86 111 138 174 219 261
#     4   9  19  31  41  62  89 115 147 177 214 258
#
# _framework density 16.153523
#
# number of rings (size 3 to 8) (size 9 to 14) (size 15 to 20)
#    0.000    3.000    0.000    3.429    0.000    3.429 
#    0.000    0.000    0.000   11.571    0.000    3.000 
#    0.000    0.000    0.000   31.000    0.000    0.857 
#
# Total GULP energy -346946.435770 kJ/mol
# GULP energy per Si atom -12390.944135 kJ/mol
# Density = 1.611676 g / cm^3
# Si number density = 16.153523 Si / 1000 Ang^3
#
#
#
# Elastic Constant Matrix: (Units=GPa)
#
#
# Indices 1 2 3 4 5 6 
#
# 1 85.6321 18.9756 18.0208 0.0000 16.3167 0.0000
# 2 18.9756 52.6486 1.7564 0.0000 10.3930 0.0000
# 3 18.0208 1.7564 65.2143 0.0000 5.7550 0.0000
# 4 0.0000 0.0000 0.0000 12.4914 0.0000 4.5262
# 5 16.3167 10.3930 5.7550 0.0000 21.2893 0.0000
# 6 0.0000 0.0000 0.0000 4.5262 0.0000 16.8880
#
#
#
# Elastic Compliance Matrix: (Units=1/GPa)
#
#
# Indices 1 2 3 4 5 6 
#
# 1 0.014801 -0.003497 -0.003222 0.000000 -0.008766 0.000000
# 2 -0.003497 0.021853 0.001109 0.000000 -0.008288 0.000000
# 3 -0.003222 0.001109 0.016416 0.000000 -0.002509 0.000000
# 4 0.000000 0.000000 0.000000 0.088666 0.000000 -0.023763
# 5 -0.008766 -0.008288 -0.002509 0.000000 0.058415 0.000000
# 6 0.000000 0.000000 0.000000 -0.023763 0.000000 0.065582
#
#
# Mechanical properties :
#
#
# Convention : Reuss Voigt Hill
#
# Bulk Modulus (GPa) = 23.89449 31.22229 27.55839
# Shear Modulus (GPa) = 17.18782 21.11654 19.15218
#
# Velocity S-wave (km/s) = 3.26548 3.61950 3.44704
# Velocity P-wave (km/s) = 5.38907 6.06944 5.73935
#
# Compressibility (1/GPa) = 0.04185066
#
# Stress axis : x y z
#
# Youngs Moduli (GPa) = 67.56247 45.75979 60.91599
#
# Poissons Ratio (x) = 0.16001 0.19629
# Poissons Ratio (y) = 0.23624 -0.06756
# Poissons Ratio (z) = 0.21770 -0.05075
#
# Static dielectric constant tensor:
#      x y z
#    x 3.350860 0.000000 0.082400 
#    y 0.000000 2.849040 0.000000 
#    z 0.082400 0.000000 3.114380 
# 
# 
# High freq. dielectric constant tensor:
#      x y z
#    x 1.611030 0.000000 0.010620 
#    y 0.000000 1.595770 0.000000 
#    z 0.010620 0.000000 1.604980 
# 
# From -- ./inp_files/181559.got.cif
#   From: 2010.06.25/outbox.cif.g09.slc.cpg/sg12_91_cif.got.tgz:181559.got - 2010.06.28 00:19:55.
