data_PCOD8080344
_publ_section_title
;
Structure prediction by ZEFSAII (Michael W. Deem and Ramdas Pophale) SiO2 
 PCOD8080344
Probable space group: C 2/M
;
_chemical_formula_sum "Si O2"
_cell_formula_units_Z 56
_cell_length_a 20.019021
_cell_length_b 9.083361
_cell_length_c 23.284507
_cell_angle_alpha 90.000000
_cell_angle_beta 50.375517
_cell_angle_gamma 90.000000
_cell_volume 3261.241604
_symmetry_space_group_name_H-M "C 2/M"
_symmetry_group_IT_number 12
_symmetry_cell_setting 'monoclinic'
loop_
_space_group_symop_operation_xyz
x,y,z
-x,y,-z
-x,-y,-z
x,-y,z
1/2+x,1/2+y,z
1/2-x,1/2+y,-z
1/2-x,1/2-y,-z
1/2+x,1/2-y,z
loop_
_atom_site_type_symbol
_atom_site_label
_atom_site_fract_x
_atom_site_fract_y
_atom_site_fract_z
Si Si1 0.615693 0.675223 0.773916
Si Si2 0.572554 0.838067 0.508508
Si Si3 0.340911 0.673453 0.942494
Si Si4 0.810114 0.325251 0.654637
Si Si5 0.993525 0.174759 0.939919
Si Si6 0.966282 0.174526 0.775061
Si Si7 0.452615 0.674606 0.653164
O O1 0.617782 0.500000 0.771176
O O2 0.712897 0.736980 0.714736
O O3 0.574267 0.730246 0.856849
O O4 0.555758 0.733997 0.754378
O O5 0.500000 0.848655 0.500000
O O6 0.659540 0.786372 0.427274
O O7 0.542866 0.723422 0.573465
O O8 0.585787 0.000000 0.529194
O O9 0.326571 0.500000 0.951042
O O10 0.403181 0.723389 0.960552
O O11 0.384454 0.724557 0.858586
O O12 0.250000 0.750000 0.000000
O O13 0.817130 0.500000 0.661347
O O14 0.869227 0.245632 0.669235
O O15 0.997196 0.000000 0.941333
O O16 0.000000 0.244860 0.000000
O O17 0.955397 0.234921 0.716728
O O18 0.970571 0.000000 0.771934
O O19 0.445183 0.500000 0.653649
#
# Coordination Sequence:
#
# PCOD8080344 Si02
#       7
#     8   8   8   8   8   8   8
#     4   8  14  27  45  61  83 117 149 174 209 261
#     4   8  15  28  43  62  89 115 141 178 222 259
#     4   9  17  30  47  66  90 117 144 178 218 259
#     4   9  17  29  47  68  87 111 145 185 223 256
#     4   8  14  25  43  67  89 109 141 184 218 245
#     4   8  16  30  45  63  89 120 148 174 212 261
#     4  10  18  28  45  66  88 116 148 179 212 258
#
# _framework density 17.171374
#
# number of rings (size 3 to 8) (size 9 to 14) (size 15 to 20)
#    0.000    3.429    0.000    3.000    0.000    3.714 
#    0.000    3.571    0.000    5.571    0.000    0.000 
#    0.000    0.000    0.000    0.000    0.000    0.000 
#
# Total GULP energy -346969.417229 kJ/mol
# GULP energy per Si atom -12391.764901 kJ/mol
# Density = 1.713229 g / cm^3
# Si number density = 17.171374 Si / 1000 Ang^3
#
#
#
# Elastic Constant Matrix: (Units=GPa)
#
#
# Indices 1 2 3 4 5 6 
#
# 1 109.9996 30.6501 103.5100 0.0000 -1.5266 0.0003
# 2 30.6501 31.4735 35.6483 -0.0001 1.8071 0.0008
# 3 103.5100 35.6483 169.0425 0.0000 -5.5924 0.0000
# 4 0.0000 -0.0001 0.0000 21.4806 0.0000 -2.9171
# 5 -1.5266 1.8071 -5.5924 0.0000 35.7732 0.0000
# 6 0.0003 0.0008 0.0000 -2.9171 0.0000 14.9041
#
#
#
# Elastic Compliance Matrix: (Units=1/GPa)
#
#
# Indices 1 2 3 4 5 6 
#
# 1 0.023068 -0.008429 -0.012365 0.000000 -0.000523 0.000000
# 2 -0.008429 0.045265 -0.004495 0.000000 -0.003349 -0.000002
# 3 -0.012365 -0.004495 0.014500 0.000000 0.001966 0.000001
# 4 0.000000 0.000000 0.000000 0.047825 0.000000 0.009360
# 5 -0.000523 -0.003349 0.001966 0.000000 0.028408 0.000000
# 6 0.000000 -0.000002 0.000001 0.009360 0.000000 0.068928
#
#
# Mechanical properties :
#
#
# Convention : Reuss Voigt Hill
#
# Bulk Modulus (GPa) = 31.00324 72.23695 51.62009
# Shear Modulus (GPa) = 17.28172 23.81204 20.54688
#
# Velocity S-wave (km/s) = 3.17586 3.72792 3.46291
# Velocity P-wave (km/s) = 5.61627 7.79034 6.79087
#
# Compressibility (1/GPa) = 0.03225469
#
# Stress axis : x y z
#
# Youngs Moduli (GPa) = 43.35060 22.09211 68.96568
#
# Poissons Ratio (x) = 0.18622 0.85275
# Poissons Ratio (y) = 0.36542 0.30999
# Poissons Ratio (z) = 0.53602 0.09930
#
# Static dielectric constant tensor:
#      x y z
#    x 3.289380 0.000000 0.037090 
#    y 0.000000 2.777950 0.000000 
#    z 0.037090 0.000000 3.793190 
# 
# 
# High freq. dielectric constant tensor:
#      x y z
#    x 1.648190 0.000000 -0.001530 
#    y 0.000000 1.618050 0.000000 
#    z -0.001530 0.000000 1.676940 
# 
# From -- ./inp_files/348462.got.cif
#   From: 2010.06.25/outbox.cif.g09.slc.cpg/sg12_175_cif.got.tgz:348462.got - 2010.06.28 00:19:55.
