data_PCOD8080216
_publ_section_title
;
Structure prediction by ZEFSAII (Michael W. Deem and Ramdas Pophale) SiO2 
 PCOD8080216
Probable space group: C 2/M
;
_chemical_formula_sum "Si O2"
_cell_formula_units_Z 56
_cell_length_a 31.974764
_cell_length_b 9.171168
_cell_length_c 13.539475
_cell_angle_alpha 90.000000
_cell_angle_beta 115.615348
_cell_angle_gamma 90.000000
_cell_volume 3580.172550
_symmetry_space_group_name_H-M "C 2/M"
_symmetry_group_IT_number 12
_symmetry_cell_setting 'monoclinic'
loop_
_space_group_symop_operation_xyz
x,y,z
-x,y,-z
-x,-y,-z
x,-y,z
1/2+x,1/2+y,z
1/2-x,1/2+y,-z
1/2-x,1/2-y,-z
1/2+x,1/2-y,z
loop_
_atom_site_type_symbol
_atom_site_label
_atom_site_fract_x
_atom_site_fract_y
_atom_site_fract_z
Si Si1 0.816682 0.170330 0.519585
Si Si2 0.277684 0.667641 0.894311
Si Si3 0.996632 0.335349 0.379338
Si Si4 0.320658 0.168874 0.111298
Si Si5 0.905712 0.170371 0.296996
Si Si6 0.735471 0.330342 0.339745
Si Si7 0.413414 0.668892 0.534970
O O1 0.783503 0.247943 0.407204
O O2 0.802668 0.213298 0.616999
O O3 0.869512 0.219158 0.555374
O O4 0.811276 0.000000 0.494018
O O5 0.291557 0.500000 0.928294
O O6 0.224146 0.693733 0.866590
O O7 0.284945 0.712001 0.787648
O O8 0.310937 0.771323 0.991573
O O9 0.992596 0.500000 0.335097
O O10 0.042854 0.261742 0.382282
O O11 0.000000 0.332075 0.500000
O O12 0.951894 0.244178 0.299447
O O13 0.361833 0.259329 0.200441
O O14 0.334607 0.000000 0.118684
O O15 0.901697 0.200473 0.409186
O O16 0.907510 0.000000 0.274518
O O17 0.747555 0.500000 0.356419
O O18 0.425641 0.500000 0.563201
#
# Coordination Sequence:
#
# PCOD8080216 Si02
#       7
#     8   8   8   8   8   8   8
#     4   9  17  28  43  64  88 114 144 175 208 248
#     4   9  18  31  44  60  85 115 145 177 212 249
#     4   9  17  28  42  61  85 112 142 175 209 247
#     4  10  19  29  43  63  85 111 145 180 212 249
#     4  10  18  28  43  62  87 116 142 171 209 253
#     4   9  17  29  44  62  86 115 145 177 210 246
#     4   9  17  28  42  62  88 116 143 171 207 251
#
# _framework density 15.641704000000001
#
# number of rings (size 3 to 8) (size 9 to 14) (size 15 to 20)
#    0.000    2.714    0.000    2.143    0.000    4.000 
#    0.000    0.000    0.000    0.000    0.000    1.000 
#    0.000    8.000    0.000    0.000    0.000    0.000 
#
# Total GULP energy -347218.439973 kJ/mol
# GULP energy per Si atom -12400.658570 kJ/mol
# Density = 1.560610 g / cm^3
# Si number density = 15.641704 Si / 1000 Ang^3
#
#
#
# Elastic Constant Matrix: (Units=GPa)
#
#
# Indices 1 2 3 4 5 6 
#
# 1 91.6946 47.6234 37.5871 0.0000 9.5701 0.0000
# 2 47.6234 87.0918 46.2333 0.0000 12.4708 0.0000
# 3 37.5871 46.2333 69.3796 0.0000 6.1945 0.0000
# 4 0.0000 0.0000 0.0000 27.6125 0.0000 8.0957
# 5 9.5701 12.4708 6.1945 0.0000 22.2360 0.0000
# 6 0.0000 0.0000 0.0000 8.0957 0.0000 24.8141
#
#
#
# Elastic Compliance Matrix: (Units=1/GPa)
#
#
# Indices 1 2 3 4 5 6 
#
# 1 0.016162 -0.006147 -0.004457 0.000000 -0.002267 0.000000
# 2 -0.006147 0.021180 -0.010213 0.000000 -0.006388 0.000000
# 3 -0.004457 -0.010213 0.023537 0.000000 0.001090 0.000000
# 4 0.000000 0.000000 0.000000 0.040046 0.000000 -0.013065
# 5 -0.002267 -0.006388 0.001090 0.000000 0.049227 0.000000
# 6 0.000000 0.000000 0.000000 -0.013065 0.000000 0.044562
#
#
# Mechanical properties :
#
#
# Convention : Reuss Voigt Hill
#
# Bulk Modulus (GPa) = 51.96539 56.78373 54.37456
# Shear Modulus (GPa) = 20.59613 22.71399 21.65506
#
# Velocity S-wave (km/s) = 3.63263 3.81483 3.72485
# Velocity P-wave (km/s) = 7.13366 7.46897 7.30324
#
# Compressibility (1/GPa) = 0.01924358
#
# Stress axis : x y z
#
# Youngs Moduli (GPa) = 61.87357 47.21450 42.48615
#
# Poissons Ratio (x) = 0.29022 0.18938
# Poissons Ratio (y) = 0.38033 0.43393
# Poissons Ratio (z) = 0.27579 0.48222
#
# Static dielectric constant tensor:
#      x y z
#    x 3.050270 0.000000 0.016310 
#    y 0.000000 3.091190 0.000000 
#    z 0.016310 0.000000 2.811330 
# 
# 
# High freq. dielectric constant tensor:
#      x y z
#    x 1.590470 0.000000 0.010670 
#    y 0.000000 1.610190 0.000000 
#    z 0.010670 0.000000 1.574110 
# 
# From -- ./inp_files/243012.got.cif
#   From: 2010.06.25/outbox.cif.g09.slc.cpg/sg12_122_cif.got.tgz:243012.got - 2010.06.28 00:19:55.
