data_PCOD8080382
_publ_section_title
;
Structure prediction by ZEFSAII (Michael W. Deem and Ramdas Pophale) SiO2 
 PCOD8080382
Probable space group: C 2/M
;
_chemical_formula_sum "Si O2"
_cell_formula_units_Z 64
_cell_length_a 28.611943
_cell_length_b 8.784883
_cell_length_c 21.198457
_cell_angle_alpha 90.000000
_cell_angle_beta 47.619380
_cell_angle_gamma 90.000000
_cell_volume 3935.916803
_symmetry_space_group_name_H-M "C 2/M"
_symmetry_group_IT_number 12
_symmetry_cell_setting 'monoclinic'
loop_
_space_group_symop_operation_xyz
x,y,z
-x,y,-z
-x,-y,-z
x,-y,z
1/2+x,1/2+y,z
1/2-x,1/2+y,-z
1/2-x,1/2-y,-z
1/2+x,1/2-y,z
loop_
_atom_site_type_symbol
_atom_site_label
_atom_site_fract_x
_atom_site_fract_y
_atom_site_fract_z
Si Si1 0.361504 0.679070 0.176574
Si Si2 0.592797 0.180398 0.405653
Si Si3 0.994619 0.179928 0.410492
Si Si4 0.941753 0.332102 0.005607
Si Si5 0.200139 0.679889 0.498283
Si Si6 0.960634 0.679843 0.179510
Si Si7 0.775517 0.319942 0.663483
Si Si8 0.441442 0.179276 0.339732
O O1 0.363362 0.500000 0.180439
O O2 0.402076 0.744361 0.197090
O O3 0.290003 0.742633 0.248028
O O4 0.387536 0.724831 0.083707
O O5 0.558255 0.232211 0.501076
O O6 0.563729 0.267640 0.371977
O O7 0.666442 0.227417 0.343908
O O8 0.583754 0.000000 0.406203
O O9 0.987523 0.228693 0.344396
O O10 0.986997 0.000000 0.425885
O O11 0.912276 0.500000 0.023020
O O12 0.971612 0.269657 0.912668
O O13 0.000000 0.340438 0.000000
O O14 0.207102 0.500000 0.493893
O O15 0.250000 0.750000 0.500000
O O16 0.213649 0.746779 0.416416
O O17 0.130373 0.730141 0.582910
O O18 0.951782 0.500000 0.179500
O O19 0.960702 0.729689 0.251940
O O20 0.773384 0.500000 0.659619
O O21 0.450741 0.000000 0.342109
#
# Coordination Sequence:
#
# PCOD8080382 Si02
#       8
#     8   8   8   8   8   8   8   8
#     4  10  18  28  45  69  96 123 154 191 232 273
#     4  10  18  34  54  66  86 124 160 189 230 279
#     4  11  21  32  47  72  97 114 147 200 243 270
#     4   8  15  29  45  63  90 121 154 194 232 266
#     4  10  19  31  44  62  90 123 157 187 218 262
#     4   9  18  31  47  67  92 123 161 196 223 267
#     4   9  18  31  46  66  92 121 155 191 222 266
#     4  10  19  33  50  66  88 126 164 186 222 282
#
# _framework density 16.260507
#
# number of rings (size 3 to 8) (size 9 to 14) (size 15 to 20)
#    0.000    2.375    1.250    4.125    0.000    3.250 
#    0.000    3.125    0.000    0.000    0.000    0.875 
#    0.000    0.000    0.000    0.000    0.000    0.000 
#
# Total GULP energy -396707.506961 kJ/mol
# GULP energy per Si atom -12397.109593 kJ/mol
# Density = 1.622350 g / cm^3
# Si number density = 16.260507 Si / 1000 Ang^3
#
#
#
# Elastic Constant Matrix: (Units=GPa)
#
#
# Indices 1 2 3 4 5 6 
#
# 1 112.7282 31.4221 67.6001 0.0041 0.6945 -0.0020
# 2 31.4221 43.5528 27.5353 0.0155 -0.0182 -0.0097
# 3 67.6001 27.5353 134.5532 -0.0025 1.9676 -0.0007
# 4 0.0041 0.0155 -0.0025 18.0210 -0.0027 2.8977
# 5 0.6945 -0.0182 1.9676 -0.0027 15.1626 -0.0003
# 6 -0.0020 -0.0097 -0.0007 2.8977 -0.0003 21.4025
#
#
#
# Elastic Compliance Matrix: (Units=1/GPa)
#
#
# Indices 1 2 3 4 5 6 
#
# 1 0.014163 -0.006568 -0.005773 0.000002 0.000093 -0.000002
# 2 -0.006568 0.029427 -0.002732 -0.000027 0.000691 0.000016
# 3 -0.005773 -0.002732 0.010908 0.000005 -0.001154 -0.000002
# 4 0.000002 -0.000027 0.000005 0.056726 0.000009 -0.007680
# 5 0.000093 0.000691 -0.001154 0.000009 0.066098 0.000000
# 6 -0.000002 0.000016 -0.000002 -0.007680 0.000000 0.047763
#
#
# Mechanical properties :
#
#
# Convention : Reuss Voigt Hill
#
# Bulk Modulus (GPa) = 41.06467 60.43879 50.75173
# Shear Modulus (GPa) = 18.98615 21.86898 20.42756
#
# Velocity S-wave (km/s) = 3.42076 3.67129 3.54823
# Velocity P-wave (km/s) = 6.39618 7.43107 6.93297
#
# Compressibility (1/GPa) = 0.02435184
#
# Stress axis : x y z
#
# Youngs Moduli (GPa) = 70.60660 33.98210 91.67390
#
# Poissons Ratio (x) = 0.22321 0.52921
# Poissons Ratio (y) = 0.46378 0.25046
# Poissons Ratio (z) = 0.40759 0.09284
#
# Static dielectric constant tensor:
#      x y z
#    x 3.065830 -0.000010 -0.000940 
#    y -0.000010 2.957850 0.000000 
#    z -0.000940 0.000000 3.423750 
# 
# 
# High freq. dielectric constant tensor:
#      x y z
#    x 1.607770 0.000000 0.000620 
#    y 0.000000 1.618150 0.000000 
#    z 0.000620 0.000000 1.617690 
# 
# From -- ./inp_files/326857.got.cif
#   From: 2010.06.25/outbox.cif.g09.slc.cpg/sg12_164_cif.got.tgz:326857.got - 2010.06.28 00:19:55.
