data_PCOD8080869
_publ_section_title
;
Structure prediction by ZEFSAII (Michael W. Deem and Ramdas Pophale) SiO2 
 PCOD8080869
Probable space group: C 2/M
;
_chemical_formula_sum "Si O2"
_cell_formula_units_Z 64
_cell_length_a 24.998226
_cell_length_b 9.110122
_cell_length_c 23.728789
_cell_angle_alpha 90.000000
_cell_angle_beta 45.888177
_cell_angle_gamma 90.000000
_cell_volume 3879.921383
_symmetry_space_group_name_H-M "C 2/M"
_symmetry_group_IT_number 12
_symmetry_cell_setting 'monoclinic'
loop_
_space_group_symop_operation_xyz
x,y,z
-x,y,-z
-x,-y,-z
x,-y,z
1/2+x,1/2+y,z
1/2-x,1/2+y,-z
1/2-x,1/2-y,-z
1/2+x,1/2-y,z
loop_
_atom_site_type_symbol
_atom_site_label
_atom_site_fract_x
_atom_site_fract_y
_atom_site_fract_z
Si Si1 0.900173 0.827986 0.429305
Si Si2 0.524488 0.672239 0.422085
Si Si3 0.811030 0.171209 0.680117
Si Si4 0.661022 0.169975 0.848351
Si Si5 0.063036 0.834201 0.000911
Si Si6 0.779021 0.326421 0.588017
Si Si7 0.109455 0.829686 0.692598
Si Si8 0.539513 0.828211 0.844588
O O1 0.826937 0.742204 0.502550
O O2 0.914816 0.795874 0.353235
O O3 0.972099 0.766662 0.410629
O O4 0.886081 0.000000 0.450106
O O5 0.500000 0.742239 0.500000
O O6 0.511615 0.500000 0.434641
O O7 0.610984 0.708711 0.346300
O O8 0.745467 0.213547 0.771301
O O9 0.806929 0.264948 0.626772
O O10 0.805875 0.000000 0.666936
O O11 0.610142 0.209800 0.832019
O O12 0.652480 0.000000 0.870134
O O13 0.637510 0.261595 0.920667
O O14 0.035256 0.745334 0.075791
O O15 0.081159 0.000000 0.005676
O O16 0.000000 0.826887 0.000000
O O17 0.788824 0.500000 0.580031
O O18 0.694113 0.279053 0.640139
O O19 0.054721 0.736211 0.771913
O O20 0.099897 0.000000 0.715067
O O21 0.525097 0.000000 0.850686
#
# Coordination Sequence:
#
# PCOD8080869 Si02
#       8
#     8   8   8   8   8   8   8   8
#     4  10  20  35  51  66  89 125 165 202 236 278
#     4   9  16  29  52  72  87 116 163 205 236 276
#     4  10  18  31  50  71  93 124 160 196 236 279
#     4   9  17  28  44  68  95 122 155 191 229 277
#     4   9  17  28  44  66  96 129 155 184 226 278
#     4  11  21  31  45  68  96 125 157 196 238 282
#     4  10  21  33  46  67  96 127 160 195 235 283
#     4  10  18  29  47  69  95 126 157 189 229 279
#
# _framework density 16.495179
#
# number of rings (size 3 to 8) (size 9 to 14) (size 15 to 20)
#    0.000    2.250    2.500    1.500    0.000    3.500 
#    0.000    1.250    0.000    0.000    0.000    0.875 
#    0.000    0.000    0.000    0.000    0.000    0.000 
#
# Total GULP energy -396825.231844 kJ/mol
# GULP energy per Si atom -12400.788495 kJ/mol
# Density = 1.645764 g / cm^3
# Si number density = 16.495179 Si / 1000 Ang^3
#
#
#
# Elastic Constant Matrix: (Units=GPa)
#
#
# Indices 1 2 3 4 5 6 
#
# 1 60.2243 20.7031 42.0928 0.0000 7.6606 -0.0004
# 2 20.7031 65.6227 57.4308 0.0008 4.6951 -0.0001
# 3 42.0928 57.4308 144.0402 0.0001 -1.6929 -0.0001
# 4 0.0000 0.0008 0.0001 33.3506 -0.0001 1.8609
# 5 7.6606 4.6951 -1.6929 -0.0001 18.7642 0.0000
# 6 -0.0004 -0.0001 -0.0001 1.8609 0.0000 11.8915
#
#
#
# Elastic Compliance Matrix: (Units=1/GPa)
#
#
# Indices 1 2 3 4 5 6 
#
# 1 0.022566 -0.000868 -0.006361 0.000000 -0.009570 0.000001
# 2 -0.000868 0.024314 -0.009518 -0.000001 -0.006588 0.000000
# 3 -0.006361 -0.009518 0.012668 0.000000 0.006121 0.000000
# 4 0.000000 -0.000001 0.000000 0.030249 0.000000 -0.004734
# 5 -0.009570 -0.006588 0.006121 0.000000 0.059400 -0.000001
# 6 0.000001 0.000000 0.000000 -0.004734 -0.000001 0.084835
#
#
# Mechanical properties :
#
#
# Convention : Reuss Voigt Hill
#
# Bulk Modulus (GPa) = 38.38111 56.70450 47.54281
# Shear Modulus (GPa) = 18.10218 22.77862 20.44040
#
# Velocity S-wave (km/s) = 3.31633 3.72011 3.52401
# Velocity P-wave (km/s) = 6.16301 7.27347 6.74114
#
# Compressibility (1/GPa) = 0.02605448
#
# Stress axis : x y z
#
# Youngs Moduli (GPa) = 44.31435 41.12930 78.93748
#
# Poissons Ratio (x) = 0.03569 0.50212
# Poissons Ratio (y) = 0.03845 0.75133
# Poissons Ratio (z) = 0.28188 0.39147
#
# Static dielectric constant tensor:
#      x y z
#    x 2.968200 0.000000 -0.082800 
#    y 0.000000 3.031710 0.000000 
#    z -0.082800 0.000000 3.187610 
# 
# 
# High freq. dielectric constant tensor:
#      x y z
#    x 1.598580 0.000000 -0.006350 
#    y 0.000000 1.627930 0.000000 
#    z -0.006350 0.000000 1.640790 
# 
# From -- ./inp_files/324153.got.cif
#   From: 2010.06.25/outbox.cif.g09.slc.cpg/sg12_163_cif.got.tgz:324153.got - 2010.06.28 00:19:55.
