data_PCOD8080375
_publ_section_title
;
Structure prediction by ZEFSAII (Michael W. Deem and Ramdas Pophale) SiO2 
 PCOD8080375
Probable space group: C 2/M
;
_chemical_formula_sum "Si O2"
_cell_formula_units_Z 64
_cell_length_a 28.376371
_cell_length_b 8.770616
_cell_length_c 14.637713
_cell_angle_alpha 90.000000
_cell_angle_beta 94.067809
_cell_angle_gamma 90.000000
_cell_volume 3633.830964
_symmetry_space_group_name_H-M "C 2/M"
_symmetry_group_IT_number 12
_symmetry_cell_setting 'monoclinic'
loop_
_space_group_symop_operation_xyz
x,y,z
-x,y,-z
-x,-y,-z
x,-y,z
1/2+x,1/2+y,z
1/2-x,1/2+y,-z
1/2-x,1/2-y,-z
1/2+x,1/2-y,z
loop_
_atom_site_type_symbol
_atom_site_label
_atom_site_fract_x
_atom_site_fract_y
_atom_site_fract_z
Si Si1 0.697237 0.823327 0.726793
Si Si2 0.343952 0.670677 0.511615
Si Si3 0.331211 0.679501 0.775783
Si Si4 0.915547 0.168659 0.687916
Si Si5 0.398504 0.826508 0.360981
Si Si6 0.768123 0.678779 0.613591
Si Si7 0.505264 0.319017 0.603596
Si Si8 0.743150 0.675245 0.095768
O O1 0.640393 0.803775 0.724634
O O2 0.715403 0.732829 0.637877
O O3 0.719835 0.759292 0.823688
O O4 0.711856 0.000000 0.715579
O O5 0.339470 0.500000 0.469748
O O6 0.374828 0.667015 0.606838
O O7 0.372752 0.782484 0.450677
O O8 0.290656 0.731091 0.528814
O O9 0.326612 0.500000 0.747701
O O10 0.386805 0.732501 0.773389
O O11 0.299504 0.782465 0.705934
O O12 0.310640 0.702848 0.875294
O O13 0.962984 0.255304 0.660003
O O14 0.933426 0.000000 0.713681
O O15 0.444373 0.724737 0.346713
O O16 0.415552 0.000000 0.370277
O O17 0.769272 0.500000 0.592567
O O18 0.500000 0.253443 0.500000
O O19 0.500275 0.500000 0.598998
O O20 0.754327 0.500000 0.082636
O O21 0.750000 0.750000 0.000000
#
# Coordination Sequence:
#
# PCOD8080375 Si02
#       8
#     8   8   8   8   8   8   8   8
#     4   9  20  37  49  62  93 131 157 184 235 297
#     4  10  18  31  47  63  89 128 165 196 238 284
#     4   8  15  29  47  68  96 130 157 181 229 291
#     4   8  14  27  47  65  87 124 163 192 224 277
#     4  11  22  33  46  66  91 122 164 207 240 273
#     4  10  18  28  45  69  92 118 159 203 235 269
#     4  10  18  31  48  68  92 124 165 202 241 284
#     4   9  17  31  52  75  97 121 150 186 232 289
#
# _framework density 17.612268
#
# number of rings (size 3 to 8) (size 9 to 14) (size 15 to 20)
#    0.000    2.625    1.250    3.375    0.000    3.750 
#    0.000    0.625    0.000    0.000    0.000    0.875 
#    0.000    7.000    0.000    0.000    0.000    0.000 
#
# Total GULP energy -396419.601052 kJ/mol
# GULP energy per Si atom -12388.112533 kJ/mol
# Density = 1.757218 g / cm^3
# Si number density = 17.612268 Si / 1000 Ang^3
#
#
#
# Elastic Constant Matrix: (Units=GPa)
#
#
# Indices 1 2 3 4 5 6 
#
# 1 153.2917 12.7575 34.2173 0.0000 -17.5764 0.0000
# 2 12.7575 35.1950 7.0884 0.0000 -1.5576 0.0000
# 3 34.2173 7.0884 61.8662 0.0000 -14.6654 0.0000
# 4 0.0000 0.0000 0.0000 21.2549 0.0000 -2.7190
# 5 -17.5764 -1.5576 -14.6654 0.0000 20.7874 0.0000
# 6 0.0000 0.0000 0.0000 -2.7190 0.0000 24.0209
#
#
#
# Elastic Compliance Matrix: (Units=1/GPa)
#
#
# Indices 1 2 3 4 5 6 
#
# 1 0.007881 -0.002041 -0.003100 0.000000 0.004324 0.000000
# 2 -0.002041 0.029614 -0.002578 0.000000 -0.001326 0.000000
# 3 -0.003100 -0.002578 0.021023 0.000000 0.012017 0.000000
# 4 0.000000 0.000000 0.000000 0.047739 0.000000 0.005404
# 5 0.004324 -0.001326 0.012017 0.000000 0.060140 0.000000
# 6 0.000000 0.000000 0.000000 0.005404 0.000000 0.042242
#
#
# Mechanical properties :
#
#
# Convention : Reuss Voigt Hill
#
# Bulk Modulus (GPa) = 23.21372 39.83104 31.52238
# Shear Modulus (GPa) = 20.96988 26.29864 23.63426
#
# Velocity S-wave (km/s) = 3.45431 3.86839 3.66720
# Velocity P-wave (km/s) = 5.39618 6.52818 5.98898
#
# Compressibility (1/GPa) = 0.04307798
#
# Stress axis : x y z
#
# Youngs Moduli (GPa) = 126.88544 33.76833 47.56792
#
# Poissons Ratio (x) = 0.06892 0.14747
# Poissons Ratio (y) = 0.25897 0.12265
# Poissons Ratio (z) = 0.39337 0.08707
#
# Static dielectric constant tensor:
#      x y z
#    x 3.655820 0.000000 -0.176060 
#    y 0.000000 3.126370 0.000000 
#    z -0.176060 0.000000 3.037740 
# 
# 
# High freq. dielectric constant tensor:
#      x y z
#    x 1.693460 0.000000 -0.012620 
#    y 0.000000 1.663950 0.000000 
#    z -0.012620 0.000000 1.632090 
# 
# From -- ./inp_files/244104.got.cif
#   From: 2010.06.25/outbox.cif.g09.slc.cpg/sg12_123_cif.got.tgz:244104.got - 2010.06.28 00:19:55.
