data_PCOD8080283
_publ_section_title
;
Structure prediction by ZEFSAII (Michael W. Deem and Ramdas Pophale) SiO2 
 PCOD8080283
Probable space group: C 2/M
;
_chemical_formula_sum "Si O2"
_cell_formula_units_Z 64
_cell_length_a 29.994599
_cell_length_b 8.943442
_cell_length_c 13.983844
_cell_angle_alpha 90.000000
_cell_angle_beta 88.248154
_cell_angle_gamma 90.000000
_cell_volume 3749.482160
_symmetry_space_group_name_H-M "C 2/M"
_symmetry_group_IT_number 12
_symmetry_cell_setting 'monoclinic'
loop_
_space_group_symop_operation_xyz
x,y,z
-x,y,-z
-x,-y,-z
x,-y,z
1/2+x,1/2+y,z
1/2-x,1/2+y,-z
1/2-x,1/2-y,-z
1/2+x,1/2-y,z
loop_
_atom_site_type_symbol
_atom_site_label
_atom_site_fract_x
_atom_site_fract_y
_atom_site_fract_z
Si Si1 0.660393 0.833509 0.841538
Si Si2 0.368391 0.822547 0.612935
Si Si3 0.388368 0.827615 0.331011
Si Si4 0.738951 0.831029 0.684069
Si Si5 0.298334 0.324789 0.989529
Si Si6 0.827299 0.176117 0.781242
Si Si7 0.684365 0.324847 0.541382
Si Si8 0.548122 0.173173 0.514535
O O1 0.614379 0.799812 0.784257
O O2 0.698541 0.820481 0.760380
O O3 0.668890 0.717200 0.925573
O O4 0.659257 0.000000 0.886363
O O5 0.366896 0.763187 0.722701
O O6 0.325679 0.751574 0.560388
O O7 0.414029 0.763580 0.560082
O O8 0.364961 0.000000 0.609351
O O9 0.356125 0.712402 0.385353
O O10 0.437295 0.802685 0.374808
O O11 0.372951 0.000000 0.353424
O O12 0.781420 0.767967 0.736892
O O13 0.729517 0.737433 0.588083
O O14 0.747404 0.000000 0.650016
O O15 0.289264 0.500000 0.989483
O O16 0.250000 0.250000 0.000000
O O17 0.324650 0.275512 0.892255
O O18 0.835116 0.000000 0.770970
O O19 0.688886 0.500000 0.525332
O O20 0.500000 0.252253 0.500000
O O21 0.543086 0.000000 0.490405
#
# Coordination Sequence:
#
# PCOD8080283 Si02
#       8
#     8   8   8   8   8   8   8   8
#     4   9  16  29  46  66  93 124 157 198 240 275
#     4  10  20  33  48  68  93 122 153 189 232 281
#     4   8  15  28  46  69  98 126 152 187 232 279
#     4   9  17  31  46  61  87 123 160 197 235 272
#     4  11  21  33  48  67  90 122 164 206 243 275
#     4  10  21  35  47  62  89 124 159 198 239 276
#     4  10  18  28  44  65  90 122 158 193 228 271
#     4   8  14  28  52  78  99 120 148 183 228 284
#
# _framework density 17.069023000000001
#
# number of rings (size 3 to 8) (size 9 to 14) (size 15 to 20)
#    0.000    2.625    1.250    3.375    0.000    4.000 
#    0.000    0.000    0.000    9.375    0.000    0.875 
#    0.000    7.000    0.000    0.000    0.000    0.000 
#
# Total GULP energy -396500.984409 kJ/mol
# GULP energy per Si atom -12390.655763 kJ/mol
# Density = 1.703017 g / cm^3
# Si number density = 17.069023 Si / 1000 Ang^3
#
#
#
# Elastic Constant Matrix: (Units=GPa)
#
#
# Indices 1 2 3 4 5 6 
#
# 1 67.5921 14.4613 46.2553 0.0000 17.3678 0.0000
# 2 14.4613 60.8026 42.8216 0.0000 2.4111 0.0000
# 3 46.2553 42.8216 123.8036 0.0000 14.6710 0.0000
# 4 0.0000 0.0000 0.0000 27.3668 0.0000 2.9985
# 5 17.3678 2.4111 14.6710 0.0000 18.6576 0.0000
# 6 0.0000 0.0000 0.0000 2.9985 0.0000 11.1739
#
#
#
# Elastic Compliance Matrix: (Units=1/GPa)
#
#
# Indices 1 2 3 4 5 6 
#
# 1 0.023834 -0.000174 -0.006857 0.000000 -0.016772 0.000000
# 2 -0.000174 0.021945 -0.007949 0.000000 0.003577 0.000000
# 3 -0.006857 -0.007949 0.013796 0.000000 -0.003438 0.000000
# 4 0.000000 0.000000 0.000000 0.037648 0.000000 -0.010102
# 5 -0.016772 0.003577 -0.003438 0.000000 0.071451 0.000000
# 6 0.000000 0.000000 0.000000 -0.010102 0.000000 0.092205
#
#
# Mechanical properties :
#
#
# Convention : Reuss Voigt Hill
#
# Bulk Modulus (GPa) = 33.76804 51.03053 42.39928
# Shear Modulus (GPa) = 16.62732 21.35034 18.98883
#
# Velocity S-wave (km/s) = 3.12448 3.54054 3.33899
# Velocity P-wave (km/s) = 5.73085 6.83193 6.30547
#
# Compressibility (1/GPa) = 0.02961380
#
# Stress axis : x y z
#
# Youngs Moduli (GPa) = 41.95708 45.56938 72.48464
#
# Poissons Ratio (x) = 0.00795 0.49702
# Poissons Ratio (y) = 0.00732 0.57618
# Poissons Ratio (z) = 0.28770 0.36223
#
# Static dielectric constant tensor:
#      x y z
#    x 3.248460 0.000000 0.280780 
#    y 0.000000 3.031850 0.000000 
#    z 0.280780 0.000000 3.383620 
# 
# 
# High freq. dielectric constant tensor:
#      x y z
#    x 1.620360 0.000000 0.019770 
#    y 0.000000 1.645300 0.000000 
#    z 0.019770 0.000000 1.656220 
# 
# From -- ./inp_files/248240.got.cif
#   From: 2010.06.25/outbox.cif.g09.slc.cpg/sg12_125_cif.got.tgz:248240.got - 2010.06.28 00:19:55.
