data_PCOD8080296
_publ_section_title
;
Structure prediction by ZEFSAII (Michael W. Deem and Ramdas Pophale) SiO2 
 PCOD8080296
Probable space group: C 2/M
;
_chemical_formula_sum "Si O2"
_cell_formula_units_Z 64
_cell_length_a 19.317210
_cell_length_b 9.151148
_cell_length_c 23.716062
_cell_angle_alpha 90.000000
_cell_angle_beta 59.741786
_cell_angle_gamma 90.000000
_cell_volume 3621.239860
_symmetry_space_group_name_H-M "C 2/M"
_symmetry_group_IT_number 12
_symmetry_cell_setting 'monoclinic'
loop_
_space_group_symop_operation_xyz
x,y,z
-x,y,-z
-x,-y,-z
x,-y,z
1/2+x,1/2+y,z
1/2-x,1/2+y,-z
1/2-x,1/2-y,-z
1/2+x,1/2-y,z
loop_
_atom_site_type_symbol
_atom_site_label
_atom_site_fract_x
_atom_site_fract_y
_atom_site_fract_z
Si Si1 0.389234 0.170931 0.780497
Si Si2 0.563947 0.835242 0.523653
Si Si3 0.314561 0.168908 0.270563
Si Si4 0.673896 0.334041 0.403675
Si Si5 0.491507 0.169176 0.176526
Si Si6 0.290134 0.329937 0.166935
Si Si7 0.445161 0.173758 0.074184
Si Si8 0.550108 0.668873 0.354470
O O1 0.435404 0.234295 0.816836
O O2 0.294890 0.196890 0.828714
O O3 0.422137 0.257351 0.714004
O O4 0.408053 0.000000 0.763043
O O5 0.500000 0.828021 0.500000
O O6 0.647202 0.767834 0.466468
O O7 0.531631 0.743882 0.589991
O O8 0.580349 0.000000 0.536737
O O9 0.264895 0.204803 0.347808
O O10 0.408210 0.198825 0.243864
O O11 0.283248 0.269401 0.232964
O O12 0.300426 0.000000 0.258461
O O13 0.666144 0.500000 0.427981
O O14 0.619887 0.308090 0.371005
O O15 0.485541 0.234208 0.115560
O O16 0.508382 0.000000 0.162000
O O17 0.311984 0.500000 0.160634
O O18 0.357741 0.245813 0.103292
O O19 0.433419 0.000000 0.080495
O O20 0.500000 0.224606 0.000000
O O21 0.531737 0.500000 0.350973
#
# Coordination Sequence:
#
# PCOD8080296 Si02
#       8
#     8   8   8   8   8   8   8   8
#     4  10  19  31  47  70 100 131 159 192 240 292
#     4   9  17  27  40  62  93 126 159 198 246 299
#     4   9  16  30  50  70  93 126 167 205 240 282
#     4   9  16  26  43  67  92 119 158 206 249 284
#     4   8  16  31  51  72  96 126 161 197 234 282
#     4  10  19  29  47  74 102 128 156 194 238 284
#     4   9  18  35  58  77  95 126 166 200 230 274
#     4  10  18  28  44  66  94 126 160 202 246 286
#
# _framework density 17.673504999999999
#
# number of rings (size 3 to 8) (size 9 to 14) (size 15 to 20)
#    0.000    2.750    1.250    1.875    0.000    3.250 
#    0.000    3.125    0.000    0.750    0.000    0.000 
#    0.000    0.000    0.000    0.000    0.000    0.000 
#
# Total GULP energy -396681.496281 kJ/mol
# GULP energy per Si atom -12396.296759 kJ/mol
# Density = 1.763328 g / cm^3
# Si number density = 17.673505 Si / 1000 Ang^3
#
#
#
# Elastic Constant Matrix: (Units=GPa)
#
#
# Indices 1 2 3 4 5 6 
#
# 1 90.5049 40.7966 47.8805 0.0001 -11.9122 0.0003
# 2 40.7966 77.6391 56.9711 0.0002 -7.4560 0.0006
# 3 47.8805 56.9711 130.2860 0.0000 -24.8331 0.0001
# 4 0.0001 0.0002 0.0000 26.3737 0.0000 -5.1802
# 5 -11.9122 -7.4560 -24.8331 0.0000 18.2170 0.0000
# 6 0.0003 0.0006 0.0001 -5.1802 0.0000 16.0250
#
#
#
# Elastic Compliance Matrix: (Units=1/GPa)
#
#
# Indices 1 2 3 4 5 6 
#
# 1 0.015581 -0.006177 -0.002114 0.000000 0.004778 0.000000
# 2 -0.006177 0.021728 -0.008520 0.000000 -0.006760 -0.000001
# 3 -0.002114 -0.008520 0.015199 0.000000 0.015849 0.000000
# 4 0.000000 0.000000 0.000000 0.040487 0.000000 0.013088
# 5 0.004778 -0.006760 0.015849 0.000000 0.076857 0.000000
# 6 0.000000 -0.000001 0.000000 0.013088 0.000000 0.066633
#
#
# Mechanical properties :
#
#
# Convention : Reuss Voigt Hill
#
# Bulk Modulus (GPa) = 52.94848 65.52515 59.23681
# Shear Modulus (GPa) = 18.08952 22.30859 20.19905
#
# Velocity S-wave (km/s) = 3.20275 3.55669 3.38435
# Velocity P-wave (km/s) = 6.61068 7.35000 6.99012
#
# Compressibility (1/GPa) = 0.01888628
#
# Stress axis : x y z
#
# Youngs Moduli (GPa) = 64.18115 46.02269 65.79433
#
# Poissons Ratio (x) = 0.28428 0.13911
# Poissons Ratio (y) = 0.39644 0.56055
# Poissons Ratio (z) = 0.13570 0.39210
#
# Static dielectric constant tensor:
#      x y z
#    x 3.273380 0.000000 -0.143290 
#    y 0.000000 3.226790 0.000000 
#    z -0.143290 0.000000 3.327960 
# 
# 
# High freq. dielectric constant tensor:
#      x y z
#    x 1.657070 0.000000 -0.019900 
#    y 0.000000 1.674170 0.000000 
#    z -0.019900 0.000000 1.677370 
# 
# From -- ./inp_files/345515.got.cif
#   From: 2010.06.25/outbox.cif.g09.slc.cpg/sg12_173_cif.got.tgz:345515.got - 2010.06.28 00:19:55.
