data_PCOD8080625
_publ_section_title
;
Structure prediction by ZEFSAII (Michael W. Deem and Ramdas Pophale) SiO2 
 PCOD8080625
Probable space group: C 2/M
;
_chemical_formula_sum "Si O2"
_cell_formula_units_Z 56
_cell_length_a 28.668520
_cell_length_b 9.472949
_cell_length_c 28.823348
_cell_angle_alpha 90.000000
_cell_angle_beta 153.082896
_cell_angle_gamma 90.000000
_cell_volume 3543.612824
_symmetry_space_group_name_H-M "C 2/M"
_symmetry_group_IT_number 12
_symmetry_cell_setting 'monoclinic'
loop_
_space_group_symop_operation_xyz
x,y,z
-x,y,-z
-x,-y,-z
x,-y,z
1/2+x,1/2+y,z
1/2-x,1/2+y,-z
1/2-x,1/2-y,-z
1/2+x,1/2-y,z
loop_
_atom_site_type_symbol
_atom_site_label
_atom_site_fract_x
_atom_site_fract_y
_atom_site_fract_z
Si Si1 0.964290 0.836968 0.358559
Si Si2 0.389453 0.664969 0.593961
Si Si3 0.138983 0.339993 0.242304
Si Si4 0.819496 0.334287 0.286144
Si Si5 0.131498 0.841247 0.584601
Si Si6 0.908651 0.835478 0.886017
Si Si7 0.840164 0.335087 0.635941
O O1 0.863632 0.740134 0.278735
O O2 0.017647 0.791456 0.357771
O O3 0.044254 0.807433 0.470425
O O4 0.930626 0.000000 0.326924
O O5 0.393011 0.500000 0.608285
O O6 0.280529 0.706119 0.473940
O O7 0.405389 0.749194 0.655890
O O8 0.103369 0.500000 0.201384
O O9 0.260999 0.324755 0.345980
O O10 0.080393 0.241830 0.153642
O O11 0.114195 0.294306 0.273107
O O12 0.841156 0.500000 0.303237
O O13 0.879071 0.268614 0.382902
O O14 0.698342 0.299837 0.183113
O O15 0.119461 0.000000 0.594184
O O16 0.918532 0.000000 0.884039
O O17 0.000000 0.781651 0.000000
O O18 0.854577 0.500000 0.638977
#
# Coordination Sequence:
#
# PCOD8080625 Si02
#       7
#     8   8   8   8   8   8   8
#     4  10  18  29  43  60  87 124 155 176 208 255
#     4   9  17  28  42  61  88 123 158 183 207 250
#     4   9  16  28  47  68  90 116 149 185 218 258
#     4  10  20  30  42  63  87 111 145 185 221 260
#     4   9  16  28  43  59  85 122 153 174 206 255
#     4   9  19  35  50  65  88 115 143 181 230 277
#     4   9  16  28  43  63  90 119 151 186 219 248
#
# _framework density 15.803081000000001
#
# number of rings (size 3 to 8) (size 9 to 14) (size 15 to 20)
#    0.000    2.714    1.429    0.857    0.000    4.286 
#    0.000    0.000    0.000    0.000    0.000    1.000 
#    0.000    0.000    0.000    0.000    0.000    0.000 
#
# Total GULP energy -347147.928793 kJ/mol
# GULP energy per Si atom -12398.140314 kJ/mol
# Density = 1.576711 g / cm^3
# Si number density = 15.803081 Si / 1000 Ang^3
#
#
#
# Elastic Constant Matrix: (Units=GPa)
#
#
# Indices 1 2 3 4 5 6 
#
# 1 134.6212 65.9532 45.6854 0.0000 -10.0522 0.0000
# 2 65.9532 69.8020 36.9807 0.0001 -8.0445 0.0000
# 3 45.6854 36.9807 64.1425 0.0001 -12.2951 0.0001
# 4 0.0000 0.0001 0.0001 18.5293 0.0001 -2.6202
# 5 -10.0522 -8.0445 -12.2951 0.0001 12.0351 0.0000
# 6 0.0000 0.0000 0.0001 -2.6202 0.0000 32.6810
#
#
#
# Elastic Compliance Matrix: (Units=1/GPa)
#
#
# Indices 1 2 3 4 5 6 
#
# 1 0.014350 -0.011710 -0.003323 0.000000 0.000763 0.000000
# 2 -0.011710 0.030223 -0.008812 0.000000 0.001418 0.000000
# 3 -0.003323 -0.008812 0.026582 0.000000 0.018491 0.000000
# 4 0.000000 0.000000 0.000000 0.054587 0.000000 0.004376
# 5 0.000763 0.001418 0.018491 0.000000 0.103566 0.000000
# 6 0.000000 0.000000 0.000000 0.004376 0.000000 0.030950
#
#
# Mechanical properties :
#
#
# Convention : Reuss Voigt Hill
#
# Bulk Modulus (GPa) = 42.61852 62.86712 52.74282
# Shear Modulus (GPa) = 15.83429 20.64551 18.23990
#
# Velocity S-wave (km/s) = 3.16883 3.61837 3.40104
# Velocity P-wave (km/s) = 6.35733 7.57131 6.99072
#
# Compressibility (1/GPa) = 0.02346398
#
# Stress axis : x y z
#
# Youngs Moduli (GPa) = 69.68631 33.08746 37.61932
#
# Poissons Ratio (x) = 0.38746 0.12501
# Poissons Ratio (y) = 0.81605 0.33151
# Poissons Ratio (z) = 0.23157 0.29158
#
# Static dielectric constant tensor:
#      x y z
#    x 3.215070 0.000000 -0.001300 
#    y 0.000000 2.997310 0.000000 
#    z -0.001300 0.000000 2.724270 
# 
# 
# High freq. dielectric constant tensor:
#      x y z
#    x 1.610200 0.000000 -0.001260 
#    y 0.000000 1.606710 0.000000 
#    z -0.001260 0.000000 1.562440 
# 
# From -- ./inp_files/247736.got.cif
#   From: 2010.06.25/outbox.cif.g09.slc.cpg/sg12_124_cif.got.tgz:247736.got - 2010.06.28 00:19:55.
