data_PCOD8080505
_publ_section_title
;
Structure prediction by ZEFSAII (Michael W. Deem and Ramdas Pophale) SiO2 
 PCOD8080505
Probable space group: C 2/M
;
_chemical_formula_sum "Si O2"
_cell_formula_units_Z 64
_cell_length_a 23.528474
_cell_length_b 9.258306
_cell_length_c 21.478050
_cell_angle_alpha 90.000000
_cell_angle_beta 127.118964
_cell_angle_gamma 90.000000
_cell_volume 3730.678157
_symmetry_space_group_name_H-M "C 2/M"
_symmetry_group_IT_number 12
_symmetry_cell_setting 'monoclinic'
loop_
_space_group_symop_operation_xyz
x,y,z
-x,y,-z
-x,-y,-z
x,-y,z
1/2+x,1/2+y,z
1/2-x,1/2+y,-z
1/2-x,1/2-y,-z
1/2+x,1/2-y,z
loop_
_atom_site_type_symbol
_atom_site_label
_atom_site_fract_x
_atom_site_fract_y
_atom_site_fract_z
Si Si1 0.575959 0.669678 0.264192
Si Si2 0.870263 0.671577 0.812563
Si Si3 0.167728 0.336397 0.757252
Si Si4 0.671568 0.332623 0.100634
Si Si5 0.924723 0.831061 0.212325
Si Si6 0.764891 0.664567 0.320032
Si Si7 0.275862 0.336023 0.575996
Si Si8 0.822352 0.831509 0.035259
O O1 0.576054 0.500000 0.248064
O O2 0.572645 0.758221 0.197148
O O3 0.507104 0.713058 0.259055
O O4 0.645780 0.714168 0.349805
O O5 0.878995 0.500000 0.819645
O O6 0.878794 0.736021 0.887955
O O7 0.792619 0.717265 0.737431
O O8 0.150324 0.500000 0.764219
O O9 0.245165 0.291956 0.835004
O O10 0.105812 0.239845 0.745358
O O11 0.167387 0.315804 0.681224
O O12 0.659341 0.500000 0.109179
O O13 0.649259 0.297105 0.015259
O O14 0.881747 0.777651 0.123113
O O15 0.915950 0.000000 0.215237
O O16 0.734210 0.500000 0.290312
O O17 0.780635 0.685893 0.404026
O O18 0.278848 0.500000 0.556087
O O19 0.250000 0.250000 0.500000
O O20 0.806132 0.000000 0.031892
O O21 0.750000 0.750000 0.000000
#
# Coordination Sequence:
#
# PCOD8080505 Si02
#       8
#     8   8   8   8   8   8   8   8
#     4   9  19  36  51  67  98 134 158 187 240 298
#     4  10  18  28  47  72  92 118 162 211 242 273
#     4   9  16  28  47  69  95 128 161 194 239 285
#     4   9  17  30  46  65  94 130 160 195 250 298
#     4  10  20  32  49  71  95 127 167 202 236 284
#     4   8  16  31  48  69 100 132 155 185 238 293
#     4   9  17  31  53  76  98 123 153 192 236 283
#     4  10  19  31  47  69  96 126 164 206 245 285
#
# _framework density 17.155056999999999
#
# number of rings (size 3 to 8) (size 9 to 14) (size 15 to 20)
#    0.000    2.750    1.250    2.625    0.000    5.000 
#    0.000    0.625    0.000    4.500    0.000    5.250 
#    0.000    0.000    0.000    0.000    0.000    0.000 
#
# Total GULP energy -396583.801939 kJ/mol
# GULP energy per Si atom -12393.243811 kJ/mol
# Density = 1.711601 g / cm^3
# Si number density = 17.155057 Si / 1000 Ang^3
#
#
#
# Elastic Constant Matrix: (Units=GPa)
#
#
# Indices 1 2 3 4 5 6 
#
# 1 131.5912 50.4373 56.1441 0.0000 -22.6310 0.0000
# 2 50.4373 62.0611 33.7340 0.0000 -10.8485 0.0000
# 3 56.1441 33.7340 89.1840 0.0000 -23.4834 0.0000
# 4 0.0000 0.0000 0.0000 23.0359 0.0000 -7.7376
# 5 -22.6310 -10.8485 -23.4834 0.0000 26.0999 0.0000
# 6 0.0000 0.0000 0.0000 -7.7376 0.0000 29.5680
#
#
#
# Elastic Compliance Matrix: (Units=1/GPa)
#
#
# Indices 1 2 3 4 5 6 
#
# 1 0.013038 -0.007547 -0.004196 0.000000 0.004392 0.000000
# 2 -0.007547 0.024732 -0.004744 0.000000 -0.000532 0.000000
# 3 -0.004196 -0.004744 0.018572 0.000000 0.011099 0.000000
# 4 0.000000 0.000000 0.000000 0.047594 0.000000 0.012455
# 5 0.004392 -0.000532 0.011099 0.000000 0.051888 0.000000
# 6 0.000000 0.000000 0.000000 0.012455 0.000000 0.037080
#
#
# Mechanical properties :
#
#
# Convention : Reuss Voigt Hill
#
# Bulk Modulus (GPa) = 42.79646 62.60743 52.70195
# Shear Modulus (GPa) = 21.39794 25.24216 23.32005
#
# Velocity S-wave (km/s) = 3.53558 3.84006 3.69096
# Velocity P-wave (km/s) = 6.45508 7.49905 6.99656
#
# Compressibility (1/GPa) = 0.02336642
#
# Stress axis : x y z
#
# Youngs Moduli (GPa) = 76.69994 40.43287 53.84555
#
# Poissons Ratio (x) = 0.30515 0.22596
# Poissons Ratio (y) = 0.57886 0.25545
# Poissons Ratio (z) = 0.32187 0.19182
#
# Static dielectric constant tensor:
#      x y z
#    x 3.317670 0.000000 -0.349240 
#    y 0.000000 3.079690 0.000000 
#    z -0.349240 0.000000 3.109270 
# 
# 
# High freq. dielectric constant tensor:
#      x y z
#    x 1.656310 0.000000 -0.034350 
#    y 0.000000 1.654980 0.000000 
#    z -0.034350 0.000000 1.631700 
# 
# From -- ./inp_files/323700.got.cif
#   From: 2010.06.25/outbox.cif.g09.slc.cpg/sg12_162_cif.got.tgz:323700.got - 2010.06.28 00:19:55.
