data_PCOD8080601
_publ_section_title
;
Structure prediction by ZEFSAII (Michael W. Deem and Ramdas Pophale) SiO2 
 PCOD8080601
Probable space group: C 2/M
;
_chemical_formula_sum "Si O2"
_cell_formula_units_Z 48
_cell_length_a 9.733321
_cell_length_b 27.416806
_cell_length_c 8.976491
_cell_angle_alpha 90.000000
_cell_angle_beta 87.805120
_cell_angle_gamma 90.000000
_cell_volume 2393.678203
_symmetry_space_group_name_H-M "C 2/M"
_symmetry_group_IT_number 12
_symmetry_cell_setting 'monoclinic'
loop_
_space_group_symop_operation_xyz
x,y,z
-x,y,-z
-x,-y,-z
x,-y,z
1/2+x,1/2+y,z
1/2-x,1/2+y,-z
1/2-x,1/2-y,-z
1/2+x,1/2-y,z
loop_
_atom_site_type_symbol
_atom_site_label
_atom_site_fract_x
_atom_site_fract_y
_atom_site_fract_z
Si Si1 0.709309 0.192886 0.332970
Si Si2 0.962976 0.397957 0.668514
Si Si3 0.792485 0.056529 0.165152
Si Si4 0.868505 0.553364 0.108691
Si Si5 0.372386 0.297727 0.608806
Si Si6 0.962776 0.146733 0.170450
O O1 0.578005 0.158576 0.308247
O O2 0.670932 0.248779 0.302493
O O3 0.750967 0.183842 0.504979
O O4 0.832013 0.180054 0.215784
O O5 0.836213 0.432416 0.722288
O O6 0.000000 0.411792 0.500000
O O7 0.099360 0.407932 0.762428
O O8 0.923634 0.089958 0.200787
O O9 0.833495 0.000000 0.180503
O O10 0.756425 0.070007 0.993747
O O11 0.835911 0.500000 0.179695
O O12 0.000000 0.548267 0.000000
O O13 0.500000 0.283488 0.500000
O O14 0.409907 0.339688 0.726535
O O15 0.000000 0.158164 0.000000
#
# Coordination Sequence:
#
# PCOD8080601 Si02
#       6
#     8   8   8   8   8   8
#     4   9  19  35  54  74 102 141 171 201 253 316
#     4  10  18  28  50  81 106 129 169 218 256 294
#     4   9  19  36  53  71 102 142 174 204 254 312
#     4   8  15  29  47  67  97 134 165 199 250 306
#     4   9  18  36  57  75 102 138 171 201 252 317
#     4  10  21  35  54  79 103 130 173 222 252 287
#
# _framework density 20.052821000000002
#
# number of rings (size 3 to 8) (size 9 to 14) (size 15 to 20)
#    0.000    2.833    0.000    2.000    0.000    3.667 
#    0.000    4.167    0.000   13.500    0.000    0.000 
#    0.000    0.000    0.000    0.000    0.000    0.000 
#
# Total GULP energy -297514.263065 kJ/mol
# GULP energy per Si atom -12396.427628 kJ/mol
# Density = 2.000718 g / cm^3
# Si number density = 20.052821 Si / 1000 Ang^3
#
#
#
# Elastic Constant Matrix: (Units=GPa)
#
#
# Indices 1 2 3 4 5 6 
#
# 1 45.5549 47.5442 34.0429 0.0000 14.8309 0.0000
# 2 47.5442 140.8264 60.6624 0.0000 19.5673 0.0000
# 3 34.0429 60.6624 116.0956 0.0000 -1.4237 0.0000
# 4 0.0000 0.0000 0.0000 28.1691 0.0000 8.8692
# 5 14.8309 19.5673 -1.4237 0.0000 26.5873 0.0000
# 6 0.0000 0.0000 0.0000 8.8692 0.0000 23.9938
#
#
#
# Elastic Compliance Matrix: (Units=1/GPa)
#
#
# Indices 1 2 3 4 5 6 
#
# 1 0.042879 -0.008291 -0.008465 0.000000 -0.018270 0.000000
# 2 -0.008291 0.012287 -0.004046 0.000000 -0.004634 0.000000
# 3 -0.008465 -0.004046 0.013313 0.000000 0.008412 0.000000
# 4 0.000000 0.000000 0.000000 0.040176 0.000000 -0.014851
# 5 -0.018270 -0.004634 0.008412 0.000000 0.051664 0.000000
# 6 0.000000 0.000000 0.000000 -0.014851 0.000000 0.047167
#
#
# Mechanical properties :
#
#
# Convention : Reuss Voigt Hill
#
# Bulk Modulus (GPa) = 37.21022 65.21953 51.21487
# Shear Modulus (GPa) = 19.37629 26.43186 22.90408
#
# Velocity S-wave (km/s) = 3.11185 3.63452 3.38329
# Velocity P-wave (km/s) = 5.61319 7.08572 6.39200
#
# Compressibility (1/GPa) = 0.02687434
#
# Stress axis : x y z
#
# Youngs Moduli (GPa) = 23.32166 81.38837 75.11513
#
# Poissons Ratio (x) = 0.67482 0.63585
# Poissons Ratio (y) = 0.19337 0.30389
# Poissons Ratio (z) = 0.19742 0.32927
#
# Static dielectric constant tensor:
#      x y z
#    x 3.643960 0.000000 0.246770 
#    y 0.000000 3.596130 0.000000 
#    z 0.246770 0.000000 3.678640 
# 
# 
# High freq. dielectric constant tensor:
#      x y z
#    x 1.768050 0.000000 0.002970 
#    y 0.000000 1.778290 0.000000 
#    z 0.002970 0.000000 1.769740 
# 
# From -- ./inp_files/42158.got.cif
#   From: 2010.06.25/outbox.cif.g09.slc.cpg/sg12_22_cif.got.tgz:42158.got - 2010.06.28 00:19:55.
