data_PCOD8080180
_publ_section_title
;
Structure prediction by ZEFSAII (Michael W. Deem and Ramdas Pophale) SiO2 
 PCOD8080180
Probable space group: C 2/M
;
_chemical_formula_sum "Si O2"
_cell_formula_units_Z 64
_cell_length_a 24.584231
_cell_length_b 9.030098
_cell_length_c 17.111250
_cell_angle_alpha 90.000000
_cell_angle_beta 93.969816
_cell_angle_gamma 90.000000
_cell_volume 3789.549253
_symmetry_space_group_name_H-M "C 2/M"
_symmetry_group_IT_number 12
_symmetry_cell_setting 'monoclinic'
loop_
_space_group_symop_operation_xyz
x,y,z
-x,y,-z
-x,-y,-z
x,-y,z
1/2+x,1/2+y,z
1/2-x,1/2+y,-z
1/2-x,1/2-y,-z
1/2+x,1/2-y,z
loop_
_atom_site_type_symbol
_atom_site_label
_atom_site_fract_x
_atom_site_fract_y
_atom_site_fract_z
Si Si1 0.971388 0.173304 0.836844
Si Si2 0.117066 0.824412 0.048131
Si Si3 0.695721 0.825047 0.167120
Si Si4 0.379251 0.328709 0.718358
Si Si5 0.685297 0.675491 0.770579
Si Si6 0.209192 0.173980 0.603681
Si Si7 0.591185 0.676849 0.871614
Si Si8 0.317734 0.670564 0.565774
O O1 0.031630 0.244839 0.844638
O O2 0.934402 0.230290 0.905160
O O3 0.940722 0.212581 0.751948
O O4 0.979660 0.000000 0.847708
O O5 0.172022 0.750145 0.086611
O O6 0.124016 0.000000 0.053922
O O7 0.107919 0.768892 0.959381
O O8 0.664195 0.770328 0.240627
O O9 0.758667 0.777084 0.181824
O O10 0.689116 0.000000 0.159901
O O11 0.367880 0.500000 0.739429
O O12 0.371770 0.301978 0.624255
O O13 0.680509 0.500000 0.769059
O O14 0.682945 0.737639 0.681026
O O15 0.634545 0.742425 0.813921
O O16 0.269233 0.236735 0.598024
O O17 0.171798 0.215174 0.524085
O O18 0.216295 0.000000 0.613988
O O19 0.590718 0.500000 0.868831
O O20 0.299724 0.500000 0.567448
#
# Coordination Sequence:
#
# PCOD8080180 Si02
#       8
#     8   8   8   8   8   8   8   8
#     4   8  14  25  43  64  83 104 139 184 216 240
#     4   9  17  29  46  66  83 103 141 187 218 243
#     4  10  18  28  42  62  88 115 139 167 213 261
#     4   9  16  27  44  67  88 107 138 178 215 245
#     4   9  17  27  40  60  88 117 143 169 202 255
#     4   9  16  27  41  61  89 116 139 166 202 249
#     4   9  16  27  44  63  82 111 147 178 209 248
#     4   9  16  25  42  65  88 111 137 171 209 244
#
# _framework density 16.888552000000001
#
# number of rings (size 3 to 8) (size 9 to 14) (size 15 to 20)
#    0.000    3.000    1.250    1.500    0.000    2.000 
#    0.000    0.000    0.000    8.250    0.000    5.250 
#    0.000    0.000    0.000   10.750    0.000   11.500 
#
# Total GULP energy -396515.863558 kJ/mol
# GULP energy per Si atom -12391.120736 kJ/mol
# Density = 1.685011 g / cm^3
# Si number density = 16.888552 Si / 1000 Ang^3
#
#
#
# Elastic Constant Matrix: (Units=GPa)
#
#
# Indices 1 2 3 4 5 6 
#
# 1 119.0537 17.0500 94.3511 0.0000 5.4982 0.0000
# 2 17.0500 19.6341 18.6359 0.0000 3.2098 0.0000
# 3 94.3511 18.6359 168.5526 0.0000 20.2496 0.0000
# 4 0.0000 0.0000 0.0000 15.8507 0.0000 3.3692
# 5 5.4982 3.2098 20.2496 0.0000 23.6614 0.0000
# 6 0.0000 0.0000 0.0000 3.3692 0.0000 14.4756
#
#
#
# Elastic Compliance Matrix: (Units=1/GPa)
#
#
# Indices 1 2 3 4 5 6 
#
# 1 0.016147 -0.006342 -0.008906 0.000000 0.004730 0.000000
# 2 -0.006342 0.059539 -0.002496 0.000000 -0.004467 0.000000
# 3 -0.008906 -0.002496 0.012154 0.000000 -0.007994 0.000000
# 4 0.000000 0.000000 0.000000 0.066372 0.000000 -0.015448
# 5 0.004730 -0.004467 -0.007994 0.000000 0.048611 0.000000
# 6 0.000000 0.000000 0.000000 -0.015448 0.000000 0.072677
#
#
# Mechanical properties :
#
#
# Convention : Reuss Voigt Hill
#
# Bulk Modulus (GPa) = 19.10139 63.03491 41.06815
# Shear Modulus (GPa) = 15.22347 22.61111 18.91729
#
# Velocity S-wave (km/s) = 3.00560 3.66299 3.35046
# Velocity P-wave (km/s) = 4.83525 7.43606 6.27195
#
# Compressibility (1/GPa) = 0.05235221
#
# Stress axis : x y z
#
# Youngs Moduli (GPa) = 61.92933 16.79583 82.27426
#
# Poissons Ratio (x) = 0.10652 0.73273
# Poissons Ratio (y) = 0.39278 0.20535
# Poissons Ratio (z) = 0.55154 0.04192
#
# Static dielectric constant tensor:
#      x y z
#    x 3.261470 0.000000 0.163940 
#    y 0.000000 2.830980 0.000000 
#    z 0.163940 0.000000 3.543720 
# 
# 
# High freq. dielectric constant tensor:
#      x y z
#    x 1.629340 0.000000 0.022520 
#    y 0.000000 1.612030 0.000000 
#    z 0.022520 0.000000 1.660300 
# 
# From -- ./inp_files/287667.got.cif
#   From: 2010.06.25/outbox.cif.g09.slc.cpg/sg12_144_cif.got.tgz:287667.got - 2010.06.28 00:19:55.
