data_PCOD8080438
_publ_section_title
;
Structure prediction by ZEFSAII (Michael W. Deem and Ramdas Pophale) SiO2 
 PCOD8080438
Probable space group: C 2/M
;
_chemical_formula_sum "Si O2"
_cell_formula_units_Z 64
_cell_length_a 30.310151
_cell_length_b 13.105180
_cell_length_c 17.327357
_cell_angle_alpha 90.000000
_cell_angle_beta 147.008473
_cell_angle_gamma 90.000000
_cell_volume 3747.772892
_symmetry_space_group_name_H-M "C 2/M"
_symmetry_group_IT_number 12
_symmetry_cell_setting 'monoclinic'
loop_
_space_group_symop_operation_xyz
x,y,z
-x,y,-z
-x,-y,-z
x,-y,z
1/2+x,1/2+y,z
1/2-x,1/2+y,-z
1/2-x,1/2-y,-z
1/2+x,1/2-y,z
loop_
_atom_site_type_symbol
_atom_site_label
_atom_site_fract_x
_atom_site_fract_y
_atom_site_fract_z
Si Si1 0.901684 0.809469 0.435814
Si Si2 0.955224 0.121279 0.059867
Si Si3 0.080342 0.879869 0.703852
Si Si4 0.785164 0.115939 0.393020
Si Si5 0.699715 0.116734 0.713221
Si Si6 0.361665 0.620355 0.666815
Si Si7 0.340827 0.379744 0.026406
Si Si8 0.684605 0.694275 0.242508
O O1 0.879763 0.854322 0.319534
O O2 0.852293 0.875168 0.425077
O O3 0.878317 0.689735 0.406238
O O4 0.996759 0.818742 0.592232
O O5 0.914417 0.157285 0.080107
O O6 0.046594 0.161983 0.194444
O O7 0.950801 0.000000 0.041783
O O8 0.907406 0.174171 0.919230
O O9 0.142480 0.842623 0.861732
O O10 0.061232 0.000000 0.682102
O O11 0.824551 0.152980 0.530805
O O12 0.708320 0.187662 0.262582
O O13 0.754124 0.000000 0.351931
O O14 0.753606 0.122672 0.714617
O O15 0.670412 0.000000 0.681092
O O16 0.754580 0.157560 0.865844
O O17 0.361408 0.500000 0.676185
O O18 0.308284 0.669115 0.656557
O O19 0.338190 0.500000 0.019467
#
# Coordination Sequence:
#
# PCOD8080438 Si02
#       8
#     8   8   8   8   8   8   8   8
#     4  10  19  30  47  69  89 118 148 180 225 263
#     4   9  16  27  46  71  93 112 142 186 230 262
#     4  10  18  30  48  69  92 114 147 187 221 263
#     4  10  20  32  45  65  93 120 148 181 219 263
#     4   9  18  32  47  66  92 118 147 180 220 268
#     4  10  18  28  46  70  93 115 145 188 227 259
#     4   8  15  28  46  67  91 117 142 180 227 262
#     4  10  18  29  46  68  91 119 149 179 221 266
#
# _framework density 17.076808
#
# number of rings (size 3 to 8) (size 9 to 14) (size 15 to 20)
#    0.000    2.500    0.000    4.875    0.000    3.500 
#    0.000    1.250    0.000    1.500    0.000   20.125 
#    0.000    0.000    0.000    0.000    0.000    0.000 
#
# Total GULP energy -396732.840008 kJ/mol
# GULP energy per Si atom -12397.901250 kJ/mol
# Density = 1.703794 g / cm^3
# Si number density = 17.076808 Si / 1000 Ang^3
#
#
#
# Elastic Constant Matrix: (Units=GPa)
#
#
# Indices 1 2 3 4 5 6 
#
# 1 83.5148 16.8186 28.5568 0.0000 -22.2554 0.0000
# 2 16.8186 66.4411 39.3199 0.0000 0.4003 0.0000
# 3 28.5568 39.3199 60.6784 0.0000 -8.8764 0.0000
# 4 0.0000 0.0000 0.0000 18.6340 0.0000 2.2678
# 5 -22.2554 0.4003 -8.8764 0.0000 25.6123 0.0000
# 6 0.0000 0.0000 0.0000 2.2678 0.0000 18.4738
#
#
#
# Elastic Compliance Matrix: (Units=1/GPa)
#
#
# Indices 1 2 3 4 5 6 
#
# 1 0.017724 -0.001299 -0.005524 0.000000 0.013507 0.000000
# 2 -0.001299 0.025473 -0.016979 0.000000 -0.007411 0.000000
# 3 -0.005524 -0.016979 0.030990 0.000000 0.006206 0.000000
# 4 0.000000 0.000000 0.000000 0.054479 0.000000 -0.006688
# 5 0.013507 -0.007411 0.006206 0.000000 0.053047 0.000000
# 6 0.000000 0.000000 0.000000 -0.006688 0.000000 0.054952
#
#
# Mechanical properties :
#
#
# Convention : Reuss Voigt Hill
#
# Bulk Modulus (GPa) = 37.61808 42.22499 39.92153
# Shear Modulus (GPa) = 17.05733 20.93996 18.99864
#
# Velocity S-wave (km/s) = 3.16390 3.50554 3.33910
# Velocity P-wave (km/s) = 5.95177 6.41602 6.18825
#
# Compressibility (1/GPa) = 0.02658296
#
# Stress axis : x y z
#
# Youngs Moduli (GPa) = 56.42210 39.25759 32.26803
#
# Poissons Ratio (x) = 0.05099 0.17824
# Poissons Ratio (y) = 0.07329 0.54789
# Poissons Ratio (z) = 0.31165 0.66657
#
# Static dielectric constant tensor:
#      x y z
#    x 3.330500 0.000000 -0.239650 
#    y 0.000000 2.935830 0.000000 
#    z -0.239650 0.000000 3.270330 
# 
# 
# High freq. dielectric constant tensor:
#      x y z
#    x 1.667450 0.000000 -0.015090 
#    y 0.000000 1.629260 0.000000 
#    z -0.015090 0.000000 1.649660 
# 
# From -- ./inp_files/296511.got.cif
#   From: 2010.06.25/outbox.cif.g09.slc.cpg/sg12_149_cif.got.tgz:296511.got - 2010.06.28 00:19:55.
