data_PCOD8080413
_publ_section_title
;
Structure prediction by ZEFSAII (Michael W. Deem and Ramdas Pophale) SiO2 
 PCOD8080413
Probable space group: C 2/M
;
_chemical_formula_sum "Si O2"
_cell_formula_units_Z 40
_cell_length_a 22.959919
_cell_length_b 13.398196
_cell_length_c 21.668133
_cell_angle_alpha 90.000000
_cell_angle_beta 17.663502
_cell_angle_gamma 90.000000
_cell_volume 2022.512289
_symmetry_space_group_name_H-M "C 2/M"
_symmetry_group_IT_number 12
_symmetry_cell_setting 'monoclinic'
loop_
_space_group_symop_operation_xyz
x,y,z
-x,y,-z
-x,-y,-z
x,-y,z
1/2+x,1/2+y,z
1/2-x,1/2+y,-z
1/2-x,1/2-y,-z
1/2+x,1/2-y,z
loop_
_atom_site_type_symbol
_atom_site_label
_atom_site_fract_x
_atom_site_fract_y
_atom_site_fract_z
Si Si1 0.783510 0.887493 0.725007
Si Si2 0.621902 0.779759 0.537951
Si Si3 0.385219 0.115862 0.328904
Si Si4 0.708328 0.801906 0.927044
Si Si5 0.905917 0.789356 0.153388
O O1 0.739651 0.883004 0.842045
O O2 0.647027 0.819176 0.821368
O O3 0.000000 0.849114 0.500000
O O4 0.755859 0.000000 0.728914
O O5 0.646068 0.859601 0.567783
O O6 0.736774 0.677629 0.436502
O O7 0.400759 0.752546 0.753841
O O8 0.713926 0.829701 0.382228
O O9 0.342803 0.000000 0.360687
O O10 0.604466 0.143760 0.089366
O O11 0.569248 0.715945 0.040641
O O12 0.000000 0.851701 0.000000
#
# Coordination Sequence:
#
# PCOD8080413 Si02
#       5
#     8   8   8   8   8
#     4  10  18  28  45  72 105 134 161 199 251 310
#     4  10  20  37  54  75 106 139 173 215 261 304
#     4  10  22  36  53  77 104 136 178 220 257 303
#     4  10  19  33  51  73 103 139 170 206 253 311
#     4   9  19  31  50  75 103 135 170 206 250 309
#
# _framework density 19.777381999999999
#
# number of rings (size 3 to 8) (size 9 to 14) (size 15 to 20)
#    0.000    2.200    2.000    1.200    0.000    8.400 
#    0.000    0.000    0.000    0.600    0.000    9.800 
#    0.000    0.000    0.000    0.000    0.000    0.000 
#
# Total GULP energy -247801.192109 kJ/mol
# GULP energy per Si atom -12390.059605 kJ/mol
# Density = 1.973237 g / cm^3
# Si number density = 19.777382 Si / 1000 Ang^3
#
#
#
# Elastic Constant Matrix: (Units=GPa)
#
#
# Indices 1 2 3 4 5 6 
#
# 1 79.1266 7.9020 35.4937 -0.0050 20.8542 -0.0051
# 2 7.9020 22.9635 14.2310 -0.0397 3.2667 -0.0017
# 3 35.4937 14.2310 126.3560 -0.0200 12.4694 0.0095
# 4 -0.0050 -0.0397 -0.0200 7.4434 0.0157 4.0052
# 5 20.8542 3.2667 12.4694 0.0157 55.8120 -0.0053
# 6 -0.0051 -0.0017 0.0095 4.0052 -0.0053 11.0425
#
#
#
# Elastic Compliance Matrix: (Units=1/GPa)
#
#
# Indices 1 2 3 4 5 6 
#
# 1 0.015842 -0.002464 -0.003684 -0.000008 -0.004952 0.000011
# 2 -0.002464 0.047338 -0.004557 0.000292 -0.000832 -0.000096
# 3 -0.003684 -0.004557 0.009510 0.000007 -0.000481 -0.000013
# 4 -0.000008 0.000292 0.000007 0.166926 -0.000069 -0.060545
# 5 -0.004952 -0.000832 -0.000481 -0.000069 0.019924 0.000032
# 6 0.000011 -0.000096 -0.000013 -0.060545 0.000032 0.112519
#
#
# Mechanical properties :
#
#
# Convention : Reuss Voigt Hill
#
# Bulk Modulus (GPa) = 19.50085 38.18884 28.84484
# Shear Modulus (GPa) = 12.17842 26.24755 19.21299
#
# Velocity S-wave (km/s) = 2.48417 3.64696 3.12021
# Velocity P-wave (km/s) = 4.25555 6.08975 5.25332
#
# Compressibility (1/GPa) = 0.05127982
#
# Stress axis : x y z
#
# Youngs Moduli (GPa) = 63.12507 21.12449 105.15574
#
# Poissons Ratio (x) = 0.05205 0.38737
# Poissons Ratio (y) = 0.15554 0.47922
# Poissons Ratio (z) = 0.23254 0.09627
#
# Static dielectric constant tensor:
#      x y z
#    x 3.771640 -0.000010 0.423010 
#    y -0.000010 2.887230 0.000050 
#    z 0.423010 0.000050 4.197500 
# 
# 
# High freq. dielectric constant tensor:
#      x y z
#    x 1.776480 0.000000 0.017050 
#    y 0.000000 1.694740 0.000010 
#    z 0.017050 0.000010 1.804250 
# 
# From -- ./inp_files/322063.got.cif
#   From: 2010.06.25/outbox.cif.g09.slc.cpg/sg12_162_cif.got.tgz:322063.got - 2010.06.28 00:19:55.
