data_PCOD8080927
_publ_section_title
;
Structure prediction by ZEFSAII (Michael W. Deem and Ramdas Pophale) SiO2 
 PCOD8080927
Probable space group: C 2/M
;
_chemical_formula_sum "Si O2"
_cell_formula_units_Z 48
_cell_length_a 19.428180
_cell_length_b 8.851594
_cell_length_c 15.802484
_cell_angle_alpha 90.000000
_cell_angle_beta 76.766651
_cell_angle_gamma 90.000000
_cell_volume 2645.396356
_symmetry_space_group_name_H-M "C 2/M"
_symmetry_group_IT_number 12
_symmetry_cell_setting 'monoclinic'
loop_
_space_group_symop_operation_xyz
x,y,z
-x,y,-z
-x,-y,-z
x,-y,z
1/2+x,1/2+y,z
1/2-x,1/2+y,-z
1/2-x,1/2-y,-z
1/2+x,1/2-y,z
loop_
_atom_site_type_symbol
_atom_site_label
_atom_site_fract_x
_atom_site_fract_y
_atom_site_fract_z
Si Si1 0.449156 0.679193 0.269231
Si Si2 0.815038 0.179307 0.030273
Si Si3 0.159436 0.821118 0.285966
Si Si4 0.026781 0.323770 0.399047
Si Si5 0.415324 0.321920 0.861358
Si Si6 0.805178 0.821219 0.224592
O O1 0.454249 0.500000 0.280649
O O2 0.468083 0.757755 0.351999
O O3 0.505019 0.733626 0.180929
O O4 0.371571 0.730157 0.262356
O O5 0.818431 0.237849 0.125334
O O6 0.807520 0.000000 0.029442
O O7 0.750000 0.250000 0.000000
O O8 0.886290 0.234084 0.960552
O O9 0.102533 0.756870 0.368062
O O10 0.137180 0.765944 0.198324
O O11 0.236457 0.754903 0.284824
O O12 0.161478 0.000000 0.294348
O O13 0.036281 0.500000 0.378419
O O14 0.000000 0.289678 0.500000
O O15 0.414948 0.500000 0.860497
O O16 0.795670 0.000000 0.228282
#
# Coordination Sequence:
#
# PCOD8080927 Si02
#       6
#     8   8   8   8   8   8
#     4   9  19  35  53  77 109 141 176 215 263 315
#     4  10  18  29  47  73 105 142 184 223 256 297
#     4  10  19  33  55  79 105 139 178 215 258 314
#     4  10  21  38  60  83 104 129 167 214 264 322
#     4   8  15  29  48  71  99 137 180 217 251 297
#     4  10  20  32  50  78 111 145 178 219 262 303
#
# _framework density 18.144729999999999
#
# number of rings (size 3 to 8) (size 9 to 14) (size 15 to 20)
#    0.000    2.500    1.667    2.000    0.000    2.667 
#    0.000    4.167    0.000    0.000    0.000    4.667 
#    0.000    0.000    0.000    0.000    0.000    0.000 
#
# Total GULP energy -297518.377492 kJ/mol
# GULP energy per Si atom -12396.599062 kJ/mol
# Density = 1.810343 g / cm^3
# Si number density = 18.144730 Si / 1000 Ang^3
#
#
#
# Elastic Constant Matrix: (Units=GPa)
#
#
# Indices 1 2 3 4 5 6 
#
# 1 169.4273 47.0968 72.1155 0.0000 -3.8918 0.0000
# 2 47.0968 43.7195 37.2633 0.0000 -2.6664 0.0000
# 3 72.1155 37.2633 107.5478 0.0000 -8.3604 0.0000
# 4 0.0000 0.0000 0.0000 21.0118 0.0000 0.0144
# 5 -3.8918 -2.6664 -8.3604 0.0000 21.5883 0.0000
# 6 0.0000 0.0000 0.0000 0.0144 0.0000 29.0752
#
#
#
# Elastic Compliance Matrix: (Units=1/GPa)
#
#
# Indices 1 2 3 4 5 6 
#
# 1 0.009516 -0.006824 -0.004071 0.000000 -0.000704 0.000000
# 2 -0.006824 0.037355 -0.008356 0.000000 0.000148 0.000000
# 3 -0.004071 -0.008356 0.015245 0.000000 0.004138 0.000000
# 4 0.000000 0.000000 0.000000 0.047592 0.000000 -0.000024
# 5 -0.000704 0.000148 0.004138 0.000000 0.047815 0.000000
# 6 0.000000 0.000000 0.000000 -0.000024 0.000000 0.034394
#
#
# Mechanical properties :
#
#
# Convention : Reuss Voigt Hill
#
# Bulk Modulus (GPa) = 42.34734 70.40509 56.37621
# Shear Modulus (GPa) = 20.98292 25.28297 23.13294
#
# Velocity S-wave (km/s) = 3.40431 3.73688 3.57447
# Velocity P-wave (km/s) = 6.23231 7.58322 6.94071
#
# Compressibility (1/GPa) = 0.02361423
#
# Stress axis : x y z
#
# Youngs Moduli (GPa) = 105.08846 26.77034 65.59628
#
# Poissons Ratio (x) = 0.18268 0.26705
# Poissons Ratio (y) = 0.71711 0.54809
# Poissons Ratio (z) = 0.42783 0.22368
#
# Static dielectric constant tensor:
#      x y z
#    x 3.566480 0.000000 -0.318800 
#    y 0.000000 3.161090 0.000000 
#    z -0.318800 0.000000 3.560390 
# 
# 
# High freq. dielectric constant tensor:
#      x y z
#    x 1.706270 0.000000 -0.014070 
#    y 0.000000 1.686450 0.000000 
#    z -0.014070 0.000000 1.691670 
# 
# From -- ./inp_files/221681.got.cif
#   From: 2010.06.25/outbox.cif.g09.slc.cpg/sg12_111_cif.got.tgz:221681.got - 2010.06.28 00:19:55.
