data_PCOD8080439
_publ_section_title
;
Structure prediction by ZEFSAII (Michael W. Deem and Ramdas Pophale) SiO2 
 PCOD8080439
Probable space group: C 2/M
;
_chemical_formula_sum "Si O2"
_cell_formula_units_Z 56
_cell_length_a 28.551501
_cell_length_b 9.166257
_cell_length_c 17.059737
_cell_angle_alpha 90.000000
_cell_angle_beta 128.896765
_cell_angle_gamma 90.000000
_cell_volume 3474.788669
_symmetry_space_group_name_H-M "C 2/M"
_symmetry_group_IT_number 12
_symmetry_cell_setting 'monoclinic'
loop_
_space_group_symop_operation_xyz
x,y,z
-x,y,-z
-x,-y,-z
x,-y,z
1/2+x,1/2+y,z
1/2-x,1/2+y,-z
1/2-x,1/2-y,-z
1/2+x,1/2-y,z
loop_
_atom_site_type_symbol
_atom_site_label
_atom_site_fract_x
_atom_site_fract_y
_atom_site_fract_z
Si Si1 0.032237 0.171484 0.274485
Si Si2 0.701867 0.329600 0.616284
Si Si3 0.596641 0.168978 0.584966
Si Si4 0.016053 0.331355 0.642231
Si Si5 0.453119 0.329058 0.887684
Si Si6 0.346060 0.170049 0.577644
Si Si7 0.665651 0.834658 0.255733
O O1 0.978528 0.232196 0.273358
O O2 0.021718 0.210752 0.172200
O O3 0.089627 0.256367 0.367204
O O4 0.040629 0.000000 0.294854
O O5 0.688758 0.500000 0.589022
O O6 0.655549 0.265693 0.630991
O O7 0.698534 0.246573 0.529963
O O8 0.770389 0.306244 0.719786
O O9 0.544136 0.209100 0.468944
O O10 0.573889 0.202718 0.648973
O O11 0.614199 0.000000 0.594770
O O12 0.015533 0.500000 0.666308
O O13 0.446191 0.500000 0.891493
O O14 0.386981 0.264949 0.834547
O O15 0.500000 0.264219 0.000000
O O16 0.322914 0.198345 0.640687
O O17 0.351356 0.000000 0.562562
O O18 0.643826 0.000000 0.221508
#
# Coordination Sequence:
#
# PCOD8080439 Si02
#       7
#     8   8   8   8   8   8   8
#     4  10  18  28  46  70  93 118 151 190 231 269
#     4  11  20  29  42  65  94 122 155 192 225 260
#     4   9  18  30  44  62  89 127 161 189 222 264
#     4   9  17  30  45  63  90 123 159 192 223 266
#     4   9  19  35  52  71  94 118 148 188 231 277
#     4  10  18  29  43  60  89 127 159 184 216 264
#     4   9  20  33  45  65  92 121 153 188 226 271
#
# _framework density 16.116088000000001
#
# number of rings (size 3 to 8) (size 9 to 14) (size 15 to 20)
#    0.000    2.429    1.429    2.571    0.000    3.143 
#    0.000    1.429    0.000    0.000    0.000    1.000 
#    0.000    0.000    0.000    0.000    0.000    0.000 
#
# Total GULP energy -347103.725935 kJ/mol
# GULP energy per Si atom -12396.561641 kJ/mol
# Density = 1.607941 g / cm^3
# Si number density = 16.116088 Si / 1000 Ang^3
#
#
#
# Elastic Constant Matrix: (Units=GPa)
#
#
# Indices 1 2 3 4 5 6 
#
# 1 105.4602 47.2343 40.7440 0.0000 4.1191 0.0000
# 2 47.2343 73.0472 36.2866 0.0000 4.5885 0.0000
# 3 40.7440 36.2866 70.6127 0.0000 7.6347 0.0000
# 4 0.0000 0.0000 0.0000 18.5054 0.0000 -1.0916
# 5 4.1191 4.5885 7.6347 0.0000 13.8573 0.0000
# 6 0.0000 0.0000 0.0000 -1.0916 0.0000 29.3577
#
#
#
# Elastic Compliance Matrix: (Units=1/GPa)
#
#
# Indices 1 2 3 4 5 6 
#
# 1 0.014449 -0.006993 -0.004816 0.000000 0.000674 0.000000
# 2 -0.006993 0.021778 -0.007020 0.000000 -0.001265 0.000000
# 3 -0.004816 -0.007020 0.021418 0.000000 -0.008044 0.000000
# 4 0.000000 0.000000 0.000000 0.054157 0.000000 0.002014
# 5 0.000674 -0.001265 -0.008044 0.000000 0.076815 0.000000
# 6 0.000000 0.000000 0.000000 0.002014 0.000000 0.034138
#
#
# Mechanical properties :
#
#
# Convention : Reuss Voigt Hill
#
# Bulk Modulus (GPa) = 50.03279 55.29444 52.66362
# Shear Modulus (GPa) = 18.72142 20.66775 19.69459
#
# Velocity S-wave (km/s) = 3.41201 3.58499 3.49957
# Velocity P-wave (km/s) = 6.82899 7.17780 7.00556
#
# Compressibility (1/GPa) = 0.01998689
#
# Stress axis : x y z
#
# Youngs Moduli (GPa) = 69.21065 45.91803 46.68977
#
# Poissons Ratio (x) = 0.32109 0.22488
# Poissons Ratio (y) = 0.48396 0.32775
# Poissons Ratio (z) = 0.33335 0.32233
#
# Static dielectric constant tensor:
#      x y z
#    x 3.191300 0.000000 -0.100090 
#    y 0.000000 3.054670 0.000000 
#    z -0.100090 0.000000 2.782060 
# 
# 
# High freq. dielectric constant tensor:
#      x y z
#    x 1.622850 0.000000 -0.007490 
#    y 0.000000 1.626490 0.000000 
#    z -0.007490 0.000000 1.570780 
# 
# From -- ./inp_files/249266.got.cif
#   From: 2010.06.25/outbox.cif.g09.slc.cpg/sg12_125_cif.got.tgz:249266.got - 2010.06.28 00:19:55.
