data_PCOD8080002
_publ_section_title
;
Structure prediction by ZEFSAII (Michael W. Deem and Ramdas Pophale) SiO2 
 PCOD8080002
Probable space group: C 2/M
;
_chemical_formula_sum "Si O2"
_cell_formula_units_Z 64
_cell_length_a 5.198657
_cell_length_b 31.948906
_cell_length_c 29.585032
_cell_angle_alpha 90.000000
_cell_angle_beta 51.918639
_cell_angle_gamma 90.000000
_cell_volume 3867.842796
_symmetry_space_group_name_H-M "C 2/M"
_symmetry_group_IT_number 12
_symmetry_cell_setting 'monoclinic'
loop_
_space_group_symop_operation_xyz
x,y,z
-x,y,-z
-x,-y,-z
x,-y,z
1/2+x,1/2+y,z
1/2-x,1/2+y,-z
1/2-x,1/2-y,-z
1/2+x,1/2-y,z
loop_
_atom_site_type_symbol
_atom_site_label
_atom_site_fract_x
_atom_site_fract_y
_atom_site_fract_z
Si Si1 0.623826 0.401499 0.748501
Si Si2 0.875747 0.825581 0.964083
Si Si3 0.492253 0.140793 0.218321
Si Si4 0.462965 0.950270 0.368287
Si Si5 0.791332 0.450835 0.132762
Si Si6 0.093853 0.091651 0.900135
Si Si7 0.180314 0.276930 0.154444
Si Si8 0.727119 0.950215 0.435460
O O1 0.385491 0.372169 0.745048
O O2 0.426048 0.429750 0.805096
O O3 0.878194 0.371220 0.746261
O O4 0.815138 0.432520 0.695328
O O5 0.916801 0.875249 0.951956
O O6 0.074842 0.799266 0.906280
O O7 0.500000 0.812724 0.000000
O O8 0.000000 0.813150 0.000000
O O9 0.696384 0.116602 0.158781
O O10 0.534075 0.190261 0.206267
O O11 0.592863 0.933795 0.402257
O O12 0.094262 0.933841 0.402554
O O13 0.481263 0.000000 0.363107
O O14 0.751933 0.500000 0.142194
O O15 0.675270 0.436557 0.095762
O O16 0.169803 0.438013 0.096300
O O17 0.374113 0.241330 0.160271
O O18 0.500000 0.931953 0.500000
O O19 0.718706 0.000000 0.437757
#
# Coordination Sequence:
#
# PCOD8080002 Si02
#       8
#     8   8   8   8   8   8   8   8
#     4  10  18  30  46  68  94 119 153 191 234 273
#     4  11  22  36  54  72  93 120 145 178 224 265
#     4   9  19  33  48  66  92 123 147 173 219 282
#     4  10  18  27  42  65  91 121 165 213 241 259
#     4  10  18  30  49  68  88 114 149 194 234 267
#     4   9  19  33  48  66  88 118 149 176 219 282
#     4  11  22  36  54  76  98 118 147 178 209 265
#     4   9  17  28  40  56  85 127 170 207 241 275
#
# _framework density 16.546690999999999
#
# number of rings (size 3 to 8) (size 9 to 14) (size 15 to 20)
#    0.000    2.125    0.000    4.125    0.000    7.000 
#    0.000    3.750    0.000    7.500    0.000    0.000 
#    0.000    0.000    0.000    0.000    0.000  157.500 
#
# Total GULP energy -396857.894681 kJ/mol
# GULP energy per Si atom -12401.809209 kJ/mol
# Density = 1.650903 g / cm^3
# Si number density = 16.546691 Si / 1000 Ang^3
#
#
#
# Elastic Constant Matrix: (Units=GPa)
#
#
# Indices 1 2 3 4 5 6 
#
# 1 144.5583 28.8416 24.9812 0.0000 1.7057 0.0000
# 2 28.8416 66.3764 16.1658 0.0000 1.6417 0.0000
# 3 24.9812 16.1658 36.8477 0.0000 1.1940 0.0000
# 4 0.0000 0.0000 0.0000 13.8676 0.0000 -1.2311
# 5 1.7057 1.6417 1.1940 0.0000 22.8328 0.0000
# 6 0.0000 0.0000 0.0000 -1.2311 0.0000 27.3948
#
#
#
# Elastic Compliance Matrix: (Units=1/GPa)
#
#
# Indices 1 2 3 4 5 6 
#
# 1 0.008182 -0.002464 -0.004460 0.000000 -0.000201 0.000000
# 2 -0.002464 0.017626 -0.006037 0.000000 -0.000767 0.000000
# 3 -0.004460 -0.006037 0.032842 0.000000 -0.000950 0.000000
# 4 0.000000 0.000000 0.000000 0.072399 0.000000 0.003254
# 5 -0.000201 -0.000767 -0.000950 0.000000 0.043916 0.000000
# 6 0.000000 0.000000 0.000000 0.003254 0.000000 0.036650
#
#
# Mechanical properties :
#
#
# Convention : Reuss Voigt Hill
#
# Bulk Modulus (GPa) = 30.55538 43.08440 36.81989
# Shear Modulus (GPa) = 20.12508 24.67197 22.39853
#
# Velocity S-wave (km/s) = 3.49128 3.86560 3.68320
# Velocity P-wave (km/s) = 5.89561 6.78369 6.35518
#
# Compressibility (1/GPa) = 0.03272746
#
# Stress axis : x y z
#
# Youngs Moduli (GPa) = 122.21459 56.73543 30.44912
#
# Poissons Ratio (x) = 0.13981 0.13579
# Poissons Ratio (y) = 0.30117 0.18383
# Poissons Ratio (z) = 0.54504 0.34252
#
# Static dielectric constant tensor:
#      x y z
#    x 3.495330 0.000000 0.004250 
#    y 0.000000 2.958800 0.000000 
#    z 0.004250 0.000000 2.929890 
# 
# 
# High freq. dielectric constant tensor:
#      x y z
#    x 1.663410 0.000000 0.000380 
#    y 0.000000 1.609670 0.000000 
#    z 0.000380 0.000000 1.611060 
# 
# From -- ./inp_files/355265.got.cif
#   From: 2010.06.25/outbox.cif.g09.slc.cpg/sg12_178_cif.got.tgz:355265.got - 2010.06.28 00:19:55.
