data_PCOD8080203
_publ_section_title
;
Structure prediction by ZEFSAII (Michael W. Deem and Ramdas Pophale) SiO2 
 PCOD8080203
Probable space group: C 2/M
;
_chemical_formula_sum "Si O2"
_cell_formula_units_Z 64
_cell_length_a 31.699808
_cell_length_b 9.266890
_cell_length_c 30.329940
_cell_angle_alpha 90.000000
_cell_angle_beta 150.572283
_cell_angle_gamma 90.000000
_cell_volume 4377.550701
_symmetry_space_group_name_H-M "C 2/M"
_symmetry_group_IT_number 12
_symmetry_cell_setting 'monoclinic'
loop_
_space_group_symop_operation_xyz
x,y,z
-x,y,-z
-x,-y,-z
x,-y,z
1/2+x,1/2+y,z
1/2-x,1/2+y,-z
1/2-x,1/2-y,-z
1/2+x,1/2-y,z
loop_
_atom_site_type_symbol
_atom_site_label
_atom_site_fract_x
_atom_site_fract_y
_atom_site_fract_z
Si Si1 0.635802 0.664481 0.483180
Si Si2 0.332614 0.169175 0.666847
Si Si3 0.442120 0.336904 0.990464
Si Si4 0.836947 0.832962 0.588367
Si Si5 0.419163 0.167059 0.837152
Si Si6 0.304181 0.830963 0.816251
Si Si7 0.545056 0.166473 0.474134
Si Si8 0.367501 0.167895 0.356589
O O1 0.630000 0.500000 0.493238
O O2 0.733382 0.718816 0.579848
O O3 0.607412 0.681552 0.405922
O O4 0.568988 0.751715 0.451524
O O5 0.379843 0.256551 0.670086
O O6 0.379854 0.211510 0.754682
O O7 0.338689 0.000000 0.661877
O O8 0.418455 0.500000 0.982871
O O9 0.355824 0.247179 0.902574
O O10 0.500000 0.335347 0.000000
O O11 0.495121 0.260902 0.077883
O O12 0.750000 0.750000 0.500000
O O13 0.818463 0.000000 0.582096
O O14 0.348091 0.201263 0.809318
O O15 0.445730 0.000000 0.863126
O O16 0.209216 0.767726 0.729304
O O17 0.300873 0.000000 0.823647
O O18 0.445673 0.195141 0.394298
O O19 0.604234 0.217037 0.568787
O O20 0.561638 0.000000 0.480511
O O21 0.340174 0.000000 0.331494
#
# Coordination Sequence:
#
# PCOD8080203 Si02
#       8
#     8   8   8   8   8   8   8   8
#     4   9  17  28  41  58  81 107 137 171 203 236
#     4   9  17  28  41  59  83 109 136 168 203 238
#     4   9  17  28  41  58  80 106 136 168 200 236
#     4   9  17  28  40  56  79 106 135 168 203 239
#     4   9  17  28  41  59  84 109 135 168 202 238
#     4  10  18  28  43  60  79 108 140 167 202 242
#     4   9  18  30  43  58  79 108 138 169 205 240
#     4   9  18  31  42  57  82 107 135 172 206 236
#
# _framework density 14.620047
#
# number of rings (size 3 to 8) (size 9 to 14) (size 15 to 20)
#    0.000    2.875    0.000    3.375    0.000    7.000 
#    0.000    1.250    0.000    0.000    0.000    0.000 
#    0.000    1.000    0.000    3.250    0.000    4.750 
#
# Total GULP energy -396699.792449 kJ/mol
# GULP energy per Si atom -12396.868514 kJ/mol
# Density = 1.458677 g / cm^3
# Si number density = 14.620047 Si / 1000 Ang^3
#
#
#
# Elastic Constant Matrix: (Units=GPa)
#
#
# Indices 1 2 3 4 5 6 
#
# 1 77.7421 44.7186 36.8082 0.0000 -11.1342 0.0000
# 2 44.7186 82.3064 51.7755 0.0000 -4.2283 0.0001
# 3 36.8082 51.7755 93.3464 0.0000 -8.1215 0.0000
# 4 0.0000 0.0000 0.0000 27.8602 0.0000 -1.1327
# 5 -11.1342 -4.2283 -8.1215 0.0000 19.6096 0.0000
# 6 0.0000 0.0001 0.0000 -1.1327 0.0000 25.8372
#
#
#
# Elastic Compliance Matrix: (Units=1/GPa)
#
#
# Indices 1 2 3 4 5 6 
#
# 1 0.020503 -0.009343 -0.002142 0.000000 0.008740 0.000000
# 2 -0.009343 0.022920 -0.009399 0.000000 -0.004256 0.000000
# 3 -0.002142 -0.009399 0.017105 0.000000 0.003841 0.000000
# 4 0.000000 0.000000 0.000000 0.035958 0.000000 0.001576
# 5 0.008740 -0.004256 0.003841 0.000000 0.056631 0.000000
# 6 0.000000 0.000000 0.000000 0.001576 0.000000 0.038773
#
#
# Mechanical properties :
#
#
# Convention : Reuss Voigt Hill
#
# Bulk Modulus (GPa) = 53.30584 57.77772 55.54178
# Shear Modulus (GPa) = 20.84102 22.66758 21.75430
#
# Velocity S-wave (km/s) = 3.77969 3.94184 3.86162
# Velocity P-wave (km/s) = 7.45574 7.76677 7.61284
#
# Compressibility (1/GPa) = 0.01875967
#
# Stress axis : x y z
#
# Youngs Moduli (GPa) = 48.77227 43.63028 58.46339
#
# Poissons Ratio (x) = 0.40766 0.12523
# Poissons Ratio (y) = 0.45570 0.54948
# Poissons Ratio (z) = 0.10447 0.41007
#
# Static dielectric constant tensor:
#      x y z
#    x 2.838330 0.000000 -0.235620 
#    y 0.000000 2.935270 0.000000 
#    z -0.235620 0.000000 2.777590 
# 
# 
# High freq. dielectric constant tensor:
#      x y z
#    x 1.532370 0.000000 -0.014800 
#    y 0.000000 1.569540 0.000000 
#    z -0.014800 0.000000 1.538730 
# 
# From -- ./inp_files/248322.got.cif
#   From: 2010.06.25/outbox.cif.g09.slc.cpg/sg12_125_cif.got.tgz:248322.got - 2010.06.28 00:19:55.
