data_PCOD8080906
_publ_section_title
;
Structure prediction by ZEFSAII (Michael W. Deem and Ramdas Pophale) SiO2 
 PCOD8080906
Probable space group: C 2/M
;
_chemical_formula_sum "Si O2"
_cell_formula_units_Z 64
_cell_length_a 21.483964
_cell_length_b 17.331136
_cell_length_c 12.676762
_cell_angle_alpha 90.000000
_cell_angle_beta 128.318057
_cell_angle_gamma 90.000000
_cell_volume 3703.288724
_symmetry_space_group_name_H-M "C 2/M"
_symmetry_group_IT_number 12
_symmetry_cell_setting 'monoclinic'
loop_
_space_group_symop_operation_xyz
x,y,z
-x,y,-z
-x,-y,-z
x,-y,z
1/2+x,1/2+y,z
1/2-x,1/2+y,-z
1/2-x,1/2-y,-z
1/2+x,1/2-y,z
loop_
_atom_site_type_symbol
_atom_site_label
_atom_site_fract_x
_atom_site_fract_y
_atom_site_fract_z
Si Si1 0.343590 0.088359 0.728663
Si Si2 0.354001 0.909494 0.983910
Si Si3 0.061151 0.150675 0.191262
Si Si4 0.007350 0.321961 0.129645
Si Si5 0.087877 0.091613 0.606942
Si Si6 0.189326 0.908467 0.906022
Si Si7 0.400979 0.587716 0.986312
Si Si8 0.670869 0.589663 0.481703
O O1 0.330528 0.108440 0.838214
O O2 0.412564 0.137411 0.745180
O O3 0.264362 0.106332 0.579347
O O4 0.368268 0.000000 0.743882
O O5 0.279736 0.883453 0.978425
O O6 0.373815 0.000000 0.019624
O O7 0.428877 0.858113 0.101829
O O8 0.016134 0.231585 0.158904
O O9 0.102541 0.143390 0.119570
O O10 0.129332 0.140055 0.348324
O O11 0.990656 0.087903 0.128188
O O12 0.000000 0.343514 0.000000
O O13 0.129702 0.126491 0.755185
O O14 0.138525 0.117175 0.559862
O O15 0.000000 0.126520 0.500000
O O16 0.084130 0.000000 0.611971
O O17 0.182447 0.000000 0.892703
O O18 0.161459 0.880333 0.992638
O O19 0.380072 0.500000 0.931920
O O20 0.652276 0.500000 0.441571
#
# Coordination Sequence:
#
# PCOD8080906 Si02
#       8
#     8   8   8   8   8   8   8   8
#     4   9  17  30  50  75  98 120 154 202 256 303
#     4   9  16  30  52  76  99 121 154 206 259 300
#     4  11  20  32  46  66 101 137 170 198 230 282
#     4  10  19  32  49  68 100 130 164 201 244 294
#     4   9  15  24  40  66  96 121 148 192 247 296
#     4   9  16  28  48  74  98 120 159 209 252 288
#     4  10  19  32  48  67  94 134 176 208 231 272
#     4  10  18  29  47  71  98 127 160 200 245 292
#
# _framework density 17.281936000000002
#
# number of rings (size 3 to 8) (size 9 to 14) (size 15 to 20)
#    0.000    2.375    2.500    2.625    0.000    4.000 
#    0.000    0.625    0.000    0.000    0.000    0.875 
#    0.000    5.000    0.000    0.000    0.000    0.000 
#
# Total GULP energy -396681.360248 kJ/mol
# GULP energy per Si atom -12396.292508 kJ/mol
# Density = 1.724260 g / cm^3
# Si number density = 17.281936 Si / 1000 Ang^3
#
#
#
# Elastic Constant Matrix: (Units=GPa)
#
#
# Indices 1 2 3 4 5 6 
#
# 1 122.4240 33.3942 46.6379 0.0000 8.5548 0.0000
# 2 33.3942 52.6613 32.6493 0.0000 4.1814 0.0000
# 3 46.6379 32.6493 67.1811 0.0000 7.5004 0.0000
# 4 0.0000 0.0000 0.0000 18.3975 0.0000 4.5219
# 5 8.5548 4.1814 7.5004 0.0000 21.0265 0.0000
# 6 0.0000 0.0000 0.0000 4.5219 0.0000 12.4339
#
#
#
# Elastic Compliance Matrix: (Units=1/GPa)
#
#
# Indices 1 2 3 4 5 6 
#
# 1 0.011572 -0.003348 -0.006202 0.000000 -0.001830 0.000000
# 2 -0.003348 0.028157 -0.011339 0.000000 -0.000193 0.000000
# 3 -0.006202 -0.011339 0.025170 0.000000 -0.004200 0.000000
# 4 0.000000 0.000000 0.000000 0.059691 0.000000 -0.021708
# 5 -0.001830 -0.000193 -0.004200 0.000000 0.049840 0.000000
# 6 0.000000 0.000000 0.000000 -0.021708 0.000000 0.088320
#
#
# Mechanical properties :
#
#
# Convention : Reuss Voigt Hill
#
# Bulk Modulus (GPa) = 43.24792 51.95882 47.60337
# Shear Modulus (GPa) = 16.01357 19.01058 17.51208
#
# Velocity S-wave (km/s) = 3.04733 3.32026 3.18672
# Velocity P-wave (km/s) = 6.12053 6.69548 6.41445
#
# Compressibility (1/GPa) = 0.02312250
#
# Stress axis : x y z
#
# Youngs Moduli (GPa) = 86.41435 35.51486 39.72944
#
# Poissons Ratio (x) = 0.11889 0.24641
# Poissons Ratio (y) = 0.28928 0.45048
# Poissons Ratio (z) = 0.53597 0.40269
#
# Static dielectric constant tensor:
#      x y z
#    x 3.342120 0.000000 0.143510 
#    y 0.000000 2.860660 0.000000 
#    z 0.143510 0.000000 3.123480 
# 
# 
# High freq. dielectric constant tensor:
#      x y z
#    x 1.665790 0.000000 0.016550 
#    y 0.000000 1.631430 0.000000 
#    z 0.016550 0.000000 1.648570 
# 
# From -- ./inp_files/168800.got.cif
#   From: 2010.06.25/outbox.cif.g09.slc.cpg/sg12_85_cif.got.tgz:168800.got - 2010.06.28 00:19:55.
