data_PCOD8080600
_publ_section_title
;
Structure prediction by ZEFSAII (Michael W. Deem and Ramdas Pophale) SiO2 
 PCOD8080600
Probable space group: C 2/M
;
_chemical_formula_sum "Si O2"
_cell_formula_units_Z 56
_cell_length_a 9.063104
_cell_length_b 20.016042
_cell_length_c 20.037804
_cell_angle_alpha 90.000000
_cell_angle_beta 46.910578
_cell_angle_gamma 90.000000
_cell_volume 2654.603729
_symmetry_space_group_name_H-M "C 2/M"
_symmetry_group_IT_number 12
_symmetry_cell_setting 'monoclinic'
loop_
_space_group_symop_operation_xyz
x,y,z
-x,y,-z
-x,-y,-z
x,-y,z
1/2+x,1/2+y,z
1/2-x,1/2+y,-z
1/2-x,1/2-y,-z
1/2+x,1/2-y,z
loop_
_atom_site_type_symbol
_atom_site_label
_atom_site_fract_x
_atom_site_fract_y
_atom_site_fract_z
Si Si1 0.099146 0.573021 0.797742
Si Si2 0.071617 0.901506 0.407548
Si Si3 0.724560 0.924685 0.903992
Si Si4 0.173517 0.288328 0.618661
Si Si5 0.701730 0.847429 0.465756
Si Si6 0.911325 0.204757 0.909897
Si Si7 0.644963 0.192015 0.178856
O O1 0.002656 0.500000 0.841326
O O2 0.247522 0.563219 0.687895
O O3 0.221826 0.595957 0.826169
O O4 0.916103 0.623534 0.839861
O O5 0.143043 0.825522 0.399680
O O6 0.000000 0.935966 0.500000
O O7 0.878281 0.901874 0.418240
O O8 0.844209 0.870186 0.910934
O O9 0.817714 0.000000 0.883728
O O10 0.500000 0.924485 0.000000
O O11 0.227020 0.210512 0.606685
O O12 0.151340 0.315344 0.551821
O O13 0.956556 0.304987 0.717528
O O14 0.500000 0.882824 0.500000
O O15 0.952600 0.245600 0.829987
O O16 0.113513 0.197444 0.891387
O O17 0.750000 0.250000 0.000000
#
# Coordination Sequence:
#
# PCOD8080600 Si02
#       7
#     8   8   8   8   8   8   8
#     4  10  22  41  63  88 120 166 218 257 306 374
#     4   9  19  34  51  80 117 158 205 251 305 363
#     4  10  22  42  66  89 120 163 205 250 306 369
#     4   9  19  31  46  78 111 155 192 237 307 357
#     4  10  18  28  50  76 116 149 191 247 294 365
#     4  12  25  41  62  94 128 159 199 254 313 370
#     4  11  24  36  61  88 121 160 201 255 308 364
#
# _framework density 21.095427000000001
#
# number of rings (size 3 to 8) (size 9 to 14) (size 15 to 20)
#    0.000    1.857    0.000    5.143    8.000    0.857 
#    0.000    0.000    0.000    4.714    0.000    0.000 
#    0.000    0.000    0.000    0.000    0.000    0.000 
#
# Total GULP energy -347007.960018 kJ/mol
# GULP energy per Si atom -12393.141429 kJ/mol
# Density = 2.104741 g / cm^3
# Si number density = 21.095427 Si / 1000 Ang^3
#
#
#
# Elastic Constant Matrix: (Units=GPa)
#
#
# Indices 1 2 3 4 5 6 
#
# 1 133.8574 54.5036 21.9157 -0.0004 -23.3455 0.0011
# 2 54.5036 116.3779 16.9877 -0.0001 -5.6141 0.0004
# 3 21.9157 16.9877 87.0516 -0.0001 1.1826 0.0001
# 4 -0.0004 -0.0001 -0.0001 4.8951 0.0001 -2.1600
# 5 -23.3455 -5.6141 1.1826 0.0001 31.5961 -0.0005
# 6 0.0011 0.0004 0.0001 -2.1600 -0.0005 22.2364
#
#
#
# Elastic Compliance Matrix: (Units=1/GPa)
#
#
# Indices 1 2 3 4 5 6 
#
# 1 0.010886 -0.004457 -0.001970 0.000001 0.007325 0.000000
# 2 -0.004457 0.010755 -0.000958 0.000000 -0.001346 0.000000
# 3 -0.001970 -0.000958 0.012199 0.000000 -0.002083 0.000000
# 4 0.000001 0.000000 0.000000 0.213435 0.000000 0.020733
# 5 0.007325 -0.001346 -0.002083 0.000000 0.036900 0.000000
# 6 0.000000 0.000000 0.000000 0.020733 0.000000 0.046985
#
#
# Mechanical properties :
#
#
# Convention : Reuss Voigt Hill
#
# Bulk Modulus (GPa) = 52.44416 58.23343 55.33879
# Shear Modulus (GPa) = 14.19294 28.00418 21.09856
#
# Velocity S-wave (km/s) = 2.59665 3.64744 3.16594
# Velocity P-wave (km/s) = 5.82276 6.73818 6.29713
#
# Compressibility (1/GPa) = 0.01906790
#
# Stress axis : x y z
#
# Youngs Moduli (GPa) = 91.86510 92.97955 81.97548
#
# Poissons Ratio (x) = 0.41442 0.16151
# Poissons Ratio (y) = 0.40945 0.07857
# Poissons Ratio (z) = 0.18099 0.08911
#
# Static dielectric constant tensor:
#      x y z
#    x 3.838390 0.000000 0.201260 
#    y 0.000000 3.782870 0.000000 
#    z 0.201260 0.000000 3.979000 
# 
# 
# High freq. dielectric constant tensor:
#      x y z
#    x 1.815970 0.000000 0.011390 
#    y 0.000000 1.810380 0.000000 
#    z 0.011390 0.000000 1.836720 
# 
# From -- ./inp_files/301638.got.cif
#   From: 2010.06.25/outbox.cif.g09.slc.cpg/sg12_151_cif.got.tgz:301638.got - 2010.06.28 00:19:55.
