data_PCOD8080897
_publ_section_title
;
Structure prediction by ZEFSAII (Michael W. Deem and Ramdas Pophale) SiO2 
 PCOD8080897
Probable space group: C 2/M
;
_chemical_formula_sum "Si O2"
_cell_formula_units_Z 40
_cell_length_a 16.734300
_cell_length_b 10.387109
_cell_length_c 17.115362
_cell_angle_alpha 90.000000
_cell_angle_beta 137.181129
_cell_angle_gamma 90.000000
_cell_volume 2022.063041
_symmetry_space_group_name_H-M "C 2/M"
_symmetry_group_IT_number 12
_symmetry_cell_setting 'monoclinic'
loop_
_space_group_symop_operation_xyz
x,y,z
-x,y,-z
-x,-y,-z
x,-y,z
1/2+x,1/2+y,z
1/2-x,1/2+y,-z
1/2-x,1/2-y,-z
1/2+x,1/2-y,z
loop_
_atom_site_type_symbol
_atom_site_label
_atom_site_fract_x
_atom_site_fract_y
_atom_site_fract_z
Si Si1 0.913414 0.260507 0.257018
Si Si2 0.903724 0.353721 0.498500
Si Si3 0.724853 0.253343 0.259093
Si Si4 0.829305 0.000000 0.142244
Si Si5 0.129499 0.500000 0.129308
Si Si6 0.124796 0.000000 0.127659
Si Si7 0.302315 0.000000 0.113408
O O1 0.817830 0.256933 0.256310
O O2 0.883479 0.372547 0.173121
O O3 0.042105 0.287332 0.385511
O O4 0.912693 0.123971 0.212560
O O5 0.863367 0.500000 0.488172
O O6 0.793592 0.266840 0.390860
O O7 0.000000 0.358947 0.500000
O O8 0.648785 0.123070 0.199310
O O9 0.636371 0.373448 0.189213
O O10 0.720772 0.000000 0.123825
O O11 0.779525 0.000000 0.019974
O O12 0.000000 0.500000 0.000000
O O13 0.224972 0.000000 0.135045
O O14 0.000000 0.000000 0.000000
#
# Coordination Sequence:
#
# PCOD8080897 Si02
#       7
#     8   8   8   4   4   4   4
#     4   9  17  28  45  68  94 120 151 190 233 275
#     4   9  14  25  45  68  93 118 146 191 242 275
#     4   9  17  28  45  68  93 119 152 190 232 276
#     4  10  20  31  45  69  95 124 159 188 224 276
#     4  10  20  33  45  65  97 128 153 188 232 274
#     4  10  18  29  47  71  93 120 155 190 224 268
#     4  10  18  31  47  67  95 126 153 188 228 272
#
# _framework density 19.781777999999999
#
# number of rings (size 3 to 8) (size 9 to 14) (size 15 to 20)
#    0.000    2.600    2.000    1.200    0.000    0.800 
#    0.000    4.000    0.000    0.000    0.000    8.400 
#    0.000    0.000    0.000    0.000    0.000    0.000 
#
# Total GULP energy -247931.303749 kJ/mol
# GULP energy per Si atom -12396.565187 kJ/mol
# Density = 1.973675 g / cm^3
# Si number density = 19.781778 Si / 1000 Ang^3
#
#
#
# Elastic Constant Matrix: (Units=GPa)
#
#
# Indices 1 2 3 4 5 6 
#
# 1 3.2882 7.8462 1.1922 0.0000 4.2449 0.0000
# 2 7.8462 210.5818 115.2734 0.0000 8.3892 0.0000
# 3 1.1922 115.2734 207.2755 0.0000 12.6685 0.0000
# 4 0.0000 0.0000 0.0000 45.3498 0.0000 2.7066
# 5 4.2449 8.3892 12.6685 0.0000 24.0703 0.0000
# 6 0.0000 0.0000 0.0000 2.7066 0.0000 6.0981
#
#
#
# Elastic Compliance Matrix: (Units=1/GPa)
#
#
# Indices 1 2 3 4 5 6 
#
# 1 0.453532 -0.021508 0.014241 0.000000 -0.079982 0.000000
# 2 -0.021508 0.007851 -0.004450 0.000000 0.003399 0.000000
# 3 0.014241 -0.004450 0.007518 0.000000 -0.004917 0.000000
# 4 0.000000 0.000000 0.000000 0.022651 0.000000 -0.010054
# 5 -0.079982 0.003399 -0.004917 0.000000 0.057054 0.000000
# 6 0.000000 0.000000 0.000000 -0.010054 0.000000 0.168449
#
#
# Mechanical properties :
#
#
# Convention : Reuss Voigt Hill
#
# Bulk Modulus (GPa) = 2.24483 74.41877 38.33180
# Shear Modulus (GPa) = 5.62445 34.89255 20.25850
#
# Velocity S-wave (km/s) = 1.68802 4.20441 3.20363
# Velocity P-wave (km/s) = 2.22182 7.82757 5.75358
#
# Compressibility (1/GPa) = 0.44546723
#
# Stress axis : x y z
#
# Youngs Moduli (GPa) = 2.20492 127.37688 133.01414
#
# Poissons Ratio (x) = 2.73959 -1.89428
# Poissons Ratio (y) = 0.04742 0.59193
# Poissons Ratio (z) = -0.03140 0.56684
#
# Static dielectric constant tensor:
#      x y z
#    x 2.717730 0.000000 -0.033970 
#    y 0.000000 4.014620 0.000000 
#    z -0.033970 0.000000 3.751560 
# 
# 
# High freq. dielectric constant tensor:
#      x y z
#    x 1.696690 0.000000 0.006980 
#    y 0.000000 1.784670 0.000000 
#    z 0.006980 0.000000 1.789370 
# 
# From -- ./inp_files/163573.got.cif
#   From: 2010.06.25/outbox.cif.g09.slc.cpg/sg12_82_cif.got.tgz:163573.got - 2010.06.28 00:19:55.
