data_PCOD8080936
_publ_section_title
;
Structure prediction by ZEFSAII (Michael W. Deem and Ramdas Pophale) SiO2 
 PCOD8080936
Probable space group: C 2/M
;
_chemical_formula_sum "Si O2"
_cell_formula_units_Z 56
_cell_length_a 25.481169
_cell_length_b 14.073749
_cell_length_c 8.991017
_cell_angle_alpha 90.000000
_cell_angle_beta 55.746272
_cell_angle_gamma 90.000000
_cell_volume 2665.070746
_symmetry_space_group_name_H-M "C 2/M"
_symmetry_group_IT_number 12
_symmetry_cell_setting 'monoclinic'
loop_
_space_group_symop_operation_xyz
x,y,z
-x,y,-z
-x,-y,-z
x,-y,z
1/2+x,1/2+y,z
1/2-x,1/2+y,-z
1/2-x,1/2-y,-z
1/2+x,1/2-y,z
loop_
_atom_site_type_symbol
_atom_site_label
_atom_site_fract_x
_atom_site_fract_y
_atom_site_fract_z
Si Si1 0.168103 0.106887 0.445976
Si Si2 0.842307 0.244606 0.104650
Si Si3 0.613584 0.214414 0.665058
Si Si4 0.439389 0.111535 0.503570
Si Si5 0.255543 0.109654 0.569624
Si Si6 0.179847 0.893643 0.088884
Si Si7 0.678541 0.891718 0.107053
O O1 0.117861 0.178399 0.597877
O O2 0.234461 0.111065 0.430136
O O3 0.179372 0.139463 0.259621
O O4 0.139892 0.000000 0.498491
O O5 0.895741 0.277179 0.140305
O O6 0.787952 0.186621 0.277966
O O7 0.866492 0.171312 0.938089
O O8 0.818676 0.336313 0.053167
O O9 0.557089 0.163371 0.663822
O O10 0.673392 0.146706 0.534915
O O11 0.500000 0.145576 0.500000
O O12 0.376174 0.143824 0.693646
O O13 0.441085 0.000000 0.472123
O O14 0.250380 0.000000 0.640223
O O15 0.155159 0.000000 0.109966
O O16 0.253533 0.881389 0.917379
O O17 0.665958 0.000000 0.080948
#
# Coordination Sequence:
#
# PCOD8080936 Si02
#       7
#     8   8   8   8   8   8   8
#     4   9  18  31  49  77 114 149 177 203 238 300
#     4  11  20  30  48  77 107 136 168 204 251 304
#     4  11  20  32  52  76 104 141 176 212 256 300
#     4  10  22  40  58  74  95 130 177 222 261 304
#     4  10  19  31  47  75 113 146 174 202 241 300
#     4  10  18  29  47  74 109 144 171 197 238 299
#     4  10  20  33  51  74 103 138 172 209 251 299
#
# _framework density 21.012575999999999
#
# number of rings (size 3 to 8) (size 9 to 14) (size 15 to 20)
#    0.000    1.857    0.000    6.429    0.000    4.000 
#    0.000    0.714    0.000    3.000    0.000    0.000 
#    0.000   10.286    0.000    0.000    0.000    0.000 
#
# Total GULP energy -346939.615346 kJ/mol
# GULP energy per Si atom -12390.700548 kJ/mol
# Density = 2.096475 g / cm^3
# Si number density = 21.012576 Si / 1000 Ang^3
#
#
#
# Elastic Constant Matrix: (Units=GPa)
#
#
# Indices 1 2 3 4 5 6 
#
# 1 103.0506 46.0636 30.4789 0.0000 44.8153 0.0000
# 2 46.0636 97.6014 32.4126 0.0000 23.7560 0.0000
# 3 30.4789 32.4126 58.2081 0.0000 33.5067 0.0000
# 4 0.0000 0.0000 0.0000 26.3825 0.0000 16.8883
# 5 44.8153 23.7560 33.5067 0.0000 35.0455 0.0000
# 6 0.0000 0.0000 0.0000 16.8883 0.0000 31.7120
#
#
#
# Elastic Compliance Matrix: (Units=1/GPa)
#
#
# Indices 1 2 3 4 5 6 
#
# 1 0.028882 -0.007515 0.016434 0.000000 -0.047553 0.000000
# 2 -0.007515 0.014792 -0.009033 0.000000 0.008219 0.000000
# 3 0.016434 -0.009033 0.049322 0.000000 -0.062049 0.000000
# 4 0.000000 0.000000 0.000000 0.057509 0.000000 -0.030626
# 5 -0.047553 0.008219 -0.062049 0.000000 0.143096 0.000000
# 6 0.000000 0.000000 0.000000 -0.030626 0.000000 0.047844
#
#
# Mechanical properties :
#
#
# Convention : Reuss Voigt Hill
#
# Bulk Modulus (GPa) = 10.77952 52.97447 31.87699
# Shear Modulus (GPa) = 13.41941 28.62166 21.02054
#
# Velocity S-wave (km/s) = 2.52987 3.69470 3.16631
# Velocity P-wave (km/s) = 3.69795 6.59292 5.34516
#
# Compressibility (1/GPa) = 0.09276854
#
# Stress axis : x y z
#
# Youngs Moduli (GPa) = 34.62331 67.60601 20.27494
#
# Poissons Ratio (x) = 0.50803 -0.33320
# Poissons Ratio (y) = 0.26018 0.18315
# Poissons Ratio (z) = -0.56900 0.61069
#
# Static dielectric constant tensor:
#      x y z
#    x 3.727160 0.000000 0.616290 
#    y 0.000000 4.102590 0.000000 
#    z 0.616290 0.000000 3.665940 
# 
# 
# High freq. dielectric constant tensor:
#      x y z
#    x 1.787400 0.000000 0.061690 
#    y 0.000000 1.845910 0.000000 
#    z 0.061690 0.000000 1.794500 
# 
# From -- ./inp_files/96473.got.cif
#   From: 2010.06.25/outbox.cif.g09.slc.cpg/sg12_49_cif.got.tgz:96473.got - 2010.06.28 00:19:55.
