data_PCOD8080784
_publ_section_title
;
Structure prediction by ZEFSAII (Michael W. Deem and Ramdas Pophale) SiO2 
 PCOD8080784
Probable space group: C 2/M
;
_chemical_formula_sum "Si O2"
_cell_formula_units_Z 48
_cell_length_a 14.992546
_cell_length_b 17.959871
_cell_length_c 12.235711
_cell_angle_alpha 90.000000
_cell_angle_beta 61.191628
_cell_angle_gamma 90.000000
_cell_volume 2886.882070
_symmetry_space_group_name_H-M "C 2/M"
_symmetry_group_IT_number 12
_symmetry_cell_setting 'monoclinic'
loop_
_space_group_symop_operation_xyz
x,y,z
-x,y,-z
-x,-y,-z
x,-y,z
1/2+x,1/2+y,z
1/2-x,1/2+y,-z
1/2-x,1/2-y,-z
1/2+x,1/2-y,z
loop_
_atom_site_type_symbol
_atom_site_label
_atom_site_fract_x
_atom_site_fract_y
_atom_site_fract_z
Si Si1 0.479382 0.348934 0.679095
Si Si2 0.353936 0.413616 0.571880
Si Si3 0.648402 0.084311 0.589510
Si Si4 0.282218 0.085595 0.696970
Si Si5 0.947967 0.087609 0.142954
Si Si6 0.966484 0.320157 0.644679
O O1 0.386569 0.392962 0.675707
O O2 0.583022 0.363539 0.550814
O O3 0.489051 0.374772 0.797238
O O4 0.452768 0.262135 0.698041
O O5 0.377505 0.500000 0.532302
O O6 0.234273 0.396703 0.629047
O O7 0.700345 0.095522 0.441719
O O8 0.553129 0.138422 0.664383
O O9 0.608667 0.000000 0.625433
O O10 0.168932 0.114189 0.790188
O O11 0.360591 0.135648 0.719830
O O12 0.297652 0.000000 0.723459
O O13 0.953001 0.000000 0.159151
O O14 0.000000 0.112510 0.000000
O O15 0.000000 0.319465 0.500000
#
# Coordination Sequence:
#
# PCOD8080784 Si02
#       6
#     8   8   8   8   8   8
#     4  11  19  30  45  72 100 125 153 190 243 286
#     4  10  18  29  46  67  98 130 154 188 237 287
#     4   9  17  29  47  71  98 130 159 187 230 284
#     4   9  17  31  49  69  96 127 160 199 232 270
#     4  10  20  35  54  71  89 122 167 205 235 271
#     4  10  19  29  45  72 102 129 156 186 234 291
#
# _framework density 16.626936000000001
#
# number of rings (size 3 to 8) (size 9 to 14) (size 15 to 20)
#    0.000    2.167    3.333    2.500    0.000    4.000 
#    0.000    0.833    0.000    0.000    0.000    0.000 
#    0.000    8.000    0.000    0.000    0.000    0.000 
#
# Total GULP energy -297622.076177 kJ/mol
# GULP energy per Si atom -12400.919841 kJ/mol
# Density = 1.658909 g / cm^3
# Si number density = 16.626936 Si / 1000 Ang^3
#
#
#
# Elastic Constant Matrix: (Units=GPa)
#
#
# Indices 1 2 3 4 5 6 
#
# 1 142.6891 56.8336 43.6026 0.0000 11.8040 0.0000
# 2 56.8336 81.5862 23.3430 0.0000 7.5502 0.0000
# 3 43.6026 23.3430 58.6291 0.0000 9.1195 0.0000
# 4 0.0000 0.0000 0.0000 6.3502 0.0000 7.0807
# 5 11.8040 7.5502 9.1195 0.0000 17.0283 0.0000
# 6 0.0000 0.0000 0.0000 7.0807 0.0000 15.3250
#
#
#
# Elastic Compliance Matrix: (Units=1/GPa)
#
#
# Indices 1 2 3 4 5 6 
#
# 1 0.011342 -0.006078 -0.005685 0.000000 -0.002123 0.000000
# 2 -0.006078 0.017281 -0.001989 0.000000 -0.002383 0.000000
# 3 -0.005685 -0.001989 0.023264 0.000000 -0.007636 0.000000
# 4 0.000000 0.000000 0.000000 0.324816 0.000000 -0.150075
# 5 -0.002123 -0.002383 -0.007636 0.000000 0.065344 0.000000
# 6 0.000000 0.000000 0.000000 -0.150075 0.000000 0.134592
#
#
# Mechanical properties :
#
#
# Convention : Reuss Voigt Hill
#
# Bulk Modulus (GPa) = 41.01330 58.94033 49.97681
# Shear Modulus (GPa) = 8.16633 18.34904 13.25768
#
# Velocity S-wave (km/s) = 2.21860 3.32561 2.82682
# Velocity P-wave (km/s) = 5.59314 7.09027 6.38573
#
# Compressibility (1/GPa) = 0.02438233
#
# Stress axis : x y z
#
# Youngs Moduli (GPa) = 88.16887 57.86826 42.98464
#
# Poissons Ratio (x) = 0.35172 0.24436
# Poissons Ratio (y) = 0.53588 0.08551
# Poissons Ratio (z) = 0.50123 0.11512
#
# Static dielectric constant tensor:
#      x y z
#    x 3.377200 0.000000 0.063940 
#    y 0.000000 3.194750 0.000000 
#    z 0.063940 0.000000 2.687430 
# 
# 
# High freq. dielectric constant tensor:
#      x y z
#    x 1.657860 0.000000 0.007070 
#    y 0.000000 1.641570 0.000000 
#    z 0.007070 0.000000 1.578960 
# 
# From -- ./inp_files/144763.got.cif
#   From: 2010.06.25/outbox.cif.g09.slc.cpg/sg12_73_cif.got.tgz:144763.got - 2010.06.28 00:19:55.
