data_PCOD8080465
_publ_section_title
;
Structure prediction by ZEFSAII (Michael W. Deem and Ramdas Pophale) SiO2 
 PCOD8080465
Probable space group: C 2/M
;
_chemical_formula_sum "Si O2"
_cell_formula_units_Z 56
_cell_length_a 19.146596
_cell_length_b 9.199914
_cell_length_c 23.839256
_cell_angle_alpha 90.000000
_cell_angle_beta 47.650265
_cell_angle_gamma 90.000000
_cell_volume 3103.415113
_symmetry_space_group_name_H-M "C 2/M"
_symmetry_group_IT_number 12
_symmetry_cell_setting 'monoclinic'
loop_
_space_group_symop_operation_xyz
x,y,z
-x,y,-z
-x,-y,-z
x,-y,z
1/2+x,1/2+y,z
1/2-x,1/2+y,-z
1/2-x,1/2-y,-z
1/2+x,1/2-y,z
loop_
_atom_site_type_symbol
_atom_site_label
_atom_site_fract_x
_atom_site_fract_y
_atom_site_fract_z
Si Si1 0.567939 0.831801 0.911014
Si Si2 0.745404 0.834197 0.318067
Si Si3 0.448747 0.168994 0.764318
Si Si4 0.388470 0.831860 0.406762
Si Si5 0.756532 0.332441 0.807344
Si Si6 0.537476 0.330271 0.815939
Si Si7 0.693747 0.331593 0.450758
O O1 0.670008 0.768396 0.872502
O O2 0.522142 0.746563 0.883828
O O3 0.579528 0.000000 0.888377
O O4 0.500000 0.809705 0.000000
O O5 0.710945 0.797922 0.273860
O O6 0.686827 0.733791 0.392192
O O7 0.856760 0.801324 0.262900
O O8 0.723912 0.000000 0.345817
O O9 0.519452 0.219577 0.676906
O O10 0.342397 0.199148 0.802464
O O11 0.464401 0.262489 0.811482
O O12 0.466567 0.000000 0.768452
O O13 0.383679 0.741651 0.466940
O O14 0.297971 0.798427 0.417472
O O15 0.394105 0.000000 0.420256
O O16 0.722962 0.500000 0.828300
O O17 0.516080 0.500000 0.834665
O O18 0.670185 0.500000 0.460180
#
# Coordination Sequence:
#
# PCOD8080465 Si02
#       7
#     8   8   8   8   8   8   8
#     4  10  21  38  60  84 109 138 173 212 255 308
#     4   9  17  31  49  72 101 134 175 219 262 311
#     4  10  19  35  55  78 109 141 177 218 266 317
#     4   9  18  30  46  70 101 137 173 217 267 311
#     4   9  20  36  56  81 108 140 174 215 265 316
#     4  10  20  33  55  83 108 138 177 217 259 310
#     4  10  18  28  46  72  98 132 179 224 265 307
#
# _framework density 18.044637000000002
#
# number of rings (size 3 to 8) (size 9 to 14) (size 15 to 20)
#    0.000    2.429    1.429    2.143    0.000    5.143 
#    0.000    1.429    0.000    4.286    0.000    0.000 
#    0.000    0.000    0.000    0.000    0.000    0.000 
#
# Total GULP energy -347277.009969 kJ/mol
# GULP energy per Si atom -12402.750356 kJ/mol
# Density = 1.800357 g / cm^3
# Si number density = 18.044637 Si / 1000 Ang^3
#
#
#
# Elastic Constant Matrix: (Units=GPa)
#
#
# Indices 1 2 3 4 5 6 
#
# 1 99.7239 57.6782 45.2397 0.0000 10.8689 0.0000
# 2 57.6782 108.8287 68.0721 0.0000 13.6786 -0.0003
# 3 45.2397 68.0721 100.3418 0.0000 11.7146 0.0000
# 4 0.0000 0.0000 0.0000 30.4500 0.0000 4.8276
# 5 10.8689 13.6786 11.7146 0.0000 18.2244 0.0000
# 6 0.0000 -0.0003 0.0000 4.8276 0.0000 27.6897
#
#
#
# Elastic Compliance Matrix: (Units=1/GPa)
#
#
# Indices 1 2 3 4 5 6 
#
# 1 0.014902 -0.006159 -0.002208 0.000000 -0.002845 0.000000
# 2 -0.006159 0.019020 -0.009610 0.000000 -0.004425 0.000000
# 3 -0.002208 -0.009610 0.017822 0.000000 -0.002927 0.000000
# 4 0.000000 0.000000 0.000000 0.033774 0.000000 -0.005888
# 5 -0.002845 -0.004425 -0.002927 0.000000 0.061771 0.000000
# 6 0.000000 0.000000 0.000000 -0.005888 0.000000 0.037141
#
#
# Mechanical properties :
#
#
# Convention : Reuss Voigt Hill
#
# Bulk Modulus (GPa) = 63.32925 72.31936 67.82430
# Shear Modulus (GPa) = 22.15842 24.46646 23.31244
#
# Velocity S-wave (km/s) = 3.50805 3.68623 3.59824
# Velocity P-wave (km/s) = 7.18197 7.63431 7.41159
#
# Compressibility (1/GPa) = 0.01579049
#
# Stress axis : x y z
#
# Youngs Moduli (GPa) = 67.10638 52.57594 56.10917
#
# Poissons Ratio (x) = 0.32382 0.12389
# Poissons Ratio (y) = 0.41331 0.53920
# Poissons Ratio (z) = 0.14817 0.50524
#
# Static dielectric constant tensor:
#      x y z
#    x 3.227950 0.000000 0.103410 
#    y 0.000000 3.352360 0.000000 
#    z 0.103410 0.000000 3.175860 
# 
# 
# High freq. dielectric constant tensor:
#      x y z
#    x 1.683230 0.000000 0.014030 
#    y 0.000000 1.703330 0.000000 
#    z 0.014030 0.000000 1.687930 
# 
# From -- ./inp_files/275217.got.cif
#   From: 2010.06.25/outbox.cif.g09.slc.cpg/sg12_138_cif.got.tgz:275217.got - 2010.06.28 00:19:55.
