data_PCOD8080749
_publ_section_title
;
Structure prediction by ZEFSAII (Michael W. Deem and Ramdas Pophale) SiO2 
 PCOD8080749
Probable space group: C 2/M
;
_chemical_formula_sum "Si O2"
_cell_formula_units_Z 56
_cell_length_a 24.142270
_cell_length_b 21.086998
_cell_length_c 18.197868
_cell_angle_alpha 90.000000
_cell_angle_beta 20.800310
_cell_angle_gamma 90.000000
_cell_volume 3289.870046
_symmetry_space_group_name_H-M "C 2/M"
_symmetry_group_IT_number 12
_symmetry_cell_setting 'monoclinic'
loop_
_space_group_symop_operation_xyz
x,y,z
-x,y,-z
-x,-y,-z
x,-y,z
1/2+x,1/2+y,z
1/2-x,1/2+y,-z
1/2-x,1/2-y,-z
1/2+x,1/2-y,z
loop_
_atom_site_type_symbol
_atom_site_label
_atom_site_fract_x
_atom_site_fract_y
_atom_site_fract_z
Si Si1 0.303630 0.321757 0.428357
Si Si2 0.912178 0.155860 0.030876
Si Si3 0.939567 0.658969 0.381782
Si Si4 0.741557 0.688187 0.059800
Si Si5 0.405300 0.309568 0.455037
Si Si6 0.820599 0.232552 0.705708
Si Si7 0.861745 0.426464 0.615494
O O1 0.250000 0.250000 0.500000
O O2 0.171777 0.360380 0.548549
O O3 0.318662 0.344181 0.494759
O O4 0.469066 0.330005 0.182326
O O5 0.779321 0.208883 0.198800
O O6 0.812032 0.091742 0.139113
O O7 0.000000 0.153017 0.000000
O O8 0.922968 0.733422 0.421440
O O9 0.890388 0.614150 0.507857
O O10 0.117064 0.642330 0.138688
O O11 0.574190 0.656497 0.252160
O O12 0.761097 0.703602 0.121722
O O13 0.750000 0.750000 0.000000
O O14 0.317869 0.318491 0.641658
O O15 0.000000 0.253618 0.500000
O O16 0.862342 0.500000 0.594372
O O17 0.000000 0.409876 0.500000
#
# Coordination Sequence:
#
# PCOD8080749 Si02
#       7
#     8   8   8   8   8   8   8
#     4  10  19  31  44  72 100 128 169 200 246 313
#     4  12  20  32  50  70  96 141 168 211 257 297
#     4  10  18  34  46  67  98 129 168 208 256 293
#     4   9  18  26  46  72  93 136 165 202 243 312
#     4   9  17  28  46  72  98 131 163 201 247 314
#     4  10  18  29  45  73 105 133 169 197 246 311
#     4  11  25  39  53  72  97 135 187 227 253 296
#
# _framework density 17.021948999999999
#
# number of rings (size 3 to 8) (size 9 to 14) (size 15 to 20)
#    0.000    1.857    2.857    3.857    6.000    0.286 
#    0.000    0.000    0.000    0.000    0.000    0.000 
#    0.000    8.571    0.000    0.000    0.000    0.000 
#
# Total GULP energy -346895.168563 kJ/mol
# GULP energy per Si atom -12389.113163 kJ/mol
# Density = 1.698321 g / cm^3
# Si number density = 17.021949 Si / 1000 Ang^3
#
#
#
# Elastic Constant Matrix: (Units=GPa)
#
#
# Indices 1 2 3 4 5 6 
#
# 1 148.9661 26.8472 49.5746 -0.0117 0.4635 0.0089
# 2 26.8472 35.5241 25.3058 -0.0010 -4.7122 0.0066
# 3 49.5746 25.3058 98.2682 -0.0036 1.0073 0.0074
# 4 -0.0117 -0.0010 -0.0036 13.9295 0.0025 -2.2050
# 5 0.4635 -4.7122 1.0073 0.0025 35.8544 -0.0055
# 6 0.0089 0.0066 0.0074 -2.2050 -0.0055 14.2429
#
#
#
# Elastic Compliance Matrix: (Units=1/GPa)
#
#
# Indices 1 2 3 4 5 6 
#
# 1 0.008550 -0.004249 -0.003213 0.000006 -0.000579 -0.000001
# 2 -0.004249 0.037425 -0.007547 -0.000005 0.005186 -0.000010
# 3 -0.003213 -0.007547 0.013754 0.000000 -0.001337 -0.000002
# 4 0.000006 -0.000005 0.000000 0.073594 -0.000004 0.011393
# 5 -0.000579 0.005186 -0.001337 -0.000004 0.028617 0.000009
# 6 -0.000001 -0.000010 -0.000002 0.011393 0.000009 0.071974
#
#
# Mechanical properties :
#
#
# Convention : Reuss Voigt Hill
#
# Bulk Modulus (GPa) = 33.65809 54.02374 43.84092
# Shear Modulus (GPa) = 18.25900 24.87408 21.56654
#
# Velocity S-wave (km/s) = 3.27872 3.82684 3.56333
# Velocity P-wave (km/s) = 5.84377 7.16469 6.53768
#
# Compressibility (1/GPa) = 0.02971054
#
# Stress axis : x y z
#
# Youngs Moduli (GPa) = 116.96105 26.71976 72.70427
#
# Poissons Ratio (x) = 0.11354 0.23360
# Poissons Ratio (y) = 0.49702 0.54871
# Poissons Ratio (z) = 0.37580 0.20166
#
# Static dielectric constant tensor:
#      x y z
#    x 4.683660 -0.000040 -1.783930 
#    y -0.000040 2.602340 0.000080 
#    z -1.783930 0.000080 6.815420 
# 
# 
# High freq. dielectric constant tensor:
#      x y z
#    x 1.684490 0.000000 -0.006290 
#    y 0.000000 1.565960 0.000000 
#    z -0.006290 0.000000 1.674250 
# 
# From -- ./inp_files/99605.got.cif
#   From: 2010.06.25/outbox.cif.g09.slc.cpg/sg12_50_cif.got.tgz:99605.got - 2010.06.28 00:19:55.
