data_PCOD8080495
_publ_section_title
;
Structure prediction by ZEFSAII (Michael W. Deem and Ramdas Pophale) SiO2 
 PCOD8080495
Probable space group: C 2/M
;
_chemical_formula_sum "Si O2"
_cell_formula_units_Z 64
_cell_length_a 28.813654
_cell_length_b 9.099857
_cell_length_c 15.457028
_cell_angle_alpha 90.000000
_cell_angle_beta 89.647345
_cell_angle_gamma 90.000000
_cell_volume 4052.757999
_symmetry_space_group_name_H-M "C 2/M"
_symmetry_group_IT_number 12
_symmetry_cell_setting 'monoclinic'
loop_
_space_group_symop_operation_xyz
x,y,z
-x,y,-z
-x,-y,-z
x,-y,z
1/2+x,1/2+y,z
1/2-x,1/2+y,-z
1/2-x,1/2-y,-z
1/2+x,1/2-y,z
loop_
_atom_site_type_symbol
_atom_site_label
_atom_site_fract_x
_atom_site_fract_y
_atom_site_fract_z
Si Si1 0.954193 0.673876 0.176527
Si Si2 0.947902 0.325045 0.501822
Si Si3 0.106514 0.325730 0.662225
Si Si4 0.795963 0.327483 0.399535
Si Si5 0.393510 0.827064 0.671457
Si Si6 0.554750 0.338788 0.990534
Si Si7 0.052572 0.825780 0.180726
Si Si8 0.704553 0.829222 0.402046
O O1 0.961861 0.500000 0.176551
O O2 0.917257 0.725922 0.248807
O O3 0.932633 0.722925 0.084512
O O4 0.003020 0.749580 0.197396
O O5 0.947471 0.500000 0.498154
O O6 0.921513 0.259316 0.418892
O O7 0.923061 0.271616 0.589251
O O8 0.000000 0.262901 0.500000
O O9 0.105383 0.500000 0.654659
O O10 0.159949 0.271796 0.657057
O O11 0.789376 0.500000 0.390800
O O12 0.749426 0.253171 0.363353
O O13 0.805084 0.281325 0.498946
O O14 0.409584 0.736263 0.754097
O O15 0.339749 0.788964 0.655575
O O16 0.400977 0.000000 0.687427
O O17 0.574888 0.500000 0.965804
O O18 0.500000 0.351166 0.000000
O O19 0.572816 0.287732 0.084727
O O20 0.046026 0.000000 0.191835
O O21 0.715419 0.000000 0.397824
#
# Coordination Sequence:
#
# PCOD8080495 Si02
#       8
#     8   8   8   8   8   8   8   8
#     4  10  18  28  47  71  91 115 152 192 222 255
#     4   9  15  24  40  61  87 119 151 179 210 252
#     4   9  16  27  43  67  92 117 151 185 219 263
#     4   9  16  29  47  64  87 118 150 184 223 268
#     4  10  18  29  46  67  88 116 154 192 221 253
#     4   8  16  31  46  61  87 121 149 179 225 273
#     4  10  20  32  45  63  92 125 152 181 223 273
#     4   9  17  29  45  66  89 113 148 191 229 260
#
# _framework density 15.791715999999999
#
# number of rings (size 3 to 8) (size 9 to 14) (size 15 to 20)
#    0.000    2.750    1.250    2.250    0.000    5.250 
#    0.000    1.250    0.000    4.125    0.000    0.875 
#    0.000    0.000    0.000    0.000    0.000    0.000 
#
# Total GULP energy -396674.684651 kJ/mol
# GULP energy per Si atom -12396.083895 kJ/mol
# Density = 1.575577 g / cm^3
# Si number density = 15.791716 Si / 1000 Ang^3
#
#
#
# Elastic Constant Matrix: (Units=GPa)
#
#
# Indices 1 2 3 4 5 6 
#
# 1 115.8814 38.6184 63.3890 0.0000 0.8892 0.0000
# 2 38.6184 46.8128 41.4937 0.0000 3.6843 0.0000
# 3 63.3890 41.4937 119.7163 0.0000 7.2151 0.0000
# 4 0.0000 0.0000 0.0000 16.6956 0.0000 3.8179
# 5 0.8892 3.6843 7.2151 0.0000 12.8700 0.0000
# 6 0.0000 0.0000 0.0000 3.8179 0.0000 20.2921
#
#
#
# Elastic Compliance Matrix: (Units=1/GPa)
#
#
# Indices 1 2 3 4 5 6 
#
# 1 0.013744 -0.007198 -0.005019 0.000000 0.003925 0.000000
# 2 -0.007198 0.034712 -0.007918 0.000000 -0.005001 0.000000
# 3 -0.005019 -0.007918 0.014073 0.000000 -0.005276 0.000000
# 4 0.000000 0.000000 0.000000 0.062589 0.000000 -0.011776
# 5 0.003925 -0.005001 -0.005276 0.000000 0.081818 0.000000
# 6 0.000000 0.000000 0.000000 -0.011776 0.000000 0.051496
#
#
# Mechanical properties :
#
#
# Convention : Reuss Voigt Hill
#
# Bulk Modulus (GPa) = 44.92793 63.26805 54.09799
# Shear Modulus (GPa) = 16.33338 19.23217 17.78277
#
# Velocity S-wave (km/s) = 3.21954 3.49358 3.35936
# Velocity P-wave (km/s) = 6.50636 7.51162 7.02699
#
# Compressibility (1/GPa) = 0.02225787
#
# Stress axis : x y z
#
# Youngs Moduli (GPa) = 72.76110 28.80839 71.05809
#
# Poissons Ratio (x) = 0.20737 0.35663
# Poissons Ratio (y) = 0.52375 0.56267
# Poissons Ratio (z) = 0.36517 0.22812
#
# Static dielectric constant tensor:
#      x y z
#    x 2.988650 0.000000 0.009120 
#    y 0.000000 2.809550 0.000000 
#    z 0.009120 0.000000 3.197290 
# 
# 
# High freq. dielectric constant tensor:
#      x y z
#    x 1.590190 0.000000 0.002070 
#    y 0.000000 1.587020 0.000000 
#    z 0.002070 0.000000 1.597450 
# 
# From -- ./inp_files/248370.got.cif
#   From: 2010.06.25/outbox.cif.g09.slc.cpg/sg12_125_cif.got.tgz:248370.got - 2010.06.28 00:19:55.
