data_PCOD8080779
_publ_section_title
;
Structure prediction by ZEFSAII (Michael W. Deem and Ramdas Pophale) SiO2 
 PCOD8080779
Probable space group: C 2/M
;
_chemical_formula_sum "Si O2"
_cell_formula_units_Z 48
_cell_length_a 20.185256
_cell_length_b 8.707836
_cell_length_c 16.798394
_cell_angle_alpha 90.000000
_cell_angle_beta 88.525300
_cell_angle_gamma 90.000000
_cell_volume 2951.674056
_symmetry_space_group_name_H-M "C 2/M"
_symmetry_group_IT_number 12
_symmetry_cell_setting 'monoclinic'
loop_
_space_group_symop_operation_xyz
x,y,z
-x,y,-z
-x,-y,-z
x,-y,z
1/2+x,1/2+y,z
1/2-x,1/2+y,-z
1/2-x,1/2-y,-z
1/2+x,1/2-y,z
loop_
_atom_site_type_symbol
_atom_site_label
_atom_site_fract_x
_atom_site_fract_y
_atom_site_fract_z
Si Si1 0.572417 0.826378 0.765289
Si Si2 0.440647 0.679508 0.769463
Si Si3 0.818396 0.180607 0.334864
Si Si4 0.674189 0.681374 0.344326
Si Si5 0.176693 0.317350 0.504800
Si Si6 0.509194 0.174900 0.087229
O O1 0.504363 0.762990 0.726822
O O2 0.635162 0.721842 0.741203
O O3 0.560753 0.818798 0.861754
O O4 0.585320 0.000000 0.736006
O O5 0.453047 0.500000 0.763397
O O6 0.373811 0.727665 0.726509
O O7 0.435781 0.731746 0.862778
O O8 0.746103 0.251056 0.322368
O O9 0.854422 0.251856 0.412454
O O10 0.810979 0.000000 0.345043
O O11 0.680496 0.500000 0.355277
O O12 0.641964 0.753913 0.425813
O O13 0.176104 0.500000 0.505582
O O14 0.250000 0.250000 0.500000
O O15 0.534346 0.000000 0.077811
O O16 0.500000 0.249104 0.000000
#
# Coordination Sequence:
#
# PCOD8080779 Si02
#       6
#     8   8   8   8   8   8
#     4   9  18  32  50  71  99 126 157 196 239 287
#     4   9  18  31  49  74  99 125 157 197 238 282
#     4  11  20  31  49  71  97 127 165 202 238 280
#     4  10  19  32  49  70  99 129 162 199 240 280
#     4  10  18  29  46  67  93 126 166 200 236 280
#     4   8  16  31  52  74  96 125 157 191 234 287
#
# _framework density 16.261958
#
# number of rings (size 3 to 8) (size 9 to 14) (size 15 to 20)
#    1.000    1.500    0.000    6.000    0.000    3.000 
#    0.000    0.833    0.000    6.000    0.000    0.000 
#    0.000    0.000    0.000    0.000    0.000    0.000 
#
# Total GULP energy -297331.543824 kJ/mol
# GULP energy per Si atom -12388.814326 kJ/mol
# Density = 1.622495 g / cm^3
# Si number density = 16.261958 Si / 1000 Ang^3
#
#
#
# Elastic Constant Matrix: (Units=GPa)
#
#
# Indices 1 2 3 4 5 6 
#
# 1 72.6050 32.6671 45.7994 0.0000 5.1053 0.0000
# 2 32.6671 100.3379 37.6464 0.0000 4.3207 0.0000
# 3 45.7994 37.6464 104.3966 0.0000 10.9313 0.0000
# 4 0.0000 0.0000 0.0000 26.2932 0.0000 0.1492
# 5 5.1053 4.3207 10.9313 0.0000 24.0525 0.0000
# 6 0.0000 0.0000 0.0000 0.1492 0.0000 24.8494
#
#
#
# Elastic Compliance Matrix: (Units=1/GPa)
#
#
# Indices 1 2 3 4 5 6 
#
# 1 0.020201 -0.003760 -0.007484 0.000000 -0.000211 0.000000
# 2 -0.003760 0.012226 -0.002744 0.000000 -0.000151 0.000000
# 3 -0.007484 -0.002744 0.014315 0.000000 -0.004424 0.000000
# 4 0.000000 0.000000 0.000000 0.038034 0.000000 -0.000228
# 5 -0.000211 -0.000151 -0.004424 0.000000 0.043658 0.000000
# 6 0.000000 0.000000 0.000000 -0.000228 0.000000 0.040244
#
#
# Mechanical properties :
#
#
# Convention : Reuss Voigt Hill
#
# Bulk Modulus (GPa) = 53.28600 56.61838 54.95219
# Shear Modulus (GPa) = 24.64160 25.78745 25.21452
#
# Velocity S-wave (km/s) = 3.89690 3.98647 3.94194
# Velocity P-wave (km/s) = 7.28602 7.48875 7.38808
#
# Compressibility (1/GPa) = 0.01876665
#
# Stress axis : x y z
#
# Youngs Moduli (GPa) = 49.50328 81.79103 69.85697
#
# Poissons Ratio (x) = 0.30750 0.52283
# Poissons Ratio (y) = 0.18611 0.19167
# Poissons Ratio (z) = 0.37050 0.22441
#
# Static dielectric constant tensor:
#      x y z
#    x 2.776250 0.000000 0.091030 
#    y 0.000000 3.134130 0.000000 
#    z 0.091030 0.000000 3.362180 
# 
# 
# High freq. dielectric constant tensor:
#      x y z
#    x 1.588080 0.000000 0.001770 
#    y 0.000000 1.643070 0.000000 
#    z 0.001770 0.000000 1.616740 
# 
# From -- ./inp_files/279844.got.cif
#   From: 2010.06.25/outbox.cif.g09.slc.cpg/sg12_140_cif.got.tgz:279844.got - 2010.06.28 00:19:55.
