data_PCOD8080774
_publ_section_title
;
Structure prediction by ZEFSAII (Michael W. Deem and Ramdas Pophale) SiO2 
 PCOD8080774
Probable space group: C 2/M
;
_chemical_formula_sum "Si O2"
_cell_formula_units_Z 64
_cell_length_a 23.776793
_cell_length_b 8.797811
_cell_length_c 21.839175
_cell_angle_alpha 90.000000
_cell_angle_beta 127.575701
_cell_angle_gamma 90.000000
_cell_volume 3620.677891
_symmetry_space_group_name_H-M "C 2/M"
_symmetry_group_IT_number 12
_symmetry_cell_setting 'monoclinic'
loop_
_space_group_symop_operation_xyz
x,y,z
-x,y,-z
-x,-y,-z
x,-y,z
1/2+x,1/2+y,z
1/2-x,1/2+y,-z
1/2-x,1/2-y,-z
1/2+x,1/2-y,z
loop_
_atom_site_type_symbol
_atom_site_label
_atom_site_fract_x
_atom_site_fract_y
_atom_site_fract_z
Si Si1 0.071152 0.175734 0.736790
Si Si2 0.820358 0.819339 0.288074
Si Si3 0.922296 0.820057 0.463522
Si Si4 0.630546 0.177219 0.318633
Si Si5 0.510140 0.324964 0.816975
Si Si6 0.679153 0.679969 0.233517
Si Si7 0.530392 0.676518 0.081896
Si Si8 0.916241 0.820246 0.596092
O O1 0.138274 0.243995 0.744975
O O2 0.076563 0.202983 0.814615
O O3 0.996085 0.240200 0.662834
O O4 0.071884 0.000000 0.719935
O O5 0.864845 0.762579 0.376466
O O6 0.744515 0.738857 0.236915
O O7 0.809170 0.000000 0.280539
O O8 0.000000 0.750680 0.500000
O O9 0.896735 0.769678 0.514217
O O10 0.928321 0.000000 0.463923
O O11 0.551292 0.211306 0.243603
O O12 0.684641 0.253834 0.306221
O O13 0.639115 0.243489 0.393183
O O14 0.646721 0.000000 0.330622
O O15 0.483101 0.500000 0.790589
O O16 0.526233 0.296633 0.899682
O O17 0.679511 0.500000 0.237803
O O18 0.607307 0.741128 0.152651
O O19 0.540235 0.500000 0.074438
O O20 0.500000 0.756731 0.000000
O O21 0.911432 0.000000 0.601825
#
# Coordination Sequence:
#
# PCOD8080774 Si02
#       8
#     8   8   8   8   8   8   8   8
#     4   8  13  23  43  68  92 120 154 190 223 264
#     4  10  18  29  47  70  95 124 158 193 232 275
#     4   9  15  26  47  72  93 120 160 202 233 267
#     4  10  18  29  46  67  91 120 155 194 237 279
#     4   8  14  26  46  72  96 119 151 190 230 270
#     4  10  20  34  49  67  93 123 155 189 233 284
#     4   8  14  27  50  75  93 113 150 196 232 269
#     4   9  15  27  47  69  92 118 156 200 238 269
#
# _framework density 17.676248000000001
#
# number of rings (size 3 to 8) (size 9 to 14) (size 15 to 20)
#    0.000    3.000    1.250    3.000    0.000    0.000 
#    0.000    3.750    0.000   10.875    0.000    0.000 
#    0.000    0.000    0.000    0.000    0.000    0.500 
#
# Total GULP energy -396420.526296 kJ/mol
# GULP energy per Si atom -12388.141447 kJ/mol
# Density = 1.763602 g / cm^3
# Si number density = 17.676248 Si / 1000 Ang^3
#
#
#
# Elastic Constant Matrix: (Units=GPa)
#
#
# Indices 1 2 3 4 5 6 
#
# 1 151.8198 26.5914 62.2000 0.0000 -21.3341 0.0000
# 2 26.5914 43.4363 14.7177 0.0000 -2.7056 0.0000
# 3 62.2000 14.7177 81.7863 0.0000 -21.7595 0.0000
# 4 0.0000 0.0000 0.0000 8.9964 0.0000 2.4308
# 5 -21.3341 -2.7056 -21.7595 0.0000 30.0730 0.0000
# 6 0.0000 0.0000 0.0000 2.4308 0.0000 20.4814
#
#
#
# Elastic Compliance Matrix: (Units=1/GPa)
#
#
# Indices 1 2 3 4 5 6 
#
# 1 0.010249 -0.003935 -0.006497 0.000000 0.002216 0.000000
# 2 -0.003935 0.026064 -0.002250 0.000000 -0.002074 0.000000
# 3 -0.006497 -0.002250 0.020177 0.000000 0.009788 0.000000
# 4 0.000000 0.000000 0.000000 0.114838 0.000000 -0.013629
# 5 0.002216 -0.002074 0.009788 0.000000 0.041720 0.000000
# 6 0.000000 0.000000 0.000000 -0.013629 0.000000 0.050442
#
#
# Mechanical properties :
#
#
# Convention : Reuss Voigt Hill
#
# Bulk Modulus (GPa) = 32.12629 53.78451 42.95540
# Shear Modulus (GPa) = 16.70960 23.47905 20.09432
#
# Velocity S-wave (km/s) = 3.07793 3.64851 3.37530
# Velocity P-wave (km/s) = 5.55390 6.94568 6.28842
#
# Compressibility (1/GPa) = 0.03112716
#
# Stress axis : x y z
#
# Youngs Moduli (GPa) = 97.56884 38.36671 49.56150
#
# Poissons Ratio (x) = 0.15097 0.32200
# Poissons Ratio (y) = 0.38394 0.11149
# Poissons Ratio (z) = 0.63391 0.08631
#
# Static dielectric constant tensor:
#      x y z
#    x 3.673060 0.000000 -0.358650 
#    y 0.000000 2.837510 0.000000 
#    z -0.358650 0.000000 3.185990 
# 
# 
# High freq. dielectric constant tensor:
#      x y z
#    x 1.697770 0.000000 -0.028880 
#    y 0.000000 1.641460 0.000000 
#    z -0.028880 0.000000 1.641210 
# 
# From -- ./inp_files/346302.got.cif
#   From: 2010.06.25/outbox.cif.g09.slc.cpg/sg12_174_cif.got.tgz:346302.got - 2010.06.28 00:19:55.
