data_PCOD8080680
_publ_section_title
;
Structure prediction by ZEFSAII (Michael W. Deem and Ramdas Pophale) SiO2 
 PCOD8080680
Probable space group: C 2/M
;
_chemical_formula_sum "Si O2"
_cell_formula_units_Z 56
_cell_length_a 25.718532
_cell_length_b 13.600918
_cell_length_c 11.695729
_cell_angle_alpha 90.000000
_cell_angle_beta 49.219198
_cell_angle_gamma 90.000000
_cell_volume 3097.849415
_symmetry_space_group_name_H-M "C 2/M"
_symmetry_group_IT_number 12
_symmetry_cell_setting 'monoclinic'
loop_
_space_group_symop_operation_xyz
x,y,z
-x,y,-z
-x,-y,-z
x,-y,z
1/2+x,1/2+y,z
1/2-x,1/2+y,-z
1/2-x,1/2-y,-z
1/2+x,1/2-y,z
loop_
_atom_site_type_symbol
_atom_site_label
_atom_site_fract_x
_atom_site_fract_y
_atom_site_fract_z
Si Si1 0.328020 0.774649 0.408588
Si Si2 0.751951 0.110491 0.085721
Si Si3 0.923676 0.775206 0.609235
Si Si4 0.844841 0.282842 0.940768
Si Si5 0.866338 0.392041 0.561528
Si Si6 0.832338 0.385323 0.182039
Si Si7 0.168915 0.887715 0.424691
O O1 0.250000 0.750000 0.500000
O O2 0.338380 0.866837 0.476933
O O3 0.360581 0.813663 0.242827
O O4 0.359111 0.677070 0.426631
O O5 0.716297 0.151771 0.023425
O O6 0.699841 0.115383 0.264260
O O7 0.777721 0.000000 0.025141
O O8 0.816929 0.177599 0.024279
O O9 0.904770 0.739068 0.763905
O O10 0.924892 0.680889 0.523416
O O11 0.868955 0.853831 0.638089
O O12 0.000000 0.821066 0.500000
O O13 0.870594 0.345534 0.013094
O O14 0.899017 0.500000 0.514035
O O15 0.851471 0.500000 0.175381
O O16 0.750006 0.372968 0.288821
O O17 0.150125 0.000000 0.478310
#
# Coordination Sequence:
#
# PCOD8080680 Si02
#       7
#     8   8   8   8   8   8   8
#     4   9  16  28  46  73 103 127 152 185 233 290
#     4   9  16  27  45  67  92 121 151 191 244 293
#     4  10  21  34  48  67  92 127 168 205 237 275
#     4  10  18  29  44  67  96 123 155 196 242 290
#     4   9  17  30  48  69  94 124 157 194 237 283
#     4  10  18  29  49  76 103 127 151 188 241 295
#     4   9  18  32  51  74  99 127 159 195 236 282
#
# _framework density 18.077057
#
# number of rings (size 3 to 8) (size 9 to 14) (size 15 to 20)
#    0.000    2.571    0.000    5.143    0.000    3.429 
#    0.000    0.714    0.000    3.429    0.000    6.000 
#    0.000    0.000    0.000    0.000    0.000    0.000 
#
# Total GULP energy -346965.785659 kJ/mol
# GULP energy per Si atom -12391.635202 kJ/mol
# Density = 1.803591 g / cm^3
# Si number density = 18.077057 Si / 1000 Ang^3
#
#
#
# Elastic Constant Matrix: (Units=GPa)
#
#
# Indices 1 2 3 4 5 6 
#
# 1 53.9977 27.2930 35.5859 0.0000 21.1234 0.0000
# 2 27.2930 115.7105 33.9121 0.0000 15.1490 0.0000
# 3 35.5859 33.9121 56.1021 0.0000 24.1130 0.0000
# 4 0.0000 0.0000 0.0000 19.6336 0.0000 8.2061
# 5 21.1234 15.1490 24.1130 0.0000 34.1107 0.0000
# 6 0.0000 0.0000 0.0000 8.2061 0.0000 19.8816
#
#
#
# Elastic Compliance Matrix: (Units=1/GPa)
#
#
# Indices 1 2 3 4 5 6 
#
# 1 0.033715 -0.001998 -0.016642 0.000000 -0.008227 0.000000
# 2 -0.001998 0.010623 -0.005254 0.000000 0.000234 0.000000
# 3 -0.016642 -0.005254 0.037526 0.000000 -0.013888 0.000000
# 4 0.000000 0.000000 0.000000 0.061552 0.000000 -0.025405
# 5 -0.008227 0.000234 -0.013888 0.000000 0.044124 0.000000
# 6 0.000000 0.000000 0.000000 -0.025405 0.000000 0.060784
#
#
# Mechanical properties :
#
#
# Convention : Reuss Voigt Hill
#
# Bulk Modulus (GPa) = 29.34698 46.59915 37.97306
# Shear Modulus (GPa) = 16.26170 23.32647 19.79408
#
# Velocity S-wave (km/s) = 3.00255 3.59610 3.31264
# Velocity P-wave (km/s) = 5.31884 6.56328 5.97355
#
# Compressibility (1/GPa) = 0.03407506
#
# Stress axis : x y z
#
# Youngs Moduli (GPa) = 29.66043 94.13666 26.64813
#
# Poissons Ratio (x) = 0.18808 0.44348
# Poissons Ratio (y) = 0.05926 0.14002
# Poissons Ratio (z) = 0.49361 0.49463
#
# Static dielectric constant tensor:
#      x y z
#    x 3.230030 0.000000 0.431060 
#    y 0.000000 3.766110 0.000000 
#    z 0.431060 0.000000 3.016570 
# 
# 
# High freq. dielectric constant tensor:
#      x y z
#    x 1.673920 0.000000 0.038480 
#    y 0.000000 1.712460 0.000000 
#    z 0.038480 0.000000 1.664570 
# 
# From -- ./inp_files/183445.got.cif
#   From: 2010.06.25/outbox.cif.g09.slc.cpg/sg12_92_cif.got.tgz:183445.got - 2010.06.28 00:19:55.
