data_PCOD8080631
_publ_section_title
;
Structure prediction by ZEFSAII (Michael W. Deem and Ramdas Pophale) SiO2 
 PCOD8080631
Probable space group: C 2/M
;
_chemical_formula_sum "Si O2"
_cell_formula_units_Z 56
_cell_length_a 26.988761
_cell_length_b 9.044061
_cell_length_c 14.464998
_cell_angle_alpha 90.000000
_cell_angle_beta 78.236591
_cell_angle_gamma 90.000000
_cell_volume 3456.579249
_symmetry_space_group_name_H-M "C 2/M"
_symmetry_group_IT_number 12
_symmetry_cell_setting 'monoclinic'
loop_
_space_group_symop_operation_xyz
x,y,z
-x,y,-z
-x,-y,-z
x,-y,z
1/2+x,1/2+y,z
1/2-x,1/2+y,-z
1/2-x,1/2-y,-z
1/2+x,1/2-y,z
loop_
_atom_site_type_symbol
_atom_site_label
_atom_site_fract_x
_atom_site_fract_y
_atom_site_fract_z
Si Si1 0.555660 0.825876 0.957546
Si Si2 0.711068 0.329342 0.397329
Si Si3 0.314056 0.673734 0.393403
Si Si4 0.212470 0.830313 0.897243
Si Si5 0.356903 0.824725 0.937795
Si Si6 0.379854 0.666671 0.207331
Si Si7 0.686647 0.673081 0.205784
O O1 0.575014 0.763833 0.852154
O O2 0.554228 0.000000 0.947633
O O3 0.500000 0.762037 0.000000
O O4 0.592392 0.776953 0.027333
O O5 0.726681 0.500000 0.397900
O O6 0.679067 0.283244 0.501068
O O7 0.762993 0.240848 0.371688
O O8 0.677441 0.299255 0.318859
O O9 0.308841 0.500000 0.380159
O O10 0.362844 0.727712 0.315253
O O11 0.169330 0.823575 0.837221
O O12 0.259961 0.743183 0.840639
O O13 0.226701 0.000000 0.915899
O O14 0.192741 0.746472 0.996167
O O15 0.358127 0.755830 0.833913
O O16 0.351164 0.000000 0.936366
O O17 0.400418 0.500000 0.205921
O O18 0.686391 0.500000 0.182088
#
# Coordination Sequence:
#
# PCOD8080631 Si02
#       7
#     8   8   8   8   8   8   8
#     4   9  19  35  52  69  88 110 141 184 231 276
#     4   9  18  28  42  62  89 124 157 187 217 250
#     4   9  16  29  44  63  90 120 154 188 220 255
#     4  10  18  29  43  62  89 121 153 183 215 255
#     4  10  20  32  46  63  85 115 147 181 223 270
#     4   9  17  28  46  69  92 118 147 182 223 265
#     4  11  20  29  41  62  91 123 155 183 214 253
#
# _framework density 16.200987999999999
#
# number of rings (size 3 to 8) (size 9 to 14) (size 15 to 20)
#    0.000    2.429    1.429    1.714    0.000    2.571 
#    0.000    0.000    0.000    0.000    0.000    1.000 
#    0.000    8.000    0.000    0.000    0.000    0.000 
#
# Total GULP energy -347078.793425 kJ/mol
# GULP energy per Si atom -12395.671194 kJ/mol
# Density = 1.616411 g / cm^3
# Si number density = 16.200988 Si / 1000 Ang^3
#
#
#
# Elastic Constant Matrix: (Units=GPa)
#
#
# Indices 1 2 3 4 5 6 
#
# 1 64.0735 24.0244 49.4770 0.0000 -12.1685 0.0000
# 2 24.0244 53.6395 38.9485 0.0000 -0.8431 0.0000
# 3 49.4770 38.9485 130.4852 0.0000 -6.7610 0.0000
# 4 0.0000 0.0000 0.0000 22.4328 0.0000 0.3108
# 5 -12.1685 -0.8431 -6.7610 0.0000 19.9370 0.0000
# 6 0.0000 0.0000 0.0000 0.3108 0.0000 18.1260
#
#
#
# Elastic Compliance Matrix: (Units=1/GPa)
#
#
# Indices 1 2 3 4 5 6 
#
# 1 0.026111 -0.006121 -0.007391 0.000000 0.013171 0.000000
# 2 -0.006121 0.025277 -0.005458 0.000000 -0.004518 0.000000
# 3 -0.007391 -0.005458 0.012062 0.000000 -0.000652 0.000000
# 4 0.000000 0.000000 0.000000 0.044588 0.000000 -0.000764
# 5 0.013171 -0.004518 -0.000652 0.000000 0.057785 0.000000
# 6 0.000000 0.000000 0.000000 -0.000764 0.000000 0.055182
#
#
# Mechanical properties :
#
#
# Convention : Reuss Voigt Hill
#
# Bulk Modulus (GPa) = 39.20170 52.56645 45.88408
# Shear Modulus (GPa) = 18.69522 21.14905 19.92213
#
# Velocity S-wave (km/s) = 3.40068 3.61698 3.51049
# Velocity P-wave (km/s) = 6.29834 7.06826 6.69438
#
# Compressibility (1/GPa) = 0.02550910
#
# Stress axis : x y z
#
# Youngs Moduli (GPa) = 38.29812 39.56232 82.90728
#
# Poissons Ratio (x) = 0.24215 0.61278
# Poissons Ratio (y) = 0.23442 0.45251
# Poissons Ratio (z) = 0.28307 0.21593
#
# Static dielectric constant tensor:
#      x y z
#    x 2.836600 0.000000 0.073410 
#    y 0.000000 3.132490 0.000000 
#    z 0.073410 0.000000 3.519950 
# 
# 
# High freq. dielectric constant tensor:
#      x y z
#    x 1.574060 0.000000 0.007010 
#    y 0.000000 1.629750 0.000000 
#    z 0.007010 0.000000 1.631490 
# 
# From -- ./inp_files/247731.got.cif
#   From: 2010.06.25/outbox.cif.g09.slc.cpg/sg12_124_cif.got.tgz:247731.got - 2010.06.28 00:19:55.
