data_PCOD8080228
_publ_section_title
;
Structure prediction by ZEFSAII (Michael W. Deem and Ramdas Pophale) SiO2 
 PCOD8080228
Probable space group: C 2/M
;
_chemical_formula_sum "Si O2"
_cell_formula_units_Z 48
_cell_length_a 23.673974
_cell_length_b 9.697364
_cell_length_c 13.648093
_cell_angle_alpha 90.000000
_cell_angle_beta 70.558137
_cell_angle_gamma 90.000000
_cell_volume 2954.603357
_symmetry_space_group_name_H-M "C 2/M"
_symmetry_group_IT_number 12
_symmetry_cell_setting 'monoclinic'
loop_
_space_group_symop_operation_xyz
x,y,z
-x,y,-z
-x,-y,-z
x,-y,z
1/2+x,1/2+y,z
1/2-x,1/2+y,-z
1/2-x,1/2-y,-z
1/2+x,1/2-y,z
loop_
_atom_site_type_symbol
_atom_site_label
_atom_site_fract_x
_atom_site_fract_y
_atom_site_fract_z
Si Si1 0.491343 0.338523 0.118019
Si Si2 0.117675 0.840917 0.128320
Si Si3 0.815427 0.343817 0.059616
Si Si4 0.761327 0.338437 0.398170
Si Si5 0.616903 0.153970 0.781512
Si Si6 0.203704 0.159760 0.238933
O O1 0.477237 0.500000 0.131338
O O2 0.549489 0.297369 0.148559
O O3 0.437298 0.259997 0.202356
O O4 0.500000 0.292355 0.000000
O O5 0.137123 0.817314 0.231765
O O6 0.126585 0.000000 0.093305
O O7 0.163417 0.752717 0.039332
O O8 0.808124 0.500000 0.024230
O O9 0.864406 0.339045 0.116627
O O10 0.753165 0.279250 0.135567
O O11 0.753313 0.500000 0.427136
O O12 0.750000 0.250000 0.500000
O O13 0.827903 0.306283 0.320523
O O14 0.712634 0.284961 0.344593
O O15 0.594391 0.000000 0.768867
O O16 0.221589 0.000000 0.236542
#
# Coordination Sequence:
#
# PCOD8080228 Si02
#       6
#     8   8   8   8   8   8
#     4  10  19  29  42  66  98 128 161 193 217 254
#     4  10  18  28  43  63  93 129 154 182 223 264
#     4   9  16  27  43  64  90 121 155 187 219 267
#     4   9  18  34  54  74  91 112 149 196 242 283
#     4   9  18  31  47  67  93 124 156 188 227 276
#     4   8  16  30  46  65  91 120 150 185 230 279
#
# _framework density 16.245835
#
# number of rings (size 3 to 8) (size 9 to 14) (size 15 to 20)
#    0.000    2.833    1.667    2.500    0.000    1.667 
#    0.000    3.333    0.000    1.000    0.000    7.000 
#    0.000    0.000    0.000    0.000    0.000    0.000 
#
# Total GULP energy -297416.018650 kJ/mol
# GULP energy per Si atom -12392.334110 kJ/mol
# Density = 1.620886 g / cm^3
# Si number density = 16.245835 Si / 1000 Ang^3
#
#
#
# Elastic Constant Matrix: (Units=GPa)
#
#
# Indices 1 2 3 4 5 6 
#
# 1 125.0596 41.3173 52.0588 0.0000 14.0637 0.0000
# 2 41.3173 49.1207 41.9019 0.0000 3.3762 0.0000
# 3 52.0588 41.9019 89.5567 0.0000 10.9372 0.0000
# 4 0.0000 0.0000 0.0000 27.1874 0.0000 -3.4978
# 5 14.0637 3.3762 10.9372 0.0000 15.6728 0.0000
# 6 0.0000 0.0000 0.0000 -3.4978 0.0000 17.4896
#
#
#
# Elastic Compliance Matrix: (Units=1/GPa)
#
#
# Indices 1 2 3 4 5 6 
#
# 1 0.012543 -0.007660 -0.002770 0.000000 -0.007672 0.000000
# 2 -0.007660 0.038803 -0.014781 0.000000 0.008829 0.000000
# 3 -0.002770 -0.014781 0.020770 0.000000 -0.008824 0.000000
# 4 0.000000 0.000000 0.000000 0.037753 0.000000 0.007550
# 5 -0.007672 0.008829 -0.008824 0.000000 0.074945 0.000000
# 6 0.000000 0.000000 0.000000 0.007550 0.000000 0.058687
#
#
# Mechanical properties :
#
#
# Convention : Reuss Voigt Hill
#
# Bulk Modulus (GPa) = 46.09650 59.36589 52.73119
# Shear Modulus (GPa) = 16.60289 20.63391 18.61840
#
# Velocity S-wave (km/s) = 3.20031 3.56772 3.38900
# Velocity P-wave (km/s) = 6.48783 7.32073 6.91683
#
# Compressibility (1/GPa) = 0.02169362
#
# Stress axis : x y z
#
# Youngs Moduli (GPa) = 79.72751 25.77139 48.14699
#
# Poissons Ratio (x) = 0.19740 0.13338
# Poissons Ratio (y) = 0.61069 0.71165
# Poissons Ratio (z) = 0.22086 0.38092
#
# Static dielectric constant tensor:
#      x y z
#    x 3.188710 0.000000 0.142650 
#    y 0.000000 2.933940 0.000000 
#    z 0.142650 0.000000 2.796060 
# 
# 
# High freq. dielectric constant tensor:
#      x y z
#    x 1.630580 0.000000 0.010210 
#    y 0.000000 1.611880 0.000000 
#    z 0.010210 0.000000 1.590130 
# 
# From -- ./inp_files/164726.got.cif
#   From: 2010.06.25/outbox.cif.g09.slc.cpg/sg12_83_cif.got.tgz:164726.got - 2010.06.28 00:19:55.
