data_PCOD8080480
_publ_section_title
;
Structure prediction by ZEFSAII (Michael W. Deem and Ramdas Pophale) SiO2 
 PCOD8080480
Probable space group: C 2/M
;
_chemical_formula_sum "Si O2"
_cell_formula_units_Z 56
_cell_length_a 20.411743
_cell_length_b 9.305738
_cell_length_c 22.521607
_cell_angle_alpha 90.000000
_cell_angle_beta 48.427955
_cell_angle_gamma 90.000000
_cell_volume 3200.388323
_symmetry_space_group_name_H-M "C 2/M"
_symmetry_group_IT_number 12
_symmetry_cell_setting 'monoclinic'
loop_
_space_group_symop_operation_xyz
x,y,z
-x,y,-z
-x,-y,-z
x,-y,z
1/2+x,1/2+y,z
1/2-x,1/2+y,-z
1/2-x,1/2-y,-z
1/2+x,1/2-y,z
loop_
_atom_site_type_symbol
_atom_site_label
_atom_site_fract_x
_atom_site_fract_y
_atom_site_fract_z
Si Si1 0.557118 0.333628 0.665634
Si Si2 0.883787 0.167617 0.175553
Si Si3 0.810971 0.836839 0.505693
Si Si4 0.420282 0.329701 0.921438
Si Si5 0.684699 0.831079 0.677303
Si Si6 0.801439 0.167538 0.099373
Si Si7 0.369982 0.331940 0.820802
O O1 0.570376 0.500000 0.677230
O O2 0.589245 0.308732 0.577315
O O3 0.610527 0.235319 0.679214
O O4 0.455015 0.294415 0.730134
O O5 0.817597 0.254733 0.257634
O O6 0.858618 0.197586 0.123057
O O7 0.981659 0.228224 0.126880
O O8 0.876701 0.000000 0.195768
O O9 0.750000 0.750000 0.500000
O O10 0.783028 0.801171 0.590565
O O11 0.785624 0.000000 0.509022
O O12 0.423679 0.500000 0.923701
O O13 0.385619 0.277326 0.878609
O O14 0.355464 0.269418 0.010974
O O15 0.666567 0.000000 0.695715
O O16 0.709881 0.248404 0.160389
O O17 0.781629 0.000000 0.103096
O O18 0.348610 0.500000 0.832896
#
# Coordination Sequence:
#
# PCOD8080480 Si02
#       7
#     8   8   8   8   8   8   8
#     4   9  16  30  50  71  97 132 165 193 234 293
#     4  10  19  34  53  71  96 132 169 200 238 293
#     4   8  15  26  43  69  99 125 155 195 240 285
#     4   9  17  33  54  74  93 124 169 206 240 287
#     4  10  18  28  46  75 103 125 155 204 250 282
#     4  10  21  34  51  73  98 129 165 206 245 286
#     4  10  19  32  52  74 100 130 160 198 243 294
#
# _framework density 17.497876999999999
#
# number of rings (size 3 to 8) (size 9 to 14) (size 15 to 20)
#    0.000    2.571    1.429    1.286    0.000    3.429 
#    0.000    0.714    0.000    2.571    0.000    6.000 
#    0.000    0.000    0.000    0.000    0.000    0.000 
#
# Total GULP energy -346980.955640 kJ/mol
# GULP energy per Si atom -12392.176987 kJ/mol
# Density = 1.745805 g / cm^3
# Si number density = 17.497877 Si / 1000 Ang^3
#
#
#
# Elastic Constant Matrix: (Units=GPa)
#
#
# Indices 1 2 3 4 5 6 
#
# 1 54.2737 20.6897 21.7566 0.0000 -10.1418 0.0001
# 2 20.6897 43.8047 35.3037 -0.0001 -2.8594 0.0004
# 3 21.7566 35.3037 136.5053 -0.0001 -13.7492 0.0000
# 4 0.0000 -0.0001 -0.0001 25.7646 0.0000 -0.2740
# 5 -10.1418 -2.8594 -13.7492 0.0000 13.6398 0.0000
# 6 0.0001 0.0004 0.0000 -0.2740 0.0000 23.6984
#
#
#
# Elastic Compliance Matrix: (Units=1/GPa)
#
#
# Indices 1 2 3 4 5 6 
#
# 1 0.025841 -0.011576 0.000630 0.000000 0.017422 0.000000
# 2 -0.011576 0.034058 -0.007915 0.000000 -0.009445 -0.000001
# 3 0.000630 -0.007915 0.010187 0.000000 0.009077 0.000000
# 4 0.000000 0.000000 0.000000 0.038818 0.000000 0.000449
# 5 0.017422 -0.009445 0.009077 0.000000 0.093439 0.000000
# 6 0.000000 -0.000001 0.000000 0.000449 0.000000 0.042202
#
#
# Mechanical properties :
#
#
# Convention : Reuss Voigt Hill
#
# Bulk Modulus (GPa) = 30.89756 43.34263 37.12010
# Shear Modulus (GPa) = 17.06172 23.07613 20.06892
#
# Velocity S-wave (km/s) = 3.12600 3.63546 3.39032
# Velocity P-wave (km/s) = 5.54305 6.51507 6.04862
#
# Compressibility (1/GPa) = 0.03236501
#
# Stress axis : x y z
#
# Youngs Moduli (GPa) = 38.69831 29.36156 98.16852
#
# Poissons Ratio (x) = 0.33988 -0.06184
# Poissons Ratio (y) = 0.44795 0.77697
# Poissons Ratio (z) = -0.02438 0.23239
#
# Static dielectric constant tensor:
#      x y z
#    x 2.848160 0.000000 -0.035020 
#    y 0.000000 3.082510 0.000000 
#    z -0.035020 0.000000 3.997040 
# 
# 
# High freq. dielectric constant tensor:
#      x y z
#    x 1.633450 0.000000 -0.002690 
#    y 0.000000 1.661100 0.000000 
#    z -0.002690 0.000000 1.703500 
# 
# From -- ./inp_files/280424.got.cif
#   From: 2010.06.25/outbox.cif.g09.slc.cpg/sg12_141_cif.got.tgz:280424.got - 2010.06.28 00:19:55.
