data_PCOD8080740
_publ_section_title
;
Structure prediction by ZEFSAII (Michael W. Deem and Ramdas Pophale) SiO2 
 PCOD8080740
Probable space group: C 2/M
;
_chemical_formula_sum "Si O2"
_cell_formula_units_Z 56
_cell_length_a 19.426835
_cell_length_b 8.930706
_cell_length_c 29.019710
_cell_angle_alpha 90.000000
_cell_angle_beta 141.443208
_cell_angle_gamma 90.000000
_cell_volume 3138.131307
_symmetry_space_group_name_H-M "C 2/M"
_symmetry_group_IT_number 12
_symmetry_cell_setting 'monoclinic'
loop_
_space_group_symop_operation_xyz
x,y,z
-x,y,-z
-x,-y,-z
x,-y,z
1/2+x,1/2+y,z
1/2-x,1/2+y,-z
1/2-x,1/2-y,-z
1/2+x,1/2-y,z
loop_
_atom_site_type_symbol
_atom_site_label
_atom_site_fract_x
_atom_site_fract_y
_atom_site_fract_z
Si Si1 0.863585 0.326977 0.299197
Si Si2 0.406894 0.172901 0.052049
Si Si3 0.296021 0.826186 0.091804
Si Si4 0.042213 0.322227 0.744805
Si Si5 0.107687 0.678011 0.583870
Si Si6 0.882474 0.826222 0.810906
Si Si7 0.668028 0.822922 0.310821
O O1 0.894648 0.500000 0.316864
O O2 0.929606 0.252911 0.290891
O O3 0.900662 0.259170 0.368048
O O4 0.733097 0.303143 0.223055
O O5 0.364508 0.201559 0.081344
O O6 0.521758 0.261763 0.106243
O O7 0.427850 0.000000 0.052447
O O8 0.318706 0.235892 0.969359
O O9 0.369117 0.760955 0.171851
O O10 0.267441 0.000000 0.083104
O O11 0.054365 0.500000 0.750656
O O12 0.917866 0.277240 0.693836
O O13 0.122771 0.500000 0.591232
O O14 0.214675 0.748841 0.615360
O O15 0.000000 0.730575 0.500000
O O16 0.881155 0.736355 0.762593
O O17 0.903224 0.000000 0.810729
O O18 0.681749 0.000000 0.314132
#
# Coordination Sequence:
#
# PCOD8080740 Si02
#       7
#     8   8   8   8   8   8   8
#     4   8  16  30  50  72  94 126 163 198 236 282
#     4  10  18  29  45  69  96 125 164 208 249 283
#     4   9  17  29  45  67  93 124 162 205 247 286
#     4   9  16  30  49  71  97 124 162 204 241 285
#     4   9  18  34  54  76 101 129 161 194 231 282
#     4  10  18  30  49  72  96 128 168 203 239 287
#     4  10  18  30  51  76  98 124 160 202 243 282
#
# _framework density 17.845016000000001
#
# number of rings (size 3 to 8) (size 9 to 14) (size 15 to 20)
#    0.000    2.714    1.429    2.143    0.000    0.857 
#    0.000    1.429    0.000   17.143    0.000    0.000 
#    0.000    0.000    0.000    0.000    0.000    0.000 
#
# Total GULP energy -347116.107906 kJ/mol
# GULP energy per Si atom -12397.003854 kJ/mol
# Density = 1.780440 g / cm^3
# Si number density = 17.845016 Si / 1000 Ang^3
#
#
#
# Elastic Constant Matrix: (Units=GPa)
#
#
# Indices 1 2 3 4 5 6 
#
# 1 117.7270 30.6639 65.3879 0.0000 7.6866 0.0000
# 2 30.6639 46.7814 39.5010 0.0001 9.3835 -0.0001
# 3 65.3879 39.5010 150.8775 0.0000 17.2654 0.0000
# 4 0.0000 0.0001 0.0000 26.1640 0.0000 6.5268
# 5 7.6866 9.3835 17.2654 0.0000 21.7127 0.0000
# 6 0.0000 -0.0001 0.0000 6.5268 0.0000 17.2909
#
#
#
# Elastic Compliance Matrix: (Units=1/GPa)
#
#
# Indices 1 2 3 4 5 6 
#
# 1 0.011874 -0.004547 -0.004070 0.000000 0.000998 0.000000
# 2 -0.004547 0.030117 -0.005071 0.000000 -0.007374 0.000000
# 3 -0.004070 -0.005071 0.010235 0.000000 -0.004506 0.000000
# 4 0.000000 0.000000 0.000000 0.042193 0.000000 -0.015927
# 5 0.000998 -0.007374 -0.004506 0.000000 0.052473 0.000000
# 6 0.000000 0.000000 0.000000 -0.015927 0.000000 0.063846
#
#
# Mechanical properties :
#
#
# Convention : Reuss Voigt Hill
#
# Bulk Modulus (GPa) = 40.23904 65.16573 52.70239
# Shear Modulus (GPa) = 20.29262 25.02241 22.65751
#
# Velocity S-wave (km/s) = 3.37584 3.74867 3.56713
# Velocity P-wave (km/s) = 6.14761 7.43865 6.82374
#
# Compressibility (1/GPa) = 0.02485148
#
# Stress axis : x y z
#
# Youngs Moduli (GPa) = 84.21960 33.20417 97.70557
#
# Poissons Ratio (x) = 0.15097 0.39763
# Poissons Ratio (y) = 0.38292 0.49542
# Poissons Ratio (z) = 0.34275 0.16836
#
# Static dielectric constant tensor:
#      x y z
#    x 3.403700 0.000000 0.042040 
#    y 0.000000 3.081040 0.000000 
#    z 0.042040 0.000000 3.380930 
# 
# 
# High freq. dielectric constant tensor:
#      x y z
#    x 1.674380 0.000000 0.013480 
#    y 0.000000 1.667820 0.000000 
#    z 0.013480 0.000000 1.687280 
# 
# From -- ./inp_files/280415.got.cif
#   From: 2010.06.25/outbox.cif.g09.slc.cpg/sg12_141_cif.got.tgz:280415.got - 2010.06.28 00:19:55.
