data_PCOD8080051
_publ_section_title
;
Structure prediction by ZEFSAII (Michael W. Deem and Ramdas Pophale) SiO2 
 PCOD8080051
Probable space group: C 2/M
;
_chemical_formula_sum "Si O2"
_cell_formula_units_Z 56
_cell_length_a 9.904006
_cell_length_b 18.025042
_cell_length_c 34.273305
_cell_angle_alpha 90.000000
_cell_angle_beta 150.965378
_cell_angle_gamma 90.000000
_cell_volume 2969.528478
_symmetry_space_group_name_H-M "C 2/M"
_symmetry_group_IT_number 12
_symmetry_cell_setting 'monoclinic'
loop_
_space_group_symop_operation_xyz
x,y,z
-x,y,-z
-x,-y,-z
x,-y,z
1/2+x,1/2+y,z
1/2-x,1/2+y,-z
1/2-x,1/2-y,-z
1/2+x,1/2-y,z
loop_
_atom_site_type_symbol
_atom_site_label
_atom_site_fract_x
_atom_site_fract_y
_atom_site_fract_z
Si Si1 0.214709 0.847420 0.739766
Si Si2 0.829207 0.676565 0.996557
Si Si3 0.239066 0.660217 0.825882
Si Si4 0.326584 0.827748 0.278103
Si Si5 0.750599 0.664057 0.836148
Si Si6 0.326029 0.916289 0.576115
Si Si7 0.881011 0.587389 0.429170
O O1 0.487889 0.876661 0.786381
O O2 0.161664 0.760938 0.718647
O O3 0.299155 0.866449 0.805316
O O4 0.938385 0.889267 0.656836
O O5 0.548407 0.629865 0.915401
O O6 0.750000 0.750000 0.000000
O O7 0.000000 0.695777 0.000000
O O8 0.025502 0.630963 0.076316
O O9 0.160272 0.641051 0.761996
O O10 0.258239 0.747333 0.838470
O O11 0.578057 0.859767 0.366457
O O12 0.052061 0.862055 0.227688
O O13 0.427155 0.886545 0.559020
O O14 0.000000 0.916471 0.500000
O O15 0.442427 0.000000 0.611662
O O16 0.891615 0.500000 0.434867
O O17 0.000000 0.621482 0.500000
#
# Coordination Sequence:
#
# PCOD8080051 Si02
#       7
#     8   8   8   8   8   8   8
#     4  10  20  34  52  80 107 139 176 214 267 311
#     4  10  18  27  43  71 108 146 177 213 263 309
#     4   9  19  28  47  75 107 140 173 213 262 306
#     4  10  18  34  52  78 109 138 172 218 260 309
#     4   9  17  30  48  70 110 141 173 217 254 310
#     4  10  22  39  58  79 103 136 177 217 262 317
#     4  10  22  40  58  77 104 137 176 219 261 315
#
# _framework density 18.858214
#
# number of rings (size 3 to 8) (size 9 to 14) (size 15 to 20)
#    0.000    2.286    2.857    0.000    8.000    0.571 
#    0.000    1.429    0.000    0.000    0.000    6.000 
#    0.000    0.000    0.000    0.000    0.000    0.000 
#
# Total GULP energy -346960.784905 kJ/mol
# GULP energy per Si atom -12391.456604 kJ/mol
# Density = 1.881529 g / cm^3
# Si number density = 18.858214 Si / 1000 Ang^3
#
#
#
# Elastic Constant Matrix: (Units=GPa)
#
#
# Indices 1 2 3 4 5 6 
#
# 1 153.0890 15.0632 61.8727 -0.0007 -4.5130 0.0014
# 2 15.0632 6.1834 15.9722 -0.0089 -7.0838 -0.0022
# 3 61.8727 15.9722 130.6297 -0.0073 -12.0138 -0.0061
# 4 -0.0007 -0.0089 -0.0073 -0.8645 -0.0055 0.8574
# 5 -4.5130 -7.0838 -12.0138 -0.0055 41.4819 -0.0002
# 6 0.0014 -0.0022 -0.0061 0.8574 -0.0002 13.3905
#
#
#
# Elastic Compliance Matrix: (Units=1/GPa)
#
#
# Indices 1 2 3 4 5 6 
#
# 1 0.009369 -0.020809 -0.002185 0.000225 -0.003167 -0.000020
# 2 -0.020809 0.336096 -0.026885 -0.003252 0.047344 0.000253
# 3 -0.002185 -0.026885 0.011849 0.000176 -0.001397 -0.000010
# 4 0.000225 -0.003252 0.000176 -1.087679 -0.000623 0.069644
# 5 -0.003167 0.047344 -0.001397 -0.000623 0.031442 0.000048
# 6 -0.000020 0.000253 -0.000010 0.069644 0.000048 0.070220
#
#
# Mechanical properties :
#
#
# Convention : Reuss Voigt Hill
#
# Bulk Modulus (GPa) = 3.88263 52.85759 28.37011
# Shear Modulus (GPa) = -11.28429 23.93451 6.32511
#
# Velocity S-wave (km/s) = -2.44882 3.56642 1.83339
# Velocity P-wave (km/s) = 2.43564 6.71185 4.42248
#
# Compressibility (1/GPa) = 0.25755726
#
# Stress axis : x y z
#
# Youngs Moduli (GPa) = 106.73223 2.97534 84.39729
#
# Poissons Ratio (x) = 0.06191 0.18438
# Poissons Ratio (y) = 2.22097 2.26899
# Poissons Ratio (z) = 0.23317 0.07999
#
# Static dielectric constant tensor:
#      x y z
#    x 3.870920 0.000000 0.023490 
#    y 0.000000 2.884810 0.000010 
#    z 0.023490 0.000010 3.928030 
# 
# 
# High freq. dielectric constant tensor:
#      x y z
#    x 1.755670 0.000000 -0.001210 
#    y 0.000000 1.662660 0.000000 
#    z -0.001210 0.000000 1.751440 
# 
# From -- ./inp_files/257970.got.cif
#   From: 2010.06.25/outbox.cif.g09.slc.cpg/sg12_129_cif.got.tgz:257970.got - 2010.06.28 00:19:55.
