data_PCOD8080658
_publ_section_title
;
Structure prediction by ZEFSAII (Michael W. Deem and Ramdas Pophale) SiO2 
 PCOD8080658
Probable space group: C 2/M
;
_chemical_formula_sum "Si O2"
_cell_formula_units_Z 64
_cell_length_a 25.537239
_cell_length_b 9.026508
_cell_length_c 21.488745
_cell_angle_alpha 90.000000
_cell_angle_beta 126.913452
_cell_angle_gamma 90.000000
_cell_volume 3960.472056
_symmetry_space_group_name_H-M "C 2/M"
_symmetry_group_IT_number 12
_symmetry_cell_setting 'monoclinic'
loop_
_space_group_symop_operation_xyz
x,y,z
-x,y,-z
-x,-y,-z
x,-y,z
1/2+x,1/2+y,z
1/2-x,1/2+y,-z
1/2-x,1/2-y,-z
1/2+x,1/2-y,z
loop_
_atom_site_type_symbol
_atom_site_label
_atom_site_fract_x
_atom_site_fract_y
_atom_site_fract_z
Si Si1 0.449118 0.326545 0.910744
Si Si2 0.498844 0.326011 0.187640
Si Si3 0.225527 0.673309 0.339075
Si Si4 0.649904 0.326360 0.923079
Si Si5 0.188917 0.324735 0.180701
Si Si6 0.392612 0.175904 0.659336
Si Si7 0.190063 0.174906 0.492041
Si Si8 0.265132 0.826469 0.918036
O O1 0.434532 0.500000 0.903602
O O2 0.477800 0.280328 0.864390
O O3 0.382808 0.241120 0.876762
O O4 0.500000 0.277976 0.000000
O O5 0.508383 0.500000 0.206186
O O6 0.423866 0.276083 0.143070
O O7 0.538078 0.235339 0.267672
O O8 0.214123 0.500000 0.327239
O O9 0.224948 0.738655 0.268591
O O10 0.163103 0.735624 0.332821
O O11 0.294710 0.706574 0.423586
O O12 0.652831 0.500000 0.937584
O O13 0.695179 0.278412 0.896881
O O14 0.675167 0.250553 0.003793
O O15 0.181370 0.500000 0.178634
O O16 0.232710 0.277611 0.152640
O O17 0.376571 0.247573 0.579797
O O18 0.394366 0.000000 0.653774
O O19 0.250000 0.250000 0.500000
O O20 0.187992 0.000000 0.476936
O O21 0.275997 0.000000 0.933319
#
# Coordination Sequence:
#
# PCOD8080658 Si02
#       8
#     8   8   8   8   8   8   8   8
#     4  10  20  31  42  61  89 121 152 179 217 269
#     4  10  19  30  45  64  89 121 152 185 225 268
#     4   8  15  27  42  62  89 118 142 176 219 261
#     4   9  18  33  49  65  88 117 152 194 232 264
#     4  10  18  30  46  66  91 117 147 182 222 266
#     4  10  18  29  44  64  91 120 150 185 225 267
#     4   9  16  27  43  63  89 121 153 181 219 266
#     4   9  18  31  49  69  87 114 153 192 229 267
#
# _framework density 16.159690000000001
#
# number of rings (size 3 to 8) (size 9 to 14) (size 15 to 20)
#    0.000    2.625    1.250    2.250    0.000    2.250 
#    0.000    0.625    0.000    0.000    0.000    0.875 
#    0.000    7.000    0.000    0.000    0.000    0.000 
#
# Total GULP energy -396624.235228 kJ/mol
# GULP energy per Si atom -12394.507351 kJ/mol
# Density = 1.612291 g / cm^3
# Si number density = 16.159690 Si / 1000 Ang^3
#
#
#
# Elastic Constant Matrix: (Units=GPa)
#
#
# Indices 1 2 3 4 5 6 
#
# 1 71.2686 22.1075 54.3335 0.0000 -1.7457 0.0000
# 2 22.1075 39.9348 38.5670 0.0000 1.2736 0.0000
# 3 54.3335 38.5670 150.6914 0.0000 -2.3181 0.0000
# 4 0.0000 0.0000 0.0000 25.0806 0.0000 3.5643
# 5 -1.7457 1.2736 -2.3181 0.0000 20.2247 0.0000
# 6 0.0000 0.0000 0.0000 3.5643 0.0000 16.7636
#
#
#
# Elastic Compliance Matrix: (Units=1/GPa)
#
#
# Indices 1 2 3 4 5 6 
#
# 1 0.020267 -0.005618 -0.005848 0.000000 0.001433 0.000000
# 2 -0.005618 0.035012 -0.006989 0.000000 -0.003491 0.000000
# 3 -0.005848 -0.006989 0.010551 0.000000 0.001145 0.000000
# 4 0.000000 0.000000 0.000000 0.041114 0.000000 -0.008742
# 5 0.001433 -0.003491 0.001145 0.000000 0.049919 0.000000
# 6 0.000000 0.000000 0.000000 -0.008742 0.000000 0.061512
#
#
# Mechanical properties :
#
#
# Convention : Reuss Voigt Hill
#
# Bulk Modulus (GPa) = 34.57722 54.65679 44.61700
# Shear Modulus (GPa) = 18.87335 22.20622 20.53978
#
# Velocity S-wave (km/s) = 3.42120 3.71101 3.56905
# Velocity P-wave (km/s) = 6.08686 7.22900 6.68237
#
# Compressibility (1/GPa) = 0.02892078
#
# Stress axis : x y z
#
# Youngs Moduli (GPa) = 49.34022 28.56197 94.77947
#
# Poissons Ratio (x) = 0.16046 0.55425
# Poissons Ratio (y) = 0.27720 0.66238
# Poissons Ratio (z) = 0.28853 0.19961
#
# Static dielectric constant tensor:
#      x y z
#    x 3.014420 0.000000 -0.140140 
#    y 0.000000 2.980370 0.000000 
#    z -0.140140 0.000000 3.554910 
# 
# 
# High freq. dielectric constant tensor:
#      x y z
#    x 1.584110 0.000000 -0.002440 
#    y 0.000000 1.614650 0.000000 
#    z -0.002440 0.000000 1.632900 
# 
# From -- ./inp_files/326926.got.cif
#   From: 2010.06.25/outbox.cif.g09.slc.cpg/sg12_164_cif.got.tgz:326926.got - 2010.06.28 00:19:55.
