data_PCOD8080227
_publ_section_title
;
Structure prediction by ZEFSAII (Michael W. Deem and Ramdas Pophale) SiO2 
 PCOD8080227
Probable space group: C 2/M
;
_chemical_formula_sum "Si O2"
_cell_formula_units_Z 56
_cell_length_a 27.582382
_cell_length_b 9.734046
_cell_length_c 13.357977
_cell_angle_alpha 90.000000
_cell_angle_beta 77.352760
_cell_angle_gamma 90.000000
_cell_volume 3499.439084
_symmetry_space_group_name_H-M "C 2/M"
_symmetry_group_IT_number 12
_symmetry_cell_setting 'monoclinic'
loop_
_space_group_symop_operation_xyz
x,y,z
-x,y,-z
-x,-y,-z
x,-y,z
1/2+x,1/2+y,z
1/2-x,1/2+y,-z
1/2-x,1/2-y,-z
1/2+x,1/2-y,z
loop_
_atom_site_type_symbol
_atom_site_label
_atom_site_fract_x
_atom_site_fract_y
_atom_site_fract_z
Si Si1 0.202574 0.342749 0.134652
Si Si2 0.292097 0.156958 0.105234
Si Si3 0.037506 0.751390 0.063385
Si Si4 0.004959 0.337258 0.382984
Si Si5 0.094659 0.346840 0.216595
Si Si6 0.881669 0.153624 0.119933
Si Si7 0.458854 0.348168 0.249582
O O1 0.210207 0.500000 0.169075
O O2 0.243958 0.242935 0.163533
O O3 0.148948 0.276193 0.189056
O O4 0.205343 0.341651 0.014492
O O5 0.340414 0.229974 0.128003
O O6 0.289217 0.000000 0.146460
O O7 0.067690 0.646420 0.120133
O O8 0.004872 0.846128 0.151276
O O9 0.077667 0.842271 0.986775
O O10 0.000000 0.677236 0.000000
O O11 0.998880 0.500000 0.369859
O O12 0.962595 0.262605 0.337102
O O13 0.000000 0.294001 0.500000
O O14 0.058372 0.282868 0.317537
O O15 0.106470 0.500000 0.243838
O O16 0.907857 0.182538 0.214260
O O17 0.858263 0.000000 0.127611
O O18 0.457641 0.500000 0.297833
#
# Coordination Sequence:
#
# PCOD8080227 Si02
#       7
#     8   8   8   8   8   8   8
#     4   9  17  30  43  59  86 119 154 186 218 258
#     4  10  19  29  42  62  88 118 154 189 219 255
#     4   9  16  26  40  61  89 120 152 182 211 252
#     4   9  18  32  49  69  92 117 146 183 227 268
#     4   9  16  28  44  64  89 118 150 183 218 262
#     4  10  18  28  43  63  90 123 152 180 218 260
#     4   9  18  30  44  65  90 118 152 183 216 263
#
# _framework density 16.002565000000001
#
# number of rings (size 3 to 8) (size 9 to 14) (size 15 to 20)
#    0.000    2.714    1.429    0.857    0.000    3.429 
#    0.000    3.571    0.000    0.000    0.000    1.000 
#    0.000    0.000    0.000    0.000    0.000    0.000 
#
# Total GULP energy -346908.693638 kJ/mol
# GULP energy per Si atom -12389.596201 kJ/mol
# Density = 1.596614 g / cm^3
# Si number density = 16.002565 Si / 1000 Ang^3
#
#
#
# Elastic Constant Matrix: (Units=GPa)
#
#
# Indices 1 2 3 4 5 6 
#
# 1 108.3907 56.8199 35.3516 0.0000 -2.8818 0.0000
# 2 56.8199 88.2468 28.9207 0.0000 4.1352 0.0000
# 3 35.3516 28.9207 71.4213 0.0000 6.4996 0.0000
# 4 0.0000 0.0000 0.0000 14.3945 0.0000 3.5464
# 5 -2.8818 4.1352 6.4996 0.0000 15.5695 0.0000
# 6 0.0000 0.0000 0.0000 3.5464 0.0000 28.1584
#
#
#
# Elastic Compliance Matrix: (Units=1/GPa)
#
#
# Indices 1 2 3 4 5 6 
#
# 1 0.015608 -0.008810 -0.004817 0.000000 0.007240 0.000000
# 2 -0.008810 0.018065 -0.002463 0.000000 -0.005401 0.000000
# 3 -0.004817 -0.002463 0.018092 0.000000 -0.007790 0.000000
# 4 0.000000 0.000000 0.000000 0.071696 0.000000 -0.009030
# 5 0.007240 -0.005401 -0.007790 0.000000 0.070255 0.000000
# 6 0.000000 0.000000 0.000000 -0.009030 0.000000 0.036651
#
#
# Mechanical properties :
#
#
# Convention : Reuss Voigt Hill
#
# Bulk Modulus (GPa) = 51.05952 56.69369 53.87660
# Shear Modulus (GPa) = 18.58237 21.42225 20.00231
#
# Velocity S-wave (km/s) = 3.41135 3.66276 3.53929
# Velocity P-wave (km/s) = 6.89150 7.30702 7.10230
#
# Compressibility (1/GPa) = 0.01958499
#
# Stress axis : x y z
#
# Youngs Moduli (GPa) = 64.07093 55.35689 55.27390
#
# Poissons Ratio (x) = 0.48770 0.26624
# Poissons Ratio (y) = 0.56447 0.13612
# Poissons Ratio (z) = 0.30861 0.13633
#
# Static dielectric constant tensor:
#      x y z
#    x 3.208750 0.000000 -0.088510 
#    y 0.000000 2.977200 0.000000 
#    z -0.088510 0.000000 2.790060 
# 
# 
# High freq. dielectric constant tensor:
#      x y z
#    x 1.616990 0.000000 -0.004060 
#    y 0.000000 1.606140 0.000000 
#    z -0.004060 0.000000 1.569760 
# 
# From -- ./inp_files/181598.got.cif
#   From: 2010.06.25/outbox.cif.g09.slc.cpg/sg12_91_cif.got.tgz:181598.got - 2010.06.28 00:19:55.
