data_PCOD8080916
_publ_section_title
;
Structure prediction by ZEFSAII (Michael W. Deem and Ramdas Pophale) SiO2 
 PCOD8080916
Probable space group: C 2/M
;
_chemical_formula_sum "Si O2"
_cell_formula_units_Z 60
_cell_length_a 25.709020
_cell_length_b 16.611162
_cell_length_c 13.408503
_cell_angle_alpha 90.000000
_cell_angle_beta 143.553897
_cell_angle_gamma 90.000000
_cell_volume 3401.737390
_symmetry_space_group_name_H-M "C 2/M"
_symmetry_group_IT_number 12
_symmetry_cell_setting 'monoclinic'
loop_
_space_group_symop_operation_xyz
x,y,z
-x,y,-z
-x,-y,-z
x,-y,z
1/2+x,1/2+y,z
1/2-x,1/2+y,-z
1/2-x,1/2-y,-z
1/2+x,1/2-y,z
loop_
_atom_site_type_symbol
_atom_site_label
_atom_site_fract_x
_atom_site_fract_y
_atom_site_fract_z
Si Si1 0.091717 0.408397 0.399691
Si Si2 0.500000 0.330504 0.500000
Si Si3 0.359897 0.232650 0.399936
Si Si4 0.988872 0.304954 0.094575
Si Si5 0.788157 0.908416 0.648456
Si Si6 0.666271 0.301860 0.094707
Si Si7 0.448285 0.408706 0.218262
Si Si8 0.604032 0.332864 0.353983
O O1 0.071026 0.500000 0.399081
O O2 0.097494 0.354340 0.508511
O O3 0.183606 0.401411 0.483221
O O4 0.014761 0.376551 0.209482
O O5 0.420440 0.274371 0.412026
O O6 0.464222 0.386691 0.357564
O O7 0.262480 0.223995 0.206317
O O8 0.351177 0.283906 0.487803
O O9 0.051260 0.227720 0.201790
O O10 0.889806 0.277958 0.966908
O O11 0.000000 0.338137 0.000000
O O12 0.830221 0.858022 0.802734
O O13 0.820794 0.876142 0.592648
O O14 0.818833 0.000000 0.711347
O O15 0.625235 0.350243 0.939283
O O16 0.415239 0.500000 0.160186
O O17 0.538294 0.399656 0.295882
#
# Coordination Sequence:
#
# PCOD8080916 Si02
#       8
#     8   4   8   8   8   8   8   8
#     4   9  20  34  50  72 102 138 171 210 255 301
#     4  10  21  40  59  76  92 134 178 216 267 308
#     4   9  20  36  58  74  98 129 177 224 253 304
#     4  10  18  29  47  72 106 142 173 198 236 300
#     4  10  18  30  50  77 109 139 172 207 246 299
#     4  10  20  32  52  81 105 137 169 211 254 298
#     4  10  20  34  53  78 108 134 165 211 265 314
#     4   9  18  31  49  77 106 142 171 200 248 301
#
# _framework density 17.638047
#
# number of rings (size 3 to 8) (size 9 to 14) (size 15 to 20)
#    0.000    2.400    1.333    1.800    1.867    2.933 
#    0.000    2.333    0.000    3.200    0.000    0.000 
#    0.000    0.000    0.000    0.000    0.000    0.000 
#
# Total GULP energy -372057.804441 kJ/mol
# GULP energy per Si atom -12401.926815 kJ/mol
# Density = 1.759790 g / cm^3
# Si number density = 17.638047 Si / 1000 Ang^3
#
#
#
# Elastic Constant Matrix: (Units=GPa)
#
#
# Indices 1 2 3 4 5 6 
#
# 1 59.8934 17.8928 17.7021 0.0000 -2.8007 0.0000
# 2 17.8928 69.5192 26.2056 0.0000 9.3663 0.0000
# 3 17.7021 26.2056 86.2190 0.0000 0.2658 0.0000
# 4 0.0000 0.0000 0.0000 23.4641 0.0000 2.5950
# 5 -2.8007 9.3663 0.2658 0.0000 19.7853 0.0000
# 6 0.0000 0.0000 0.0000 2.5950 0.0000 16.2176
#
#
#
# Elastic Compliance Matrix: (Units=1/GPa)
#
#
# Indices 1 2 3 4 5 6 
#
# 1 0.019051 -0.004614 -0.002524 0.000000 0.004915 0.000000
# 2 -0.004614 0.018601 -0.004677 0.000000 -0.009396 0.000000
# 3 -0.002524 -0.004677 0.013533 0.000000 0.001675 0.000000
# 4 0.000000 0.000000 0.000000 0.043386 0.000000 -0.006942
# 5 0.004915 -0.009396 0.001675 0.000000 0.055664 0.000000
# 6 0.000000 0.000000 0.000000 -0.006942 0.000000 0.062772
#
#
# Mechanical properties :
#
#
# Convention : Reuss Voigt Hill
#
# Bulk Modulus (GPa) = 36.29252 37.69251 36.99251
# Shear Modulus (GPa) = 20.33989 22.14881 21.24435
#
# Velocity S-wave (km/s) = 3.39954 3.54749 3.47430
# Velocity P-wave (km/s) = 6.00251 6.18029 6.09205
#
# Compressibility (1/GPa) = 0.02755389
#
# Stress axis : x y z
#
# Youngs Moduli (GPa) = 52.49188 53.76019 73.89277
#
# Poissons Ratio (x) = 0.24804 0.18652
# Poissons Ratio (y) = 0.24219 0.34563
# Poissons Ratio (z) = 0.13250 0.25146
#
# Static dielectric constant tensor:
#      x y z
#    x 3.066670 0.000000 0.039090 
#    y 0.000000 3.280020 0.000000 
#    z 0.039090 0.000000 3.257610 
# 
# 
# High freq. dielectric constant tensor:
#      x y z
#    x 1.663770 0.000000 0.000950 
#    y 0.000000 1.679220 0.000000 
#    z 0.000950 0.000000 1.684110 
# 
# From -- ./inp_files/177370.got.cif
#   From: 2010.06.25/outbox.cif.g09.slc.cpg/sg12_89_cif.got.tgz:177370.got - 2010.06.28 00:19:55.
