data_PCOD8080385
_publ_section_title
;
Structure prediction by ZEFSAII (Michael W. Deem and Ramdas Pophale) SiO2 
 PCOD8080385
Probable space group: C 2/M
;
_chemical_formula_sum "Si O2"
_cell_formula_units_Z 64
_cell_length_a 24.935619
_cell_length_b 8.808636
_cell_length_c 20.412536
_cell_angle_alpha 90.000000
_cell_angle_beta 65.946443
_cell_angle_gamma 90.000000
_cell_volume 4094.255806
_symmetry_space_group_name_H-M "C 2/M"
_symmetry_group_IT_number 12
_symmetry_cell_setting 'monoclinic'
loop_
_space_group_symop_operation_xyz
x,y,z
-x,y,-z
-x,-y,-z
x,-y,z
1/2+x,1/2+y,z
1/2-x,1/2+y,-z
1/2-x,1/2-y,-z
1/2+x,1/2-y,z
loop_
_atom_site_type_symbol
_atom_site_label
_atom_site_fract_x
_atom_site_fract_y
_atom_site_fract_z
Si Si1 0.250362 0.673418 0.164152
Si Si2 0.214242 0.171507 0.574584
Si Si3 0.777268 0.828465 0.288572
Si Si4 0.800483 0.821921 0.931090
Si Si5 0.534289 0.322563 0.832537
Si Si6 0.377536 0.176854 0.298944
Si Si7 0.887942 0.174336 0.080402
Si Si8 0.085158 0.321555 0.066221
O O1 0.235884 0.500000 0.152353
O O2 0.234220 0.708160 0.248997
O O3 0.211381 0.782973 0.138995
O O4 0.319128 0.708781 0.121898
O O5 0.250000 0.250000 0.500000
O O6 0.252632 0.177109 0.623847
O O7 0.151424 0.254312 0.619686
O O8 0.201324 0.000000 0.559359
O O9 0.831684 0.710615 0.262258
O O10 0.803064 0.000000 0.263884
O O11 0.862975 0.759625 0.920653
O O12 0.799372 0.000000 0.942679
O O13 0.750000 0.750000 0.000000
O O14 0.520611 0.500000 0.833221
O O15 0.562428 0.262009 0.750381
O O16 0.577862 0.285321 0.870560
O O17 0.474861 0.230744 0.871229
O O18 0.389315 0.000000 0.302307
O O19 0.898541 0.000000 0.055183
O O20 0.914442 0.278174 0.010237
O O21 0.092739 0.500000 0.069999
#
# Coordination Sequence:
#
# PCOD8080385 Si02
#       8
#     8   8   8   8   8   8   8   8
#     4  10  18  33  54  72  94 126 163 205 250 300
#     4   9  16  28  45  70 102 137 166 194 233 284
#     4   8  16  30  46  67  97 131 161 191 238 288
#     4  12  24  38  53  70  90 122 162 211 260 302
#     4  11  21  36  52  68  95 129 161 199 246 299
#     4  10  18  28  45  69  97 129 161 193 230 279
#     4  10  19  33  52  70  92 124 157 197 253 300
#     4  12  25  37  49  69  92 121 162 209 251 297
#
# _framework density 15.631656
#
# number of rings (size 3 to 8) (size 9 to 14) (size 15 to 20)
#    0.750    1.000    2.500    4.125    0.000    3.000 
#    0.000    0.000    0.000    0.000    0.000    0.000 
#    0.000    1.000    0.000   10.750    0.000    4.750 
#
# Total GULP energy -396536.135052 kJ/mol
# GULP energy per Si atom -12391.754220 kJ/mol
# Density = 1.559608 g / cm^3
# Si number density = 15.631656 Si / 1000 Ang^3
#
#
#
# Elastic Constant Matrix: (Units=GPa)
#
#
# Indices 1 2 3 4 5 6 
#
# 1 54.4067 28.7169 27.9164 0.0000 -4.6328 0.0000
# 2 28.7169 108.0765 42.1473 -0.0002 -2.2946 -0.0011
# 3 27.9164 42.1473 103.9759 0.0000 -0.6698 0.0001
# 4 0.0000 -0.0002 0.0000 28.1675 0.0000 -1.3671
# 5 -4.6328 -2.2946 -0.6698 0.0000 14.3908 0.0000
# 6 0.0000 -0.0011 0.0001 -1.3671 0.0000 22.8391
#
#
#
# Elastic Compliance Matrix: (Units=1/GPa)
#
#
# Indices 1 2 3 4 5 6 
#
# 1 0.023568 -0.004358 -0.004518 0.000000 0.006682 0.000000
# 2 -0.004358 0.011830 -0.003623 0.000000 0.000315 0.000001
# 3 -0.004518 -0.003623 0.012290 0.000000 -0.001460 0.000000
# 4 0.000000 0.000000 0.000000 0.035605 0.000000 0.002131
# 5 0.006682 0.000315 -0.001460 0.000000 0.071622 0.000000
# 6 0.000000 0.000001 0.000000 0.002131 0.000000 0.043912
#
#
# Mechanical properties :
#
#
# Convention : Reuss Voigt Hill
#
# Bulk Modulus (GPa) = 44.07464 51.55781 47.81623
# Shear Modulus (GPa) = 21.60856 24.25805 22.93331
#
# Velocity S-wave (km/s) = 3.72204 3.94363 3.83444
# Velocity P-wave (km/s) = 6.83582 7.33423 7.08940
#
# Compressibility (1/GPa) = 0.02268878
#
# Stress axis : x y z
#
# Youngs Moduli (GPa) = 42.43104 84.52751 81.36719
#
# Poissons Ratio (x) = 0.36840 0.36761
# Poissons Ratio (y) = 0.18493 0.29482
# Poissons Ratio (z) = 0.19170 0.30627
#
# Static dielectric constant tensor:
#      x y z
#    x 2.673550 0.000000 0.094860 
#    y 0.000000 3.049940 0.000000 
#    z 0.094860 0.000000 2.984140 
# 
# 
# High freq. dielectric constant tensor:
#      x y z
#    x 1.563900 0.000000 0.004920 
#    y 0.000000 1.611200 0.000000 
#    z 0.004920 0.000000 1.588150 
# 
# From -- ./inp_files/348322.got.cif
#   From: 2010.06.25/outbox.cif.g09.slc.cpg/sg12_175_cif.got.tgz:348322.got - 2010.06.28 00:19:55.
