data_PCOD8080475
_publ_section_title
;
Structure prediction by ZEFSAII (Michael W. Deem and Ramdas Pophale) SiO2 
 PCOD8080475
Probable space group: C 2/M
;
_chemical_formula_sum "Si O2"
_cell_formula_units_Z 40
_cell_length_a 25.258946
_cell_length_b 8.917855
_cell_length_c 12.425248
_cell_angle_alpha 90.000000
_cell_angle_beta 121.656900
_cell_angle_gamma 90.000000
_cell_volume 2382.404213
_symmetry_space_group_name_H-M "C 2/M"
_symmetry_group_IT_number 12
_symmetry_cell_setting 'monoclinic'
loop_
_space_group_symop_operation_xyz
x,y,z
-x,y,-z
-x,-y,-z
x,-y,z
1/2+x,1/2+y,z
1/2-x,1/2+y,-z
1/2-x,1/2-y,-z
1/2+x,1/2-y,z
loop_
_atom_site_type_symbol
_atom_site_label
_atom_site_fract_x
_atom_site_fract_y
_atom_site_fract_z
Si Si1 0.579787 0.176332 0.662974
Si Si2 0.537611 0.675386 0.399981
Si Si3 0.280688 0.824699 0.134514
Si Si4 0.158338 0.826526 0.416038
Si Si5 0.746222 0.324005 0.327932
O O1 0.526228 0.233165 0.688561
O O2 0.571137 0.266951 0.543556
O O3 0.646291 0.214973 0.784662
O O4 0.572452 0.000000 0.632431
O O5 0.522512 0.500000 0.395944
O O6 0.584638 0.704885 0.350038
O O7 0.247070 0.761230 0.206936
O O8 0.270007 0.000000 0.112157
O O9 0.250000 0.750000 0.000000
O O10 0.194720 0.735717 0.544935
O O11 0.182112 0.780209 0.321571
O O12 0.173547 0.000000 0.453009
O O13 0.756130 0.500000 0.331900
#
# Coordination Sequence:
#
# PCOD8080475 Si02
#       5
#     8   8   8   8   8
#     4  10  19  31  46  68  95 127 160 191 233 284
#     4  10  18  28  46  73  99 124 151 192 239 281
#     4  10  21  34  50  69  94 127 163 199 234 277
#     4   9  17  28  47  72  98 123 151 192 238 285
#     4   9  17  31  47  68  96 125 157 192 236 283
#
# _framework density 16.789762
#
# number of rings (size 3 to 8) (size 9 to 14) (size 15 to 20)
#    0.000    2.400    2.000    2.400    0.000    3.200 
#    0.000    0.000    0.000    1.200    0.000    8.400 
#    0.000    0.000    0.000    0.000    0.000    0.000 
#
# Total GULP energy -247865.828922 kJ/mol
# GULP energy per Si atom -12393.291446 kJ/mol
# Density = 1.675155 g / cm^3
# Si number density = 16.789762 Si / 1000 Ang^3
#
#
#
# Elastic Constant Matrix: (Units=GPa)
#
#
# Indices 1 2 3 4 5 6 
#
# 1 158.1451 34.2916 64.2189 0.0000 -10.0976 0.0000
# 2 34.2916 40.3765 28.6205 0.0000 0.8730 0.0000
# 3 64.2189 28.6205 99.5510 0.0000 -7.7391 0.0000
# 4 0.0000 0.0000 0.0000 23.9783 0.0000 3.5643
# 5 -10.0976 0.8730 -7.7391 0.0000 24.4383 0.0000
# 6 0.0000 0.0000 0.0000 3.5643 0.0000 24.4352
#
#
#
# Elastic Compliance Matrix: (Units=1/GPa)
#
#
# Indices 1 2 3 4 5 6 
#
# 1 0.009341 -0.004853 -0.004426 0.000000 0.002631 0.000000
# 2 -0.004853 0.034022 -0.007075 0.000000 -0.005461 0.000000
# 3 -0.004426 -0.007075 0.015186 0.000000 0.003233 0.000000
# 4 0.000000 0.000000 0.000000 0.042629 0.000000 -0.006218
# 5 0.002631 -0.005461 0.003233 0.000000 0.043226 0.000000
# 6 0.000000 0.000000 0.000000 -0.006218 0.000000 0.041832
#
#
# Mechanical properties :
#
#
# Convention : Reuss Voigt Hill
#
# Bulk Modulus (GPa) = 38.69918 61.37050 50.03484
# Shear Modulus (GPa) = 21.97272 25.96647 23.96959
#
# Velocity S-wave (km/s) = 3.62152 3.93691 3.78250
# Velocity P-wave (km/s) = 6.37075 7.56950 6.99585
#
# Compressibility (1/GPa) = 0.02584034
#
# Stress axis : x y z
#
# Youngs Moduli (GPa) = 107.05687 29.39314 65.85186
#
# Poissons Ratio (x) = 0.14264 0.29146
# Poissons Ratio (y) = 0.51952 0.46591
# Poissons Ratio (z) = 0.47383 0.20796
#
# Static dielectric constant tensor:
#      x y z
#    x 3.816900 0.000000 -0.183350 
#    y 0.000000 3.189950 0.000000 
#    z -0.183350 0.000000 2.842310 
# 
# 
# High freq. dielectric constant tensor:
#      x y z
#    x 1.670670 0.000000 -0.006410 
#    y 0.000000 1.651680 0.000000 
#    z -0.006410 0.000000 1.593880 
# 
# From -- ./inp_files/171586.got.cif
#   From: 2010.06.25/outbox.cif.g09.slc.cpg/sg12_86_cif.got.tgz:171586.got - 2010.06.28 00:19:55.
