data_PCOD8080043
_publ_section_title
;
Structure prediction by ZEFSAII (Michael W. Deem and Ramdas Pophale) SiO2 
 PCOD8080043
Probable space group: C 2/M
;
_chemical_formula_sum "Si O2"
_cell_formula_units_Z 64
_cell_length_a 19.367521
_cell_length_b 9.341093
_cell_length_c 20.788117
_cell_angle_alpha 90.000000
_cell_angle_beta 98.660975
_cell_angle_gamma 90.000000
_cell_volume 3717.971301
_symmetry_space_group_name_H-M "C 2/M"
_symmetry_group_IT_number 12
_symmetry_cell_setting 'monoclinic'
loop_
_space_group_symop_operation_xyz
x,y,z
-x,y,-z
-x,-y,-z
x,-y,z
1/2+x,1/2+y,z
1/2-x,1/2+y,-z
1/2-x,1/2-y,-z
1/2+x,1/2-y,z
loop_
_atom_site_type_symbol
_atom_site_label
_atom_site_fract_x
_atom_site_fract_y
_atom_site_fract_z
Si Si1 0.778296 0.166827 0.857789
Si Si2 0.711738 0.668110 0.285774
Si Si3 0.426141 0.666499 0.668562
Si Si4 0.122072 0.661425 0.884104
Si Si5 0.865541 0.665464 0.323887
Si Si6 0.005691 0.666559 0.573385
Si Si7 0.186011 0.666920 0.021644
Si Si8 0.943080 0.165586 0.228051
O O1 0.790140 0.226271 0.787446
O O2 0.698278 0.194475 0.865664
O O3 0.829604 0.258791 0.911740
O O4 0.797639 0.000000 0.867417
O O5 0.700203 0.500000 0.280224
O O6 0.648497 0.731136 0.319598
O O7 0.785611 0.705720 0.330304
O O8 0.422327 0.500000 0.649324
O O9 0.449944 0.750332 0.608698
O O10 0.478950 0.691660 0.735201
O O11 0.100083 0.500000 0.864059
O O12 0.065063 0.766401 0.844034
O O13 0.122203 0.683353 0.961744
O O14 0.870286 0.500000 0.302885
O O15 0.915169 0.696270 0.391797
O O16 0.887698 0.759765 0.266845
O O17 0.986594 0.500000 0.574823
O O18 0.000000 0.723832 0.500000
O O19 0.204854 0.500000 0.033699
O O20 0.250000 0.750000 0.000000
O O21 0.924141 0.000000 0.221905
#
# Coordination Sequence:
#
# PCOD8080043 Si02
#       8
#     8   8   8   8   8   8   8   8
#     4   9  16  27  44  65  88 117 155 195 234 276
#     4   9  16  30  50  69  92 124 160 192 228 280
#     4   9  19  33  49  71  97 124 155 191 232 277
#     4   9  16  27  43  63  88 120 159 193 230 283
#     4   9  16  30  51  69  90 124 160 188 223 275
#     4   9  18  33  53  75  98 125 156 189 225 270
#     4   9  17  27  39  60  90 121 154 193 236 281
#     4  10  18  27  43  69  95 117 150 199 242 272
#
# _framework density 17.213688000000001
#
# number of rings (size 3 to 8) (size 9 to 14) (size 15 to 20)
#    0.000    2.875    1.250    1.500    0.000    3.250 
#    0.000    1.875    0.000    0.750    0.000    5.250 
#    0.000    0.000    0.000    0.000    0.000    0.000 
#
# Total GULP energy -396629.256120 kJ/mol
# GULP energy per Si atom -12394.664254 kJ/mol
# Density = 1.717451 g / cm^3
# Si number density = 17.213688 Si / 1000 Ang^3
#
#
#
# Elastic Constant Matrix: (Units=GPa)
#
#
# Indices 1 2 3 4 5 6 
#
# 1 99.1773 32.4962 52.9460 0.0000 -1.5083 0.0000
# 2 32.4962 64.3481 46.6726 0.0000 6.3714 0.0000
# 3 52.9460 46.6726 130.7815 0.0000 6.0832 0.0000
# 4 0.0000 0.0000 0.0000 28.0363 0.0000 0.6110
# 5 -1.5083 6.3714 6.0832 0.0000 18.0485 0.0000
# 6 0.0000 0.0000 0.0000 0.6110 0.0000 15.5369
#
#
#
# Elastic Compliance Matrix: (Units=1/GPa)
#
#
# Indices 1 2 3 4 5 6 
#
# 1 0.013826 -0.004305 -0.004252 0.000000 0.004108 0.000000
# 2 -0.004305 0.022754 -0.006083 0.000000 -0.006342 0.000000
# 3 -0.004252 -0.006083 0.011638 0.000000 -0.002131 0.000000
# 4 0.000000 0.000000 0.000000 0.035699 0.000000 -0.001404
# 5 0.004108 -0.006342 -0.002131 0.000000 0.058707 0.000000
# 6 0.000000 0.000000 0.000000 -0.001404 0.000000 0.064418
#
#
# Mechanical properties :
#
#
# Convention : Reuss Voigt Hill
#
# Bulk Modulus (GPa) = 52.80215 62.05958 57.43087
# Shear Modulus (GPa) = 20.60722 23.13714 21.87218
#
# Velocity S-wave (km/s) = 3.46373 3.67019 3.56845
# Velocity P-wave (km/s) = 6.83649 7.35467 7.10031
#
# Compressibility (1/GPa) = 0.01893862
#
# Stress axis : x y z
#
# Youngs Moduli (GPa) = 72.32773 43.94786 85.92820
#
# Poissons Ratio (x) = 0.18919 0.36538
# Poissons Ratio (y) = 0.31136 0.52267
# Poissons Ratio (z) = 0.30755 0.26732
#
# Static dielectric constant tensor:
#      x y z
#    x 3.077630 0.000000 0.142970 
#    y 0.000000 3.186030 0.000000 
#    z 0.142970 0.000000 3.485420 
# 
# 
# High freq. dielectric constant tensor:
#      x y z
#    x 1.630820 0.000000 0.015760 
#    y 0.000000 1.654370 0.000000 
#    z 0.015760 0.000000 1.664770 
# 
# From -- ./inp_files/319199.got.cif
#   From: 2010.06.25/outbox.cif.g09.slc.cpg/sg12_160_cif.got.tgz:319199.got - 2010.06.28 00:19:55.
