data_PCOD8080688
_publ_section_title
;
Structure prediction by ZEFSAII (Michael W. Deem and Ramdas Pophale) SiO2 
 PCOD8080688
Probable space group: C 2/M
;
_chemical_formula_sum "Si O2"
_cell_formula_units_Z 56
_cell_length_a 24.180916
_cell_length_b 9.076164
_cell_length_c 21.600318
_cell_angle_alpha 90.000000
_cell_angle_beta 134.312597
_cell_angle_gamma 90.000000
_cell_volume 3392.099922
_symmetry_space_group_name_H-M "C 2/M"
_symmetry_group_IT_number 12
_symmetry_cell_setting 'monoclinic'
loop_
_space_group_symop_operation_xyz
x,y,z
-x,y,-z
-x,-y,-z
x,-y,z
1/2+x,1/2+y,z
1/2-x,1/2+y,-z
1/2-x,1/2-y,-z
1/2+x,1/2-y,z
loop_
_atom_site_type_symbol
_atom_site_label
_atom_site_fract_x
_atom_site_fract_y
_atom_site_fract_z
Si Si1 0.219910 0.675898 0.538292
Si Si2 0.578559 0.325729 0.483149
Si Si3 0.591901 0.326298 0.633759
Si Si4 0.751637 0.665678 0.799234
Si Si5 0.822659 0.332674 0.718753
Si Si6 0.886267 0.164550 0.951481
Si Si7 0.958787 0.833203 0.872973
O O1 0.221624 0.500000 0.534343
O O2 0.250000 0.750000 0.500000
O O3 0.132404 0.732222 0.479761
O O4 0.273143 0.727975 0.636273
O O5 0.595937 0.500000 0.489769
O O6 0.593257 0.268416 0.564379
O O7 0.489139 0.289067 0.396067
O O8 0.602486 0.500000 0.636717
O O9 0.665278 0.262031 0.729458
O O10 0.746734 0.500000 0.819491
O O11 0.785837 0.673625 0.757404
O O12 0.806305 0.745894 0.891886
O O13 0.823320 0.500000 0.693839
O O14 0.910886 0.272436 0.789570
O O15 0.918417 0.167056 0.907644
O O16 0.866277 0.000000 0.956518
O O17 0.952987 0.226733 0.049947
O O18 0.959228 0.000000 0.847025
#
# Coordination Sequence:
#
# PCOD8080688 Si02
#       7
#     8   8   8   8   8   8   8
#     4  12  24  36  49  65  88 117 152 193 232 269
#     4   9  16  31  50  66  87 117 152 185 224 268
#     4   8  14  26  47  68  90 120 149 181 221 270
#     4   9  15  24  40  63  89 117 150 181 213 261
#     4  10  18  29  45  63  85 113 150 187 223 267
#     4   8  14  23  35  54  83 118 148 178 216 257
#     4   8  14  25  38  54  81 115 149 180 217 262
#
# _framework density 16.508948
#
# number of rings (size 3 to 8) (size 9 to 14) (size 15 to 20)
#    0.000    2.857    1.429    3.429    0.000    1.143 
#    0.000    5.000    0.000    0.000    0.000    0.000 
#    0.000    1.143    0.000    3.429    0.000    5.286 
#
# Total GULP energy -346932.173649 kJ/mol
# GULP energy per Si atom -12390.434773 kJ/mol
# Density = 1.647137 g / cm^3
# Si number density = 16.508948 Si / 1000 Ang^3
#
#
#
# Elastic Constant Matrix: (Units=GPa)
#
#
# Indices 1 2 3 4 5 6 
#
# 1 72.3158 37.0873 40.2912 0.0000 25.6069 0.0000
# 2 37.0873 85.5855 39.1720 0.0000 18.3097 0.0000
# 3 40.2912 39.1720 83.7823 0.0000 47.3114 0.0000
# 4 0.0000 0.0000 0.0000 28.0028 0.0000 6.3983
# 5 25.6069 18.3097 47.3114 0.0000 34.6940 0.0000
# 6 0.0000 0.0000 0.0000 6.3983 0.0000 18.0488
#
#
#
# Elastic Compliance Matrix: (Units=1/GPa)
#
#
# Indices 1 2 3 4 5 6 
#
# 1 0.021720 -0.006509 -0.001258 0.000000 -0.010881 0.000000
# 2 -0.006509 0.017229 -0.010888 0.000000 0.010559 0.000000
# 3 -0.001258 -0.010888 0.060286 0.000000 -0.075537 0.000000
# 4 0.000000 0.000000 0.000000 0.038858 0.000000 -0.013775
# 5 -0.010881 0.010559 -0.075537 0.000000 0.134290 0.000000
# 6 0.000000 0.000000 0.000000 -0.013775 0.000000 0.060289
#
#
# Mechanical properties :
#
#
# Convention : Reuss Voigt Hill
#
# Bulk Modulus (GPa) = 16.14794 52.75383 34.45089
# Shear Modulus (GPa) = 12.80009 24.49133 18.64571
#
# Velocity S-wave (km/s) = 2.78752 3.85583 3.36435
# Velocity P-wave (km/s) = 4.49031 7.20050 6.00042
#
# Compressibility (1/GPa) = 0.06192741
#
# Stress axis : x y z
#
# Youngs Moduli (GPa) = 46.04088 58.04167 16.58754
#
# Poissons Ratio (x) = 0.37777 0.02086
# Poissons Ratio (y) = 0.29966 0.18060
# Poissons Ratio (z) = 0.05790 0.63194
#
# Static dielectric constant tensor:
#      x y z
#    x 2.874930 0.000000 0.537560 
#    y 0.000000 3.102970 0.000000 
#    z 0.537560 0.000000 3.540890 
# 
# 
# High freq. dielectric constant tensor:
#      x y z
#    x 1.587610 0.000000 0.044750 
#    y 0.000000 1.621830 0.000000 
#    z 0.044750 0.000000 1.632200 
# 
# From -- ./inp_files/323816.got.cif
#   From: 2010.06.25/outbox.cif.g09.slc.cpg/sg12_162_cif.got.tgz:323816.got - 2010.06.28 00:19:55.
