data_PCOD8080903
_publ_section_title
;
Structure prediction by ZEFSAII (Michael W. Deem and Ramdas Pophale) SiO2 
 PCOD8080903
Probable space group: C 2/M
;
_chemical_formula_sum "Si O2"
_cell_formula_units_Z 64
_cell_length_a 20.658197
_cell_length_b 13.822921
_cell_length_c 14.002084
_cell_angle_alpha 90.000000
_cell_angle_beta 68.588376
_cell_angle_gamma 90.000000
_cell_volume 3722.426206
_symmetry_space_group_name_H-M "C 2/M"
_symmetry_group_IT_number 12
_symmetry_cell_setting 'monoclinic'
loop_
_space_group_symop_operation_xyz
x,y,z
-x,y,-z
-x,-y,-z
x,-y,z
1/2+x,1/2+y,z
1/2-x,1/2+y,-z
1/2-x,1/2-y,-z
1/2+x,1/2-y,z
loop_
_atom_site_type_symbol
_atom_site_label
_atom_site_fract_x
_atom_site_fract_y
_atom_site_fract_z
Si Si1 0.570142 0.689772 0.416826
Si Si2 0.792403 0.390030 0.306821
Si Si3 0.376155 0.288622 0.284046
Si Si4 0.690798 0.387342 0.853137
Si Si5 0.194907 0.236090 0.230971
Si Si6 0.508571 0.394207 0.266802
Si Si7 0.674484 0.608156 0.515012
Si Si8 0.146202 0.109090 0.089651
O O1 0.500000 0.740194 0.500000
O O2 0.624658 0.759369 0.330678
O O3 0.545403 0.613261 0.350244
O O4 0.611700 0.637419 0.478590
O O5 0.812876 0.500000 0.268392
O O6 0.862791 0.326291 0.277816
O O7 0.742367 0.345006 0.254575
O O8 0.750547 0.386884 0.428280
O O9 0.364388 0.345371 0.192101
O O10 0.453563 0.308361 0.280195
O O11 0.321947 0.325030 0.393407
O O12 0.702163 0.500000 0.829105
O O13 0.765747 0.337332 0.800342
O O14 0.659821 0.364143 0.973139
O O15 0.181446 0.191585 0.134408
O O16 0.472408 0.500000 0.282050
O O17 0.563949 0.386660 0.151924
O O18 0.657701 0.500000 0.557507
O O19 0.173882 0.000000 0.098118
#
# Coordination Sequence:
#
# PCOD8080903 Si02
#       8
#     8   8   8   8   8   8   8   8
#     4  10  18  29  48  73  98 126 157 194 239 279
#     4   9  19  33  48  68  93 125 162 201 237 275
#     4  11  20  30  46  69  98 130 159 189 233 290
#     4  10  20  33  49  71  99 129 161 194 235 286
#     4   9  18  32  52  74  94 122 159 203 241 279
#     4  10  19  30  47  74 102 126 154 192 241 289
#     4  10  18  29  47  71  98 124 155 195 240 285
#     4   9  18  32  51  74  98 124 156 199 244 285
#
# _framework density 17.193087999999999
#
# number of rings (size 3 to 8) (size 9 to 14) (size 15 to 20)
#    0.000    2.250    1.250    2.625    0.000    4.000 
#    0.000    1.875    0.000    3.375    0.000    3.500 
#    0.000    0.000    0.000    0.000    0.000    0.000 
#
# Total GULP energy -396585.753943 kJ/mol
# GULP energy per Si atom -12393.304811 kJ/mol
# Density = 1.715396 g / cm^3
# Si number density = 17.193088 Si / 1000 Ang^3
#
#
#
# Elastic Constant Matrix: (Units=GPa)
#
#
# Indices 1 2 3 4 5 6 
#
# 1 53.3881 22.7507 18.9394 0.0000 -0.4611 0.0000
# 2 22.7507 81.1621 32.9756 0.0000 0.5873 0.0000
# 3 18.9394 32.9756 94.7332 0.0000 0.6955 0.0000
# 4 0.0000 0.0000 0.0000 16.4461 0.0000 0.2109
# 5 -0.4611 0.5873 0.6955 0.0000 25.0097 0.0000
# 6 0.0000 0.0000 0.0000 0.2109 0.0000 21.1324
#
#
#
# Elastic Compliance Matrix: (Units=1/GPa)
#
#
# Indices 1 2 3 4 5 6 
#
# 1 0.021817 -0.005062 -0.002604 0.000000 0.000593 0.000000
# 2 -0.005062 0.015526 -0.004390 0.000000 -0.000336 0.000000
# 3 -0.002604 -0.004390 0.012607 0.000000 -0.000296 0.000000
# 4 0.000000 0.000000 0.000000 0.060812 0.000000 -0.000607
# 5 0.000593 -0.000336 -0.000296 0.000000 0.040011 0.000000
# 6 0.000000 0.000000 0.000000 -0.000607 0.000000 0.047327
#
#
# Mechanical properties :
#
#
# Convention : Reuss Voigt Hill
#
# Bulk Modulus (GPa) = 38.70291 42.06831 40.38561
# Shear Modulus (GPa) = 21.66149 22.82550 22.24350
#
# Velocity S-wave (km/s) = 3.55335 3.64757 3.60077
# Velocity P-wave (km/s) = 6.27652 6.50085 6.38967
#
# Compressibility (1/GPa) = 0.02583785
#
# Stress axis : x y z
#
# Youngs Moduli (GPa) = 45.83645 64.40833 79.32188
#
# Poissons Ratio (x) = 0.32602 0.20656
# Poissons Ratio (y) = 0.23201 0.34822
# Poissons Ratio (z) = 0.11936 0.28275
#
# Static dielectric constant tensor:
#      x y z
#    x 3.110680 0.000000 -0.051120 
#    y 0.000000 3.052440 0.000000 
#    z -0.051120 0.000000 3.391180 
# 
# 
# High freq. dielectric constant tensor:
#      x y z
#    x 1.651900 0.000000 0.004590 
#    y 0.000000 1.636800 0.000000 
#    z 0.004590 0.000000 1.676450 
# 
# From -- ./inp_files/232466.got.cif
#   From: 2010.06.25/outbox.cif.g09.slc.cpg/sg12_117_cif.got.tgz:232466.got - 2010.06.28 00:19:55.
