data_PCOD8080275
_publ_section_title
;
Structure prediction by ZEFSAII (Michael W. Deem and Ramdas Pophale) SiO2 
 PCOD8080275
Probable space group: C 2/M
;
_chemical_formula_sum "Si O2"
_cell_formula_units_Z 64
_cell_length_a 27.425194
_cell_length_b 8.867355
_cell_length_c 19.168002
_cell_angle_alpha 90.000000
_cell_angle_beta 121.468233
_cell_angle_gamma 90.000000
_cell_volume 3975.885793
_symmetry_space_group_name_H-M "C 2/M"
_symmetry_group_IT_number 12
_symmetry_cell_setting 'monoclinic'
loop_
_space_group_symop_operation_xyz
x,y,z
-x,y,-z
-x,-y,-z
x,-y,z
1/2+x,1/2+y,z
1/2-x,1/2+y,-z
1/2-x,1/2-y,-z
1/2+x,1/2-y,z
loop_
_atom_site_type_symbol
_atom_site_label
_atom_site_fract_x
_atom_site_fract_y
_atom_site_fract_z
Si Si1 0.969721 0.677296 0.326053
Si Si2 0.797315 0.323934 0.487636
Si Si3 0.416955 0.674859 0.574032
Si Si4 0.799842 0.174857 0.994083
Si Si5 0.795204 0.323845 0.325856
Si Si6 0.086254 0.825512 0.590173
Si Si7 0.632960 0.672057 0.825574
Si Si8 0.749148 0.823823 0.165460
O O1 0.977282 0.500000 0.331447
O O2 0.957836 0.733472 0.395645
O O3 0.918974 0.722061 0.235859
O O4 0.029541 0.751487 0.345376
O O5 0.800378 0.500000 0.505185
O O6 0.750000 0.250000 0.500000
O O7 0.858413 0.254112 0.553039
O O8 0.779756 0.290424 0.394536
O O9 0.412071 0.500000 0.589526
O O10 0.428238 0.702036 0.500793
O O11 0.857238 0.194104 0.083625
O O12 0.785682 0.000000 0.971772
O O13 0.750000 0.250000 0.000000
O O14 0.802587 0.258104 0.921070
O O15 0.806279 0.500000 0.321786
O O16 0.850753 0.231005 0.344831
O O17 0.745808 0.261128 0.237812
O O18 0.081533 0.000000 0.607342
O O19 0.616070 0.500000 0.796213
O O20 0.690594 0.713843 0.826777
O O21 0.739210 0.000000 0.169205
#
# Coordination Sequence:
#
# PCOD8080275 Si02
#       8
#     8   8   8   8   8   8   8   8
#     4  12  22  29  43  65  92 124 158 196 230 270
#     4  10  21  37  55  74  95 119 151 191 238 286
#     4  10  21  35  50  66  88 120 155 193 234 276
#     4   9  17  28  42  59  84 119 159 198 233 271
#     4  10  19  30  47  70  93 120 156 195 231 274
#     4  10  19  31  45  62  88 122 157 191 231 274
#     4   9  18  30  42  59  87 125 162 193 230 273
#     4  10  18  28  44  64  90 122 157 195 233 276
#
# _framework density 16.097041999999998
#
# number of rings (size 3 to 8) (size 9 to 14) (size 15 to 20)
#    0.000    2.000    1.250    4.500    0.000    7.000 
#    0.000    0.000    0.000    0.000    0.000    0.000 
#    0.000    1.000    0.000   10.500    0.000    5.000 
#
# Total GULP energy -396731.802946 kJ/mol
# GULP energy per Si atom -12397.868842 kJ/mol
# Density = 1.606040 g / cm^3
# Si number density = 16.097042 Si / 1000 Ang^3
#
#
#
# Elastic Constant Matrix: (Units=GPa)
#
#
# Indices 1 2 3 4 5 6 
#
# 1 65.9597 41.0430 36.2161 0.0000 6.5582 0.0000
# 2 41.0430 98.1163 37.2779 0.0000 8.2466 0.0000
# 3 36.2161 37.2779 69.7602 0.0000 6.4986 0.0000
# 4 0.0000 0.0000 0.0000 29.3875 0.0000 0.6970
# 5 6.5582 8.2466 6.4986 0.0000 11.8319 0.0000
# 6 0.0000 0.0000 0.0000 0.6970 0.0000 22.1433
#
#
#
# Elastic Compliance Matrix: (Units=1/GPa)
#
#
# Indices 1 2 3 4 5 6 
#
# 1 0.024495 -0.006540 -0.008834 0.000000 -0.004167 0.000000
# 2 -0.006540 0.014875 -0.004137 0.000000 -0.004470 0.000000
# 3 -0.008834 -0.004137 0.021507 0.000000 -0.004033 0.000000
# 4 0.000000 0.000000 0.000000 0.034054 0.000000 -0.001072
# 5 -0.004167 -0.004470 -0.004033 0.000000 0.092158 0.000000
# 6 0.000000 0.000000 0.000000 -0.001072 0.000000 0.045194
#
#
# Mechanical properties :
#
#
# Convention : Reuss Voigt Hill
#
# Bulk Modulus (GPa) = 45.75438 51.43448 48.59443
# Shear Modulus (GPa) = 17.94751 20.62580 19.28665
#
# Velocity S-wave (km/s) = 3.34272 3.58347 3.46518
# Velocity P-wave (km/s) = 6.58667 7.01026 6.80176
#
# Compressibility (1/GPa) = 0.02185583
#
# Stress axis : x y z
#
# Youngs Moduli (GPa) = 40.82511 67.22523 46.49582
#
# Poissons Ratio (x) = 0.43965 0.41072
# Poissons Ratio (y) = 0.26700 0.19237
# Poissons Ratio (z) = 0.36063 0.27813
#
# Static dielectric constant tensor:
#      x y z
#    x 2.613600 0.000000 -0.044860 
#    y 0.000000 3.190670 0.000000 
#    z -0.044860 0.000000 3.393200 
# 
# 
# High freq. dielectric constant tensor:
#      x y z
#    x 1.555000 0.000000 0.001280 
#    y 0.000000 1.638030 0.000000 
#    z 0.001280 0.000000 1.626460 
# 
# From -- ./inp_files/326916.got.cif
#   From: 2010.06.25/outbox.cif.g09.slc.cpg/sg12_164_cif.got.tgz:326916.got - 2010.06.28 00:19:55.
