data_PCOD8080198
_publ_section_title
;
Structure prediction by ZEFSAII (Michael W. Deem and Ramdas Pophale) SiO2 
 PCOD8080198
Probable space group: C 2/M
;
_chemical_formula_sum "Si O2"
_cell_formula_units_Z 56
_cell_length_a 32.540476
_cell_length_b 8.578731
_cell_length_c 13.777981
_cell_angle_alpha 90.000000
_cell_angle_beta 64.871196
_cell_angle_gamma 90.000000
_cell_volume 3482.183419
_symmetry_space_group_name_H-M "C 2/M"
_symmetry_group_IT_number 12
_symmetry_cell_setting 'monoclinic'
loop_
_space_group_symop_operation_xyz
x,y,z
-x,y,-z
-x,-y,-z
x,-y,z
1/2+x,1/2+y,z
1/2-x,1/2+y,-z
1/2-x,1/2-y,-z
1/2+x,1/2-y,z
loop_
_atom_site_type_symbol
_atom_site_label
_atom_site_fract_x
_atom_site_fract_y
_atom_site_fract_z
Si Si1 0.251982 0.819031 0.393358
Si Si2 0.522559 0.183772 0.115463
Si Si3 0.150146 0.316821 0.709565
Si Si4 0.346320 0.682469 0.507325
Si Si5 0.981414 0.684306 0.664282
Si Si6 0.935744 0.818500 0.107847
Si Si7 0.570782 0.184455 0.469255
O O1 0.250000 0.750000 0.500000
O O2 0.299911 0.764759 0.297521
O O3 0.203270 0.777558 0.393314
O O4 0.257249 0.000000 0.401748
O O5 0.530340 0.247400 0.216926
O O6 0.471014 0.219976 0.136551
O O7 0.530999 0.000000 0.099217
O O8 0.558276 0.272463 0.010976
O O9 0.140601 0.500000 0.732129
O O10 0.145596 0.276415 0.600206
O O11 0.114832 0.219995 0.808362
O O12 0.349626 0.500000 0.479520
O O13 0.383014 0.729170 0.550344
O O14 0.984992 0.500000 0.662231
O O15 0.942374 0.734326 0.627491
O O16 0.030765 0.745095 0.580410
O O17 0.946062 0.000000 0.111333
O O18 0.577826 0.000000 0.470747
#
# Coordination Sequence:
#
# PCOD8080198 Si02
#       7
#     8   8   8   8   8   8   8
#     4   8  16  28  42  60  86 114 143 175 212 255
#     4  10  18  31  48  65  86 118 153 181 208 253
#     4  10  18  30  46  63  84 118 153 179 209 256
#     4  10  18  28  42  66  94 117 140 176 219 259
#     4   8  16  29  46  64  85 113 150 185 208 238
#     4  11  21  31  43  65  92 116 142 181 224 259
#     4   9  16  29  46  65  87 116 148 177 209 252
#
# _framework density 16.081863999999999
#
# number of rings (size 3 to 8) (size 9 to 14) (size 15 to 20)
#    0.000    2.571    0.000    5.143    0.000    2.286 
#    0.000    3.571    0.000    0.000    0.000    1.000 
#    0.000    0.000    0.000    0.000    0.000    0.000 
#
# Total GULP energy -346919.128160 kJ/mol
# GULP energy per Si atom -12389.968863 kJ/mol
# Density = 1.604526 g / cm^3
# Si number density = 16.081864 Si / 1000 Ang^3
#
#
#
# Elastic Constant Matrix: (Units=GPa)
#
#
# Indices 1 2 3 4 5 6 
#
# 1 117.5662 14.2926 53.6053 0.0000 -11.0466 0.0000
# 2 14.2926 30.3537 14.6462 0.0000 -4.1974 0.0000
# 3 53.6053 14.6462 98.8232 0.0000 -2.2479 0.0000
# 4 0.0000 0.0000 0.0000 16.5087 0.0000 -3.9243
# 5 -11.0466 -4.1974 -2.2479 0.0000 28.1709 0.0000
# 6 0.0000 0.0000 0.0000 -3.9243 0.0000 20.3034
#
#
#
# Elastic Compliance Matrix: (Units=1/GPa)
#
#
# Indices 1 2 3 4 5 6 
#
# 1 0.011883 -0.002148 -0.006040 0.000000 0.003858 0.000000
# 2 -0.002148 0.036552 -0.004155 0.000000 0.004272 0.000000
# 3 -0.006040 -0.004155 0.013969 0.000000 -0.001873 0.000000
# 4 0.000000 0.000000 0.000000 0.063491 0.000000 0.012272
# 5 0.003858 0.004272 -0.001873 0.000000 0.037498 0.000000
# 6 0.000000 0.000000 0.000000 0.012272 0.000000 0.051625
#
#
# Mechanical properties :
#
#
# Convention : Reuss Voigt Hill
#
# Bulk Modulus (GPa) = 26.51220 45.75906 36.13563
# Shear Modulus (GPa) = 19.81963 23.94321 21.88142
#
# Velocity S-wave (km/s) = 3.51439 3.86273 3.69267
# Velocity P-wave (km/s) = 5.74365 6.95771 6.37963
#
# Compressibility (1/GPa) = 0.03771848
#
# Stress axis : x y z
#
# Youngs Moduli (GPa) = 84.15114 27.35840 71.58936
#
# Poissons Ratio (x) = 0.05876 0.43239
# Poissons Ratio (y) = 0.18073 0.29746
# Poissons Ratio (z) = 0.50827 0.11368
#
# Static dielectric constant tensor:
#      x y z
#    x 3.439780 0.000000 -0.183370 
#    y 0.000000 2.845280 0.000000 
#    z -0.183370 0.000000 3.143830 
# 
# 
# High freq. dielectric constant tensor:
#      x y z
#    x 1.614160 0.000000 -0.015140 
#    y 0.000000 1.616940 0.000000 
#    z -0.015140 0.000000 1.591950 
# 
# From -- ./inp_files/247715.got.cif
#   From: 2010.06.25/outbox.cif.g09.slc.cpg/sg12_124_cif.got.tgz:247715.got - 2010.06.28 00:19:55.
