data_PCOD8080868
_publ_section_title
;
Structure prediction by ZEFSAII (Michael W. Deem and Ramdas Pophale) SiO2 
 PCOD8080868
Probable space group: C 2/M
;
_chemical_formula_sum "Si O2"
_cell_formula_units_Z 64
_cell_length_a 20.301340
_cell_length_b 9.010521
_cell_length_c 20.434169
_cell_angle_alpha 90.000000
_cell_angle_beta 108.501417
_cell_angle_gamma 90.000000
_cell_volume 3544.741572
_symmetry_space_group_name_H-M "C 2/M"
_symmetry_group_IT_number 12
_symmetry_cell_setting 'monoclinic'
loop_
_space_group_symop_operation_xyz
x,y,z
-x,y,-z
-x,-y,-z
x,-y,z
1/2+x,1/2+y,z
1/2-x,1/2+y,-z
1/2-x,1/2-y,-z
1/2+x,1/2-y,z
loop_
_atom_site_type_symbol
_atom_site_label
_atom_site_fract_x
_atom_site_fract_y
_atom_site_fract_z
Si Si1 0.827480 0.828549 0.576099
Si Si2 0.041058 0.824123 0.131518
Si Si3 0.290264 0.825250 0.299557
Si Si4 0.142914 0.674749 0.067329
Si Si5 0.208179 0.173164 0.831310
Si Si6 0.311053 0.329798 0.431360
Si Si7 0.618200 0.674583 0.926796
Si Si8 0.865766 0.171968 0.724272
O O1 0.765407 0.714658 0.568842
O O2 0.858702 0.804749 0.512368
O O3 0.883316 0.798861 0.652514
O O4 0.800614 0.000000 0.574437
O O5 0.076723 0.750494 0.080024
O O6 0.076809 0.758208 0.209154
O O7 0.961246 0.776773 0.108377
O O8 0.048795 0.000000 0.126975
O O9 0.319103 0.758834 0.241267
O O10 0.335016 0.766336 0.376140
O O11 0.211293 0.766914 0.284296
O O12 0.297067 0.000000 0.299407
O O13 0.131304 0.500000 0.060376
O O14 0.212211 0.716311 0.129034
O O15 0.151484 0.737234 0.997279
O O16 0.160114 0.223737 0.875980
O O17 0.199920 0.000000 0.815307
O O18 0.312195 0.500000 0.409636
O O19 0.625649 0.500000 0.942600
O O20 0.865467 0.000000 0.740482
#
# Coordination Sequence:
#
# PCOD8080868 Si02
#       8
#     8   8   8   8   8   8   8   8
#     4   8  14  24  38  61  93 127 160 194 236 284
#     4  10  19  34  54  74  97 129 164 198 239 289
#     4  10  18  29  47  69  94 126 162 199 239 289
#     4  11  22  35  53  74  98 125 158 203 248 291
#     4  10  21  36  51  72  98 126 162 203 246 288
#     4   9  15  23  38  62  95 128 156 194 240 284
#     4  10  22  37  53  72  97 128 163 200 241 293
#     4   8  14  26  45  68  92 120 158 196 232 278
#
# _framework density 18.054914
#
# number of rings (size 3 to 8) (size 9 to 14) (size 15 to 20)
#    0.000    2.500    1.250    2.625    0.000    3.500 
#    0.000    0.000    0.000    0.000    0.000    0.875 
#    0.000    7.000    0.000    0.000    0.000    0.000 
#
# Total GULP energy -396565.281384 kJ/mol
# GULP energy per Si atom -12392.665043 kJ/mol
# Density = 1.801382 g / cm^3
# Si number density = 18.054914 Si / 1000 Ang^3
#
#
#
# Elastic Constant Matrix: (Units=GPa)
#
#
# Indices 1 2 3 4 5 6 
#
# 1 48.6657 23.2903 21.8565 0.0000 -14.1816 0.0000
# 2 23.2903 52.9002 46.9532 0.0000 -12.1327 0.0000
# 3 21.8565 46.9532 154.5474 0.0000 -24.9309 0.0000
# 4 0.0000 0.0000 0.0000 30.1695 0.0000 -4.0475
# 5 -14.1816 -12.1327 -24.9309 0.0000 14.8554 0.0000
# 6 0.0000 0.0000 0.0000 -4.0475 0.0000 14.4315
#
#
#
# Elastic Compliance Matrix: (Units=1/GPa)
#
#
# Indices 1 2 3 4 5 6 
#
# 1 0.032193 -0.010667 0.003072 0.000000 0.027176 0.000000
# 2 -0.010667 0.030770 -0.007444 0.000000 0.002455 0.000000
# 3 0.003072 -0.007444 0.010682 0.000000 0.014780 0.000000
# 4 0.000000 0.000000 0.000000 0.034442 0.000000 0.009660
# 5 0.027176 0.002455 0.014780 0.000000 0.120068 0.000000
# 6 0.000000 0.000000 0.000000 0.009660 0.000000 0.072002
#
#
# Mechanical properties :
#
#
# Convention : Reuss Voigt Hill
#
# Bulk Modulus (GPa) = 22.95328 48.92370 35.93849
# Shear Modulus (GPa) = 14.50296 22.82551 18.66424
#
# Velocity S-wave (km/s) = 2.83728 3.55945 3.21868
# Velocity P-wave (km/s) = 4.84501 6.63694 5.81047
#
# Compressibility (1/GPa) = 0.04356676
#
# Stress axis : x y z
#
# Youngs Moduli (GPa) = 31.06240 32.49934 93.61786
#
# Poissons Ratio (x) = 0.34668 -0.28759
# Poissons Ratio (y) = 0.33135 0.69686
# Poissons Ratio (z) = -0.09542 0.24191
#
# Static dielectric constant tensor:
#      x y z
#    x 2.943820 0.000000 0.029320 
#    y 0.000000 3.179930 0.000000 
#    z 0.029320 0.000000 3.916630 
# 
# 
# High freq. dielectric constant tensor:
#      x y z
#    x 1.638110 0.000000 -0.007610 
#    y 0.000000 1.689270 0.000000 
#    z -0.007610 0.000000 1.729520 
# 
# From -- ./inp_files/319267.got.cif
#   From: 2010.06.25/outbox.cif.g09.slc.cpg/sg12_160_cif.got.tgz:319267.got - 2010.06.28 00:19:55.
