data_PCOD8080237
_publ_section_title
;
Structure prediction by ZEFSAII (Michael W. Deem and Ramdas Pophale) SiO2 
 PCOD8080237
Probable space group: C 2/M
;
_chemical_formula_sum "Si O2"
_cell_formula_units_Z 56
_cell_length_a 28.580952
_cell_length_b 9.125826
_cell_length_c 13.792457
_cell_angle_alpha 90.000000
_cell_angle_beta 75.222930
_cell_angle_gamma 90.000000
_cell_volume 3478.432223
_symmetry_space_group_name_H-M "C 2/M"
_symmetry_group_IT_number 12
_symmetry_cell_setting 'monoclinic'
loop_
_space_group_symop_operation_xyz
x,y,z
-x,y,-z
-x,-y,-z
x,-y,z
1/2+x,1/2+y,z
1/2-x,1/2+y,-z
1/2-x,1/2-y,-z
1/2+x,1/2-y,z
loop_
_atom_site_type_symbol
_atom_site_label
_atom_site_fract_x
_atom_site_fract_y
_atom_site_fract_z
Si Si1 0.195208 0.829729 0.428079
Si Si2 0.695216 0.830240 0.630906
Si Si3 0.608062 0.328350 0.733740
Si Si4 0.462749 0.831485 0.741923
Si Si5 0.113536 0.331574 0.369024
Si Si6 0.511212 0.327047 0.886816
Si Si7 0.939282 0.334202 0.408825
O O1 0.250057 0.805369 0.362078
O O2 0.186372 0.739988 0.530419
O O3 0.159974 0.770617 0.362521
O O4 0.185004 0.000000 0.454289
O O5 0.658924 0.754424 0.728044
O O6 0.682371 0.000000 0.628593
O O7 0.617451 0.500000 0.733632
O O8 0.566051 0.279134 0.830842
O O9 0.592219 0.281664 0.634541
O O10 0.411870 0.786002 0.719010
O O11 0.471956 0.738553 0.833738
O O12 0.504308 0.803719 0.639891
O O13 0.461457 0.000000 0.774311
O O14 0.130856 0.500000 0.356472
O O15 0.072711 0.309628 0.472715
O O16 0.505628 0.500000 0.883454
O O17 0.500000 0.267710 0.000000
O O18 0.925870 0.500000 0.383253
#
# Coordination Sequence:
#
# PCOD8080237 Si02
#       7
#     8   8   8   8   8   8   8
#     4  10  20  30  43  63  90 124 161 193 220 261
#     4  10  19  31  44  62  90 124 157 191 230 264
#     4  10  18  28  46  69  91 118 154 191 225 269
#     4   9  18  30  45  67  92 120 155 187 221 271
#     4  10  18  28  43  64  93 127 155 184 224 264
#     4   9  19  35  51  69  94 120 147 186 236 280
#     4   9  16  27  42  61  90 125 154 181 217 262
#
# _framework density 16.099207
#
# number of rings (size 3 to 8) (size 9 to 14) (size 15 to 20)
#    0.000    2.429    1.429    1.714    0.000    4.857 
#    0.000    0.000    0.000    4.286    0.000    1.000 
#    0.000    0.000    0.000    0.000    0.000    0.000 
#
# Total GULP energy -347113.452249 kJ/mol
# GULP energy per Si atom -12396.909009 kJ/mol
# Density = 1.606256 g / cm^3
# Si number density = 16.099207 Si / 1000 Ang^3
#
#
#
# Elastic Constant Matrix: (Units=GPa)
#
#
# Indices 1 2 3 4 5 6 
#
# 1 114.7598 50.1202 48.0942 0.0000 0.9106 0.0000
# 2 50.1202 72.1176 36.4938 0.0000 -2.9576 0.0000
# 3 48.0942 36.4938 76.3650 0.0000 3.3823 0.0000
# 4 0.0000 0.0000 0.0000 18.3937 0.0000 -0.3662
# 5 0.9106 -2.9576 3.3823 0.0000 16.2017 0.0000
# 6 0.0000 0.0000 0.0000 -0.3662 0.0000 29.6657
#
#
#
# Elastic Compliance Matrix: (Units=1/GPa)
#
#
# Indices 1 2 3 4 5 6 
#
# 1 0.014098 -0.007076 -0.005455 0.000000 -0.000945 0.000000
# 2 -0.007076 0.022287 -0.006452 0.000000 0.005813 0.000000
# 3 -0.005455 -0.006452 0.019836 0.000000 -0.005012 0.000000
# 4 0.000000 0.000000 0.000000 0.054380 0.000000 0.000671
# 5 -0.000945 0.005813 -0.005012 0.000000 0.063883 0.000000
# 6 0.000000 0.000000 0.000000 0.000671 0.000000 0.033717
#
#
# Mechanical properties :
#
#
# Convention : Reuss Voigt Hill
#
# Bulk Modulus (GPa) = 54.78031 59.18432 56.98231
# Shear Modulus (GPa) = 19.82143 21.42115 20.62129
#
# Velocity S-wave (km/s) = 3.51266 3.65166 3.58283
# Velocity P-wave (km/s) = 7.11001 7.39064 7.25168
#
# Compressibility (1/GPa) = 0.01825474
#
# Stress axis : x y z
#
# Youngs Moduli (GPa) = 70.93189 44.86903 50.41324
#
# Poissons Ratio (x) = 0.31749 0.27503
# Poissons Ratio (y) = 0.50191 0.32525
# Poissons Ratio (z) = 0.38697 0.28948
#
# Static dielectric constant tensor:
#      x y z
#    x 3.248920 0.000000 -0.182400 
#    y 0.000000 3.071420 0.000000 
#    z -0.182400 0.000000 2.805750 
# 
# 
# High freq. dielectric constant tensor:
#      x y z
#    x 1.621100 0.000000 -0.011310 
#    y 0.000000 1.624170 0.000000 
#    z -0.011310 0.000000 1.571020 
# 
# From -- ./inp_files/247751.got.cif
#   From: 2010.06.25/outbox.cif.g09.slc.cpg/sg12_124_cif.got.tgz:247751.got - 2010.06.28 00:19:55.
