data_PCOD8080809
_publ_section_title
;
Structure prediction by ZEFSAII (Michael W. Deem and Ramdas Pophale) SiO2 
 PCOD8080809
Probable space group: C 2/M
;
_chemical_formula_sum "Si O2"
_cell_formula_units_Z 56
_cell_length_a 27.324179
_cell_length_b 8.999411
_cell_length_c 20.443354
_cell_angle_alpha 90.000000
_cell_angle_beta 137.643398
_cell_angle_gamma 90.000000
_cell_volume 3386.940232
_symmetry_space_group_name_H-M "C 2/M"
_symmetry_group_IT_number 12
_symmetry_cell_setting 'monoclinic'
loop_
_space_group_symop_operation_xyz
x,y,z
-x,y,-z
-x,-y,-z
x,-y,z
1/2+x,1/2+y,z
1/2-x,1/2+y,-z
1/2-x,1/2-y,-z
1/2+x,1/2-y,z
loop_
_atom_site_type_symbol
_atom_site_label
_atom_site_fract_x
_atom_site_fract_y
_atom_site_fract_z
Si Si1 0.785494 0.169665 0.475841
Si Si2 0.146875 0.325618 0.271200
Si Si3 0.210546 0.828545 0.901989
Si Si4 0.415607 0.327249 0.915732
Si Si5 0.072605 0.175045 0.322287
Si Si6 0.147113 0.668301 0.024756
Si Si7 0.078743 0.673023 0.815881
O O1 0.750000 0.250000 0.500000
O O2 0.734945 0.204929 0.362670
O O3 0.871574 0.208888 0.561476
O O4 0.777733 0.000000 0.486466
O O5 0.129036 0.500000 0.259630
O O6 0.123347 0.268440 0.177821
O O7 0.102664 0.241073 0.284043
O O8 0.133038 0.747291 0.815878
O O9 0.196950 0.000000 0.905994
O O10 0.250000 0.750000 0.000000
O O11 0.265104 0.813899 0.894064
O O12 0.402414 0.500000 0.888819
O O13 0.500000 0.286912 0.000000
O O14 0.381806 0.285645 0.951938
O O15 0.998944 0.253112 0.270285
O O16 0.059652 0.000000 0.299317
O O17 0.128139 0.500000 0.027823
O O18 0.108040 0.703797 0.917606
O O19 0.073289 0.500000 0.794889
#
# Coordination Sequence:
#
# PCOD8080809 Si02
#       7
#     8   8   8   8   8   8   8
#     4   8  16  29  45  65  88 117 150 185 226 271
#     4  10  19  32  48  65  90 123 157 190 225 269
#     4   9  17  30  47  67  91 119 152 189 230 273
#     4  11  23  34  45  65  92 123 158 191 223 262
#     4  10  18  29  46  69  96 121 149 187 230 272
#     4   9  19  33  47  64  89 122 156 188 222 265
#     4  10  19  30  46  70  96 122 153 186 227 274
#
# _framework density 16.534096999999999
#
# number of rings (size 3 to 8) (size 9 to 14) (size 15 to 20)
#    0.000    2.429    0.000    3.857    0.000    8.000 
#    0.000    0.000    0.000    0.000    0.000    1.000 
#    0.000    8.000    0.000    0.000    0.000    0.000 
#
# Total GULP energy -346925.427198 kJ/mol
# GULP energy per Si atom -12390.193829 kJ/mol
# Density = 1.649647 g / cm^3
# Si number density = 16.534097 Si / 1000 Ang^3
#
#
#
# Elastic Constant Matrix: (Units=GPa)
#
#
# Indices 1 2 3 4 5 6 
#
# 1 87.0106 47.0641 44.2307 0.0000 26.3645 0.0000
# 2 47.0641 95.5060 50.9709 0.0000 18.5722 0.0000
# 3 44.2307 50.9709 96.5376 0.0000 26.1231 0.0000
# 4 0.0000 0.0000 0.0000 22.1638 0.0000 5.9326
# 5 26.3645 18.5722 26.1231 0.0000 26.9730 0.0000
# 6 0.0000 0.0000 0.0000 5.9326 0.0000 26.9578
#
#
#
# Elastic Compliance Matrix: (Units=1/GPa)
#
#
# Indices 1 2 3 4 5 6 
#
# 1 0.019900 -0.005976 -0.002456 0.000000 -0.012958 0.000000
# 2 -0.005976 0.016621 -0.006127 0.000000 0.000331 0.000000
# 3 -0.002456 -0.006127 0.017519 0.000000 -0.010348 0.000000
# 4 0.000000 0.000000 0.000000 0.047943 0.000000 -0.010551
# 5 -0.012958 0.000331 -0.010348 0.000000 0.059533 0.000000
# 6 0.000000 0.000000 0.000000 -0.010551 0.000000 0.039417
#
#
# Mechanical properties :
#
#
# Convention : Reuss Voigt Hill
#
# Bulk Modulus (GPa) = 40.12562 62.62064 51.37313
# Shear Modulus (GPa) = 20.97676 24.33816 22.65746
#
# Velocity S-wave (km/s) = 3.56574 3.84082 3.70584
# Velocity P-wave (km/s) = 6.42447 7.59112 7.03203
#
# Compressibility (1/GPa) = 0.02492173
#
# Stress axis : x y z
#
# Youngs Moduli (GPa) = 50.25151 60.16417 57.08028
#
# Poissons Ratio (x) = 0.35954 0.14019
# Poissons Ratio (y) = 0.30030 0.34975
# Poissons Ratio (z) = 0.12342 0.36865
#
# Static dielectric constant tensor:
#      x y z
#    x 3.144890 0.000000 0.496000 
#    y 0.000000 3.311750 0.000000 
#    z 0.496000 0.000000 3.842690 
# 
# 
# High freq. dielectric constant tensor:
#      x y z
#    x 1.612740 0.000000 0.031950 
#    y 0.000000 1.655880 0.000000 
#    z 0.031950 0.000000 1.622210 
# 
# From -- ./inp_files/288238.got.cif
#   From: 2010.06.25/outbox.cif.g09.slc.cpg/sg12_145_cif.got.tgz:288238.got - 2010.06.28 00:19:55.
