data_PCOD8080846
_publ_section_title
;
Structure prediction by ZEFSAII (Michael W. Deem and Ramdas Pophale) SiO2 
 PCOD8080846
Probable space group: C 2/M
;
_chemical_formula_sum "Si O2"
_cell_formula_units_Z 48
_cell_length_a 23.539268
_cell_length_b 13.046097
_cell_length_c 27.683675
_cell_angle_alpha 90.000000
_cell_angle_beta 21.115708
_cell_angle_gamma 90.000000
_cell_volume 3062.699489
_symmetry_space_group_name_H-M "C 2/M"
_symmetry_group_IT_number 12
_symmetry_cell_setting 'monoclinic'
loop_
_space_group_symop_operation_xyz
x,y,z
-x,y,-z
-x,-y,-z
x,-y,z
1/2+x,1/2+y,z
1/2-x,1/2+y,-z
1/2-x,1/2-y,-z
1/2+x,1/2-y,z
loop_
_atom_site_type_symbol
_atom_site_label
_atom_site_fract_x
_atom_site_fract_y
_atom_site_fract_z
Si Si1 0.879451 0.884295 0.868283
Si Si2 0.030117 0.691403 0.148991
Si Si3 0.750467 0.619520 0.182442
Si Si4 0.026654 0.194239 0.655879
Si Si5 0.369288 0.883391 0.371084
Si Si6 0.441006 0.119252 0.122135
O O1 0.953759 0.810816 0.850055
O O2 0.971829 0.872950 0.744875
O O3 0.897624 0.000000 0.872687
O O4 0.698104 0.857573 0.002849
O O5 0.923122 0.683561 0.185789
O O6 0.953871 0.627514 0.252667
O O7 0.708890 0.500000 0.209363
O O8 0.600729 0.687629 0.285995
O O9 0.794109 0.644596 0.203464
O O10 0.897311 0.649388 0.032507
O O11 0.188962 0.149367 0.507040
O O12 0.046065 0.312928 0.655830
O O13 0.382950 0.000000 0.378152
O O14 0.441965 0.000000 0.134672
#
# Coordination Sequence:
#
# PCOD8080846 Si02
#       6
#     8   8   8   8   8   8
#     4  10  18  29  47  66  87 119 154 185 219 266
#     4  10  19  29  44  68  93 117 145 186 233 264
#     4   9  16  27  46  67  87 117 153 186 218 262
#     4  10  19  31  48  68  90 122 155 181 218 269
#     4  10  20  31  45  68  97 121 144 184 231 268
#     4   9  16  27  45  67  90 116 148 187 226 262
#
# _framework density 15.672447999999999
#
# number of rings (size 3 to 8) (size 9 to 14) (size 15 to 20)
#    0.000    2.333    1.667    4.000    0.000    0.000 
#    0.000    0.833    0.000    4.000    0.000    2.333 
#    0.000    8.000    0.000    0.000    0.000    0.000 
#
# Total GULP energy -297602.058239 kJ/mol
# GULP energy per Si atom -12400.085760 kJ/mol
# Density = 1.563678 g / cm^3
# Si number density = 15.672448 Si / 1000 Ang^3
#
#
#
# Elastic Constant Matrix: (Units=GPa)
#
#
# Indices 1 2 3 4 5 6 
#
# 1 102.9263 44.0026 20.9046 0.0026 -23.6243 -0.0028
# 2 44.0026 99.9429 15.6277 0.0028 -11.4177 -0.0069
# 3 20.9046 15.6277 47.9063 -0.0086 -13.5006 -0.0138
# 4 0.0026 0.0028 -0.0086 14.2619 -0.0078 -1.2995
# 5 -23.6243 -11.4177 -13.5006 -0.0078 24.7968 -0.0025
# 6 -0.0028 -0.0069 -0.0138 -1.2995 -0.0025 21.2099
#
#
#
# Elastic Compliance Matrix: (Units=1/GPa)
#
#
# Indices 1 2 3 4 5 6 
#
# 1 0.014650 -0.004950 -0.001756 0.000003 0.010721 0.000001
# 2 -0.004950 0.012483 -0.001915 -0.000003 -0.000011 0.000002
# 3 -0.001756 -0.001915 0.025450 0.000024 0.011301 0.000019
# 4 0.000003 -0.000003 0.000024 0.070510 0.000038 0.004320
# 5 0.010721 -0.000011 0.011301 0.000038 0.056690 0.000018
# 6 0.000001 0.000002 0.000019 0.004320 0.000018 0.047412
#
#
# Mechanical properties :
#
#
# Convention : Reuss Voigt Hill
#
# Bulk Modulus (GPa) = 28.29711 45.76060 37.02885
# Shear Modulus (GPa) = 19.51451 23.40310 21.45881
#
# Velocity S-wave (km/s) = 3.53249 3.86847 3.70429
# Velocity P-wave (km/s) = 5.89343 7.01533 6.47871
#
# Compressibility (1/GPa) = 0.03533930
#
# Stress axis : x y z
#
# Youngs Moduli (GPa) = 68.26124 80.10578 39.29268
#
# Poissons Ratio (x) = 0.39656 0.06901
# Poissons Ratio (y) = 0.33792 0.07525
# Poissons Ratio (z) = 0.11988 0.15342
#
# Static dielectric constant tensor:
#      x y z
#    x 2.963150 -0.000010 -0.009270 
#    y -0.000010 2.939640 0.000010 
#    z -0.009270 0.000010 2.993630 
# 
# 
# High freq. dielectric constant tensor:
#      x y z
#    x 1.591290 0.000000 0.004160 
#    y 0.000000 1.584730 0.000000 
#    z 0.004160 0.000000 1.599700 
# 
# From -- ./inp_files/94984.got.cif
#   From: 2010.06.25/outbox.cif.g09.slc.cpg/sg12_48_cif.got.tgz:94984.got - 2010.06.28 00:19:55.
