data_PCOD8080988
_publ_section_title
;
Structure prediction by ZEFSAII (Michael W. Deem and Ramdas Pophale) SiO2 
 PCOD8080988
Probable space group: C 2/M
;
_chemical_formula_sum "Si O2"
_cell_formula_units_Z 56
_cell_length_a 29.928977
_cell_length_b 9.238319
_cell_length_c 16.734070
_cell_angle_alpha 90.000000
_cell_angle_beta 133.600745
_cell_angle_gamma 90.000000
_cell_volume 3350.600712
_symmetry_space_group_name_H-M "C 2/M"
_symmetry_group_IT_number 12
_symmetry_cell_setting 'monoclinic'
loop_
_space_group_symop_operation_xyz
x,y,z
-x,y,-z
-x,-y,-z
x,-y,z
1/2+x,1/2+y,z
1/2-x,1/2+y,-z
1/2-x,1/2-y,-z
1/2+x,1/2-y,z
loop_
_atom_site_type_symbol
_atom_site_label
_atom_site_fract_x
_atom_site_fract_y
_atom_site_fract_z
Si Si1 0.655091 0.168668 0.408065
Si Si2 0.076676 0.828513 0.745170
Si Si3 0.247819 0.165707 0.213168
Si Si4 0.782318 0.165803 0.648830
Si Si5 0.197094 0.168216 0.982017
Si Si6 0.440171 0.328257 0.605252
Si Si7 0.125502 0.171113 0.637721
O O1 0.711877 0.200647 0.537526
O O2 0.670615 0.230724 0.339620
O O3 0.595021 0.249550 0.366523
O O4 0.640548 0.000000 0.382304
O O5 0.130258 0.774211 0.871204
O O6 0.090024 0.770150 0.672294
O O7 0.010679 0.771981 0.694562
O O8 0.073900 0.000000 0.738890
O O9 0.210240 0.198325 0.247983
O O10 0.306224 0.267454 0.278779
O O11 0.271096 0.000000 0.241978
O O12 0.202217 0.196653 0.082993
O O13 0.798271 0.000000 0.647156
O O14 0.204396 0.000000 0.969792
O O15 0.250000 0.250000 0.000000
O O16 0.434506 0.500000 0.610082
O O17 0.411988 0.278258 0.485973
O O18 0.131722 0.000000 0.648129
#
# Coordination Sequence:
#
# PCOD8080988 Si02
#       7
#     8   8   8   8   8   8   8
#     4  10  19  31  49  72  98 124 157 200 246 292
#     4   9  18  32  48  70  99 132 168 201 230 278
#     4  10  19  31  49  73 101 128 156 198 246 286
#     4   9  18  32  48  69  98 127 156 195 244 293
#     4  10  19  32  51  72  97 129 165 202 239 277
#     4  10  19  31  49  71  99 133 165 196 238 288
#     4  10  18  29  48  72  98 131 165 196 234 283
#
# _framework density 16.713421
#
# number of rings (size 3 to 8) (size 9 to 14) (size 15 to 20)
#    0.000    2.286    2.857    0.857    0.000    2.857 
#    0.000    1.429    0.000    2.571    0.000    6.000 
#    0.000    0.000    0.000    0.000    0.000    0.000 
#
# Total GULP energy -347211.156317 kJ/mol
# GULP energy per Si atom -12400.398440 kJ/mol
# Density = 1.667538 g / cm^3
# Si number density = 16.713421 Si / 1000 Ang^3
#
#
#
# Elastic Constant Matrix: (Units=GPa)
#
#
# Indices 1 2 3 4 5 6 
#
# 1 134.0068 39.7247 64.7978 0.0000 -0.2818 0.0000
# 2 39.7247 33.8967 21.7453 0.0000 3.1909 0.0000
# 3 64.7978 21.7453 90.6582 0.0000 6.4275 0.0000
# 4 0.0000 0.0000 0.0000 15.9450 0.0000 2.4370
# 5 -0.2818 3.1909 6.4275 0.0000 28.1460 0.0000
# 6 0.0000 0.0000 0.0000 2.4370 0.0000 26.1443
#
#
#
# Elastic Compliance Matrix: (Units=1/GPa)
#
#
# Indices 1 2 3 4 5 6 
#
# 1 0.015179 -0.012996 -0.007976 0.000000 0.003447 0.000000
# 2 -0.012996 0.046114 -0.001415 0.000000 -0.005035 0.000000
# 3 -0.007976 -0.001415 0.017346 0.000000 -0.003881 0.000000
# 4 0.000000 0.000000 0.000000 0.063622 0.000000 -0.005930
# 5 0.003447 -0.005035 -0.003881 0.000000 0.037020 0.000000
# 6 0.000000 0.000000 0.000000 -0.005930 0.000000 0.038802
#
#
# Mechanical properties :
#
#
# Convention : Reuss Voigt Hill
#
# Bulk Modulus (GPa) = 29.52989 56.78859 43.15924
# Shear Modulus (GPa) = 18.23845 22.86666 20.55255
#
# Velocity S-wave (km/s) = 3.30699 3.70288 3.51052
# Velocity P-wave (km/s) = 5.68228 7.23418 6.50468
#
# Compressibility (1/GPa) = 0.03386399
#
# Stress axis : x y z
#
# Youngs Moduli (GPa) = 65.88046 21.68547 57.65053
#
# Poissons Ratio (x) = 0.28183 0.45983
# Poissons Ratio (y) = 0.85621 0.08156
# Poissons Ratio (z) = 0.52548 0.03068
#
# Static dielectric constant tensor:
#      x y z
#    x 3.205600 0.000000 -0.091550 
#    y 0.000000 3.002370 0.000000 
#    z -0.091550 0.000000 3.267890 
# 
# 
# High freq. dielectric constant tensor:
#      x y z
#    x 1.645240 0.000000 -0.009200 
#    y 0.000000 1.629390 0.000000 
#    z -0.009200 0.000000 1.628950 
# 
# From -- ./inp_files/287366.got.cif
#   From: 2010.06.25/outbox.cif.g09.slc.cpg/sg12_144_cif.got.tgz:287366.got - 2010.06.28 00:19:55.
