data_PCOD8080389
_publ_section_title
;
Structure prediction by ZEFSAII (Michael W. Deem and Ramdas Pophale) SiO2 
 PCOD8080389
Probable space group: C 2/M
;
_chemical_formula_sum "Si O2"
_cell_formula_units_Z 48
_cell_length_a 5.029568
_cell_length_b 20.170238
_cell_length_c 25.980442
_cell_angle_alpha 90.000000
_cell_angle_beta 65.867865
_cell_angle_gamma 90.000000
_cell_volume 2405.310207
_symmetry_space_group_name_H-M "C 2/M"
_symmetry_group_IT_number 12
_symmetry_cell_setting 'monoclinic'
loop_
_space_group_symop_operation_xyz
x,y,z
-x,y,-z
-x,-y,-z
x,-y,z
1/2+x,1/2+y,z
1/2-x,1/2+y,-z
1/2-x,1/2-y,-z
1/2+x,1/2-y,z
loop_
_atom_site_type_symbol
_atom_site_label
_atom_site_fract_x
_atom_site_fract_y
_atom_site_fract_z
Si Si1 0.787834 0.854682 0.292835
Si Si2 0.190909 0.706297 0.941838
Si Si3 0.219209 0.926402 0.326891
Si Si4 0.578289 0.208458 0.405717
Si Si5 0.763428 0.424988 0.440754
Si Si6 0.825887 0.206614 0.822909
O O1 0.488478 0.879152 0.290791
O O2 0.716606 0.793679 0.336935
O O3 0.932393 0.911340 0.316675
O O4 0.008149 0.839800 0.229702
O O5 0.495884 0.728846 0.942450
O O6 0.253189 0.668021 0.882761
O O7 0.000000 0.665476 0.000000
O O8 0.138703 0.916669 0.393098
O O9 0.321573 0.000000 0.306289
O O10 0.804202 0.241618 0.427049
O O11 0.498972 0.133776 0.431237
O O12 0.500000 0.414183 0.500000
O O13 0.898310 0.500000 0.437490
O O14 0.527523 0.230058 0.820121
#
# Coordination Sequence:
#
# PCOD8080389 Si02
#       6
#     8   8   8   8   8   8
#     4  11  20  34  53  75 104 135 168 205 255 313
#     4   8  14  24  38  59  91 130 166 200 238 281
#     4  10  21  37  56  76  99 128 166 215 262 305
#     4  11  22  37  56  80 109 138 168 210 262 312
#     4   9  20  40  62  82 105 138 179 219 263 319
#     4  10  18  28  45  70 101 135 168 200 240 300
#
# _framework density 19.955845
#
# number of rings (size 3 to 8) (size 9 to 14) (size 15 to 20)
#    0.000    2.167    0.000    4.500    0.000    1.333 
#    0.000    7.500    0.000   23.000    0.000    0.000 
#    0.000    4.000    0.000    0.000    0.000    0.000 
#
# Total GULP energy -297373.434407 kJ/mol
# GULP energy per Si atom -12390.559767 kJ/mol
# Density = 1.991042 g / cm^3
# Si number density = 19.955845 Si / 1000 Ang^3
#
#
#
# Elastic Constant Matrix: (Units=GPa)
#
#
# Indices 1 2 3 4 5 6 
#
# 1 77.1747 16.9611 6.5351 0.0000 -5.1363 0.0000
# 2 16.9611 69.3481 35.2126 0.0000 -7.8985 0.0000
# 3 6.5351 35.2126 134.5686 0.0000 -16.6544 0.0000
# 4 0.0000 0.0000 0.0000 10.7040 0.0000 1.7590
# 5 -5.1363 -7.8985 -16.6544 0.0000 23.8121 0.0000
# 6 0.0000 0.0000 0.0000 1.7590 0.0000 17.9463
#
#
#
# Elastic Compliance Matrix: (Units=1/GPa)
#
#
# Indices 1 2 3 4 5 6 
#
# 1 0.013804 -0.003372 0.000484 0.000000 0.002198 0.000000
# 2 -0.003372 0.017614 -0.004173 0.000000 0.002196 0.000000
# 3 0.000484 -0.004173 0.009132 0.000000 0.005107 0.000000
# 4 0.000000 0.000000 0.000000 0.094953 0.000000 -0.009307
# 5 0.002198 0.002196 0.005107 0.000000 0.046770 0.000000
# 6 0.000000 0.000000 0.000000 -0.009307 0.000000 0.056634
#
#
# Mechanical properties :
#
#
# Convention : Reuss Voigt Hill
#
# Bulk Modulus (GPa) = 37.83976 44.27876 41.05926
# Shear Modulus (GPa) = 19.09581 25.31798 22.20690
#
# Velocity S-wave (km/s) = 3.09674 3.56575 3.33949
# Velocity P-wave (km/s) = 5.63820 6.26013 5.95729
#
# Compressibility (1/GPa) = 0.02642723
#
# Stress axis : x y z
#
# Youngs Moduli (GPa) = 72.44344 56.77329 109.50793
#
# Poissons Ratio (x) = 0.19141 -0.05298
# Poissons Ratio (y) = 0.24424 0.45703
# Poissons Ratio (z) = -0.03505 0.23694
#
# Static dielectric constant tensor:
#      x y z
#    x 3.697200 0.000000 -0.060870 
#    y 0.000000 3.337130 0.000000 
#    z -0.060870 0.000000 4.096280 
# 
# 
# High freq. dielectric constant tensor:
#      x y z
#    x 1.795100 0.000000 -0.007310 
#    y 0.000000 1.720630 0.000000 
#    z -0.007310 0.000000 1.785570 
# 
# From -- ./inp_files/355004.got.cif
#   From: 2010.06.25/outbox.cif.g09.slc.cpg/sg12_178_cif.got.tgz:355004.got - 2010.06.28 00:19:55.
