data_PCOD8080060
_publ_section_title
;
Structure prediction by ZEFSAII (Michael W. Deem and Ramdas Pophale) SiO2 
 PCOD8080060
Probable space group: C 2/M
;
_chemical_formula_sum "Si O2"
_cell_formula_units_Z 56
_cell_length_a 28.544749
_cell_length_b 9.549494
_cell_length_c 33.832389
_cell_angle_alpha 90.000000
_cell_angle_beta 158.812206
_cell_angle_gamma 90.000000
_cell_volume 3333.178553
_symmetry_space_group_name_H-M "C 2/M"
_symmetry_group_IT_number 12
_symmetry_cell_setting 'monoclinic'
loop_
_space_group_symop_operation_xyz
x,y,z
-x,y,-z
-x,-y,-z
x,-y,z
1/2+x,1/2+y,z
1/2-x,1/2+y,-z
1/2-x,1/2-y,-z
1/2+x,1/2-y,z
loop_
_atom_site_type_symbol
_atom_site_label
_atom_site_fract_x
_atom_site_fract_y
_atom_site_fract_z
Si Si1 0.065350 0.833193 0.610422
Si Si2 0.624270 0.342006 0.398982
Si Si3 0.724614 0.835640 0.067983
Si Si4 0.304920 0.666255 0.366197
Si Si5 0.973817 0.334634 0.826674
Si Si6 0.610278 0.666470 0.732168
Si Si7 0.445594 0.340380 0.184921
O O1 0.161362 0.778810 0.651449
O O2 0.112932 0.769971 0.689861
O O3 0.917821 0.783842 0.485071
O O4 0.067256 0.000000 0.612813
O O5 0.663979 0.500000 0.440699
O O6 0.750000 0.250000 0.500000
O O7 0.522027 0.285843 0.350811
O O8 0.565349 0.333317 0.309046
O O9 0.769029 0.776556 0.146077
O O10 0.816635 0.779420 0.104989
O O11 0.752418 0.000000 0.090958
O O12 0.574824 0.800315 0.941641
O O13 0.297453 0.500000 0.359469
O O14 0.166071 0.726415 0.270635
O O15 0.968768 0.500000 0.814262
O O16 0.023235 0.259623 0.826678
O O17 0.615926 0.500000 0.733808
O O18 0.425221 0.500000 0.153981
#
# Coordination Sequence:
#
# PCOD8080060 Si02
#       7
#     8   8   8   8   8   8   8
#     4   8  13  24  39  56  85 117 139 166 215 270
#     4   9  18  29  42  63  88 112 143 178 207 249
#     4   8  15  28  41  58  85 114 144 177 211 251
#     4   8  15  24  36  61  89 108 136 181 219 247
#     4  10  18  27  44  67  88 109 143 188 216 237
#     4   8  14  25  42  58  80 118 146 162 208 270
#     4   9  18  31  43  59  88 122 146 168 210 262
#
# _framework density 16.80078
#
# number of rings (size 3 to 8) (size 9 to 14) (size 15 to 20)
#    0.000    3.429    0.000    3.000    2.000    0.571 
#    0.000    0.714    0.000    5.143    0.000    3.000 
#    0.000    1.143    0.000    0.000    0.000    0.000 
#
# Total GULP energy -346945.861401 kJ/mol
# GULP energy per Si atom -12390.923621 kJ/mol
# Density = 1.676254 g / cm^3
# Si number density = 16.800780 Si / 1000 Ang^3
#
#
#
# Elastic Constant Matrix: (Units=GPa)
#
#
# Indices 1 2 3 4 5 6 
#
# 1 114.9226 12.6145 71.8193 -0.0019 -18.0494 -0.0001
# 2 12.6145 18.3004 18.1991 -0.0055 -1.5921 -0.0014
# 3 71.8193 18.1991 112.0198 -0.0027 -0.1099 -0.0008
# 4 -0.0019 -0.0055 -0.0027 14.5573 -0.0033 0.4407
# 5 -18.0494 -1.5921 -0.1099 -0.0033 26.3920 -0.0002
# 6 -0.0001 -0.0014 -0.0008 0.4407 -0.0002 14.5083
#
#
#
# Elastic Compliance Matrix: (Units=1/GPa)
#
#
# Indices 1 2 3 4 5 6 
#
# 1 0.017659 0.000146 -0.011334 0.000003 0.012039 0.000000
# 2 0.000146 0.065576 -0.010743 0.000024 0.004011 0.000005
# 3 -0.011334 -0.010743 0.017931 -0.000004 -0.008324 0.000000
# 4 0.000003 0.000024 -0.000004 0.068757 0.000012 -0.002089
# 5 0.012039 0.004011 -0.008324 0.000012 0.046331 0.000000
# 6 0.000000 0.000005 0.000000 -0.002089 0.000000 0.068989
#
#
# Mechanical properties :
#
#
# Convention : Reuss Voigt Hill
#
# Bulk Modulus (GPa) = 17.45099 50.05651 33.75375
# Shear Modulus (GPa) = 14.35932 20.59885 17.47909
#
# Velocity S-wave (km/s) = 2.92667 3.50532 3.22898
# Velocity P-wave (km/s) = 4.67227 6.80014 5.83403
#
# Compressibility (1/GPa) = 0.05730333
#
# Stress axis : x y z
#
# Youngs Moduli (GPa) = 56.62820 15.24953 55.77085
#
# Poissons Ratio (x) = -0.00222 0.63209
# Poissons Ratio (y) = -0.00825 0.59915
# Poissons Ratio (z) = 0.64180 0.16383
#
# Static dielectric constant tensor:
#      x y z
#    x 3.360990 0.000000 -0.130840 
#    y 0.000000 2.594170 0.000000 
#    z -0.130840 0.000000 3.439020 
# 
# 
# High freq. dielectric constant tensor:
#      x y z
#    x 1.644420 0.000000 -0.007280 
#    y 0.000000 1.580840 0.000000 
#    z -0.007280 0.000000 1.657180 
# 
# From -- ./inp_files/383868.got.cif
#   From: 2010.06.25/outbox.cif.g09.slc.cpg/sg12_192_cif.got.tgz:383868.got - 2010.06.28 00:19:55.
