data_PCOD8080546
_publ_section_title
;
Structure prediction by ZEFSAII (Michael W. Deem and Ramdas Pophale) SiO2 
 PCOD8080546
Probable space group: C 2/M
;
_chemical_formula_sum "Si O2"
_cell_formula_units_Z 56
_cell_length_a 21.726426
_cell_length_b 14.261726
_cell_length_c 19.236010
_cell_angle_alpha 90.000000
_cell_angle_beta 153.255226
_cell_angle_gamma 90.000000
_cell_volume 2682.281063
_symmetry_space_group_name_H-M "C 2/M"
_symmetry_group_IT_number 12
_symmetry_cell_setting 'monoclinic'
loop_
_space_group_symop_operation_xyz
x,y,z
-x,y,-z
-x,-y,-z
x,-y,z
1/2+x,1/2+y,z
1/2-x,1/2+y,-z
1/2-x,1/2-y,-z
1/2+x,1/2-y,z
loop_
_atom_site_type_symbol
_atom_site_label
_atom_site_fract_x
_atom_site_fract_y
_atom_site_fract_z
Si Si1 0.343875 0.704571 0.869004
Si Si2 0.083038 0.110937 0.307906
Si Si3 0.005389 0.610265 0.715164
Si Si4 0.810151 0.388436 0.636375
Si Si5 0.201317 0.888756 0.029490
Si Si6 0.655312 0.898427 0.172434
Si Si7 0.228003 0.390193 0.623052
O O1 0.327566 0.655062 0.925310
O O2 0.296160 0.814193 0.828822
O O3 0.240881 0.656929 0.710865
O O4 0.500000 0.697462 0.000000
O O5 0.162437 0.145949 0.457371
O O6 0.157579 0.151737 0.314299
O O7 0.100402 0.000000 0.321208
O O8 0.923319 0.139467 0.147945
O O9 0.013910 0.500000 0.735502
O O10 0.930255 0.654209 0.707604
O O11 0.920718 0.632134 0.559616
O O12 0.158436 0.651495 0.861769
O O13 0.821014 0.500000 0.645267
O O14 0.826876 0.355157 0.732068
O O15 0.209416 0.000000 0.048115
O O16 0.733024 0.000000 0.241036
O O17 0.500000 0.920400 0.000000
O O18 0.249530 0.500000 0.655669
#
# Coordination Sequence:
#
# PCOD8080546 Si02
#       7
#     8   8   8   8   8   8   8
#     4  11  20  29  47  73 106 137 176 208 253 298
#     4   8  14  25  45  73 106 135 163 199 248 303
#     4   8  16  29  47  75 111 140 168 197 243 313
#     4   8  14  30  54  77  98 128 168 217 264 302
#     4  10  18  28  47  81 116 143 163 190 241 319
#     4   9  19  35  55  78  98 123 174 235 270 288
#     4   9  16  28  45  72 108 144 170 198 240 304
#
# _framework density 20.877752000000001
#
# number of rings (size 3 to 8) (size 9 to 14) (size 15 to 20)
#    0.000    3.000    1.429    2.143    0.000    1.143 
#    0.000    5.000    0.000    3.429    7.429    2.000 
#    0.000    2.000    0.000    0.000    0.000    0.000 
#
# Total GULP energy -346920.384470 kJ/mol
# GULP energy per Si atom -12390.013731 kJ/mol
# Density = 2.083023 g / cm^3
# Si number density = 20.877752 Si / 1000 Ang^3
#
#
#
# Elastic Constant Matrix: (Units=GPa)
#
#
# Indices 1 2 3 4 5 6 
#
# 1 48.8962 12.1413 47.3091 -0.0002 7.3183 0.0006
# 2 12.1413 39.6143 19.4256 0.0001 2.9429 0.0002
# 3 47.3091 19.4256 142.3330 -0.0002 6.0897 0.0007
# 4 -0.0002 0.0001 -0.0002 15.8740 -0.0002 8.0844
# 5 7.3183 2.9429 6.0897 -0.0002 35.6217 0.0005
# 6 0.0006 0.0002 0.0007 8.0844 0.0005 18.2997
#
#
#
# Elastic Compliance Matrix: (Units=1/GPa)
#
#
# Indices 1 2 3 4 5 6 
#
# 1 0.031649 -0.004612 -0.009699 0.000001 -0.004463 -0.000001
# 2 -0.004612 0.027819 -0.002222 0.000000 -0.000971 0.000000
# 3 -0.009699 -0.002222 0.010537 0.000000 0.000375 0.000000
# 4 0.000001 0.000000 0.000000 0.081284 0.000001 -0.035909
# 5 -0.004463 -0.000971 0.000375 0.000001 0.029006 -0.000001
# 6 -0.000001 0.000000 0.000000 -0.035909 -0.000001 0.070509
#
#
# Mechanical properties :
#
#
# Convention : Reuss Voigt Hill
#
# Bulk Modulus (GPa) = 27.07276 43.17729 35.12502
# Shear Modulus (GPa) = 16.88142 24.09024 20.48583
#
# Velocity S-wave (km/s) = 2.84665 3.40055 3.13585
# Velocity P-wave (km/s) = 4.87852 6.01201 5.47468
#
# Compressibility (1/GPa) = 0.03693750
#
# Stress axis : x y z
#
# Youngs Moduli (GPa) = 31.59639 35.94691 94.90480
#
# Poissons Ratio (x) = 0.16580 0.92050
# Poissons Ratio (y) = 0.14573 0.21089
# Poissons Ratio (z) = 0.30646 0.07988
#
# Static dielectric constant tensor:
#      x y z
#    x 3.613580 0.000000 -0.051290 
#    y 0.000000 3.721330 0.000000 
#    z -0.051290 0.000000 4.189590 
# 
# 
# High freq. dielectric constant tensor:
#      x y z
#    x 1.767540 0.000000 -0.018490 
#    y 0.000000 1.816190 0.000000 
#    z -0.018490 0.000000 1.826320 
# 
# From -- ./inp_files/284598.got.cif
#   From: 2010.06.25/outbox.cif.g09.slc.cpg/sg12_143_cif.got.tgz:284598.got - 2010.06.28 00:19:55.
