data_PCOD8080533
_publ_section_title
;
Structure prediction by ZEFSAII (Michael W. Deem and Ramdas Pophale) SiO2 
 PCOD8080533
Probable space group: C 2/M
;
_chemical_formula_sum "Si O2"
_cell_formula_units_Z 64
_cell_length_a 24.286720
_cell_length_b 9.301639
_cell_length_c 16.894129
_cell_angle_alpha 90.000000
_cell_angle_beta 85.881205
_cell_angle_gamma 90.000000
_cell_volume 3806.633265
_symmetry_space_group_name_H-M "C 2/M"
_symmetry_group_IT_number 12
_symmetry_cell_setting 'monoclinic'
loop_
_space_group_symop_operation_xyz
x,y,z
-x,y,-z
-x,-y,-z
x,-y,z
1/2+x,1/2+y,z
1/2-x,1/2+y,-z
1/2-x,1/2-y,-z
1/2+x,1/2-y,z
loop_
_atom_site_type_symbol
_atom_site_label
_atom_site_fract_x
_atom_site_fract_y
_atom_site_fract_z
Si Si1 0.888982 0.834333 0.044194
Si Si2 0.803095 0.834403 0.179308
Si Si3 0.113807 0.333079 0.721897
Si Si4 0.531536 0.330607 0.827322
Si Si5 0.183037 0.335595 0.571354
Si Si6 0.789960 0.332810 0.602191
Si Si7 0.179350 0.332864 0.229393
Si Si8 0.594421 0.330364 0.131372
O O1 0.828460 0.810589 0.088744
O O2 0.936088 0.772624 0.098165
O O3 0.903296 0.000000 0.029928
O O4 0.891808 0.763617 0.956850
O O5 0.834137 0.730485 0.236403
O O6 0.738626 0.796466 0.184397
O O7 0.812515 0.000000 0.205039
O O8 0.107080 0.500000 0.744590
O O9 0.057427 0.249554 0.748458
O O10 0.126687 0.312122 0.626823
O O11 0.541068 0.500000 0.815465
O O12 0.468005 0.289397 0.840697
O O13 0.202705 0.500000 0.575724
O O14 0.173608 0.295125 0.479660
O O15 0.231058 0.242261 0.604682
O O16 0.776434 0.500000 0.610162
O O17 0.821811 0.285112 0.678241
O O18 0.165117 0.500000 0.220839
O O19 0.133236 0.240953 0.191596
O O20 0.604332 0.500000 0.133341
#
# Coordination Sequence:
#
# PCOD8080533 Si02
#       8
#     8   8   8   8   8   8   8   8
#     4   8  15  30  52  72  90 116 157 203 238 277
#     4   9  17  31  49  69  95 129 161 186 228 287
#     4  10  18  28  47  75 101 120 148 197 246 277
#     4   9  18  33  52  70  91 122 161 199 238 285
#     4   9  17  28  46  73  99 121 152 193 232 274
#     4   9  17  30  47  68  97 130 157 183 225 281
#     4  10  20  32  47  68  99 133 159 187 227 284
#     4  10  20  33  50  70  91 124 165 201 236 275
#
# _framework density 16.812756
#
# number of rings (size 3 to 8) (size 9 to 14) (size 15 to 20)
#    0.000    2.750    1.250    1.500    0.000    4.000 
#    0.000    2.500    0.000    4.500    0.000    5.250 
#    0.000    0.000    0.000    0.000    0.000    0.000 
#
# Total GULP energy -396642.311948 kJ/mol
# GULP energy per Si atom -12395.072248 kJ/mol
# Density = 1.677449 g / cm^3
# Si number density = 16.812756 Si / 1000 Ang^3
#
#
#
# Elastic Constant Matrix: (Units=GPa)
#
#
# Indices 1 2 3 4 5 6 
#
# 1 99.4179 37.6814 79.2447 0.0000 0.8113 0.0000
# 2 37.6814 44.5831 45.8815 0.0000 -4.0624 0.0000
# 3 79.2447 45.8815 143.6034 0.0000 -15.3895 0.0000
# 4 0.0000 0.0000 0.0000 21.7626 0.0000 0.6241
# 5 0.8113 -4.0624 -15.3895 0.0000 18.4243 0.0000
# 6 0.0000 0.0000 0.0000 0.6241 0.0000 27.4563
#
#
#
# Elastic Compliance Matrix: (Units=1/GPa)
#
#
# Indices 1 2 3 4 5 6 
#
# 1 0.021835 -0.008688 -0.010524 0.000000 -0.011667 0.000000
# 2 -0.008688 0.036923 -0.006688 0.000000 0.002937 0.000000
# 3 -0.010524 -0.006688 0.016254 0.000000 0.012566 0.000000
# 4 0.000000 0.000000 0.000000 0.045980 0.000000 -0.001045
# 5 -0.011667 0.002937 0.012566 0.000000 0.065933 0.000000
# 6 0.000000 0.000000 0.000000 -0.001045 0.000000 0.036445
#
#
# Mechanical properties :
#
#
# Convention : Reuss Voigt Hill
#
# Bulk Modulus (GPa) = 43.07830 68.13549 55.60690
# Shear Modulus (GPa) = 17.67353 21.84844 19.76099
#
# Velocity S-wave (km/s) = 3.24574 3.60879 3.43207
# Velocity P-wave (km/s) = 6.30273 7.61436 6.98938
#
# Compressibility (1/GPa) = 0.02321355
#
# Stress axis : x y z
#
# Youngs Moduli (GPa) = 45.79811 27.08313 61.52143
#
# Poissons Ratio (x) = 0.23529 0.64744
# Poissons Ratio (y) = 0.39788 0.41147
# Poissons Ratio (z) = 0.48197 0.18114
#
# Static dielectric constant tensor:
#      x y z
#    x 2.942940 0.000000 -0.226780 
#    y 0.000000 3.026190 0.000000 
#    z -0.226780 0.000000 3.512910 
# 
# 
# High freq. dielectric constant tensor:
#      x y z
#    x 1.620690 0.000000 -0.020120 
#    y 0.000000 1.635100 0.000000 
#    z -0.020120 0.000000 1.657680 
# 
# From -- ./inp_files/287558.got.cif
#   From: 2010.06.25/outbox.cif.g09.slc.cpg/sg12_144_cif.got.tgz:287558.got - 2010.06.28 00:19:55.
