data_PCOD8080786
_publ_section_title
;
Structure prediction by ZEFSAII (Michael W. Deem and Ramdas Pophale) SiO2 
 PCOD8080786
Probable space group: C 2/M
;
_chemical_formula_sum "Si O2"
_cell_formula_units_Z 56
_cell_length_a 22.065888
_cell_length_b 13.316432
_cell_length_c 25.374178
_cell_angle_alpha 90.000000
_cell_angle_beta 28.242177
_cell_angle_gamma 90.000000
_cell_volume 3528.137011
_symmetry_space_group_name_H-M "C 2/M"
_symmetry_group_IT_number 12
_symmetry_cell_setting 'monoclinic'
loop_
_space_group_symop_operation_xyz
x,y,z
-x,y,-z
-x,-y,-z
x,-y,z
1/2+x,1/2+y,z
1/2-x,1/2+y,-z
1/2-x,1/2-y,-z
1/2+x,1/2-y,z
loop_
_atom_site_type_symbol
_atom_site_label
_atom_site_fract_x
_atom_site_fract_y
_atom_site_fract_z
Si Si1 0.814126 0.801132 0.379310
Si Si2 0.578310 0.611546 0.209521
Si Si3 0.841921 0.113877 0.966834
Si Si4 0.142511 0.116873 0.878265
Si Si5 0.385736 0.883923 0.388980
Si Si6 0.126193 0.117023 0.771795
Si Si7 0.161688 0.693167 0.188125
O O1 0.686062 0.840787 0.504885
O O2 0.844148 0.684543 0.370618
O O3 0.796455 0.814867 0.329746
O O4 0.930454 0.871745 0.308386
O O5 0.594183 0.500000 0.220720
O O6 0.664756 0.624685 0.090971
O O7 0.622110 0.689709 0.220523
O O8 0.978273 0.150751 0.884601
O O9 0.820435 0.000000 0.001506
O O10 0.730495 0.177614 0.079222
O O11 0.180603 0.136602 0.788416
O O12 0.246556 0.174097 0.833166
O O13 0.148422 0.000000 0.888412
O O14 0.000000 0.157611 0.000000
O O15 0.536371 0.876520 0.286009
O O16 0.350585 0.000000 0.404318
O O17 0.138409 0.000000 0.746491
#
# Coordination Sequence:
#
# PCOD8080786 Si02
#       7
#     8   8   8   8   8   8   8
#     4   9  18  32  49  68  91 124 155 178 221 274
#     4   9  18  30  46  65  87 118 154 186 220 271
#     4   9  15  26  44  67  90 113 144 184 229 273
#     4  10  18  29  46  68  91 119 153 186 225 272
#     4  10  19  30  47  71  98 120 144 186 230 269
#     4   9  16  28  48  67  88 120 157 188 214 264
#     4  11  19  28  44  68  94 117 146 187 233 268
#
# _framework density 15.872399
#
# number of rings (size 3 to 8) (size 9 to 14) (size 15 to 20)
#    0.000    2.429    1.429    3.857    0.000    0.000 
#    0.000    0.714    0.000    3.857    0.000    0.000 
#    0.000    6.857    0.000    0.000    0.000    0.000 
#
# Total GULP energy -347136.551759 kJ/mol
# GULP energy per Si atom -12397.733991 kJ/mol
# Density = 1.583627 g / cm^3
# Si number density = 15.872399 Si / 1000 Ang^3
#
#
#
# Elastic Constant Matrix: (Units=GPa)
#
#
# Indices 1 2 3 4 5 6 
#
# 1 74.6001 33.5699 26.0487 -0.0016 5.7177 0.0002
# 2 33.5699 86.7610 21.1012 -0.0036 4.3890 0.0014
# 3 26.0487 21.1012 81.7845 -0.0050 4.7629 0.0016
# 4 -0.0016 -0.0036 -0.0050 19.3620 0.0022 2.5806
# 5 5.7177 4.3890 4.7629 0.0022 18.1885 -0.0003
# 6 0.0002 0.0014 0.0016 2.5806 -0.0003 21.2093
#
#
#
# Elastic Compliance Matrix: (Units=1/GPa)
#
#
# Indices 1 2 3 4 5 6 
#
# 1 0.017581 -0.005684 -0.003952 0.000000 -0.003121 0.000001
# 2 -0.005684 0.014220 -0.001790 0.000002 -0.001176 -0.000001
# 3 -0.003952 -0.001790 0.014065 0.000003 -0.002009 -0.000001
# 4 0.000000 0.000002 0.000003 0.052499 -0.000008 -0.006388
# 5 -0.003121 -0.001176 -0.002009 -0.000008 0.056771 0.000002
# 6 0.000001 -0.000001 -0.000001 -0.006388 0.000002 0.047926
#
#
# Mechanical properties :
#
#
# Convention : Reuss Voigt Hill
#
# Bulk Modulus (GPa) = 43.44946 44.95391 44.20168
# Shear Modulus (GPa) = 21.40551 22.58033 21.99292
#
# Velocity S-wave (km/s) = 3.67631 3.77585 3.72641
# Velocity P-wave (km/s) = 6.74196 6.88425 6.81348
#
# Compressibility (1/GPa) = 0.02301524
#
# Stress axis : x y z
#
# Youngs Moduli (GPa) = 56.87806 70.32369 71.09997
#
# Poissons Ratio (x) = 0.39970 0.28096
# Poissons Ratio (y) = 0.32328 0.12728
# Poissons Ratio (z) = 0.22476 0.12589
#
# Static dielectric constant tensor:
#      x y z
#    x 2.790170 0.000000 0.108690 
#    y 0.000000 2.967340 0.000010 
#    z 0.108690 0.000010 3.110320 
# 
# 
# High freq. dielectric constant tensor:
#      x y z
#    x 1.580520 0.000000 0.006630 
#    y 0.000000 1.595920 0.000000 
#    z 0.006630 0.000000 1.615790 
# 
# From -- ./inp_files/367680.got.cif
#   From: 2010.06.25/outbox.cif.g09.slc.cpg/sg12_184_cif.got.tgz:367680.got - 2010.06.28 00:19:55.
