data_PCOD8080172
_publ_section_title
;
Structure prediction by ZEFSAII (Michael W. Deem and Ramdas Pophale) SiO2 
 PCOD8080172
Probable space group: C 2/M
;
_chemical_formula_sum "Si O2"
_cell_formula_units_Z 56
_cell_length_a 28.097839
_cell_length_b 9.182679
_cell_length_c 14.330598
_cell_angle_alpha 90.000000
_cell_angle_beta 77.597930
_cell_angle_gamma 90.000000
_cell_volume 3611.204201
_symmetry_space_group_name_H-M "C 2/M"
_symmetry_group_IT_number 12
_symmetry_cell_setting 'monoclinic'
loop_
_space_group_symop_operation_xyz
x,y,z
-x,y,-z
-x,-y,-z
x,-y,z
1/2+x,1/2+y,z
1/2-x,1/2+y,-z
1/2-x,1/2-y,-z
1/2+x,1/2-y,z
loop_
_atom_site_type_symbol
_atom_site_label
_atom_site_fract_x
_atom_site_fract_y
_atom_site_fract_z
Si Si1 0.848357 0.330863 0.847542
Si Si2 0.890980 0.332277 0.521016
Si Si3 0.221485 0.672803 0.429868
Si Si4 0.975800 0.164649 0.409215
Si Si5 0.789609 0.334555 0.039308
Si Si6 0.734124 0.671694 0.234336
Si Si7 0.438528 0.167266 0.697110
O O1 0.838106 0.500000 0.824073
O O2 0.812794 0.229105 0.802275
O O3 0.904486 0.293209 0.800083
O O4 0.840968 0.305533 0.963322
O O5 0.899720 0.500000 0.493936
O O6 0.835066 0.287683 0.533026
O O7 0.923287 0.242199 0.433406
O O8 0.906517 0.295296 0.619694
O O9 0.230291 0.500000 0.426705
O O10 0.250000 0.750000 0.500000
O O11 0.241436 0.739221 0.325507
O O12 0.000000 0.178517 0.500000
O O13 0.012040 0.239108 0.319393
O O14 0.967685 0.000000 0.381102
O O15 0.774364 0.500000 0.033335
O O16 0.783889 0.297480 0.151957
O O17 0.750000 0.250000 0.000000
O O18 0.727358 0.500000 0.258430
O O19 0.454809 0.000000 0.690124
#
# Coordination Sequence:
#
# PCOD8080172 Si02
#       7
#     8   8   8   8   8   8   8
#     4   9  15  26  42  61  86 117 148 176 207 251
#     4   9  17  30  44  57  78 110 144 175 211 253
#     4  11  22  35  48  64  83 111 149 187 221 255
#     4   9  17  26  38  59  83 108 138 173 211 250
#     4   8  15  25  39  59  83 111 144 175 208 250
#     4  10  18  28  42  61  85 114 144 180 219 254
#     4   9  15  25  41  60  83 114 145 171 205 250
#
# _framework density 15.507293000000001
#
# number of rings (size 3 to 8) (size 9 to 14) (size 15 to 20)
#    0.000    2.714    1.429    1.286    0.000    4.000 
#    0.000    0.000    0.000    0.000    0.000    0.000 
#    0.000    1.143    0.000   13.143    0.000    3.714 
#
# Total GULP energy -346910.609217 kJ/mol
# GULP energy per Si atom -12389.664615 kJ/mol
# Density = 1.547200 g / cm^3
# Si number density = 15.507293 Si / 1000 Ang^3
#
#
#
# Elastic Constant Matrix: (Units=GPa)
#
#
# Indices 1 2 3 4 5 6 
#
# 1 68.4694 43.6839 58.5410 0.0000 -25.5830 0.0000
# 2 43.6839 79.5397 54.6932 0.0000 -17.0194 0.0000
# 3 58.5410 54.6932 112.8471 0.0000 -32.5182 0.0000
# 4 0.0000 0.0000 0.0000 20.6500 0.0000 -4.3587
# 5 -25.5830 -17.0194 -32.5182 0.0000 30.1455 0.0000
# 6 0.0000 0.0000 0.0000 -4.3587 0.0000 21.0169
#
#
#
# Elastic Compliance Matrix: (Units=1/GPa)
#
#
# Indices 1 2 3 4 5 6 
#
# 1 0.032983 -0.009208 -0.008822 0.000000 0.013276 0.000000
# 2 -0.009208 0.021454 -0.006360 0.000000 -0.002562 0.000000
# 3 -0.008822 -0.006360 0.019340 0.000000 0.009785 0.000000
# 4 0.000000 0.000000 0.000000 0.050643 0.000000 0.010503
# 5 0.013276 -0.002562 0.009785 0.000000 0.053548 0.000000
# 6 0.000000 0.000000 0.000000 0.010503 0.000000 0.049759
#
#
# Mechanical properties :
#
#
# Convention : Reuss Voigt Hill
#
# Bulk Modulus (GPa) = 40.00263 63.85472 51.92867
# Shear Modulus (GPa) = 17.55379 21.29169 19.42274
#
# Velocity S-wave (km/s) = 3.36813 3.70944 3.54289
# Velocity P-wave (km/s) = 6.40138 7.72096 7.09193
#
# Compressibility (1/GPa) = 0.02499836
#
# Stress axis : x y z
#
# Youngs Moduli (GPa) = 30.31883 46.61103 51.70594
#
# Poissons Ratio (x) = 0.42917 0.45615
# Poissons Ratio (y) = 0.27916 0.32884
# Poissons Ratio (z) = 0.26747 0.29644
#
# Static dielectric constant tensor:
#      x y z
#    x 2.776010 0.000000 -0.529520 
#    y 0.000000 3.066970 0.000000 
#    z -0.529520 0.000000 3.284060 
# 
# 
# High freq. dielectric constant tensor:
#      x y z
#    x 1.553370 0.000000 -0.047820 
#    y 0.000000 1.605890 0.000000 
#    z -0.047820 0.000000 1.580720 
# 
# From -- ./inp_files/243225.got.cif
#   From: 2010.06.25/outbox.cif.g09.slc.cpg/sg12_122_cif.got.tgz:243225.got - 2010.06.28 00:19:55.
