data_PCOD8080816
_publ_section_title
;
Structure prediction by ZEFSAII (Michael W. Deem and Ramdas Pophale) SiO2 
 PCOD8080816
Probable space group: C 2/M
;
_chemical_formula_sum "Si O2"
_cell_formula_units_Z 48
_cell_length_a 23.816654
_cell_length_b 9.289214
_cell_length_c 14.913379
_cell_angle_alpha 90.000000
_cell_angle_beta 121.334713
_cell_angle_gamma 90.000000
_cell_volume 2818.167641
_symmetry_space_group_name_H-M "C 2/M"
_symmetry_group_IT_number 12
_symmetry_cell_setting 'monoclinic'
loop_
_space_group_symop_operation_xyz
x,y,z
-x,y,-z
-x,-y,-z
x,-y,z
1/2+x,1/2+y,z
1/2-x,1/2+y,-z
1/2-x,1/2-y,-z
1/2+x,1/2-y,z
loop_
_atom_site_type_symbol
_atom_site_label
_atom_site_fract_x
_atom_site_fract_y
_atom_site_fract_z
Si Si1 0.444762 0.337240 0.652386
Si Si2 0.433696 0.831514 0.274463
Si Si3 0.694883 0.334404 0.400067
Si Si4 0.897749 0.163746 0.416548
Si Si5 0.772173 0.664662 0.294578
Si Si6 0.286898 0.165090 0.106722
O O1 0.456871 0.500000 0.696363
O O2 0.506746 0.239030 0.733199
O O3 0.378053 0.273494 0.641169
O O4 0.440757 0.333479 0.541619
O O5 0.433067 0.760004 0.371660
O O6 0.364664 0.800263 0.167907
O O7 0.446744 0.000000 0.296306
O O8 0.697887 0.500000 0.434818
O O9 0.750000 0.250000 0.500000
O O10 0.708016 0.320828 0.304032
O O11 0.826718 0.229841 0.380997
O O12 0.889918 0.000000 0.374968
O O13 0.799266 0.500000 0.317775
O O14 0.756978 0.708422 0.179167
O O15 0.273544 0.000000 0.075292
O O16 0.250000 0.250000 0.000000
#
# Coordination Sequence:
#
# PCOD8080816 Si02
#       6
#     8   8   8   8   8   8
#     4  10  20  31  45  70 102 135 168 200 236 283
#     4  10  21  34  48  70  98 128 165 203 248 301
#     4  10  19  32  49  71 103 139 171 202 234 282
#     4  10  18  29  46  70 101 132 166 204 239 284
#     4   9  18  32  50  73 102 132 166 204 243 290
#     4   9  19  35  54  76  95 119 159 208 258 301
#
# _framework density 17.032344999999999
#
# number of rings (size 3 to 8) (size 9 to 14) (size 15 to 20)
#    0.000    2.333    1.667    2.500    0.000    7.333 
#    0.000    0.000    0.000    1.000    0.000    7.000 
#    0.000    0.000    0.000    0.000    0.000    0.000 
#
# Total GULP energy -297537.441771 kJ/mol
# GULP energy per Si atom -12397.393407 kJ/mol
# Density = 1.699358 g / cm^3
# Si number density = 17.032345 Si / 1000 Ang^3
#
#
#
# Elastic Constant Matrix: (Units=GPa)
#
#
# Indices 1 2 3 4 5 6 
#
# 1 123.3352 49.6320 46.5494 0.0000 19.1089 0.0000
# 2 49.6320 83.3667 43.1085 0.0000 10.2527 0.0000
# 3 46.5494 43.1085 76.3949 0.0000 2.9807 0.0000
# 4 0.0000 0.0000 0.0000 27.7985 0.0000 5.0283
# 5 19.1089 10.2527 2.9807 0.0000 17.9978 0.0000
# 6 0.0000 0.0000 0.0000 5.0283 0.0000 27.8290
#
#
#
# Elastic Compliance Matrix: (Units=1/GPa)
#
#
# Indices 1 2 3 4 5 6 
#
# 1 0.013493 -0.003703 -0.005692 0.000000 -0.011274 0.000000
# 2 -0.003703 0.019220 -0.008370 0.000000 -0.005631 0.000000
# 3 -0.005692 -0.008370 0.020995 0.000000 0.007334 0.000000
# 4 0.000000 0.000000 0.000000 0.037189 0.000000 -0.006719
# 5 -0.011274 -0.005631 0.007334 0.000000 0.069526 0.000000
# 6 0.000000 0.000000 0.000000 -0.006719 0.000000 0.037148
#
#
# Mechanical properties :
#
#
# Convention : Reuss Voigt Hill
#
# Bulk Modulus (GPa) = 55.01003 62.40850 58.70927
# Shear Modulus (GPa) = 20.90648 24.31218 22.60933
#
# Velocity S-wave (km/s) = 3.50731 3.78221 3.64735
# Velocity P-wave (km/s) = 6.98349 7.46955 7.23061
#
# Compressibility (1/GPa) = 0.01817850
#
# Stress axis : x y z
#
# Youngs Moduli (GPa) = 74.11045 52.02843 47.63049
#
# Poissons Ratio (x) = 0.19267 0.27113
# Poissons Ratio (y) = 0.27445 0.39864
# Poissons Ratio (z) = 0.42186 0.43545
#
# Static dielectric constant tensor:
#      x y z
#    x 3.462280 0.000000 0.085440 
#    y 0.000000 3.296480 0.000000 
#    z 0.085440 0.000000 2.829700 
# 
# 
# High freq. dielectric constant tensor:
#      x y z
#    x 1.664120 0.000000 0.008560 
#    y 0.000000 1.662910 0.000000 
#    z 0.008560 0.000000 1.614720 
# 
# From -- ./inp_files/236844.got.cif
#   From: 2010.06.25/outbox.cif.g09.slc.cpg/sg12_119_cif.got.tgz:236844.got - 2010.06.28 00:19:55.
