data_PCOD8080750
_publ_section_title
;
Structure prediction by ZEFSAII (Michael W. Deem and Ramdas Pophale) SiO2 
 PCOD8080750
Probable space group: C 2/M
;
_chemical_formula_sum "Si O2"
_cell_formula_units_Z 48
_cell_length_a 8.750726
_cell_length_b 19.853268
_cell_length_c 18.598726
_cell_angle_alpha 90.000000
_cell_angle_beta 52.664347
_cell_angle_gamma 90.000000
_cell_volume 2569.088047
_symmetry_space_group_name_H-M "C 2/M"
_symmetry_group_IT_number 12
_symmetry_cell_setting 'monoclinic'
loop_
_space_group_symop_operation_xyz
x,y,z
-x,y,-z
-x,-y,-z
x,-y,z
1/2+x,1/2+y,z
1/2-x,1/2+y,-z
1/2-x,1/2-y,-z
1/2+x,1/2-y,z
loop_
_atom_site_type_symbol
_atom_site_label
_atom_site_fract_x
_atom_site_fract_y
_atom_site_fract_z
Si Si1 0.135768 0.819245 0.026797
Si Si2 0.233119 0.334950 0.763565
Si Si3 0.544101 0.075553 0.070605
Si Si4 0.545160 0.815767 0.408952
Si Si5 0.320911 0.332983 0.588214
Si Si6 0.428842 0.693646 0.228569
O O1 0.020103 0.840988 0.131942
O O2 0.250000 0.750000 0.000000
O O3 0.267086 0.881798 0.967167
O O4 0.000000 0.804588 0.000000
O O5 0.268516 0.371800 0.676525
O O6 0.427159 0.308554 0.745291
O O7 0.096675 0.271289 0.787189
O O8 0.137870 0.390642 0.840178
O O9 0.573992 0.000000 0.091708
O O10 0.500000 0.075076 0.000000
O O11 0.500000 0.850519 0.500000
O O12 0.595795 0.738434 0.408563
O O13 0.357513 0.824533 0.413929
O O14 0.731683 0.843826 0.311683
O O15 0.500000 0.371677 0.500000
#
# Coordination Sequence:
#
# PCOD8080750 Si02
#       6
#     8   8   8   8   8   8
#     4  12  23  36  60  86 116 147 190 235 282 335
#     4  11  20  33  55  81 112 145 190 230 282 335
#     4  11  24  42  58  79 114 154 191 235 286 339
#     4  10  18  29  45  74 116 148 175 222 282 340
#     4  10  18  29  48  75 109 146 182 224 277 336
#     4  11  20  31  52  84 109 146 184 231 279 330
#
# _framework density 18.683672000000001
#
# number of rings (size 3 to 8) (size 9 to 14) (size 15 to 20)
#    0.000    1.167    3.333    8.500    2.333    0.333 
#    0.000    0.000    0.000    0.500    0.000    0.000 
#    0.000    3.333    0.000    0.000    0.000    0.000 
#
# Total GULP energy -297432.057636 kJ/mol
# GULP energy per Si atom -12393.002402 kJ/mol
# Density = 1.864115 g / cm^3
# Si number density = 18.683672 Si / 1000 Ang^3
#
#
#
# Elastic Constant Matrix: (Units=GPa)
#
#
# Indices 1 2 3 4 5 6 
#
# 1 159.9956 46.3533 70.4414 0.0000 6.5006 0.0000
# 2 46.3533 65.2578 14.7779 0.0000 -10.0385 0.0000
# 3 70.4414 14.7779 138.4546 0.0000 -4.7789 0.0000
# 4 0.0000 0.0000 0.0000 -8.1833 0.0000 -0.3716
# 5 6.5006 -10.0385 -4.7789 0.0000 38.2799 0.0000
# 6 0.0000 0.0000 0.0000 -0.3716 0.0000 7.3752
#
#
#
# Elastic Compliance Matrix: (Units=1/GPa)
#
#
# Indices 1 2 3 4 5 6 
#
# 1 0.010576 -0.007086 -0.004771 0.000000 -0.004250 0.000000
# 2 -0.007086 0.021061 0.001596 0.000000 0.006926 0.000000
# 3 -0.004771 0.001596 0.009563 0.000000 0.002423 0.000000
# 4 0.000000 0.000000 0.000000 -0.121921 0.000000 -0.006144
# 5 -0.004250 0.006926 0.002423 0.000000 0.028964 0.000000
# 6 0.000000 0.000000 0.000000 -0.006144 0.000000 0.135280
#
#
# Mechanical properties :
#
#
# Convention : Reuss Voigt Hill
#
# Bulk Modulus (GPa) = 48.35907 69.65036 59.00472
# Shear Modulus (GPa) = 45.06991 22.97004 34.01998
#
# Velocity S-wave (km/s) = 4.91681 3.51011 4.27176
# Velocity P-wave (km/s) = 7.62709 7.33400 7.48198
#
# Compressibility (1/GPa) = 0.02067864
#
# Stress axis : x y z
#
# Youngs Moduli (GPa) = 94.55014 47.48150 104.56583
#
# Poissons Ratio (x) = 0.33644 0.49892
# Poissons Ratio (y) = 0.66996 -0.16690
# Poissons Ratio (z) = 0.45113 -0.07579
#
# Static dielectric constant tensor:
#      x y z
#    x 3.490030 0.000000 -0.118950 
#    y 0.000000 2.946100 0.000000 
#    z -0.118950 0.000000 4.972880 
# 
# 
# High freq. dielectric constant tensor:
#      x y z
#    x 1.741800 0.000000 0.000310 
#    y 0.000000 1.642900 0.000000 
#    z 0.000310 0.000000 1.763670 
# 
# From -- ./inp_files/256461.got.cif
#   From: 2010.06.25/outbox.cif.g09.slc.cpg/sg12_129_cif.got.tgz:256461.got - 2010.06.28 00:19:55.
