data_PCOD8080006
_publ_section_title
;
Structure prediction by ZEFSAII (Michael W. Deem and Ramdas Pophale) SiO2 
 PCOD8080006
Probable space group: C 2/M
;
_chemical_formula_sum "Si O2"
_cell_formula_units_Z 56
_cell_length_a 16.362372
_cell_length_b 24.939806
_cell_length_c 9.436181
_cell_angle_alpha 90.000000
_cell_angle_beta 121.903069
_cell_angle_gamma 90.000000
_cell_volume 3268.995497
_symmetry_space_group_name_H-M "C 2/M"
_symmetry_group_IT_number 12
_symmetry_cell_setting 'monoclinic'
loop_
_space_group_symop_operation_xyz
x,y,z
-x,y,-z
-x,-y,-z
x,-y,z
1/2+x,1/2+y,z
1/2-x,1/2+y,-z
1/2-x,1/2-y,-z
1/2+x,1/2-y,z
loop_
_atom_site_type_symbol
_atom_site_label
_atom_site_fract_x
_atom_site_fract_y
_atom_site_fract_z
Si Si1 0.060835 0.441972 0.356877
Si Si2 0.164453 0.648322 0.626541
Si Si3 0.916958 0.760841 0.516905
Si Si4 0.619437 0.890656 0.873941
Si Si5 0.748042 0.342913 0.572674
Si Si6 0.802073 0.438829 0.772724
Si Si7 0.463388 0.198005 0.817520
O O1 0.090375 0.500000 0.447160
O O2 0.094729 0.395559 0.492543
O O3 0.101577 0.437170 0.233741
O O4 0.945022 0.440260 0.239420
O O5 0.111011 0.705227 0.584991
O O6 0.189370 0.630316 0.810174
O O7 0.256232 0.653791 0.604197
O O8 0.825458 0.799176 0.439035
O O9 0.959928 0.749229 0.711351
O O10 0.000000 0.789053 0.500000
O O11 0.541611 0.845412 0.841452
O O12 0.683499 0.910621 0.062332
O O13 0.723935 0.401396 0.618083
O O14 0.856118 0.327288 0.722817
O O15 0.764067 0.500000 0.755904
O O16 0.500000 0.220890 0.000000
#
# Coordination Sequence:
#
# PCOD8080006 Si02
#       7
#     8   8   8   8   8   8   8
#     4  10  18  27  42  66 101 143 177 195 234 303
#     4  10  19  31  46  70 103 137 170 210 249 301
#     4  11  20  37  55  73  99 137 182 225 256 300
#     4  12  17  28  46  72 107 137 172 196 249 300
#     4  10  21  35  53  74 101 143 178 209 261 310
#     4  10  20  33  48  73 107 140 174 212 251 307
#     4  11  18  32  50  76 109 139 167 205 257 308
#
# _framework density 17.130645000000001
#
# number of rings (size 3 to 8) (size 9 to 14) (size 15 to 20)
#    0.000    1.429    7.143    3.000    0.000    2.857 
#    0.000    4.286    0.000    0.429    0.000    0.000 
#    0.000    1.714    0.000    0.000    0.000    0.000 
#
# Total GULP energy -346868.516660 kJ/mol
# GULP energy per Si atom -12388.161309 kJ/mol
# Density = 1.709165 g / cm^3
# Si number density = 17.130645 Si / 1000 Ang^3
#
#
#
# Elastic Constant Matrix: (Units=GPa)
#
#
# Indices 1 2 3 4 5 6 
#
# 1 72.8800 51.5465 39.8763 0.0000 -17.5427 0.0000
# 2 51.5465 103.3657 38.6893 0.0000 -5.5830 0.0000
# 3 39.8763 38.6893 72.7036 0.0000 -25.4203 0.0000
# 4 0.0000 0.0000 0.0000 21.6106 0.0000 -0.9999
# 5 -17.5427 -5.5830 -25.4203 0.0000 21.9175 0.0000
# 6 0.0000 0.0000 0.0000 -0.9999 0.0000 6.8767
#
#
#
# Elastic Compliance Matrix: (Units=1/GPa)
#
#
# Indices 1 2 3 4 5 6 
#
# 1 0.027440 -0.011451 -0.003865 0.000000 0.014564 0.000000
# 2 -0.011451 0.017610 -0.007951 0.000000 -0.013901 0.000000
# 3 -0.003865 -0.007951 0.030810 0.000000 0.030615 0.000000
# 4 0.000000 0.000000 0.000000 0.046587 0.000000 0.006774
# 5 0.014564 -0.013901 0.030615 0.000000 0.089250 0.000000
# 6 0.000000 0.000000 0.000000 0.006774 0.000000 0.146404
#
#
# Mechanical properties :
#
#
# Convention : Reuss Voigt Hill
#
# Bulk Modulus (GPa) = 34.09847 56.57483 45.33665
# Shear Modulus (GPa) = 12.06538 18.00344 15.03441
#
# Velocity S-wave (km/s) = 2.65677 3.24535 2.96570
# Velocity P-wave (km/s) = 5.41843 6.86588 6.18465
#
# Compressibility (1/GPa) = 0.02932683
#
# Stress axis : x y z
#
# Youngs Moduli (GPa) = 36.44268 56.78606 32.45740
#
# Poissons Ratio (x) = 0.65025 0.12543
# Poissons Ratio (y) = 0.41730 0.25807
# Poissons Ratio (z) = 0.14083 0.45151
#
# Static dielectric constant tensor:
#      x y z
#    x 3.056340 0.000000 -0.436370 
#    y 0.000000 3.335900 0.000000 
#    z -0.436370 0.000000 3.174630 
# 
# 
# High freq. dielectric constant tensor:
#      x y z
#    x 1.624910 0.000000 -0.046970 
#    y 0.000000 1.660030 0.000000 
#    z -0.046970 0.000000 1.637070 
# 
# From -- ./inp_files/67078.got.cif
#   From: 2010.06.25/outbox.cif.g09.slc.cpg/sg12_34_cif.got.tgz:67078.got - 2010.06.28 00:19:55.
