data_PCOD8080647
_publ_section_title
;
Structure prediction by ZEFSAII (Michael W. Deem and Ramdas Pophale) SiO2 
 PCOD8080647
Probable space group: C 2/M
;
_chemical_formula_sum "Si O2"
_cell_formula_units_Z 56
_cell_length_a 26.588769
_cell_length_b 9.307029
_cell_length_c 17.216204
_cell_angle_alpha 90.000000
_cell_angle_beta 54.503678
_cell_angle_gamma 90.000000
_cell_volume 3468.587189
_symmetry_space_group_name_H-M "C 2/M"
_symmetry_group_IT_number 12
_symmetry_cell_setting 'monoclinic'
loop_
_space_group_symop_operation_xyz
x,y,z
-x,y,-z
-x,-y,-z
x,-y,z
1/2+x,1/2+y,z
1/2-x,1/2+y,-z
1/2-x,1/2-y,-z
1/2+x,1/2-y,z
loop_
_atom_site_type_symbol
_atom_site_label
_atom_site_fract_x
_atom_site_fract_y
_atom_site_fract_z
Si Si1 0.589196 0.838528 0.405257
Si Si2 0.343043 0.168881 0.908531
Si Si3 0.768067 0.337286 0.704381
Si Si4 0.782433 0.168206 0.540257
Si Si5 0.425042 0.332731 0.431807
Si Si6 0.964446 0.667173 0.713401
Si Si7 0.228706 0.832028 0.906264
O O1 0.662052 0.826707 0.329592
O O2 0.563599 0.731220 0.492942
O O3 0.559259 0.796306 0.351087
O O4 0.570478 0.000000 0.447304
O O5 0.411621 0.216601 0.821056
O O6 0.293793 0.214664 0.886593
O O7 0.340424 0.000000 0.925169
O O8 0.327525 0.247718 0.003111
O O9 0.752622 0.500000 0.691164
O O10 0.755056 0.229093 0.645483
O O11 0.727686 0.292950 0.815655
O O12 0.750000 0.250000 0.500000
O O13 0.855300 0.199262 0.467470
O O14 0.767428 0.000000 0.549791
O O15 0.439378 0.500000 0.421366
O O16 0.472533 0.257018 0.329082
O O17 0.979269 0.500000 0.710689
O O18 0.217855 0.000000 0.928268
#
# Coordination Sequence:
#
# PCOD8080647 Si02
#       7
#     8   8   8   8   8   8   8
#     4   9  16  28  44  62  88 125 162 188 215 262
#     4   9  17  28  42  63  93 127 164 199 223 255
#     4   9  16  29  49  69  93 124 157 192 229 272
#     4  10  21  36  52  71  93 116 148 191 238 285
#     4  10  21  32  43  65  93 117 148 191 233 274
#     4  10  18  29  44  63  90 128 165 189 217 264
#     4   9  16  28  44  65  92 125 162 195 229 265
#
# _framework density 16.144901999999998
#
# number of rings (size 3 to 8) (size 9 to 14) (size 15 to 20)
#    0.000    2.571    1.429    1.286    0.000    5.143 
#    0.000    0.000    0.000    0.000    0.000    1.000 
#    0.000    8.000    0.000    0.000    0.000    0.000 
#
# Total GULP energy -347155.004115 kJ/mol
# GULP energy per Si atom -12398.393004 kJ/mol
# Density = 1.610815 g / cm^3
# Si number density = 16.144902 Si / 1000 Ang^3
#
#
#
# Elastic Constant Matrix: (Units=GPa)
#
#
# Indices 1 2 3 4 5 6 
#
# 1 52.6190 41.6684 48.5014 0.0000 7.7652 -0.0001
# 2 41.6684 82.3418 70.6586 -0.0003 0.9816 -0.0001
# 3 48.5014 70.6586 138.7576 -0.0002 -7.6549 0.0000
# 4 0.0000 -0.0003 -0.0002 32.4505 0.0000 -0.2708
# 5 7.7652 0.9816 -7.6549 0.0000 15.4823 0.0000
# 6 -0.0001 -0.0001 0.0000 -0.2708 0.0000 21.0143
#
#
#
# Elastic Compliance Matrix: (Units=1/GPa)
#
#
# Indices 1 2 3 4 5 6 
#
# 1 0.041145 -0.012484 -0.009375 0.000000 -0.024480 0.000000
# 2 -0.012484 0.026120 -0.008926 0.000000 0.000192 0.000000
# 3 -0.009375 -0.008926 0.015749 0.000000 0.013055 0.000000
# 4 0.000000 0.000000 0.000000 0.030819 0.000000 0.000397
# 5 -0.024480 0.000192 0.013055 0.000000 0.083310 0.000000
# 6 0.000000 0.000000 0.000000 0.000397 0.000000 0.047592
#
#
# Mechanical properties :
#
#
# Convention : Reuss Voigt Hill
#
# Bulk Modulus (GPa) = 46.63633 66.15280 56.39457
# Shear Modulus (GPa) = 15.95131 21.31543 18.63337
#
# Velocity S-wave (km/s) = 3.14667 3.63748 3.40094
# Velocity P-wave (km/s) = 6.49237 7.66192 7.10126
#
# Compressibility (1/GPa) = 0.02144251
#
# Stress axis : x y z
#
# Youngs Moduli (GPa) = 24.30452 38.28537 63.49452
#
# Poissons Ratio (x) = 0.47797 0.59525
# Poissons Ratio (y) = 0.30343 0.56677
# Poissons Ratio (z) = 0.22785 0.34175
#
# Static dielectric constant tensor:
#      x y z
#    x 2.760100 0.000000 -0.112940 
#    y 0.000000 3.053260 0.000000 
#    z -0.112940 0.000000 3.241110 
# 
# 
# High freq. dielectric constant tensor:
#      x y z
#    x 1.577990 0.000000 -0.008710 
#    y 0.000000 1.621540 0.000000 
#    z -0.008710 0.000000 1.623450 
# 
# From -- ./inp_files/291820.got.cif
#   From: 2010.06.25/outbox.cif.g09.slc.cpg/sg12_146_cif.got.tgz:291820.got - 2010.06.28 00:19:55.
