data_PCOD8080324
_publ_section_title
;
Structure prediction by ZEFSAII (Michael W. Deem and Ramdas Pophale) SiO2 
 PCOD8080324
Probable space group: C 2/M
;
_chemical_formula_sum "Si O2"
_cell_formula_units_Z 64
_cell_length_a 19.101732
_cell_length_b 8.795081
_cell_length_c 23.602641
_cell_angle_alpha 90.000000
_cell_angle_beta 61.114357
_cell_angle_gamma 90.000000
_cell_volume 3471.936726
_symmetry_space_group_name_H-M "C 2/M"
_symmetry_group_IT_number 12
_symmetry_cell_setting 'monoclinic'
loop_
_space_group_symop_operation_xyz
x,y,z
-x,y,-z
-x,-y,-z
x,-y,z
1/2+x,1/2+y,z
1/2-x,1/2+y,-z
1/2-x,1/2-y,-z
1/2+x,1/2-y,z
loop_
_atom_site_type_symbol
_atom_site_label
_atom_site_fract_x
_atom_site_fract_y
_atom_site_fract_z
Si Si1 0.428368 0.825317 0.236783
Si Si2 0.753214 0.674826 0.324750
Si Si3 0.193956 0.178397 0.157040
Si Si4 0.632578 0.822284 0.293006
Si Si5 0.078001 0.675414 0.113445
Si Si6 0.033889 0.178870 0.662345
Si Si7 0.308045 0.823953 0.021591
Si Si8 0.195408 0.677209 0.568648
O O1 0.336286 0.786484 0.259311
O O2 0.482835 0.798582 0.159483
O O3 0.463615 0.721481 0.272600
O O4 0.433094 0.000000 0.256475
O O5 0.728778 0.500000 0.324234
O O6 0.684246 0.783226 0.328299
O O7 0.764948 0.711171 0.386169
O O8 0.182828 0.270852 0.218706
O O9 0.125088 0.218493 0.138874
O O10 0.188892 0.000000 0.173572
O O11 0.281445 0.226363 0.095617
O O12 0.548619 0.737230 0.331787
O O13 0.616057 0.000000 0.296107
O O14 0.099918 0.500000 0.118681
O O15 0.102147 0.711948 0.037717
O O16 0.107284 0.251671 0.599459
O O17 0.038448 0.000000 0.653452
O O18 0.289660 0.000000 0.026619
O O19 0.250000 0.750000 0.000000
O O20 0.187396 0.500000 0.560269
O O21 0.250000 0.750000 0.500000
#
# Coordination Sequence:
#
# PCOD8080324 Si02
#       8
#     8   8   8   8   8   8   8   8
#     4   9  17  31  52  77 106 137 174 221 272 321
#     4   9  20  37  55  79 110 142 174 214 262 312
#     4  10  18  28  44  69 101 137 175 219 270 324
#     4  12  23  35  52  76 107 142 182 227 271 316
#     4   9  15  26  46  71 100 133 171 219 270 323
#     4  11  21  34  56  83 111 142 179 219 261 312
#     4   8  15  25  39  64  97 131 170 215 266 321
#     4  10  21  40  65  90 117 145 175 210 252 305
#
# _framework density 18.433516000000001
#
# number of rings (size 3 to 8) (size 9 to 14) (size 15 to 20)
#    0.000    2.250    1.250    3.750    0.000    3.000 
#    0.000    0.625    0.000    4.500    0.000    5.250 
#    0.000    0.000    0.000    0.000    0.000    0.000 
#
# Total GULP energy -396529.392035 kJ/mol
# GULP energy per Si atom -12391.543501 kJ/mol
# Density = 1.839156 g / cm^3
# Si number density = 18.433516 Si / 1000 Ang^3
#
#
#
# Elastic Constant Matrix: (Units=GPa)
#
#
# Indices 1 2 3 4 5 6 
#
# 1 90.8156 40.2817 52.2892 0.0000 -15.6844 0.0004
# 2 40.2817 93.4183 46.5610 -0.0001 -7.9663 0.0005
# 3 52.2892 46.5610 138.6250 0.0000 -33.9650 0.0000
# 4 0.0000 -0.0001 0.0000 27.3485 0.0000 -0.9491
# 5 -15.6844 -7.9663 -33.9650 0.0000 25.4338 0.0000
# 6 0.0004 0.0005 0.0000 -0.9491 0.0000 25.2783
#
#
#
# Elastic Compliance Matrix: (Units=1/GPa)
#
#
# Indices 1 2 3 4 5 6 
#
# 1 0.015731 -0.004754 -0.003456 0.000000 0.003597 0.000000
# 2 -0.004754 0.014409 -0.003952 0.000000 -0.003696 0.000000
# 3 -0.003456 -0.003952 0.013405 0.000000 0.014533 0.000000
# 4 0.000000 0.000000 0.000000 0.036613 0.000000 0.001375
# 5 0.003597 -0.003696 0.014533 0.000000 0.059786 0.000000
# 6 0.000000 0.000000 0.000000 0.001375 0.000000 0.039611
#
#
# Mechanical properties :
#
#
# Convention : Reuss Voigt Hill
#
# Bulk Modulus (GPa) = 52.02397 66.79141 59.40769
# Shear Modulus (GPa) = 23.77716 27.86061 25.81888
#
# Velocity S-wave (km/s) = 3.59540 3.89190 3.74658
# Velocity P-wave (km/s) = 6.74682 7.51720 7.14240
#
# Compressibility (1/GPa) = 0.01922191
#
# Stress axis : x y z
#
# Youngs Moduli (GPa) = 63.56923 69.40088 74.59717
#
# Poissons Ratio (x) = 0.32994 0.25777
# Poissons Ratio (y) = 0.30221 0.29481
# Poissons Ratio (z) = 0.21967 0.27428
#
# Static dielectric constant tensor:
#      x y z
#    x 3.118540 0.000000 -0.362430 
#    y 0.000000 3.413910 0.000000 
#    z -0.362430 0.000000 3.766240 
# 
# 
# High freq. dielectric constant tensor:
#      x y z
#    x 1.677740 0.000000 -0.028480 
#    y 0.000000 1.718560 0.000000 
#    z -0.028480 0.000000 1.721610 
# 
# From -- ./inp_files/345531.got.cif
#   From: 2010.06.25/outbox.cif.g09.slc.cpg/sg12_173_cif.got.tgz:345531.got - 2010.06.28 00:19:55.
