data_PCOD8080902
_publ_section_title
;
Structure prediction by ZEFSAII (Michael W. Deem and Ramdas Pophale) SiO2 
 PCOD8080902
Probable space group: C 2/M
;
_chemical_formula_sum "Si O2"
_cell_formula_units_Z 56
_cell_length_a 27.446237
_cell_length_b 8.837223
_cell_length_c 18.197788
_cell_angle_alpha 90.000000
_cell_angle_beta 49.234940
_cell_angle_gamma 90.000000
_cell_volume 3343.018123
_symmetry_space_group_name_H-M "C 2/M"
_symmetry_group_IT_number 12
_symmetry_cell_setting 'monoclinic'
loop_
_space_group_symop_operation_xyz
x,y,z
-x,y,-z
-x,-y,-z
x,-y,z
1/2+x,1/2+y,z
1/2-x,1/2+y,-z
1/2-x,1/2-y,-z
1/2+x,1/2-y,z
loop_
_atom_site_type_symbol
_atom_site_label
_atom_site_fract_x
_atom_site_fract_y
_atom_site_fract_z
Si Si1 0.430328 0.333856 0.603757
Si Si2 0.432805 0.670095 0.024598
Si Si3 0.006964 0.677008 0.165653
Si Si4 0.876563 0.676305 0.212345
Si Si5 0.252050 0.321217 0.577688
Si Si6 0.497728 0.321412 0.328785
Si Si7 0.123897 0.677722 0.475470
O O1 0.500000 0.347307 0.500000
O O2 0.397046 0.500000 0.634006
O O3 0.442369 0.280557 0.675941
O O4 0.388057 0.215595 0.598872
O O5 0.413399 0.500000 0.021628
O O6 0.438427 0.771365 0.945855
O O7 0.500000 0.674476 0.000000
O O8 0.379039 0.737345 0.132022
O O9 0.014017 0.500000 0.174121
O O10 0.936387 0.719703 0.205354
O O11 0.019129 0.769102 0.227744
O O12 0.877745 0.500000 0.192864
O O13 0.812517 0.727434 0.316767
O O14 0.257601 0.500000 0.564394
O O15 0.250000 0.250000 0.500000
O O16 0.311155 0.258765 0.565441
O O17 0.483334 0.500000 0.345064
O O18 0.433379 0.234765 0.416252
O O19 0.131183 0.500000 0.478792
#
# Coordination Sequence:
#
# PCOD8080902 Si02
#       7
#     8   8   8   8   8   8   8
#     4   8  16  31  48  66  90 121 155 193 237 280
#     4   9  17  29  46  67  91 121 155 190 231 278
#     4  10  18  29  47  71  98 123 152 192 236 281
#     4   9  19  33  47  65  91 125 160 194 231 271
#     4  11  22  35  50  69  96 128 163 199 234 273
#     4  10  19  31  48  70  96 124 156 195 239 282
#     4  11  21  32  47  68  95 127 162 195 232 280
#
# _framework density 16.751328999999998
#
# number of rings (size 3 to 8) (size 9 to 14) (size 15 to 20)
#    0.000    2.286    0.000    4.714    0.000    7.714 
#    0.000    0.000    0.000    0.000    0.000    1.000 
#    0.000    0.000    0.000    0.000    0.000    0.000 
#
# Total GULP energy -347178.766384 kJ/mol
# GULP energy per Si atom -12399.241657 kJ/mol
# Density = 1.671320 g / cm^3
# Si number density = 16.751329 Si / 1000 Ang^3
#
#
#
# Elastic Constant Matrix: (Units=GPa)
#
#
# Indices 1 2 3 4 5 6 
#
# 1 80.6609 30.8854 52.4330 -0.0009 12.8544 -0.0006
# 2 30.8854 68.1224 48.0477 -0.0041 2.0461 -0.0062
# 3 52.4330 48.0477 115.8607 0.0075 13.9997 -0.0035
# 4 -0.0009 -0.0041 0.0075 29.9338 -0.0066 5.8816
# 5 12.8544 2.0461 13.9997 -0.0066 21.3122 0.0007
# 6 -0.0006 -0.0062 -0.0035 5.8816 0.0007 21.9102
#
#
#
# Elastic Compliance Matrix: (Units=1/GPa)
#
#
# Indices 1 2 3 4 5 6 
#
# 1 0.019050 -0.004169 -0.006031 0.000000 -0.007128 -0.000001
# 2 -0.004169 0.021975 -0.007903 0.000005 0.005596 0.000003
# 3 -0.006031 -0.007903 0.015323 -0.000007 -0.005669 0.000002
# 4 0.000000 0.000005 -0.000007 0.035267 0.000015 -0.009467
# 5 -0.007128 0.005596 -0.005669 0.000015 0.054408 -0.000005
# 6 -0.000001 0.000003 0.000002 -0.009467 -0.000005 0.048182
#
#
# Mechanical properties :
#
#
# Convention : Reuss Voigt Hill
#
# Bulk Modulus (GPa) = 49.64572 58.59736 54.12154
# Shear Modulus (GPa) = 21.08588 23.51643 22.30115
#
# Velocity S-wave (km/s) = 3.55175 3.75087 3.65267
# Velocity P-wave (km/s) = 6.82064 7.33589 7.08295
#
# Compressibility (1/GPa) = 0.02014272
#
# Stress axis : x y z
#
# Youngs Moduli (GPa) = 52.49246 45.50524 65.26290
#
# Poissons Ratio (x) = 0.18972 0.39360
# Poissons Ratio (y) = 0.21885 0.51575
# Poissons Ratio (z) = 0.31658 0.35961
#
# Static dielectric constant tensor:
#      x y z
#    x 3.305220 -0.000050 0.272660 
#    y -0.000050 3.298050 -0.000010 
#    z 0.272660 -0.000010 3.153730 
# 
# 
# High freq. dielectric constant tensor:
#      x y z
#    x 1.622750 0.000000 0.024240 
#    y 0.000000 1.658040 0.000000 
#    z 0.024240 0.000000 1.631050 
# 
# From -- ./inp_files/291837.got.cif
#   From: 2010.06.25/outbox.cif.g09.slc.cpg/sg12_146_cif.got.tgz:291837.got - 2010.06.28 00:19:55.
