data_PCOD8080054
_publ_section_title
;
Structure prediction by ZEFSAII (Michael W. Deem and Ramdas Pophale) SiO2 
 PCOD8080054
Probable space group: C 2/M
;
_chemical_formula_sum "Si O2"
_cell_formula_units_Z 64
_cell_length_a 15.888297
_cell_length_b 18.024311
_cell_length_c 24.667406
_cell_angle_alpha 90.000000
_cell_angle_beta 154.373546
_cell_angle_gamma 90.000000
_cell_volume 3055.256744
_symmetry_space_group_name_H-M "C 2/M"
_symmetry_group_IT_number 12
_symmetry_cell_setting 'monoclinic'
loop_
_space_group_symop_operation_xyz
x,y,z
-x,y,-z
-x,-y,-z
x,-y,z
1/2+x,1/2+y,z
1/2-x,1/2+y,-z
1/2-x,1/2-y,-z
1/2+x,1/2-y,z
loop_
_atom_site_type_symbol
_atom_site_label
_atom_site_fract_x
_atom_site_fract_y
_atom_site_fract_z
Si Si1 0.173713 0.412701 0.487571
Si Si2 0.167397 0.306930 0.997431
Si Si3 0.126032 0.324139 0.620657
Si Si4 0.797199 0.225854 0.815594
Si Si5 0.959965 0.318784 0.691308
Si Si6 0.066067 0.835144 0.282999
Si Si7 0.019720 0.080392 0.073498
Si Si8 0.410799 0.082644 0.135811
O O1 0.170461 0.500000 0.471034
O O2 0.153045 0.362262 0.421434
O O3 0.379475 0.392566 0.636885
O O4 0.997167 0.392266 0.425035
O O5 0.063769 0.374924 0.906352
O O6 0.997281 0.271626 0.936768
O O7 0.250000 0.250000 0.000000
O O8 0.335240 0.334887 0.135635
O O9 0.166268 0.255342 0.686527
O O10 0.324268 0.356600 0.708801
O O11 0.000000 0.286836 0.500000
O O12 0.669720 0.218536 0.795726
O O13 0.842920 0.141453 0.820644
O O14 0.850578 0.245852 0.649508
O O15 0.984860 0.375593 0.754750
O O16 0.123110 0.000000 0.135922
O O17 0.816677 0.077941 0.985399
O O18 0.000000 0.106158 0.000000
O O19 0.499806 0.000000 0.182273
#
# Coordination Sequence:
#
# PCOD8080054 Si02
#       8
#     8   8   8   8   8   8   8   8
#     4  10  23  39  59  88 122 156 190 240 303 365
#     4  12  21  36  55  80 119 161 200 243 286 350
#     4   9  19  34  53  77 111 150 184 227 280 349
#     4  11  20  33  53  81 114 153 194 236 287 344
#     4  11  21  36  59  87 117 150 195 245 298 347
#     4  11  21  37  58  81 117 158 200 239 284 353
#     4  10  18  27  43  73 111 139 169 222 286 344
#     4  11  21  33  53  81 112 148 189 239 297 346
#
# _framework density 20.947503000000001
#
# number of rings (size 3 to 8) (size 9 to 14) (size 15 to 20)
#    0.000    1.375    5.000    0.750    0.000    4.750 
#    0.000    1.250    0.000    0.750    0.000    1.750 
#    0.000   18.500    0.000    0.000    0.000    0.000 
#
# Total GULP energy -396440.728795 kJ/mol
# GULP energy per Si atom -12388.772775 kJ/mol
# Density = 2.089983 g / cm^3
# Si number density = 20.947503 Si / 1000 Ang^3
#
#
#
# Elastic Constant Matrix: (Units=GPa)
#
#
# Indices 1 2 3 4 5 6 
#
# 1 49.8568 36.7586 22.2705 0.0076 -11.0759 0.0013
# 2 36.7586 92.0343 22.1819 0.0057 -13.5890 0.0019
# 3 22.2705 22.1819 102.9137 0.0245 -15.1655 0.0072
# 4 0.0076 0.0057 0.0245 33.5311 0.0113 -1.9931
# 5 -11.0759 -13.5890 -15.1655 0.0113 27.0243 0.0031
# 6 0.0013 0.0019 0.0072 -1.9931 0.0031 25.9899
#
#
#
# Elastic Compliance Matrix: (Units=1/GPa)
#
#
# Indices 1 2 3 4 5 6 
#
# 1 0.030629 -0.010602 -0.003574 -0.000004 0.005217 -0.000001
# 2 -0.010602 0.015724 -0.000621 -0.000001 0.003213 -0.000001
# 3 -0.003574 -0.000621 0.011297 -0.000009 0.004562 -0.000004
# 4 -0.000004 -0.000001 -0.000009 0.029960 -0.000020 0.002298
# 5 0.005217 0.003213 0.004562 -0.000020 0.043317 -0.000009
# 6 -0.000001 -0.000001 -0.000004 0.002298 -0.000009 0.038653
#
#
# Mechanical properties :
#
#
# Convention : Reuss Voigt Hill
#
# Bulk Modulus (GPa) = 35.64440 45.24743 40.44591
# Shear Modulus (GPa) = 23.97775 28.21530 26.09653
#
# Velocity S-wave (km/s) = 3.38695 3.67407 3.53343
# Velocity P-wave (km/s) = 5.68755 6.29648 5.99975
#
# Compressibility (1/GPa) = 0.02805490
#
# Stress axis : x y z
#
# Youngs Moduli (GPa) = 32.64834 63.59693 88.52231
#
# Poissons Ratio (x) = 0.67424 0.31641
# Poissons Ratio (y) = 0.34613 0.05502
# Poissons Ratio (z) = 0.11670 0.03952
#
# Static dielectric constant tensor:
#      x y z
#    x 3.833530 0.000000 -0.285190 
#    y 0.000000 3.926710 -0.000020 
#    z -0.285190 -0.000020 3.987560 
# 
# 
# High freq. dielectric constant tensor:
#      x y z
#    x 1.810330 0.000000 -0.028020 
#    y 0.000000 1.790690 0.000000 
#    z -0.028020 0.000000 1.825140 
# 
# From -- ./inp_files/340862.got.cif
#   From: 2010.06.25/outbox.cif.g09.slc.cpg/sg12_171_cif.got.tgz:340862.got - 2010.06.28 00:19:55.
