data_PCOD8080894
_publ_section_title
;
Structure prediction by ZEFSAII (Michael W. Deem and Ramdas Pophale) SiO2 
 PCOD8080894
Probable space group: C 2/M
;
_chemical_formula_sum "Si O2"
_cell_formula_units_Z 56
_cell_length_a 23.748241
_cell_length_b 8.794725
_cell_length_c 28.381715
_cell_angle_alpha 90.000000
_cell_angle_beta 32.577043
_cell_angle_gamma 90.000000
_cell_volume 3191.715486
_symmetry_space_group_name_H-M "C 2/M"
_symmetry_group_IT_number 12
_symmetry_cell_setting 'monoclinic'
loop_
_space_group_symop_operation_xyz
x,y,z
-x,y,-z
-x,-y,-z
x,-y,z
1/2+x,1/2+y,z
1/2-x,1/2+y,-z
1/2-x,1/2-y,-z
1/2+x,1/2-y,z
loop_
_atom_site_type_symbol
_atom_site_label
_atom_site_fract_x
_atom_site_fract_y
_atom_site_fract_z
Si Si1 0.801050 0.181933 0.010069
Si Si2 0.391040 0.820979 0.677485
Si Si3 0.965581 0.824743 0.142425
Si Si4 0.217897 0.820349 0.162623
Si Si5 0.067437 0.169616 0.499145
Si Si6 0.759701 0.319684 0.678711
Si Si7 0.901877 0.337190 0.098890
O O1 0.920988 0.249219 0.926335
O O2 0.799605 0.000000 0.010315
O O3 0.750000 0.250000 0.000000
O O4 0.730942 0.238597 0.103253
O O5 0.377367 0.741843 0.738322
O O6 0.507059 0.772551 0.579549
O O7 0.304503 0.767728 0.698937
O O8 0.386715 0.000000 0.687359
O O9 0.861744 0.767302 0.243702
O O10 0.933770 0.796158 0.111316
O O11 0.980273 0.000000 0.141585
O O12 0.316476 0.771144 0.124010
O O13 0.206849 0.000000 0.161946
O O14 0.178563 0.244156 0.407975
O O15 0.000000 0.162978 0.500000
O O16 0.085061 0.000000 0.506977
O O17 0.772583 0.500000 0.666213
O O18 0.865613 0.500000 0.148286
O O19 0.000000 0.382699 0.000000
#
# Coordination Sequence:
#
# PCOD8080894 Si02
#       7
#     8   8   8   8   8   8   8
#     4  11  24  40  56  73  98 133 174 217 260 304
#     4  10  18  29  47  71 102 138 172 205 247 297
#     4  10  20  33  51  74 100 133 171 210 251 301
#     4  11  21  33  51  75 104 135 170 210 253 302
#     4   9  17  28  42  65 100 138 172 204 243 293
#     4   9  17  29  45  69 101 135 170 205 246 297
#     4  10  19  30  46  72 103 133 163 202 252 302
#
# _framework density 17.545424000000001
#
# number of rings (size 3 to 8) (size 9 to 14) (size 15 to 20)
#    0.000    2.000    2.857    1.714    0.000    4.286 
#    0.000    0.000    0.000    0.000    0.000    1.000 
#    0.000    0.000    0.000    0.000    0.000    0.000 
#
# Total GULP energy -346875.837474 kJ/mol
# GULP energy per Si atom -12388.422767 kJ/mol
# Density = 1.750549 g / cm^3
# Si number density = 17.545424 Si / 1000 Ang^3
#
#
#
# Elastic Constant Matrix: (Units=GPa)
#
#
# Indices 1 2 3 4 5 6 
#
# 1 63.3463 23.1731 48.0426 0.0020 9.4895 -0.0172
# 2 23.1731 60.3194 44.8086 0.0060 -0.5333 -0.0134
# 3 48.0426 44.8086 136.9534 -0.0001 -0.3100 0.0042
# 4 0.0020 0.0060 -0.0001 30.4518 0.0012 4.0720
# 5 9.4895 -0.5333 -0.3100 0.0012 14.0660 0.0031
# 6 -0.0172 -0.0134 0.0042 4.0720 0.0031 19.1912
#
#
#
# Elastic Compliance Matrix: (Units=1/GPa)
#
#
# Indices 1 2 3 4 5 6 
#
# 1 0.025888 -0.004395 -0.007684 -0.000004 -0.017801 0.000025
# 2 -0.004395 0.022654 -0.005862 -0.000006 0.003695 0.000014
# 3 -0.007684 -0.005862 0.011927 0.000004 0.005224 -0.000015
# 4 -0.000004 -0.000006 0.000004 0.033798 0.000001 -0.007171
# 5 -0.017801 0.003695 0.005224 0.000001 0.083358 -0.000028
# 6 0.000025 0.000014 -0.000015 -0.007171 -0.000028 0.053629
#
#
# Mechanical properties :
#
#
# Convention : Reuss Voigt Hill
#
# Bulk Modulus (GPa) = 40.67051 54.74084 47.70568
# Shear Modulus (GPa) = 18.15996 22.38146 20.27071
#
# Velocity S-wave (km/s) = 3.22067 3.57547 3.40270
# Velocity P-wave (km/s) = 6.08775 6.95072 6.53350
#
# Compressibility (1/GPa) = 0.02458784
#
# Stress axis : x y z
#
# Youngs Moduli (GPa) = 38.62773 44.14217 83.84399
#
# Poissons Ratio (x) = 0.19400 0.64424
# Poissons Ratio (y) = 0.16977 0.49148
# Poissons Ratio (z) = 0.29681 0.25876
#
# Static dielectric constant tensor:
#      x y z
#    x 2.923160 0.000000 -0.225360 
#    y 0.000000 3.279110 0.000000 
#    z -0.225360 0.000000 3.586060 
# 
# 
# High freq. dielectric constant tensor:
#      x y z
#    x 1.617120 0.000000 -0.015310 
#    y 0.000000 1.685290 0.000000 
#    z -0.015310 0.000000 1.691000 
# 
# From -- ./inp_files/348470.got.cif
#   From: 2010.06.25/outbox.cif.g09.slc.cpg/sg12_175_cif.got.tgz:348470.got - 2010.06.28 00:19:55.
