data_PCOD8080693
_publ_section_title
;
Structure prediction by ZEFSAII (Michael W. Deem and Ramdas Pophale) SiO2 
 PCOD8080693
Probable space group: C 2/M
;
_chemical_formula_sum "Si O2"
_cell_formula_units_Z 48
_cell_length_a 26.708142
_cell_length_b 8.945176
_cell_length_c 12.851048
_cell_angle_alpha 90.000000
_cell_angle_beta 96.049581
_cell_angle_gamma 90.000000
_cell_volume 3053.133516
_symmetry_space_group_name_H-M "C 2/M"
_symmetry_group_IT_number 12
_symmetry_cell_setting 'monoclinic'
loop_
_space_group_symop_operation_xyz
x,y,z
-x,y,-z
-x,-y,-z
x,-y,z
1/2+x,1/2+y,z
1/2-x,1/2+y,-z
1/2-x,1/2-y,-z
1/2+x,1/2-y,z
loop_
_atom_site_type_symbol
_atom_site_label
_atom_site_fract_x
_atom_site_fract_y
_atom_site_fract_z
Si Si1 0.625599 0.823142 0.648297
Si Si2 0.297696 0.668767 0.463735
Si Si3 0.096225 0.168582 0.448694
Si Si4 0.956575 0.824895 0.769487
Si Si5 0.440679 0.831681 0.971209
Si Si6 0.427258 0.324979 0.174892
O O1 0.681225 0.757111 0.633381
O O2 0.585867 0.767968 0.550106
O O3 0.609537 0.760943 0.755899
O O4 0.627496 0.000000 0.651933
O O5 0.282889 0.500000 0.428656
O O6 0.250000 0.750000 0.500000
O O7 0.343199 0.667857 0.558866
O O8 0.067378 0.235902 0.343101
O O9 0.076953 0.000000 0.467147
O O10 0.015560 0.787936 0.780774
O O11 0.946498 0.000000 0.781499
O O12 0.928174 0.741386 0.857183
O O13 0.415166 0.734428 0.056612
O O14 0.419317 0.000000 0.969757
O O15 0.500000 0.830024 0.000000
O O16 0.415999 0.500000 0.177052
#
# Coordination Sequence:
#
# PCOD8080693 Si02
#       6
#     8   8   8   8   8   8
#     4  10  19  30  44  65  92 118 149 183 223 268
#     4   9  17  31  49  67  89 114 144 182 222 267
#     4   8  17  31  45  64  90 117 149 183 220 267
#     4   9  17  30  46  63  87 122 157 186 218 259
#     4   9  17  28  42  62  87 116 152 190 224 256
#     4  10  18  29  45  63  88 122 157 188 218 258
#
# _framework density 15.721553
#
# number of rings (size 3 to 8) (size 9 to 14) (size 15 to 20)
#    1.000    1.833    0.000    2.500    0.000    4.000 
#    0.000    3.333    0.000    0.000    0.000    1.167 
#    0.000    0.000    0.000    0.000    0.000    0.000 
#
# Total GULP energy -297409.691800 kJ/mol
# GULP energy per Si atom -12392.070492 kJ/mol
# Density = 1.568577 g / cm^3
# Si number density = 15.721553 Si / 1000 Ang^3
#
#
#
# Elastic Constant Matrix: (Units=GPa)
#
#
# Indices 1 2 3 4 5 6 
#
# 1 39.8876 29.1031 21.5947 0.0000 -20.7580 0.0000
# 2 29.1031 115.8692 44.5724 0.0000 -24.0320 0.0000
# 3 21.5947 44.5724 79.4732 0.0000 -30.4756 0.0000
# 4 0.0000 0.0000 0.0000 29.0275 0.0000 -8.9542
# 5 -20.7580 -24.0320 -30.4756 0.0000 19.7412 0.0000
# 6 0.0000 0.0000 0.0000 -8.9542 0.0000 19.6724
#
#
#
# Elastic Compliance Matrix: (Units=1/GPa)
#
#
# Indices 1 2 3 4 5 6 
#
# 1 0.070257 -0.005166 0.023833 0.000000 0.104380 0.000000
# 2 -0.005166 0.012160 -0.004467 0.000000 0.002475 0.000000
# 3 0.023833 -0.004467 0.039550 0.000000 0.080677 0.000000
# 4 0.000000 0.000000 0.000000 0.040077 0.000000 0.018242
# 5 0.104380 0.002475 0.080677 0.000000 0.287970 0.000000
# 6 0.000000 0.000000 0.000000 0.018242 0.000000 0.059135
#
#
# Mechanical properties :
#
#
# Convention : Reuss Voigt Hill
#
# Bulk Modulus (GPa) = 6.65040 47.30782 26.97911
# Shear Modulus (GPa) = 9.41850 23.01888 16.21869
#
# Velocity S-wave (km/s) = 2.45027 3.83059 3.21537
# Velocity P-wave (km/s) = 3.49920 7.05131 5.56621
#
# Compressibility (1/GPa) = 0.15036683
#
# Stress axis : x y z
#
# Youngs Moduli (GPa) = 14.23345 82.23999 25.28473
#
# Poissons Ratio (x) = 0.42483 -0.60261
# Poissons Ratio (y) = 0.07353 0.11295
# Poissons Ratio (z) = -0.33923 0.36737
#
# Static dielectric constant tensor:
#      x y z
#    x 2.625450 0.000000 -0.062450 
#    y 0.000000 3.073350 0.000000 
#    z -0.062450 0.000000 3.012450 
# 
# 
# High freq. dielectric constant tensor:
#      x y z
#    x 1.556960 0.000000 -0.015660 
#    y 0.000000 1.615790 0.000000 
#    z -0.015660 0.000000 1.596300 
# 
# From -- ./inp_files/179282.got.cif
#   From: 2010.06.25/outbox.cif.g09.slc.cpg/sg12_90_cif.got.tgz:179282.got - 2010.06.28 00:19:55.
