data_PCOD8080249
_publ_section_title
;
Structure prediction by ZEFSAII (Michael W. Deem and Ramdas Pophale) SiO2 
 PCOD8080249
Probable space group: C 2/M
;
_chemical_formula_sum "Si O2"
_cell_formula_units_Z 32
_cell_length_a 18.550537
_cell_length_b 20.929331
_cell_length_c 5.241618
_cell_angle_alpha 90.000000
_cell_angle_beta 108.644084
_cell_angle_gamma 90.000000
_cell_volume 1928.265502
_symmetry_space_group_name_H-M "C 2/M"
_symmetry_group_IT_number 12
_symmetry_cell_setting 'monoclinic'
loop_
_space_group_symop_operation_xyz
x,y,z
-x,y,-z
-x,-y,-z
x,-y,z
1/2+x,1/2+y,z
1/2-x,1/2+y,-z
1/2-x,1/2-y,-z
1/2+x,1/2-y,z
loop_
_atom_site_type_symbol
_atom_site_label
_atom_site_fract_x
_atom_site_fract_y
_atom_site_fract_z
Si Si1 0.951918 0.926451 0.197215
Si Si2 0.662726 0.318047 0.991233
Si Si3 0.671014 0.804555 0.716692
Si Si4 0.910946 0.702255 0.885056
O O1 0.000000 0.908371 0.500000
O O2 0.926305 0.000000 0.173299
O O3 0.875435 0.884955 0.121347
O O4 0.000000 0.910840 0.000000
O O5 0.744081 0.332687 0.214109
O O6 0.607643 0.278297 0.120788
O O7 0.676245 0.273289 0.754604
O O8 0.622559 0.824930 0.416059
O O9 0.629177 0.833483 0.920674
O O10 0.000000 0.689728 0.000000
#
# Coordination Sequence:
#
# PCOD8080249 Si02
#       4
#     8   8   8   8
#     4  10  22  34  47  69  93 125 165 191 216 263
#     4   9  20  29  48  60  95 121 149 191 225 269
#     4   9  20  29  42  68  89 119 154 181 232 275
#     4  10  18  28  43  66  90 118 145 182 224 283
#
# _framework density 16.595226
#
# number of rings (size 3 to 8) (size 9 to 14) (size 15 to 20)
#    1.500    1.000    0.000    2.250    7.000    0.000 
#    0.000    0.000    0.000    0.000    0.000    0.000 
#    0.000    6.000    0.000    0.000    0.000    0.000 
#
# Total GULP energy -198255.865817 kJ/mol
# GULP energy per Si atom -12390.991614 kJ/mol
# Density = 1.655745 g / cm^3
# Si number density = 16.595226 Si / 1000 Ang^3
#
#
#
# Elastic Constant Matrix: (Units=GPa)
#
#
# Indices 1 2 3 4 5 6 
#
# 1 95.3381 35.6818 59.4193 0.0000 23.4851 0.0000
# 2 35.6818 49.3903 26.3905 0.0000 12.2503 0.0000
# 3 59.4193 26.3905 153.6239 0.0000 8.5605 0.0000
# 4 0.0000 0.0000 0.0000 -3.4981 0.0000 14.3036
# 5 23.4851 12.2503 8.5605 0.0000 35.7260 0.0000
# 6 0.0000 0.0000 0.0000 14.3036 0.0000 21.1674
#
#
#
# Elastic Compliance Matrix: (Units=1/GPa)
#
#
# Indices 1 2 3 4 5 6 
#
# 1 0.019289 -0.008960 -0.005459 0.000000 -0.008300 0.000000
# 2 -0.008960 0.028223 -0.001188 0.000000 -0.003503 0.000000
# 3 -0.005459 -0.001188 0.008719 0.000000 0.001907 0.000000
# 4 0.000000 0.000000 0.000000 -0.075967 0.000000 0.051334
# 5 -0.008300 -0.003503 0.001907 0.000000 0.034191 0.000000
# 6 0.000000 0.000000 0.000000 0.051334 0.000000 0.012554
#
#
# Mechanical properties :
#
#
# Convention : Reuss Voigt Hill
#
# Bulk Modulus (GPa) = 39.97116 60.14839 50.05978
# Shear Modulus (GPa) = 75.11749 22.46978 48.79364
#
# Velocity S-wave (km/s) = 6.73519 3.68365 5.42826
# Velocity P-wave (km/s) = 9.19902 7.37668 8.33779
#
# Compressibility (1/GPa) = 0.02501804
#
# Stress axis : x y z
#
# Youngs Moduli (GPa) = 51.84228 35.43157 114.69644
#
# Poissons Ratio (x) = 0.31746 0.62614
# Poissons Ratio (y) = 0.46450 0.13622
# Poissons Ratio (z) = 0.28301 0.04208
#
# Static dielectric constant tensor:
#      x y z
#    x 3.047230 0.000000 -0.012270 
#    y 0.000000 2.568480 0.000000 
#    z -0.012270 0.000000 3.145950 
# 
# 
# High freq. dielectric constant tensor:
#      x y z
#    x 1.644690 0.000000 0.001840 
#    y 0.000000 1.567380 0.000000 
#    z 0.001840 0.000000 1.649830 
# 
# From -- ./inp_files/15442.got.cif
#   From: 2010.06.25/outbox.cif.g09.slc.cpg/sg12_8_cif.got.tgz:15442.got - 2010.06.28 00:19:55.
