data_PCOD8080469
_publ_section_title
;
Structure prediction by ZEFSAII (Michael W. Deem and Ramdas Pophale) SiO2 
 PCOD8080469
Probable space group: C 2/M
;
_chemical_formula_sum "Si O2"
_cell_formula_units_Z 56
_cell_length_a 23.135862
_cell_length_b 12.850496
_cell_length_c 12.195282
_cell_angle_alpha 90.000000
_cell_angle_beta 122.898725
_cell_angle_gamma 90.000000
_cell_volume 3044.292517
_symmetry_space_group_name_H-M "C 2/M"
_symmetry_group_IT_number 12
_symmetry_cell_setting 'monoclinic'
loop_
_space_group_symop_operation_xyz
x,y,z
-x,y,-z
-x,-y,-z
x,-y,z
1/2+x,1/2+y,z
1/2-x,1/2+y,-z
1/2-x,1/2-y,-z
1/2+x,1/2-y,z
loop_
_atom_site_type_symbol
_atom_site_label
_atom_site_fract_x
_atom_site_fract_y
_atom_site_fract_z
Si Si1 0.867822 0.201623 0.909799
Si Si2 0.062458 0.880996 0.806719
Si Si3 0.302399 0.123255 0.965486
Si Si4 0.334862 0.751308 0.205551
Si Si5 0.227416 0.114783 0.512653
Si Si6 0.583100 0.378718 0.254844
Si Si7 0.268988 0.194834 0.341748
O O1 0.856492 0.320920 0.937898
O O2 0.918437 0.191406 0.857417
O O3 0.794186 0.153392 0.797467
O O4 0.894770 0.131995 0.037312
O O5 0.093455 0.807666 0.743528
O O6 0.983408 0.847569 0.743037
O O7 0.067432 0.000000 0.773139
O O8 0.225805 0.165783 0.865229
O O9 0.305832 0.000000 0.952289
O O10 0.323898 0.153219 0.111215
O O11 0.335583 0.798206 0.330675
O O12 0.150289 0.145926 0.396092
O O13 0.278262 0.122064 0.458383
O O14 0.251467 0.190466 0.633599
O O15 0.230866 0.000000 0.565594
O O16 0.580807 0.500000 0.218218
#
# Coordination Sequence:
#
# PCOD8080469 Si02
#       7
#     8   8   8   8   8   8   8
#     4   9  17  28  45  68  94 123 154 189 230 269
#     4  10  18  28  46  73 102 128 151 179 226 288
#     4   9  17  29  44  66  95 123 154 190 230 279
#     4   9  18  29  44  67  95 125 151 186 233 278
#     4   9  18  32  49  68  91 119 154 195 232 270
#     4   9  17  30  48  70  97 127 156 187 226 277
#     4   9  18  31  45  66  92 118 153 191 231 271
#
# _framework density 18.395078999999999
#
# number of rings (size 3 to 8) (size 9 to 14) (size 15 to 20)
#    0.000    2.857    0.000    2.143    0.000    5.143 
#    0.000    4.286    0.000    9.429    0.000    0.000 
#    0.000   14.857    0.000    0.000    0.000    0.000 
#
# Total GULP energy -346997.161621 kJ/mol
# GULP energy per Si atom -12392.755772 kJ/mol
# Density = 1.835321 g / cm^3
# Si number density = 18.395079 Si / 1000 Ang^3
#
#
#
# Elastic Constant Matrix: (Units=GPa)
#
#
# Indices 1 2 3 4 5 6 
#
# 1 110.6245 24.5330 21.8907 0.0000 -20.9007 0.0000
# 2 24.5330 64.2182 -3.4212 0.0000 2.6902 0.0000
# 3 21.8907 -3.4212 39.8551 0.0000 -11.7374 0.0000
# 4 0.0000 0.0000 0.0000 12.5961 0.0000 -1.8032
# 5 -20.9007 2.6902 -11.7374 0.0000 18.0050 0.0000
# 6 0.0000 0.0000 0.0000 -1.8032 0.0000 26.6009
#
#
#
# Elastic Compliance Matrix: (Units=1/GPa)
#
#
# Indices 1 2 3 4 5 6 
#
# 1 0.013915 -0.006132 -0.003889 0.000000 0.014534 0.000000
# 2 -0.006132 0.018393 0.002526 0.000000 -0.008219 0.000000
# 3 -0.003889 0.002526 0.032182 0.000000 0.016087 0.000000
# 4 0.000000 0.000000 0.000000 0.080168 0.000000 0.005434
# 5 0.014534 -0.008219 0.016087 0.000000 0.084127 0.000000
# 6 0.000000 0.000000 0.000000 0.005434 0.000000 0.037961
#
#
# Mechanical properties :
#
#
# Convention : Reuss Voigt Hill
#
# Bulk Modulus (GPa) = 20.20180 33.41141 26.80660
# Shear Modulus (GPa) = 16.76531 22.88675 19.82603
#
# Velocity S-wave (km/s) = 3.02222 3.53112 3.28653
# Velocity P-wave (km/s) = 4.81502 5.90150 5.38573
#
# Compressibility (1/GPa) = 0.04950053
#
# Stress axis : x y z
#
# Youngs Moduli (GPa) = 71.86529 54.36742 31.07375
#
# Poissons Ratio (x) = 0.33337 0.12085
# Poissons Ratio (y) = 0.44067 -0.07850
# Poissons Ratio (z) = 0.27948 -0.13734
#
# Static dielectric constant tensor:
#      x y z
#    x 3.515000 0.000000 -0.286270 
#    y 0.000000 3.212110 0.000000 
#    z -0.286270 0.000000 3.293010 
# 
# 
# High freq. dielectric constant tensor:
#      x y z
#    x 1.696930 0.000000 -0.024670 
#    y 0.000000 1.692060 0.000000 
#    z -0.024670 0.000000 1.701000 
# 
# From -- ./inp_files/173995.got.cif
#   From: 2010.06.25/outbox.cif.g09.slc.cpg/sg12_87_cif.got.tgz:173995.got - 2010.06.28 00:19:55.
