data_PCOD8080390
_publ_section_title
;
Structure prediction by ZEFSAII (Michael W. Deem and Ramdas Pophale) SiO2 
 PCOD8080390
Probable space group: C 2/M
;
_chemical_formula_sum "Si O2"
_cell_formula_units_Z 56
_cell_length_a 19.278388
_cell_length_b 13.737940
_cell_length_c 14.007497
_cell_angle_alpha 90.000000
_cell_angle_beta 71.796844
_cell_angle_gamma 90.000000
_cell_volume 3524.161745
_symmetry_space_group_name_H-M "C 2/M"
_symmetry_group_IT_number 12
_symmetry_cell_setting 'monoclinic'
loop_
_space_group_symop_operation_xyz
x,y,z
-x,y,-z
-x,-y,-z
x,-y,z
1/2+x,1/2+y,z
1/2-x,1/2+y,-z
1/2-x,1/2-y,-z
1/2+x,1/2-y,z
loop_
_atom_site_type_symbol
_atom_site_label
_atom_site_fract_x
_atom_site_fract_y
_atom_site_fract_z
Si Si1 0.874891 0.610401 0.431277
Si Si2 0.522978 0.783583 0.328079
Si Si3 0.459988 0.884587 0.870955
Si Si4 0.105014 0.613804 0.908869
Si Si5 0.150264 0.764423 0.417565
Si Si6 0.950413 0.893558 0.428661
Si Si7 0.778922 0.388437 0.287565
O O1 0.873774 0.500000 0.467273
O O2 0.826160 0.672608 0.527188
O O3 0.840118 0.620776 0.342060
O O4 0.958877 0.645619 0.392814
O O5 0.558214 0.822962 0.215560
O O6 0.586696 0.777324 0.378105
O O7 0.488447 0.674984 0.332453
O O8 0.537589 0.844670 0.876191
O O9 0.459654 0.000000 0.847356
O O10 0.399379 0.856430 0.977499
O O11 0.092269 0.500000 0.908333
O O12 0.182528 0.642138 0.828930
O O13 0.125356 0.847777 0.502693
O O14 0.215197 0.809952 0.327872
O O15 0.000000 0.902686 0.500000
O O16 0.936469 0.000000 0.389096
O O17 0.748851 0.500000 0.296215
#
# Coordination Sequence:
#
# PCOD8080390 Si02
#       7
#     8   8   8   8   8   8   8
#     4  10  19  31  47  68  95 126 158 188 223 276
#     4  10  18  28  45  70  95 122 154 189 234 275
#     4   9  15  27  47  72  96 115 148 193 236 280
#     4   8  15  27  47  71  91 116 151 193 236 273
#     4  10  20  29  42  68  99 126 151 183 232 284
#     4   8  15  28  42  58  86 122 158 189 212 252
#     4  10  18  31  49  68  92 122 155 195 234 266
#
# _framework density 15.890304
#
# number of rings (size 3 to 8) (size 9 to 14) (size 15 to 20)
#    0.000    2.714    1.429    3.429    0.000    2.286 
#    0.000    0.714    0.000    0.000    0.000    3.000 
#    0.000    0.000    0.000    0.000    0.000    0.000 
#
# Total GULP energy -346945.419672 kJ/mol
# GULP energy per Si atom -12390.907845 kJ/mol
# Density = 1.585414 g / cm^3
# Si number density = 15.890304 Si / 1000 Ang^3
#
#
#
# Elastic Constant Matrix: (Units=GPa)
#
#
# Indices 1 2 3 4 5 6 
#
# 1 41.9358 22.3618 20.4568 0.0000 -11.9406 0.0000
# 2 22.3618 99.9512 51.2547 0.0000 -5.7283 0.0000
# 3 20.4568 51.2547 108.4612 0.0000 -12.6292 0.0000
# 4 0.0000 0.0000 0.0000 23.7436 0.0000 -5.9400
# 5 -11.9406 -5.7283 -12.6292 0.0000 20.2927 0.0000
# 6 0.0000 0.0000 0.0000 -5.9400 0.0000 12.5308
#
#
#
# Elastic Compliance Matrix: (Units=1/GPa)
#
#
# Indices 1 2 3 4 5 6 
#
# 1 0.032202 -0.005450 -0.001586 0.000000 0.016423 0.000000
# 2 -0.005450 0.014128 -0.005992 0.000000 -0.002948 0.000000
# 3 -0.001586 -0.005992 0.012986 0.000000 0.005457 0.000000
# 4 0.000000 0.000000 0.000000 0.047783 0.000000 0.022651
# 5 0.016423 -0.002948 0.005457 0.000000 0.061507 0.000000
# 6 0.000000 0.000000 0.000000 0.022651 0.000000 0.090541
#
#
# Mechanical properties :
#
#
# Convention : Reuss Voigt Hill
#
# Bulk Modulus (GPa) = 30.06559 48.72163 39.39361
# Shear Modulus (GPa) = 16.87547 21.73172 19.30360
#
# Velocity S-wave (km/s) = 3.26237 3.70213 3.48918
# Velocity P-wave (km/s) = 5.75782 7.00015 6.40916
#
# Compressibility (1/GPa) = 0.03326061
#
# Stress axis : x y z
#
# Youngs Moduli (GPa) = 31.05412 70.78285 77.00710
#
# Poissons Ratio (x) = 0.38577 0.12212
# Poissons Ratio (y) = 0.16925 0.46139
# Poissons Ratio (z) = 0.04925 0.42410
#
# Static dielectric constant tensor:
#      x y z
#    x 2.790310 0.000000 -0.171260 
#    y 0.000000 3.129990 0.000000 
#    z -0.171260 0.000000 3.343310 
# 
# 
# High freq. dielectric constant tensor:
#      x y z
#    x 1.584100 0.000000 -0.008480 
#    y 0.000000 1.596820 0.000000 
#    z -0.008480 0.000000 1.602770 
# 
# From -- ./inp_files/224276.got.cif
#   From: 2010.06.25/outbox.cif.g09.slc.cpg/sg12_113_cif.got.tgz:224276.got - 2010.06.28 00:19:55.
