data_PCOD8080876
_publ_section_title
;
Structure prediction by ZEFSAII (Michael W. Deem and Ramdas Pophale) SiO2 
 PCOD8080876
Probable space group: C 2/M
;
_chemical_formula_sum "Si O2"
_cell_formula_units_Z 56
_cell_length_a 28.151140
_cell_length_b 17.384362
_cell_length_c 22.425836
_cell_angle_alpha 90.000000
_cell_angle_beta 17.951516
_cell_angle_gamma 90.000000
_cell_volume 3382.618831
_symmetry_space_group_name_H-M "C 2/M"
_symmetry_group_IT_number 12
_symmetry_cell_setting 'monoclinic'
loop_
_space_group_symop_operation_xyz
x,y,z
-x,y,-z
-x,-y,-z
x,-y,z
1/2+x,1/2+y,z
1/2-x,1/2+y,-z
1/2-x,1/2-y,-z
1/2+x,1/2-y,z
loop_
_atom_site_type_symbol
_atom_site_label
_atom_site_fract_x
_atom_site_fract_y
_atom_site_fract_z
Si Si1 0.836318 0.794539 0.182266
Si Si2 0.220047 0.722432 0.969207
Si Si3 0.806958 0.909695 0.324358
Si Si4 0.983389 0.746892 0.453519
Si Si5 0.609479 0.349432 0.013776
Si Si6 0.966236 0.586391 0.766419
Si Si7 0.399877 0.083388 0.710526
O O1 0.826368 0.868216 0.237608
O O2 0.688610 0.738223 0.368027
O O3 0.828941 0.819134 0.122693
O O4 0.000000 0.751625 0.000000
O O5 0.389381 0.711182 0.738499
O O6 0.250000 0.750000 0.000000
O O7 0.118825 0.782294 0.052000
O O8 0.125684 0.642809 0.079704
O O9 0.644736 0.888371 0.548287
O O10 0.936977 0.881955 0.215565
O O11 0.819372 0.000000 0.296468
O O12 0.002949 0.653726 0.432378
O O13 0.000000 0.780480 0.500000
O O14 0.725119 0.416877 0.895299
O O15 0.953084 0.500000 0.807848
O O16 0.888650 0.592977 0.794706
O O17 0.475831 0.000000 0.603941
#
# Coordination Sequence:
#
# PCOD8080876 Si02
#       7
#     8   8   8   8   8   8   8
#     4  10  19  31  45  72 107 136 170 201 245 306
#     4  11  19  34  56  74 101 136 174 225 265 299
#     4  10  20  33  48  73 115 148 169 203 247 304
#     4  11  19  33  49  74 101 133 176 216 258 304
#     4  10  20  31  48  74 102 139 178 208 241 304
#     4  10  20  34  51  73 101 137 173 212 262 310
#     4  10  18  29  47  70 102 136 170 203 243 302
#
# _framework density 16.555221
#
# number of rings (size 3 to 8) (size 9 to 14) (size 15 to 20)
#    0.000    1.714    7.143    0.429    0.000    4.000 
#    0.000    0.000    0.000    0.429    0.000    0.000 
#    0.000    5.714    0.000    0.000    0.000    0.000 
#
# Total GULP energy -347006.292925 kJ/mol
# GULP energy per Si atom -12393.081890 kJ/mol
# Density = 1.651754 g / cm^3
# Si number density = 16.555221 Si / 1000 Ang^3
#
#
#
# Elastic Constant Matrix: (Units=GPa)
#
#
# Indices 1 2 3 4 5 6 
#
# 1 87.2707 20.9905 53.4129 -0.0038 -15.2049 0.0033
# 2 20.9905 39.6205 28.2624 0.0028 4.8330 0.0003
# 3 53.4129 28.2624 127.1183 -0.0013 -14.3809 0.0033
# 4 -0.0038 0.0028 -0.0013 21.1185 0.0045 2.1184
# 5 -15.2049 4.8330 -14.3809 0.0045 34.5101 -0.0037
# 6 0.0033 0.0003 0.0033 2.1184 -0.0037 16.8915
#
#
#
# Elastic Compliance Matrix: (Units=1/GPa)
#
#
# Indices 1 2 3 4 5 6 
#
# 1 0.017192 -0.006221 -0.005127 0.000002 0.006309 -0.000001
# 2 -0.006221 0.034122 -0.006112 -0.000004 -0.010066 0.000000
# 3 -0.005127 -0.006112 0.011776 0.000000 0.003504 0.000000
# 4 0.000002 -0.000004 0.000000 0.047955 -0.000005 -0.006014
# 5 0.006309 -0.010066 0.003504 -0.000005 0.034627 0.000006
# 6 -0.000001 0.000000 0.000000 -0.006014 0.000006 0.059956
#
#
# Mechanical properties :
#
#
# Convention : Reuss Voigt Hill
#
# Bulk Modulus (GPa) = 35.49556 51.03790 43.26673
# Shear Modulus (GPa) = 20.00503 24.59359 22.29931
#
# Velocity S-wave (km/s) = 3.47995 3.85846 3.67408
# Velocity P-wave (km/s) = 6.13465 7.12363 6.64756
#
# Compressibility (1/GPa) = 0.02817254
#
# Stress axis : x y z
#
# Youngs Moduli (GPa) = 58.16693 29.30620 84.91728
#
# Poissons Ratio (x) = 0.18230 0.43537
# Poissons Ratio (y) = 0.36183 0.51897
# Poissons Ratio (z) = 0.29822 0.17911
#
# Static dielectric constant tensor:
#      x y z
#    x 3.217500 0.000000 -0.275030 
#    y 0.000000 2.895710 0.000010 
#    z -0.275030 0.000010 3.318340 
# 
# 
# High freq. dielectric constant tensor:
#      x y z
#    x 1.641730 0.000000 -0.019520 
#    y 0.000000 1.591330 0.000000 
#    z -0.019520 0.000000 1.642810 
# 
# From -- ./inp_files/76891.got.cif
#   From: 2010.06.25/outbox.cif.g09.slc.cpg/sg12_39_cif.got.tgz:76891.got - 2010.06.28 00:19:55.
