data_PCOD8080414
_publ_section_title
;
Structure prediction by ZEFSAII (Michael W. Deem and Ramdas Pophale) SiO2 
 PCOD8080414
Probable space group: C 2/M
;
_chemical_formula_sum "Si O2"
_cell_formula_units_Z 64
_cell_length_a 24.761391
_cell_length_b 8.766190
_cell_length_c 23.885477
_cell_angle_alpha 90.000000
_cell_angle_beta 46.249657
_cell_angle_gamma 90.000000
_cell_volume 3745.186236
_symmetry_space_group_name_H-M "C 2/M"
_symmetry_group_IT_number 12
_symmetry_cell_setting 'monoclinic'
loop_
_space_group_symop_operation_xyz
x,y,z
-x,y,-z
-x,-y,-z
x,-y,z
1/2+x,1/2+y,z
1/2-x,1/2+y,-z
1/2-x,1/2-y,-z
1/2+x,1/2-y,z
loop_
_atom_site_type_symbol
_atom_site_label
_atom_site_fract_x
_atom_site_fract_y
_atom_site_fract_z
Si Si1 0.274382 0.320860 0.924173
Si Si2 0.913969 0.321777 0.334583
Si Si3 0.299045 0.320807 0.331504
Si Si4 0.071808 0.677351 0.178120
Si Si5 0.970937 0.677176 0.917514
Si Si6 0.641401 0.178285 0.818563
Si Si7 0.194006 0.324142 0.498037
Si Si8 0.157941 0.821209 0.924230
O O1 0.266433 0.500000 0.935167
O O2 0.359199 0.275590 0.848876
O O3 0.221467 0.264500 0.913000
O O4 0.250000 0.250000 0.000000
O O5 0.903097 0.500000 0.326257
O O6 0.865711 0.223059 0.326014
O O7 0.889283 0.289641 0.417625
O O8 0.000653 0.277138 0.267001
O O9 0.304739 0.500000 0.313814
O O10 0.304304 0.225184 0.270952
O O11 0.217702 0.275005 0.417837
O O12 0.091709 0.500000 0.169888
O O13 0.055320 0.719358 0.125760
O O14 0.957687 0.500000 0.940374
O O15 0.057158 0.721639 0.861993
O O16 0.924060 0.774715 0.995388
O O17 0.666548 0.274438 0.853855
O O18 0.649843 0.000000 0.825356
O O19 0.211643 0.500000 0.489081
O O20 0.250000 0.250000 0.500000
O O21 0.169439 0.000000 0.922956
#
# Coordination Sequence:
#
# PCOD8080414 Si02
#       8
#     8   8   8   8   8   8   8   8
#     4  12  24  39  57  76  99 132 171 215 260 305
#     4   9  16  30  49  71 102 139 173 205 251 306
#     4  10  18  28  45  73 106 137 171 211 250 295
#     4  10  19  33  54  78 103 135 173 213 254 301
#     4  10  20  35  54  75 103 138 173 209 252 303
#     4  11  22  37  54  74 103 141 176 209 251 307
#     4   8  15  26  43  68 100 136 170 204 245 297
#     4  12  25  39  55  76 100 132 172 218 260 303
#
# _framework density 17.088602999999999
#
# number of rings (size 3 to 8) (size 9 to 14) (size 15 to 20)
#    0.000    1.750    2.500    3.375    0.000    3.500 
#    0.000    0.000    0.000    0.000    0.000    0.875 
#    0.000    7.000    0.000    0.000    0.000    0.000 
#
# Total GULP energy -396668.778557 kJ/mol
# GULP energy per Si atom -12395.899330 kJ/mol
# Density = 1.704971 g / cm^3
# Si number density = 17.088603 Si / 1000 Ang^3
#
#
#
# Elastic Constant Matrix: (Units=GPa)
#
#
# Indices 1 2 3 4 5 6 
#
# 1 55.5383 26.7275 36.8741 -0.0014 2.8921 0.0019
# 2 26.7275 72.9019 38.5685 -0.0030 -0.0471 0.0100
# 3 36.8741 38.5685 146.4137 0.0005 -2.4803 0.0013
# 4 -0.0014 -0.0030 0.0005 24.4049 -0.0003 1.2507
# 5 2.8921 -0.0471 -2.4803 -0.0003 17.5485 -0.0018
# 6 0.0019 0.0100 0.0013 1.2507 -0.0018 24.2261
#
#
#
# Elastic Compliance Matrix: (Units=1/GPa)
#
#
# Indices 1 2 3 4 5 6 
#
# 1 0.024393 -0.006570 -0.004492 0.000001 -0.004673 0.000001
# 2 -0.006570 0.017713 -0.002999 0.000002 0.000706 -0.000007
# 3 -0.004492 -0.002999 0.008785 -0.000001 0.001974 0.000001
# 4 0.000001 0.000002 -0.000001 0.041084 0.000000 -0.002121
# 5 -0.004673 0.000706 0.001974 0.000000 0.058036 0.000004
# 6 0.000001 -0.000007 0.000001 -0.002121 0.000004 0.041387
#
#
# Mechanical properties :
#
#
# Convention : Reuss Voigt Hill
#
# Bulk Modulus (GPa) = 43.91991 53.24377 48.58184
# Shear Modulus (GPa) = 22.01582 24.74815 23.38199
#
# Velocity S-wave (km/s) = 3.59323 3.80968 3.70304
# Velocity P-wave (km/s) = 6.55532 7.11173 6.83918
#
# Compressibility (1/GPa) = 0.02276872
#
# Stress axis : x y z
#
# Youngs Moduli (GPa) = 40.99565 56.45590 113.83307
#
# Poissons Ratio (x) = 0.37089 0.51132
# Poissons Ratio (y) = 0.26932 0.34144
# Poissons Ratio (z) = 0.18415 0.16934
#
# Static dielectric constant tensor:
#      x y z
#    x 3.038060 -0.000010 -0.098580 
#    y -0.000010 3.196780 0.000000 
#    z -0.098580 0.000000 3.790330 
# 
# 
# High freq. dielectric constant tensor:
#      x y z
#    x 1.617320 0.000000 -0.004570 
#    y 0.000000 1.665760 0.000000 
#    z -0.004570 0.000000 1.675220 
# 
# From -- ./inp_files/324102.got.cif
#   From: 2010.06.25/outbox.cif.g09.slc.cpg/sg12_163_cif.got.tgz:324102.got - 2010.06.28 00:19:55.
