data_PCOD8080010
_publ_section_title
;
Structure prediction by ZEFSAII (Michael W. Deem and Ramdas Pophale) SiO2 
 PCOD8080010
Probable space group: C 2/M
;
_chemical_formula_sum "Si O2"
_cell_formula_units_Z 48
_cell_length_a 26.169229
_cell_length_b 9.090416
_cell_length_c 11.557920
_cell_angle_alpha 90.000000
_cell_angle_beta 90.995271
_cell_angle_gamma 90.000000
_cell_volume 2749.089277
_symmetry_space_group_name_H-M "C 2/M"
_symmetry_group_IT_number 12
_symmetry_cell_setting 'monoclinic'
loop_
_space_group_symop_operation_xyz
x,y,z
-x,y,-z
-x,-y,-z
x,-y,z
1/2+x,1/2+y,z
1/2-x,1/2+y,-z
1/2-x,1/2-y,-z
1/2+x,1/2-y,z
loop_
_atom_site_type_symbol
_atom_site_label
_atom_site_fract_x
_atom_site_fract_y
_atom_site_fract_z
Si Si1 0.207072 0.171737 0.647438
Si Si2 0.187583 0.829001 0.383513
Si Si3 0.370596 0.338881 0.162253
Si Si4 0.295589 0.338078 0.950263
Si Si5 0.132090 0.673618 0.201549
Si Si6 0.057995 0.326426 0.994876
O O1 0.183591 0.197291 0.520028
O O2 0.259624 0.260501 0.663718
O O3 0.164270 0.230877 0.736825
O O4 0.218771 0.000000 0.671752
O O5 0.136089 0.751492 0.327841
O O6 0.186954 0.000000 0.351272
O O7 0.391091 0.500000 0.202894
O O8 0.337732 0.360209 0.047697
O O9 0.417791 0.237279 0.123027
O O10 0.279173 0.500000 0.902957
O O11 0.315399 0.234171 0.849626
O O12 0.250000 0.250000 0.000000
O O13 0.133072 0.500000 0.217254
O O14 0.085239 0.723154 0.116680
O O15 0.062054 0.500000 0.982769
O O16 0.000000 0.270655 0.000000
#
# Coordination Sequence:
#
# PCOD8080010 Si02
#       6
#     8   8   8   8   8   8
#     4   9  18  32  48  69 100 133 162 193 229 271
#     4  10  19  30  47  71  99 131 165 196 226 270
#     4   9  18  31  47  68  93 121 153 190 233 281
#     4  10  18  27  42  66  95 123 152 187 229 280
#     4  10  19  31  47  66  92 124 156 193 237 283
#     4   9  19  35  53  72  92 116 151 198 248 291
#
# _framework density 17.460328000000001
#
# number of rings (size 3 to 8) (size 9 to 14) (size 15 to 20)
#    0.000    2.500    0.000    2.500    0.000    4.333 
#    0.000    0.000    0.000    1.000    0.000    7.000 
#    0.000    0.000    0.000    0.000    0.000    0.000 
#
# Total GULP energy -297352.433307 kJ/mol
# GULP energy per Si atom -12389.684721 kJ/mol
# Density = 1.742059 g / cm^3
# Si number density = 17.460328 Si / 1000 Ang^3
#
#
#
# Elastic Constant Matrix: (Units=GPa)
#
#
# Indices 1 2 3 4 5 6 
#
# 1 78.3620 44.1732 35.6671 0.0000 -2.4940 0.0000
# 2 44.1732 71.0149 35.5614 0.0000 4.9999 0.0000
# 3 35.6671 35.5614 88.3956 0.0000 1.1430 0.0000
# 4 0.0000 0.0000 0.0000 27.2208 0.0000 -0.2274
# 5 -2.4940 4.9999 1.1430 0.0000 25.8641 0.0000
# 6 0.0000 0.0000 0.0000 -0.2274 0.0000 22.4598
#
#
#
# Elastic Compliance Matrix: (Units=1/GPa)
#
#
# Indices 1 2 3 4 5 6 
#
# 1 0.021202 -0.011507 -0.003983 0.000000 0.004445 0.000000
# 2 -0.011507 0.024130 -0.004993 0.000000 -0.005554 0.000000
# 3 -0.003983 -0.004993 0.014930 0.000000 -0.000079 0.000000
# 4 0.000000 0.000000 0.000000 0.036740 0.000000 0.000372
# 5 0.004445 -0.005554 -0.000079 0.000000 0.040169 0.000000
# 6 0.000000 0.000000 0.000000 0.000372 0.000000 0.044528
#
#
# Mechanical properties :
#
#
# Convention : Reuss Voigt Hill
#
# Bulk Modulus (GPa) = 51.82307 52.06399 51.94353
# Shear Modulus (GPa) = 21.82485 23.26700 22.54593
#
# Velocity S-wave (km/s) = 3.53932 3.65439 3.59732
# Velocity P-wave (km/s) = 6.81523 6.90574 6.86063
#
# Compressibility (1/GPa) = 0.01929642
#
# Stress axis : x y z
#
# Youngs Moduli (GPa) = 47.16501 41.44179 66.98071
#
# Poissons Ratio (x) = 0.47685 0.26681
# Poissons Ratio (y) = 0.54271 0.33443
# Poissons Ratio (z) = 0.18787 0.20691
#
# Static dielectric constant tensor:
#      x y z
#    x 2.938310 0.000000 -0.038200 
#    y 0.000000 3.454680 0.000000 
#    z -0.038200 0.000000 3.306760 
# 
# 
# High freq. dielectric constant tensor:
#      x y z
#    x 1.638140 0.000000 0.005870 
#    y 0.000000 1.681340 0.000000 
#    z 0.005870 0.000000 1.678280 
# 
# From -- ./inp_files/172428.got.cif
#   From: 2010.06.25/outbox.cif.g09.slc.cpg/sg12_87_cif.got.tgz:172428.got - 2010.06.28 00:19:55.
