data_PCOD8080652
_publ_section_title
;
Structure prediction by ZEFSAII (Michael W. Deem and Ramdas Pophale) SiO2 
 PCOD8080652
Probable space group: C 2/M
;
_chemical_formula_sum "Si O2"
_cell_formula_units_Z 56
_cell_length_a 14.054838
_cell_length_b 28.485240
_cell_length_c 9.734980
_cell_angle_alpha 90.000000
_cell_angle_beta 111.723690
_cell_angle_gamma 90.000000
_cell_volume 3620.653582
_symmetry_space_group_name_H-M "C 2/M"
_symmetry_group_IT_number 12
_symmetry_cell_setting 'monoclinic'
loop_
_space_group_symop_operation_xyz
x,y,z
-x,y,-z
-x,-y,-z
x,-y,z
1/2+x,1/2+y,z
1/2-x,1/2+y,-z
1/2-x,1/2-y,-z
1/2+x,1/2-y,z
loop_
_atom_site_type_symbol
_atom_site_label
_atom_site_fract_x
_atom_site_fract_y
_atom_site_fract_z
Si Si1 0.190161 0.304887 0.584530
Si Si2 0.404660 0.000000 0.045872
Si Si3 0.102610 0.600998 0.964632
Si Si4 0.111550 0.250314 0.784919
Si Si5 0.379860 0.756989 0.714196
Si Si6 0.403729 0.000000 0.353953
Si Si7 0.103353 0.602340 0.643514
Si Si8 0.797947 0.307165 0.926726
O O1 0.117597 0.270441 0.634452
O O2 0.308325 0.288807 0.659082
O O3 0.150133 0.298182 0.408312
O O4 0.182568 0.358977 0.628316
O O5 0.344796 0.950861 0.989267
O O6 0.447178 0.000000 0.223144
O O7 0.500000 0.000000 0.000000
O O8 0.077889 0.611346 0.790799
O O9 0.185214 0.637109 0.069509
O O10 0.000000 0.605494 0.000000
O O11 0.177688 0.202460 0.835091
O O12 0.995514 0.239082 0.761100
O O13 0.165934 0.289955 0.905398
O O14 0.368859 0.779563 0.857409
O O15 0.500000 0.000000 0.500000
O O16 0.345029 0.049913 0.348066
O O17 0.000000 0.606929 0.500000
#
# Coordination Sequence:
#
# PCOD8080652 Si02
#       8
#     8   4   8   8   8   4   8   8
#     4  10  20  30  46  65  85 115 150 174 217 263
#     4   8  16  28  42  60  85 113 142 176 217 259
#     4  10  18  29  44  64  88 116 146 179 217 259
#     4  10  18  32  44  61  88 114 143 182 212 247
#     4  10  20  32  44  63  88 116 145 182 214 252
#     4   8  16  28  42  62  83 111 144 176 217 259
#     4  10  18  29  45  63  88 116 145 180 217 260
#     4  10  20  28  44  65  85 114 149 173 210 261
#
# _framework density 15.466820999999999
#
# number of rings (size 3 to 8) (size 9 to 14) (size 15 to 20)
#    0.000    2.286    1.429    2.571    2.000    0.000 
#    0.000    0.000    0.000    0.000    0.000    1.000 
#    0.000    3.429    0.000   10.429    0.000    0.000 
#
# Total GULP energy -346922.164449 kJ/mol
# GULP energy per Si atom -12390.077302 kJ/mol
# Density = 1.543162 g / cm^3
# Si number density = 15.466821 Si / 1000 Ang^3
#
#
#
# Elastic Constant Matrix: (Units=GPa)
#
#
# Indices 1 2 3 4 5 6 
#
# 1 89.8238 48.1951 15.2582 0.0000 1.4903 0.0000
# 2 48.1951 143.4563 24.5145 0.0000 4.4820 0.0000
# 3 15.2582 24.5145 44.2029 0.0000 -4.7976 0.0000
# 4 0.0000 0.0000 0.0000 18.4483 0.0000 -1.3362
# 5 1.4903 4.4820 -4.7976 0.0000 16.7712 0.0000
# 6 0.0000 0.0000 0.0000 -1.3362 0.0000 20.9612
#
#
#
# Elastic Compliance Matrix: (Units=1/GPa)
#
#
# Indices 1 2 3 4 5 6 
#
# 1 0.013823 -0.004183 -0.002542 0.000000 -0.000838 0.000000
# 2 -0.004183 0.009157 -0.003983 0.000000 -0.003215 0.000000
# 3 -0.002542 -0.003983 0.026678 0.000000 0.008922 0.000000
# 4 0.000000 0.000000 0.000000 0.054457 0.000000 0.003471
# 5 -0.000838 -0.003215 0.008922 0.000000 0.063112 0.000000
# 6 0.000000 0.000000 0.000000 0.003471 0.000000 0.047929
#
#
# Mechanical properties :
#
#
# Convention : Reuss Voigt Hill
#
# Bulk Modulus (GPa) = 35.41059 50.37985 42.89522
# Shear Modulus (GPa) = 20.32617 23.87048 22.09832
#
# Velocity S-wave (km/s) = 3.62909 3.93279 3.78399
# Velocity P-wave (km/s) = 6.36433 7.29836 6.84729
#
# Compressibility (1/GPa) = 0.02824014
#
# Stress axis : x y z
#
# Youngs Moduli (GPa) = 72.34169 109.20173 37.48390
#
# Poissons Ratio (x) = 0.45683 0.09530
# Poissons Ratio (y) = 0.30263 0.14932
# Poissons Ratio (z) = 0.18392 0.43500
#
# Static dielectric constant tensor:
#      x y z
#    x 2.746940 0.000000 -0.175220 
#    y 0.000000 3.423890 0.000000 
#    z -0.175220 0.000000 3.125550 
# 
# 
# High freq. dielectric constant tensor:
#      x y z
#    x 1.550840 0.000000 -0.020100 
#    y 0.000000 1.591720 0.000000 
#    z -0.020100 0.000000 1.611890 
# 
# From -- ./inp_files/67658.got.cif
#   From: 2010.06.25/outbox.cif.g09.slc.cpg/sg12_34_cif.got.tgz:67658.got - 2010.06.28 00:19:55.
