data_PCOD8080706
_publ_section_title
;
Structure prediction by ZEFSAII (Michael W. Deem and Ramdas Pophale) SiO2 
 PCOD8080706
Probable space group: C 2/M
;
_chemical_formula_sum "Si O2"
_cell_formula_units_Z 64
_cell_length_a 19.415283
_cell_length_b 9.107971
_cell_length_c 20.845398
_cell_angle_alpha 90.000000
_cell_angle_beta 91.005375
_cell_angle_gamma 90.000000
_cell_volume 3685.604187
_symmetry_space_group_name_H-M "C 2/M"
_symmetry_group_IT_number 12
_symmetry_cell_setting 'monoclinic'
loop_
_space_group_symop_operation_xyz
x,y,z
-x,y,-z
-x,-y,-z
x,-y,z
1/2+x,1/2+y,z
1/2-x,1/2+y,-z
1/2-x,1/2-y,-z
1/2+x,1/2-y,z
loop_
_atom_site_type_symbol
_atom_site_label
_atom_site_fract_x
_atom_site_fract_y
_atom_site_fract_z
Si Si1 0.322390 0.671475 0.494748
Si Si2 0.826828 0.829660 0.635384
Si Si3 0.420334 0.835247 0.873746
Si Si4 0.584005 0.837906 0.881967
Si Si5 0.071627 0.824478 0.254718
Si Si6 0.828570 0.327005 0.372243
Si Si7 0.927912 0.672442 0.258630
Si Si8 0.417733 0.335419 0.996895
O O1 0.312530 0.500000 0.480456
O O2 0.250000 0.750000 0.500000
O O3 0.359268 0.696150 0.564543
O O4 0.361858 0.747232 0.435568
O O5 0.877710 0.762089 0.689154
O O6 0.749092 0.765707 0.639929
O O7 0.820534 0.000000 0.650382
O O8 0.501892 0.840950 0.881159
O O9 0.399724 0.739654 0.811583
O O10 0.390258 0.000000 0.867160
O O11 0.389260 0.759484 0.936901
O O12 0.606736 0.787912 0.810851
O O13 0.612319 0.728606 0.936839
O O14 0.612780 0.000000 0.898164
O O15 0.996215 0.766228 0.271025
O O16 0.069263 0.000000 0.250293
O O17 0.829017 0.500000 0.385445
O O18 0.873374 0.283632 0.311666
O O19 0.947337 0.500000 0.260347
O O20 0.389834 0.500000 0.988847
O O21 0.500000 0.332557 0.000000
#
# Coordination Sequence:
#
# PCOD8080706 Si02
#       8
#     8   8   8   8   8   8   8   8
#     4   9  16  29  48  69  91 115 148 187 226 265
#     4   8  16  30  48  68  89 116 148 183 223 266
#     4   9  16  26  39  57  84 116 147 180 220 264
#     4   8  14  24  37  55  81 113 144 175 217 264
#     4  10  18  29  45  65  91 120 149 182 222 268
#     4   9  17  32  51  69  90 117 152 188 221 263
#     4   9  18  31  46  65  92 123 150 181 224 269
#     4   9  15  22  35  57  82 110 145 182 218 257
#
# _framework density 17.364858000000002
#
# number of rings (size 3 to 8) (size 9 to 14) (size 15 to 20)
#    0.000    3.125    0.000    3.000    0.000    5.000 
#    0.000    6.875    0.000    3.750    0.000    0.875 
#    0.000    0.000    0.000    0.000    0.000    0.000 
#
# Total GULP energy -396545.101602 kJ/mol
# GULP energy per Si atom -12392.034425 kJ/mol
# Density = 1.732534 g / cm^3
# Si number density = 17.364858 Si / 1000 Ang^3
#
#
#
# Elastic Constant Matrix: (Units=GPa)
#
#
# Indices 1 2 3 4 5 6 
#
# 1 35.0053 25.9392 48.5628 0.0000 0.4204 0.0000
# 2 25.9392 93.8331 72.6685 0.0000 -0.7746 0.0000
# 3 48.5628 72.6685 185.8454 0.0000 -5.2505 0.0000
# 4 0.0000 0.0000 0.0000 34.2466 0.0000 -1.7069
# 5 0.4204 -0.7746 -5.2505 0.0000 7.5600 0.0000
# 6 0.0000 0.0000 0.0000 -1.7069 0.0000 10.9916
#
#
#
# Elastic Compliance Matrix: (Units=1/GPa)
#
#
# Indices 1 2 3 4 5 6 
#
# 1 0.047158 -0.004804 -0.010743 0.000000 -0.010576 0.000000
# 2 -0.004804 0.015827 -0.004978 0.000000 -0.001568 0.000000
# 3 -0.010743 -0.004978 0.010340 0.000000 0.007269 0.000000
# 4 0.000000 0.000000 0.000000 0.029428 0.000000 0.004570
# 5 -0.010576 -0.001568 0.007269 0.000000 0.137751 0.000000
# 6 0.000000 0.000000 0.000000 0.004570 0.000000 0.091688
#
#
# Mechanical properties :
#
#
# Convention : Reuss Voigt Hill
#
# Bulk Modulus (GPa) = 30.98315 67.66940 49.32628
# Shear Modulus (GPa) = 13.02086 21.72718 17.37402
#
# Velocity S-wave (km/s) = 2.74129 3.54109 3.16654
# Velocity P-wave (km/s) = 5.28212 7.46812 6.46814
#
# Compressibility (1/GPa) = 0.03227560
#
# Stress axis : x y z
#
# Youngs Moduli (GPa) = 21.20549 63.18240 96.71347
#
# Poissons Ratio (x) = 0.30350 1.03901
# Poissons Ratio (y) = 0.10186 0.48142
# Poissons Ratio (z) = 0.22781 0.31451
#
# Static dielectric constant tensor:
#      x y z
#    x 3.075080 0.000000 -0.486370 
#    y 0.000000 3.306990 0.000000 
#    z -0.486370 0.000000 4.525990 
# 
# 
# High freq. dielectric constant tensor:
#      x y z
#    x 1.599410 0.000000 -0.002830 
#    y 0.000000 1.669060 0.000000 
#    z -0.002830 0.000000 1.694290 
# 
# From -- ./inp_files/319170.got.cif
#   From: 2010.06.25/outbox.cif.g09.slc.cpg/sg12_160_cif.got.tgz:319170.got - 2010.06.28 00:19:55.
