data_PCOD8080494
_publ_section_title
;
Structure prediction by ZEFSAII (Michael W. Deem and Ramdas Pophale) SiO2 
 PCOD8080494
Probable space group: C 2/M
;
_chemical_formula_sum "Si O2"
_cell_formula_units_Z 48
_cell_length_a 13.804089
_cell_length_b 23.931408
_cell_length_c 10.793698
_cell_angle_alpha 90.000000
_cell_angle_beta 50.567818
_cell_angle_gamma 90.000000
_cell_volume 2754.073717
_symmetry_space_group_name_H-M "C 2/M"
_symmetry_group_IT_number 12
_symmetry_cell_setting 'monoclinic'
loop_
_space_group_symop_operation_xyz
x,y,z
-x,y,-z
-x,-y,-z
x,-y,z
1/2+x,1/2+y,z
1/2-x,1/2+y,-z
1/2-x,1/2-y,-z
1/2+x,1/2-y,z
loop_
_atom_site_type_symbol
_atom_site_label
_atom_site_fract_x
_atom_site_fract_y
_atom_site_fract_z
Si Si1 0.878704 0.166300 0.299775
Si Si2 0.551437 0.768113 0.185904
Si Si3 0.993732 0.938079 0.302634
Si Si4 0.225531 0.763564 0.819558
Si Si5 0.183790 0.666153 0.672346
Si Si6 0.203498 0.937984 0.316450
O O1 0.956468 0.108240 0.230950
O O2 0.833691 0.181709 0.197708
O O3 0.756843 0.160543 0.484350
O O4 0.969322 0.213605 0.282794
O O5 0.642336 0.780173 0.227341
O O6 0.461670 0.821504 0.239055
O O7 0.628697 0.759517 0.998126
O O8 0.898326 0.933797 0.493272
O O9 0.133391 0.926587 0.242588
O O10 0.987658 0.000000 0.247211
O O11 0.246885 0.716176 0.699058
O O12 0.190467 0.608735 0.746115
O O13 0.264818 0.000000 0.265485
#
# Coordination Sequence:
#
# PCOD8080494 Si02
#       6
#     8   8   8   8   8   8
#     4  10  18  28  47  71  91 112 145 190 228 262
#     4  10  20  32  45  62  90 125 152 178 219 271
#     4   8  14  25  42  66  94 119 144 180 226 269
#     4  10  20  32  45  62  90 125 152 178 219 271
#     4  10  18  28  47  71  91 112 145 190 228 262
#     4   8  14  25  42  66  94 119 144 180 226 269
#
# _framework density 17.428729000000001
#
# number of rings (size 3 to 8) (size 9 to 14) (size 15 to 20)
#    0.000    2.667    0.000    6.000    0.000    4.000 
#    0.000    0.000    0.000    5.000    0.000    9.333 
#    0.000    0.000    0.000    0.000    0.000    0.000 
#
# Total GULP energy -297510.139482 kJ/mol
# GULP energy per Si atom -12396.255812 kJ/mol
# Density = 1.738906 g / cm^3
# Si number density = 17.428729 Si / 1000 Ang^3
#
#
#
# Elastic Constant Matrix: (Units=GPa)
#
#
# Indices 1 2 3 4 5 6 
#
# 1 132.0271 64.0335 5.8946 0.0000 -9.1336 0.0000
# 2 64.0335 119.4091 -6.0356 0.0000 -9.0023 0.0000
# 3 5.8946 -6.0356 16.7546 0.0000 -8.8421 0.0000
# 4 0.0000 0.0000 0.0000 6.5511 0.0000 -0.0217
# 5 -9.1336 -9.0023 -8.8421 0.0000 23.4985 0.0000
# 6 0.0000 0.0000 0.0000 -0.0217 0.0000 35.8518
#
#
#
# Elastic Compliance Matrix: (Units=1/GPa)
#
#
# Indices 1 2 3 4 5 6 
#
# 1 0.010802 -0.006150 -0.006293 0.000000 -0.000526 0.000000
# 2 -0.006150 0.012647 0.010001 0.000000 0.006218 0.000000
# 3 -0.006293 0.010001 0.082645 0.000000 0.032483 0.000000
# 4 0.000000 0.000000 0.000000 0.152646 0.000000 0.000092
# 5 -0.000526 0.006218 0.032483 0.000000 0.056956 0.000000
# 6 0.000000 0.000000 0.000000 0.000092 0.000000 0.027893
#
#
# Mechanical properties :
#
#
# Convention : Reuss Voigt Hill
#
# Bulk Modulus (GPa) = 9.88060 43.99729 26.93894
# Shear Modulus (GPa) = 13.08184 26.80017 19.94101
#
# Velocity S-wave (km/s) = 2.74266 3.92561 3.38619
# Velocity P-wave (km/s) = 3.96372 6.77098 5.54784
#
# Compressibility (1/GPa) = 0.10120848
#
# Stress axis : x y z
#
# Youngs Moduli (GPa) = 92.57858 79.07105 12.10001
#
# Poissons Ratio (x) = 0.48630 0.07615
# Poissons Ratio (y) = 0.56937 -0.12101
# Poissons Ratio (z) = 0.58261 -0.79079
#
# Static dielectric constant tensor:
#      x y z
#    x 3.399590 0.000000 -0.016960 
#    y 0.000000 3.462320 0.000000 
#    z -0.016960 0.000000 2.937290 
# 
# 
# High freq. dielectric constant tensor:
#      x y z
#    x 1.670200 0.000000 -0.000670 
#    y 0.000000 1.664600 0.000000 
#    z -0.000670 0.000000 1.643430 
# 
# From -- ./inp_files/148289.got.cif
#   From: 2010.06.25/outbox.cif.g09.slc.cpg/sg12_75_cif.got.tgz:148289.got - 2010.06.28 00:19:55.
