data_PCOD8080501
_publ_section_title
;
Structure prediction by ZEFSAII (Michael W. Deem and Ramdas Pophale) SiO2 
 PCOD8080501
Probable space group: C 2/M
;
_chemical_formula_sum "Si O2"
_cell_formula_units_Z 48
_cell_length_a 20.391131
_cell_length_b 9.240910
_cell_length_c 31.449044
_cell_angle_alpha 90.000000
_cell_angle_beta 27.901445
_cell_angle_gamma 90.000000
_cell_volume 2773.096013
_symmetry_space_group_name_H-M "C 2/M"
_symmetry_group_IT_number 12
_symmetry_cell_setting 'monoclinic'
loop_
_space_group_symop_operation_xyz
x,y,z
-x,y,-z
-x,-y,-z
x,-y,z
1/2+x,1/2+y,z
1/2-x,1/2+y,-z
1/2-x,1/2-y,-z
1/2+x,1/2-y,z
loop_
_atom_site_type_symbol
_atom_site_label
_atom_site_fract_x
_atom_site_fract_y
_atom_site_fract_z
Si Si1 0.994985 0.834954 0.551666
Si Si2 0.555060 0.338147 0.084715
Si Si3 0.713133 0.339559 0.083517
Si Si4 0.725288 0.168261 0.470700
Si Si5 0.427175 0.332804 0.280018
Si Si6 0.675768 0.165780 0.740789
O O1 0.838346 0.823116 0.659845
O O2 0.000000 0.783402 0.500000
O O3 0.089303 0.729487 0.525318
O O4 0.050526 0.000000 0.523317
O O5 0.516962 0.500000 0.091925
O O6 0.637721 0.337248 0.081312
O O7 0.412511 0.247338 0.172126
O O8 0.654282 0.267785 0.991566
O O9 0.769929 0.500000 0.061055
O O10 0.593281 0.292397 0.186142
O O11 0.750000 0.250000 0.500000
O O12 0.863245 0.193173 0.363012
O O13 0.700079 0.000000 0.494345
O O14 0.410634 0.500000 0.274822
O O15 0.344591 0.234385 0.293965
O O16 0.624901 0.000000 0.767963
#
# Coordination Sequence:
#
# PCOD8080501 Si02
#       6
#     8   8   8   8   8   8
#     4  10  20  35  53  76 103 133 171 213 255 302
#     4   9  16  25  38  62  96 127 159 199 243 294
#     4   8  14  25  40  60  90 125 161 198 242 293
#     4  11  23  37  54  75 103 137 173 213 256 302
#     4   9  18  31  47  69  96 129 167 207 248 296
#     4  10  18  28  47  71  98 131 164 203 250 297
#
# _framework density 17.309173000000001
#
# number of rings (size 3 to 8) (size 9 to 14) (size 15 to 20)
#    0.000    2.500    1.667    2.500    0.000    6.333 
#    0.000    0.000    0.000    0.000    0.000    1.167 
#    0.000    9.333    0.000    0.000    0.000    0.000 
#
# Total GULP energy -297557.337339 kJ/mol
# GULP energy per Si atom -12398.222389 kJ/mol
# Density = 1.726978 g / cm^3
# Si number density = 17.309173 Si / 1000 Ang^3
#
#
#
# Elastic Constant Matrix: (Units=GPa)
#
#
# Indices 1 2 3 4 5 6 
#
# 1 63.7065 48.7521 40.4837 0.0013 2.7978 -0.0132
# 2 48.7521 131.0697 74.5387 0.0019 3.0821 -0.0089
# 3 40.4837 74.5387 136.9461 0.0031 5.8869 -0.0051
# 4 0.0013 0.0019 0.0031 32.6342 0.0016 -1.5135
# 5 2.7978 3.0821 5.8869 0.0016 11.6962 0.0014
# 6 -0.0132 -0.0089 -0.0051 -1.5135 0.0014 21.6880
#
#
#
# Elastic Compliance Matrix: (Units=1/GPa)
#
#
# Indices 1 2 3 4 5 6 
#
# 1 0.022859 -0.006751 -0.002989 0.000000 -0.002185 0.000011
# 2 -0.006751 0.013044 -0.005137 0.000000 0.000763 0.000000
# 3 -0.002989 -0.005137 0.011134 -0.000001 -0.003535 -0.000001
# 4 0.000000 0.000000 -0.000001 0.030742 -0.000004 0.002145
# 5 -0.002185 0.000763 -0.003535 -0.000004 0.087598 -0.000008
# 6 0.000011 0.000000 -0.000001 0.002145 -0.000008 0.046258
#
#
# Mechanical properties :
#
#
# Convention : Reuss Voigt Hill
#
# Bulk Modulus (GPa) = 57.86202 73.25235 65.55718
# Shear Modulus (GPa) = 20.23065 24.40022 22.31543
#
# Velocity S-wave (km/s) = 3.42245 3.75863 3.59447
# Velocity P-wave (km/s) = 7.00847 7.82613 7.42856
#
# Compressibility (1/GPa) = 0.01728250
#
# Stress axis : x y z
#
# Youngs Moduli (GPa) = 43.74684 76.66347 89.81856
#
# Poissons Ratio (x) = 0.51758 0.26845
# Poissons Ratio (y) = 0.29535 0.46138
# Poissons Ratio (z) = 0.13075 0.39380
#
# Static dielectric constant tensor:
#      x y z
#    x 2.736320 0.000000 0.097400 
#    y 0.000000 3.420290 0.000010 
#    z 0.097400 0.000010 3.626560 
# 
# 
# High freq. dielectric constant tensor:
#      x y z
#    x 1.594430 0.000000 0.003170 
#    y 0.000000 1.680990 0.000000 
#    z 0.003170 0.000000 1.690330 
# 
# From -- ./inp_files/229924.got.cif
#   From: 2010.06.25/outbox.cif.g09.slc.cpg/sg12_115_cif.got.tgz:229924.got - 2010.06.28 00:19:55.
