data_PCOD8080565
_publ_section_title
;
Structure prediction by ZEFSAII (Michael W. Deem and Ramdas Pophale) SiO2 
 PCOD8080565
Probable space group: C 2/M
;
_chemical_formula_sum "Si O2"
_cell_formula_units_Z 44
_cell_length_a 28.928760
_cell_length_b 9.713011
_cell_length_c 12.589216
_cell_angle_alpha 90.000000
_cell_angle_beta 43.357421
_cell_angle_gamma 90.000000
_cell_volume 2428.582678
_symmetry_space_group_name_H-M "C 2/M"
_symmetry_group_IT_number 12
_symmetry_cell_setting 'monoclinic'
loop_
_space_group_symop_operation_xyz
x,y,z
-x,y,-z
-x,-y,-z
x,-y,z
1/2+x,1/2+y,z
1/2-x,1/2+y,-z
1/2-x,1/2-y,-z
1/2+x,1/2-y,z
loop_
_atom_site_type_symbol
_atom_site_label
_atom_site_fract_x
_atom_site_fract_y
_atom_site_fract_z
Si Si1 0.500000 0.747102 0.500000
Si Si2 0.839148 0.161021 0.062886
Si Si3 0.691483 0.840658 0.304916
Si Si4 0.858359 0.155499 0.795495
Si Si5 0.447285 0.154304 0.370680
Si Si6 0.476308 0.336605 0.924202
O O1 0.437397 0.651487 0.635621
O O2 0.519980 0.841529 0.566910
O O3 0.764801 0.196419 0.233188
O O4 0.850096 0.000000 0.034481
O O5 0.847886 0.221011 0.929689
O O6 0.898897 0.215251 0.039537
O O7 0.683706 0.750923 0.212661
O O8 0.632589 0.810338 0.487930
O O9 0.689405 0.000000 0.273023
O O10 0.830489 0.000000 0.833797
O O11 0.477993 0.265922 0.240955
O O12 0.457903 0.000000 0.308070
O O13 0.484865 0.500000 0.896028
O O14 0.500000 0.287380 0.000000
#
# Coordination Sequence:
#
# PCOD8080565 Si02
#       6
#     4   8   8   8   8   8
#     4  10  18  30  50  80 110 140 172 208 264 314
#     4   9  17  33  52  73 101 138 177 212 259 309
#     4   9  19  33  50  73 107 141 170 207 259 321
#     4  10  18  28  48  76 107 139 173 212 256 309
#     4  10  20  34  53  78 107 139 174 214 261 313
#     4  10  21  38  59  79 101 136 182 224 260 303
#
# _framework density 18.117562
#
# number of rings (size 3 to 8) (size 9 to 14) (size 15 to 20)
#    0.000    2.364    1.818    1.091    0.000    4.000 
#    0.000    1.818    0.000    0.000    0.000    0.000 
#    0.000    0.000    0.000    0.000    0.000    0.000 
#
# Total GULP energy -272688.803018 kJ/mol
# GULP energy per Si atom -12394.945592 kJ/mol
# Density = 1.807633 g / cm^3
# Si number density = 18.117562 Si / 1000 Ang^3
#
#
#
# Elastic Constant Matrix: (Units=GPa)
#
#
# Indices 1 2 3 4 5 6 
#
# 1 131.6115 36.2930 71.8170 0.0000 -18.9134 0.0000
# 2 36.2930 50.4028 26.8528 0.0000 -2.1812 0.0000
# 3 71.8170 26.8528 96.4966 0.0000 -15.8590 0.0000
# 4 0.0000 0.0000 0.0000 21.7705 0.0000 -1.6737
# 5 -18.9134 -2.1812 -15.8590 0.0000 28.5478 0.0000
# 6 0.0000 0.0000 0.0000 -1.6737 0.0000 16.2594
#
#
#
# Elastic Compliance Matrix: (Units=1/GPa)
#
#
# Indices 1 2 3 4 5 6 
#
# 1 0.014385 -0.005695 -0.008393 0.000000 0.004433 0.000000
# 2 -0.005695 0.025653 -0.003519 0.000000 -0.003768 0.000000
# 3 -0.008393 -0.003519 0.018302 0.000000 0.004338 0.000000
# 4 0.000000 0.000000 0.000000 0.046300 0.000000 0.004766
# 5 0.004433 -0.003768 0.004338 0.000000 0.040088 0.000000
# 6 0.000000 0.000000 0.000000 0.004766 0.000000 0.061994
#
#
# Mechanical properties :
#
#
# Convention : Reuss Voigt Hill
#
# Bulk Modulus (GPa) = 43.24271 60.93739 52.09005
# Shear Modulus (GPa) = 20.02847 22.88540 21.45693
#
# Velocity S-wave (km/s) = 3.32847 3.55795 3.44512
# Velocity P-wave (km/s) = 6.22023 7.11239 6.68122
#
# Compressibility (1/GPa) = 0.02312528
#
# Stress axis : x y z
#
# Youngs Moduli (GPa) = 69.51469 38.98200 54.63982
#
# Poissons Ratio (x) = 0.22201 0.45859
# Poissons Ratio (y) = 0.39589 0.19230
# Poissons Ratio (z) = 0.58343 0.13719
#
# Static dielectric constant tensor:
#      x y z
#    x 3.559550 0.000000 -0.294830 
#    y 0.000000 3.078090 0.000000 
#    z -0.294830 0.000000 3.365160 
# 
# 
# High freq. dielectric constant tensor:
#      x y z
#    x 1.692880 0.000000 -0.025640 
#    y 0.000000 1.682010 0.000000 
#    z -0.025640 0.000000 1.697110 
# 
# From -- ./inp_files/163223.got.cif
#   From: 2010.06.25/outbox.cif.g09.slc.cpg/sg12_82_cif.got.tgz:163223.got - 2010.06.28 00:19:55.
