data_PCOD8080789
_publ_section_title
;
Structure prediction by ZEFSAII (Michael W. Deem and Ramdas Pophale) SiO2 
 PCOD8080789
Probable space group: C 2/M
;
_chemical_formula_sum "Si O2"
_cell_formula_units_Z 64
_cell_length_a 22.340673
_cell_length_b 8.832846
_cell_length_c 21.178709
_cell_angle_alpha 90.000000
_cell_angle_beta 115.545135
_cell_angle_gamma 90.000000
_cell_volume 3770.694045
_symmetry_space_group_name_H-M "C 2/M"
_symmetry_group_IT_number 12
_symmetry_cell_setting 'monoclinic'
loop_
_space_group_symop_operation_xyz
x,y,z
-x,y,-z
-x,-y,-z
x,-y,z
1/2+x,1/2+y,z
1/2-x,1/2+y,-z
1/2-x,1/2-y,-z
1/2+x,1/2-y,z
loop_
_atom_site_type_symbol
_atom_site_label
_atom_site_fract_x
_atom_site_fract_y
_atom_site_fract_z
Si Si1 0.758029 0.677348 0.601402
Si Si2 0.218623 0.822731 0.126864
Si Si3 0.678296 0.679459 0.979572
Si Si4 0.753499 0.320684 0.274372
Si Si5 0.985176 0.824716 0.564057
Si Si6 0.650186 0.822822 0.471836
Si Si7 0.110681 0.176835 0.708025
Si Si8 0.364089 0.179007 0.156903
O O1 0.750555 0.500000 0.606304
O O2 0.777651 0.748100 0.677459
O O3 0.687216 0.740554 0.546382
O O4 0.815471 0.723132 0.578567
O O5 0.204998 0.771396 0.193125
O O6 0.290648 0.760270 0.140037
O O7 0.228203 0.000000 0.131384
O O8 0.163840 0.780471 0.047978
O O9 0.679589 0.500000 0.969060
O O10 0.623037 0.755508 0.908385
O O11 0.750000 0.750000 0.000000
O O12 0.756351 0.500000 0.283888
O O13 0.827598 0.262553 0.295279
O O14 0.925450 0.728189 0.565839
O O15 0.000000 0.769488 0.500000
O O16 0.048759 0.791984 0.635161
O O17 0.964529 0.000000 0.555363
O O18 0.655605 0.000000 0.486416
O O19 0.090940 0.244825 0.768136
O O20 0.127138 0.000000 0.721149
O O21 0.375077 0.000000 0.161783
#
# Coordination Sequence:
#
# PCOD8080789 Si02
#       8
#     8   8   8   8   8   8   8   8
#     4  10  20  34  50  69  93 118 148 187 228 269
#     4   7  13  23  35  55  83 112 144 181 217 258
#     4   9  14  22  36  54  79 112 148 185 224 265
#     4  10  18  29  46  68  93 122 154 186 224 269
#     4  10  21  35  50  69  94 120 147 185 230 272
#     4  10  21  35  52  71  89 116 153 189 226 268
#     4  10  19  30  45  66  92 123 154 186 228 273
#     4   9  16  26  38  55  82 116 153 189 221 261
#
# _framework density 16.973004
#
# number of rings (size 3 to 8) (size 9 to 14) (size 15 to 20)
#    0.000    2.625    0.000    4.500    0.000    3.750 
#    0.000    1.875    0.000    0.000    0.000    0.000 
#    0.000    1.000    0.000   11.250    0.000    7.500 
#
# Total GULP energy -396482.619136 kJ/mol
# GULP energy per Si atom -12390.081848 kJ/mol
# Density = 1.693437 g / cm^3
# Si number density = 16.973004 Si / 1000 Ang^3
#
#
#
# Elastic Constant Matrix: (Units=GPa)
#
#
# Indices 1 2 3 4 5 6 
#
# 1 45.0266 22.6206 34.5613 0.0000 -8.2095 0.0000
# 2 22.6206 76.3153 52.0155 0.0000 -9.2741 0.0000
# 3 34.5613 52.0155 161.1429 0.0000 -25.5899 0.0000
# 4 0.0000 0.0000 0.0000 30.1935 0.0000 -3.2932
# 5 -8.2095 -9.2741 -25.5899 0.0000 17.4364 0.0000
# 6 0.0000 0.0000 0.0000 -3.2932 0.0000 20.2220
#
#
#
# Elastic Compliance Matrix: (Units=1/GPa)
#
#
# Indices 1 2 3 4 5 6 
#
# 1 0.028630 -0.005422 -0.003530 0.000000 0.005414 0.000000
# 2 -0.005422 0.017848 -0.004559 0.000000 0.000250 0.000000
# 3 -0.003530 -0.004559 0.010151 0.000000 0.010811 0.000000
# 4 0.000000 0.000000 0.000000 0.033719 0.000000 0.005491
# 5 0.005414 0.000250 0.010811 0.000000 0.075900 0.000000
# 6 0.000000 0.000000 0.000000 0.005491 0.000000 0.050345
#
#
# Mechanical properties :
#
#
# Convention : Reuss Voigt Hill
#
# Bulk Modulus (GPa) = 33.77543 55.65327 44.71435
# Shear Modulus (GPa) = 19.72510 25.12289 22.42399
#
# Velocity S-wave (km/s) = 3.41272 3.85147 3.63871
# Velocity P-wave (km/s) = 5.95580 7.25527 6.63741
#
# Compressibility (1/GPa) = 0.02960732
#
# Stress axis : x y z
#
# Youngs Moduli (GPa) = 34.92836 56.02832 98.51062
#
# Poissons Ratio (x) = 0.30378 0.34779
# Poissons Ratio (y) = 0.18938 0.44907
# Poissons Ratio (z) = 0.12331 0.25541
#
# Static dielectric constant tensor:
#      x y z
#    x 2.699770 0.000000 -0.313040 
#    y 0.000000 3.195350 0.000000 
#    z -0.313040 0.000000 3.906660 
# 
# 
# High freq. dielectric constant tensor:
#      x y z
#    x 1.584550 0.000000 -0.023560 
#    y 0.000000 1.661880 0.000000 
#    z -0.023560 0.000000 1.679460 
# 
# From -- ./inp_files/323722.got.cif
#   From: 2010.06.25/outbox.cif.g09.slc.cpg/sg12_162_cif.got.tgz:323722.got - 2010.06.28 00:19:55.
