data_PCOD8080393
_publ_section_title
;
Structure prediction by ZEFSAII (Michael W. Deem and Ramdas Pophale) SiO2 
 PCOD8080393
Probable space group: C 2/M
;
_chemical_formula_sum "Si O2"
_cell_formula_units_Z 48
_cell_length_a 20.499886
_cell_length_b 8.808521
_cell_length_c 20.280385
_cell_angle_alpha 90.000000
_cell_angle_beta 131.944761
_cell_angle_gamma 90.000000
_cell_volume 2723.834594
_symmetry_space_group_name_H-M "C 2/M"
_symmetry_group_IT_number 12
_symmetry_cell_setting 'monoclinic'
loop_
_space_group_symop_operation_xyz
x,y,z
-x,y,-z
-x,-y,-z
x,-y,z
1/2+x,1/2+y,z
1/2-x,1/2+y,-z
1/2-x,1/2-y,-z
1/2+x,1/2-y,z
loop_
_atom_site_type_symbol
_atom_site_label
_atom_site_fract_x
_atom_site_fract_y
_atom_site_fract_z
Si Si1 0.473571 0.329534 0.583172
Si Si2 0.233279 0.326424 0.777607
Si Si3 0.345274 0.178577 0.056478
Si Si4 0.908136 0.181371 0.226650
Si Si5 0.591820 0.325966 0.031825
Si Si6 0.857134 0.828093 0.394057
O O1 0.442303 0.500000 0.574600
O O2 0.504476 0.258754 0.674323
O O3 0.391492 0.254167 0.487440
O O4 0.560084 0.329027 0.597703
O O5 0.202410 0.500000 0.763310
O O6 0.180198 0.227946 0.794818
O O7 0.335783 0.307311 0.862158
O O8 0.218240 0.271430 0.691779
O O9 0.410017 0.243260 0.156309
O O10 0.335904 0.000000 0.058399
O O11 0.250000 0.250000 0.000000
O O12 0.386791 0.217901 0.014602
O O13 0.908742 0.000000 0.221272
O O14 0.587847 0.500000 0.004283
O O15 0.500000 0.272758 0.000000
O O16 0.822514 0.000000 0.380639
#
# Coordination Sequence:
#
# PCOD8080393 Si02
#       6
#     8   8   8   8   8   8
#     4   7  12  23  40  63  91 126 162 195 237 296
#     4  10  18  28  45  70  98 128 166 207 250 298
#     4  12  23  35  53  77 103 133 170 210 255 304
#     4  10  18  30  49  71  98 131 166 204 248 297
#     4  10  22  39  55  72 100 137 174 212 254 302
#     4   8  13  24  41  61  91 128 163 196 239 296
#
# _framework density 17.622216000000002
#
# number of rings (size 3 to 8) (size 9 to 14) (size 15 to 20)
#    0.000    2.500    1.667    4.500    0.000    1.000 
#    0.000    7.500    0.000    0.000    0.000    1.167 
#    0.000    0.000    0.000    0.000    0.000    0.000 
#
# Total GULP energy -297328.972215 kJ/mol
# GULP energy per Si atom -12388.707176 kJ/mol
# Density = 1.758211 g / cm^3
# Si number density = 17.622216 Si / 1000 Ang^3
#
#
#
# Elastic Constant Matrix: (Units=GPa)
#
#
# Indices 1 2 3 4 5 6 
#
# 1 53.3301 26.2896 42.0616 0.0000 0.3593 0.0000
# 2 26.2896 89.5845 55.4746 0.0000 -5.2916 0.0000
# 3 42.0616 55.4746 177.1870 0.0000 -13.0461 0.0000
# 4 0.0000 0.0000 0.0000 30.0334 0.0000 -3.2830
# 5 0.3593 -5.2916 -13.0461 0.0000 14.7035 0.0000
# 6 0.0000 0.0000 0.0000 -3.2830 0.0000 15.7466
#
#
#
# Elastic Compliance Matrix: (Units=1/GPa)
#
#
# Indices 1 2 3 4 5 6 
#
# 1 0.025014 -0.004657 -0.004973 0.000000 -0.006700 0.000000
# 2 -0.004657 0.014735 -0.003326 0.000000 0.002465 0.000000
# 3 -0.004973 -0.003326 0.008331 0.000000 0.006316 0.000000
# 4 0.000000 0.000000 0.000000 0.034073 0.000000 0.007104
# 5 -0.006700 0.002465 0.006316 0.000000 0.074666 0.000000
# 6 0.000000 0.000000 0.000000 0.007104 0.000000 0.064987
#
#
# Mechanical properties :
#
#
# Convention : Reuss Voigt Hill
#
# Bulk Modulus (GPa) = 45.11204 63.08368 54.09786
# Shear Modulus (GPa) = 19.59961 25.18176 22.39069
#
# Velocity S-wave (km/s) = 3.33860 3.78428 3.56841
# Velocity P-wave (km/s) = 6.36528 7.41417 6.90966
#
# Compressibility (1/GPa) = 0.02216703
#
# Stress axis : x y z
#
# Youngs Moduli (GPa) = 39.97702 67.86755 120.03641
#
# Poissons Ratio (x) = 0.31604 0.59699
# Poissons Ratio (y) = 0.18616 0.39927
# Poissons Ratio (z) = 0.19882 0.22574
#
# Static dielectric constant tensor:
#      x y z
#    x 2.718970 0.000000 -0.171530 
#    y 0.000000 3.215170 0.000000 
#    z -0.171530 0.000000 4.212850 
# 
# 
# High freq. dielectric constant tensor:
#      x y z
#    x 1.605790 0.000000 -0.010210 
#    y 0.000000 1.669180 0.000000 
#    z -0.010210 0.000000 1.715390 
# 
# From -- ./inp_files/280516.got.cif
#   From: 2010.06.25/outbox.cif.g09.slc.cpg/sg12_141_cif.got.tgz:280516.got - 2010.06.28 00:19:55.
