data_PCOD8080854
_publ_section_title
;
Structure prediction by ZEFSAII (Michael W. Deem and Ramdas Pophale) SiO2 
 PCOD8080854
Probable space group: C 2/M
;
_chemical_formula_sum "Si O2"
_cell_formula_units_Z 48
_cell_length_a 13.925805
_cell_length_b 22.895667
_cell_length_c 10.170062
_cell_angle_alpha 90.000000
_cell_angle_beta 110.457826
_cell_angle_gamma 90.000000
_cell_volume 3038.115097
_symmetry_space_group_name_H-M "C 2/M"
_symmetry_group_IT_number 12
_symmetry_cell_setting 'monoclinic'
loop_
_space_group_symop_operation_xyz
x,y,z
-x,y,-z
-x,-y,-z
x,-y,z
1/2+x,1/2+y,z
1/2-x,1/2+y,-z
1/2-x,1/2-y,-z
1/2+x,1/2-y,z
loop_
_atom_site_type_symbol
_atom_site_label
_atom_site_fract_x
_atom_site_fract_y
_atom_site_fract_z
Si Si1 0.622070 0.434517 0.709609
Si Si2 0.116180 0.757601 0.069829
Si Si3 0.692863 0.681003 0.855931
Si Si4 0.191711 0.819092 0.359428
Si Si5 0.117104 0.065112 0.403718
Si Si6 0.615578 0.253093 0.571876
O O1 0.647292 0.500000 0.772502
O O2 0.687301 0.388223 0.825686
O O3 0.502472 0.420696 0.669459
O O4 0.651704 0.429418 0.571275
O O5 0.188445 0.700741 0.092181
O O6 0.127192 0.787348 0.216368
O O7 0.145667 0.805952 0.975753
O O8 0.000000 0.735750 0.000000
O O9 0.626665 0.716700 0.718277
O O10 0.180626 0.889109 0.345470
O O11 0.311563 0.803372 0.405334
O O12 0.145282 0.800502 0.477075
O O13 0.141284 0.000000 0.363270
O O14 0.500000 0.230807 0.500000
#
# Coordination Sequence:
#
# PCOD8080854 Si02
#       6
#     8   8   8   8   8   8
#     4   9  16  27  46  68  90 118 148 183 226 267
#     4  10  20  31  45  66  94 124 149 181 226 267
#     4  10  19  31  46  66  94 122 148 184 224 269
#     4  10  19  29  46  70  91 119 152 184 226 268
#     4   9  16  27  45  68  93 117 144 185 229 266
#     4  10  18  29  47  68  92 118 150 189 224 267
#
# _framework density 15.79927
#
# number of rings (size 3 to 8) (size 9 to 14) (size 15 to 20)
#    0.000    2.333    1.667    4.000    0.000    0.000 
#    0.000    0.833    0.000    4.000    0.000    0.000 
#    0.000    0.000    0.000    0.000    0.000    0.000 
#
# Total GULP energy -297602.926414 kJ/mol
# GULP energy per Si atom -12400.121934 kJ/mol
# Density = 1.576331 g / cm^3
# Si number density = 15.799270 Si / 1000 Ang^3
#
#
#
# Elastic Constant Matrix: (Units=GPa)
#
#
# Indices 1 2 3 4 5 6 
#
# 1 80.1076 42.7970 21.1032 0.0000 23.0365 0.0000
# 2 42.7970 116.0931 17.8098 0.0000 11.5895 0.0000
# 3 21.1032 17.8098 50.4619 0.0000 10.8992 0.0000
# 4 0.0000 0.0000 0.0000 23.6121 0.0000 1.6375
# 5 23.0365 11.5895 10.8992 0.0000 22.8366 0.0000
# 6 0.0000 0.0000 0.0000 1.6375 0.0000 20.4854
#
#
#
# Elastic Compliance Matrix: (Units=1/GPa)
#
#
# Indices 1 2 3 4 5 6 
#
# 1 0.021238 -0.005636 -0.003214 0.000000 -0.017030 0.000000
# 2 -0.005636 0.010852 -0.001685 0.000000 0.000982 0.000000
# 3 -0.003214 -0.001685 0.023270 0.000000 -0.007008 0.000000
# 4 0.000000 0.000000 0.000000 0.042587 0.000000 -0.003404
# 5 -0.017030 0.000982 -0.007008 0.000000 0.063814 0.000000
# 6 0.000000 0.000000 0.000000 -0.003404 0.000000 0.049087
#
#
# Mechanical properties :
#
#
# Convention : Reuss Voigt Hill
#
# Bulk Modulus (GPa) = 29.16446 45.56471 37.36459
# Shear Modulus (GPa) = 20.54654 24.38365 22.46510
#
# Velocity S-wave (km/s) = 3.61012 3.93280 3.77491
# Velocity P-wave (km/s) = 5.98972 7.03739 6.53459
#
# Compressibility (1/GPa) = 0.03428830
#
# Stress axis : x y z
#
# Youngs Moduli (GPa) = 47.08469 92.14921 42.97441
#
# Poissons Ratio (x) = 0.51937 0.13814
# Poissons Ratio (y) = 0.26538 0.07242
# Poissons Ratio (z) = 0.15135 0.15529
#
# Static dielectric constant tensor:
#      x y z
#    x 2.910530 0.000000 0.026580 
#    y 0.000000 2.979950 0.000000 
#    z 0.026580 0.000000 3.029900 
# 
# 
# High freq. dielectric constant tensor:
#      x y z
#    x 1.589520 0.000000 -0.002600 
#    y 0.000000 1.593870 0.000000 
#    z -0.002600 0.000000 1.605940 
# 
# From -- ./inp_files/64847.got.cif
#   From: 2010.06.25/outbox.cif.g09.slc.cpg/sg12_33_cif.got.tgz:64847.got - 2010.06.28 00:19:55.
