data_PCOD8080882
_publ_section_title
;
Structure prediction by ZEFSAII (Michael W. Deem and Ramdas Pophale) SiO2 
 PCOD8080882
Probable space group: C 2/M
;
_chemical_formula_sum "Si O2"
_cell_formula_units_Z 56
_cell_length_a 20.447559
_cell_length_b 9.052295
_cell_length_c 18.841148
_cell_angle_alpha 90.000000
_cell_angle_beta 67.629829
_cell_angle_gamma 90.000000
_cell_volume 3224.996087
_symmetry_space_group_name_H-M "C 2/M"
_symmetry_group_IT_number 12
_symmetry_cell_setting 'monoclinic'
loop_
_space_group_symop_operation_xyz
x,y,z
-x,y,-z
-x,-y,-z
x,-y,z
1/2+x,1/2+y,z
1/2-x,1/2+y,-z
1/2-x,1/2-y,-z
1/2+x,1/2-y,z
loop_
_atom_site_type_symbol
_atom_site_label
_atom_site_fract_x
_atom_site_fract_y
_atom_site_fract_z
Si Si1 0.184351 0.172732 0.490732
Si Si2 0.385442 0.664554 0.343018
Si Si3 0.545688 0.673521 0.050184
Si Si4 0.229037 0.333635 0.344428
Si Si5 0.708241 0.169608 0.804013
Si Si6 0.942567 0.327332 0.194809
Si Si7 0.695020 0.172744 0.971618
O O1 0.250000 0.250000 0.500000
O O2 0.116619 0.197689 0.571088
O O3 0.173179 0.245091 0.417498
O O4 0.200737 0.000000 0.475101
O O5 0.415265 0.500000 0.316789
O O6 0.305637 0.674815 0.348124
O O7 0.434288 0.781117 0.280997
O O8 0.558425 0.500000 0.053832
O O9 0.506775 0.735589 0.135554
O O10 0.500000 0.711568 0.000000
O O11 0.619470 0.754769 0.013103
O O12 0.201392 0.500000 0.347859
O O13 0.234086 0.262191 0.264153
O O14 0.628143 0.217595 0.818635
O O15 0.722382 0.199060 0.880561
O O16 0.718505 0.000000 0.778513
O O17 0.959362 0.500000 0.182669
O O18 0.689449 0.000000 0.991507
O O19 0.750000 0.250000 0.000000
#
# Coordination Sequence:
#
# PCOD8080882 Si02
#       7
#     8   8   8   8   8   8   8
#     4   9  15  23  35  53  82 120 158 195 239 290
#     4   8  15  25  36  56  87 122 157 196 241 291
#     4  11  22  35  54  77 101 132 170 212 255 304
#     4   9  16  24  38  59  85 119 159 200 240 290
#     4   9  18  31  47  67  94 127 163 204 249 298
#     4  10  18  29  47  70  95 126 164 207 251 296
#     4  11  23  39  56  76 103 134 170 212 260 308
#
# _framework density 17.364362
#
# number of rings (size 3 to 8) (size 9 to 14) (size 15 to 20)
#    0.000    2.429    1.429    3.000    0.000    6.286 
#    0.000    0.000    0.000    0.000    0.000    0.000 
#    0.000    1.143    0.000   12.000    0.000    8.571 
#
# Total GULP energy -347096.460633 kJ/mol
# GULP energy per Si atom -12396.302165 kJ/mol
# Density = 1.732484 g / cm^3
# Si number density = 17.364362 Si / 1000 Ang^3
#
#
#
# Elastic Constant Matrix: (Units=GPa)
#
#
# Indices 1 2 3 4 5 6 
#
# 1 52.6447 41.5554 36.7844 0.0000 3.3938 -0.0001
# 2 41.5554 122.1671 78.9146 0.0000 2.7968 -0.0001
# 3 36.7844 78.9146 138.3624 0.0000 7.5749 0.0000
# 4 0.0000 0.0000 0.0000 37.7731 0.0000 -0.5904
# 5 3.3938 2.7968 7.5749 0.0000 9.4234 0.0000
# 6 -0.0001 -0.0001 0.0000 -0.5904 0.0000 18.3219
#
#
#
# Elastic Compliance Matrix: (Units=1/GPa)
#
#
# Indices 1 2 3 4 5 6 
#
# 1 0.027010 -0.007309 -0.002718 0.000000 -0.005373 0.000000
# 2 -0.007309 0.014981 -0.006802 0.000000 0.003653 0.000000
# 3 -0.002718 -0.006802 0.012202 0.000000 -0.006811 0.000000
# 4 0.000000 0.000000 0.000000 0.026487 0.000000 0.000854
# 5 -0.005373 0.003653 -0.006811 0.000000 0.112445 0.000000
# 6 0.000000 0.000000 0.000000 0.000854 0.000000 0.054607
#
#
# Mechanical properties :
#
#
# Convention : Reuss Voigt Hill
#
# Bulk Modulus (GPa) = 48.69281 69.74254 59.21768
# Shear Modulus (GPa) = 17.34692 23.49834 20.42263
#
# Velocity S-wave (km/s) = 3.16412 3.68265 3.43319
# Velocity P-wave (km/s) = 6.43829 7.63766 7.06348
#
# Compressibility (1/GPa) = 0.02053691
#
# Stress axis : x y z
#
# Youngs Moduli (GPa) = 37.02319 66.74905 81.95282
#
# Poissons Ratio (x) = 0.48785 0.22275
# Poissons Ratio (y) = 0.27059 0.55741
# Poissons Ratio (z) = 0.10063 0.45400
#
# Static dielectric constant tensor:
#      x y z
#    x 2.579040 0.000000 0.124480 
#    y 0.000000 3.391760 0.000000 
#    z 0.124480 0.000000 3.847290 
# 
# 
# High freq. dielectric constant tensor:
#      x y z
#    x 1.588780 0.000000 0.008230 
#    y 0.000000 1.686400 0.000000 
#    z 0.008230 0.000000 1.694530 
# 
# From -- ./inp_files/313724.got.cif
#   From: 2010.06.25/outbox.cif.g09.slc.cpg/sg12_157_cif.got.tgz:313724.got - 2010.06.28 00:19:55.
