data_PCOD8080073
_publ_section_title
;
Structure prediction by ZEFSAII (Michael W. Deem and Ramdas Pophale) SiO2 
 PCOD8080073
Probable space group: C 2/M
;
_chemical_formula_sum "Si O2"
_cell_formula_units_Z 40
_cell_length_a 21.375705
_cell_length_b 15.304605
_cell_length_c 9.390665
_cell_angle_alpha 90.000000
_cell_angle_beta 125.008195
_cell_angle_gamma 90.000000
_cell_volume 2516.285636
_symmetry_space_group_name_H-M "C 2/M"
_symmetry_group_IT_number 12
_symmetry_cell_setting 'monoclinic'
loop_
_space_group_symop_operation_xyz
x,y,z
-x,y,-z
-x,-y,-z
x,-y,z
1/2+x,1/2+y,z
1/2-x,1/2+y,-z
1/2-x,1/2-y,-z
1/2+x,1/2-y,z
loop_
_atom_site_type_symbol
_atom_site_label
_atom_site_fract_x
_atom_site_fract_y
_atom_site_fract_z
Si Si1 0.222010 0.241971 0.623863
Si Si2 0.433208 0.192069 0.513860
Si Si3 0.303495 0.100397 0.912962
Si Si4 0.203679 0.598400 0.773704
Si Si5 0.525419 0.099417 0.872398
O O1 0.250000 0.250000 0.500000
O O2 0.129292 0.235434 0.518035
O O3 0.254508 0.155460 0.738079
O O4 0.250738 0.330630 0.742020
O O5 0.500000 0.231316 0.500000
O O6 0.387701 0.116604 0.365566
O O7 0.467967 0.154926 0.703305
O O8 0.301621 0.000000 0.858241
O O9 0.270477 0.109537 0.029033
O O10 0.389315 0.137215 0.026840
O O11 0.221656 0.500000 0.744738
O O12 0.523799 0.000000 0.815593
O O13 0.500000 0.107538 0.000000
#
# Coordination Sequence:
#
# PCOD8080073 Si02
#       5
#     8   8   8   8   8
#     4  10  21  33  48  73 107 138 168 209 251 303
#     4  10  19  31  50  72 103 133 167 200 252 305
#     4  10  19  33  50  72 101 137 170 208 251 298
#     4   9  19  31  51  73 100 133 166 204 252 304
#     4  10  18  27  44  71 101 129 159 200 253 306
#
# _framework density 15.896447
#
# number of rings (size 3 to 8) (size 9 to 14) (size 15 to 20)
#    1.200    1.000    2.000    2.400    0.000    1.600 
#    0.000    0.000    0.000    0.600    0.000    1.400 
#    0.000    8.000    0.000    0.000    0.000    0.000 
#
# Total GULP energy -247837.112248 kJ/mol
# GULP energy per Si atom -12391.855612 kJ/mol
# Density = 1.586027 g / cm^3
# Si number density = 15.896447 Si / 1000 Ang^3
#
#
#
# Elastic Constant Matrix: (Units=GPa)
#
#
# Indices 1 2 3 4 5 6 
#
# 1 79.8571 33.2168 39.9210 0.0000 -9.5144 0.0000
# 2 33.2168 76.2501 49.5142 0.0000 -0.8595 0.0000
# 3 39.9210 49.5142 103.9981 0.0000 1.8664 0.0000
# 4 0.0000 0.0000 0.0000 28.2930 0.0000 6.1472
# 5 -9.5144 -0.8595 1.8664 0.0000 22.3652 0.0000
# 6 0.0000 0.0000 0.0000 6.1472 0.0000 20.1723
#
#
#
# Elastic Compliance Matrix: (Units=1/GPa)
#
#
# Indices 1 2 3 4 5 6 
#
# 1 0.017723 -0.004523 -0.004789 0.000000 0.007765 0.000000
# 2 -0.004523 0.020188 -0.007866 0.000000 -0.000492 0.000000
# 3 -0.004789 -0.007866 0.015264 0.000000 -0.003613 0.000000
# 4 0.000000 0.000000 0.000000 0.037850 0.000000 -0.011534
# 5 0.007765 -0.000492 -0.003613 0.000000 0.048299 0.000000
# 6 0.000000 0.000000 0.000000 -0.011534 0.000000 0.053088
#
#
# Mechanical properties :
#
#
# Convention : Reuss Voigt Hill
#
# Bulk Modulus (GPa) = 53.14224 56.15659 54.64941
# Shear Modulus (GPa) = 21.45537 23.32965 22.39251
#
# Velocity S-wave (km/s) = 3.67781 3.83508 3.75727
# Velocity P-wave (km/s) = 7.17899 7.41712 7.29903
#
# Compressibility (1/GPa) = 0.01881742
#
# Stress axis : x y z
#
# Youngs Moduli (GPa) = 56.42348 49.53465 65.51368
#
# Poissons Ratio (x) = 0.22406 0.31375
# Poissons Ratio (y) = 0.25522 0.51536
# Poissons Ratio (z) = 0.27021 0.38966
#
# Static dielectric constant tensor:
#      x y z
#    x 2.947510 0.000000 -0.073810 
#    y 0.000000 2.782960 0.000000 
#    z -0.073810 0.000000 2.967730 
# 
# 
# High freq. dielectric constant tensor:
#      x y z
#    x 1.604230 0.000000 -0.016300 
#    y 0.000000 1.580660 0.000000 
#    z -0.016300 0.000000 1.614190 
# 
# From -- ./inp_files/86076.got.cif
#   From: 2010.06.25/outbox.cif.g09.slc.cpg/sg12_44_cif.got.tgz:86076.got - 2010.06.28 00:19:55.
