data_PCOD8080841
_publ_section_title
;
Structure prediction by ZEFSAII (Michael W. Deem and Ramdas Pophale) SiO2 
 PCOD8080841
Probable space group: C 2/M
;
_chemical_formula_sum "Si O2"
_cell_formula_units_Z 52
_cell_length_a 8.934898
_cell_length_b 28.175631
_cell_length_c 15.014173
_cell_angle_alpha 90.000000
_cell_angle_beta 44.039409
_cell_angle_gamma 90.000000
_cell_volume 2627.514096
_symmetry_space_group_name_H-M "C 2/M"
_symmetry_group_IT_number 12
_symmetry_cell_setting 'monoclinic'
loop_
_space_group_symop_operation_xyz
x,y,z
-x,y,-z
-x,-y,-z
x,-y,z
1/2+x,1/2+y,z
1/2-x,1/2+y,-z
1/2-x,1/2-y,-z
1/2+x,1/2-y,z
loop_
_atom_site_type_symbol
_atom_site_label
_atom_site_fract_x
_atom_site_fract_y
_atom_site_fract_z
Si Si1 0.334270 0.555258 0.243068
Si Si2 0.004567 0.313906 0.364714
Si Si3 0.500000 0.891764 0.500000
Si Si4 0.226631 0.702431 0.864485
Si Si5 0.785253 0.400044 0.053811
Si Si6 0.239234 0.126054 0.878624
Si Si7 0.159469 0.745087 0.708739
O O1 0.287573 0.500000 0.255428
O O2 0.198837 0.576169 0.383488
O O3 0.587197 0.564211 0.149913
O O4 0.260554 0.579263 0.182918
O O5 0.908625 0.358911 0.458399
O O6 0.822417 0.280737 0.396485
O O7 0.141011 0.330785 0.220211
O O8 0.163139 0.286907 0.365892
O O9 0.269139 0.647679 0.868812
O O10 0.215155 0.708130 0.762833
O O11 0.420776 0.733143 0.822357
O O12 0.000000 0.720877 0.000000
O O13 0.846468 0.387379 0.926076
O O14 0.000000 0.424922 0.000000
O O15 0.000000 0.144623 0.000000
#
# Coordination Sequence:
#
# PCOD8080841 Si02
#       7
#     8   8   4   8   8   8   8
#     4  10  21  38  61  83 101 132 179 224 269 327
#     4  10  20  34  50  75 106 143 180 220 262 302
#     4  10  21  38  60  76 102 138 182 230 269 310
#     4  10  18  29  46  74 110 147 180 212 252 305
#     4  10  20  34  55  84 118 145 166 210 275 327
#     4   9  18  33  53  78 112 144 175 216 264 315
#     4  10  20  30  47  74 106 143 188 222 249 294
#
# _framework density 19.790569999999999
#
# number of rings (size 3 to 8) (size 9 to 14) (size 15 to 20)
#    0.000    2.154    0.000    5.308    0.000    7.385 
#    0.000    0.000    0.000   14.769    0.000   10.769 
#    0.000    0.000    0.000    0.000    0.000    0.000 
#
# Total GULP energy -322359.899842 kJ/mol
# GULP energy per Si atom -12398.457686 kJ/mol
# Density = 1.974553 g / cm^3
# Si number density = 19.790570 Si / 1000 Ang^3
#
#
#
# Elastic Constant Matrix: (Units=GPa)
#
#
# Indices 1 2 3 4 5 6 
#
# 1 113.5887 29.7682 14.7547 0.0000 -1.1222 0.0000
# 2 29.7682 92.0666 21.6852 0.0000 1.0951 0.0000
# 3 14.7547 21.6852 60.4102 0.0000 2.8250 0.0000
# 4 0.0000 0.0000 0.0000 24.6394 0.0000 -2.9049
# 5 -1.1222 1.0951 2.8250 0.0000 11.5638 0.0000
# 6 0.0000 0.0000 0.0000 -2.9049 0.0000 12.4785
#
#
#
# Elastic Compliance Matrix: (Units=1/GPa)
#
#
# Indices 1 2 3 4 5 6 
#
# 1 0.009748 -0.002832 -0.001438 0.000000 0.001565 0.000000
# 2 -0.002832 0.012688 -0.003838 0.000000 -0.000539 0.000000
# 3 -0.001438 -0.003838 0.018483 0.000000 -0.004291 0.000000
# 4 0.000000 0.000000 0.000000 0.041731 0.000000 0.009715
# 5 0.001565 -0.000539 -0.004291 0.000000 0.087728 0.000000
# 6 0.000000 0.000000 0.000000 0.009715 0.000000 0.082399
#
#
# Mechanical properties :
#
#
# Convention : Reuss Voigt Hill
#
# Bulk Modulus (GPa) = 40.47837 44.27573 42.37705
# Shear Modulus (GPa) = 18.03586 23.06017 20.54801
#
# Velocity S-wave (km/s) = 3.02211 3.41722 3.22572
# Velocity P-wave (km/s) = 5.71623 6.16365 5.94415
#
# Compressibility (1/GPa) = 0.02470455
#
# Stress axis : x y z
#
# Youngs Moduli (GPa) = 102.58472 78.81680 54.10429
#
# Poissons Ratio (x) = 0.22320 0.07778
# Poissons Ratio (y) = 0.29051 0.20763
# Poissons Ratio (z) = 0.14747 0.30246
#
# Static dielectric constant tensor:
#      x y z
#    x 3.781840 0.000000 0.089370 
#    y 0.000000 3.388710 0.000000 
#    z 0.089370 0.000000 3.668240 
# 
# 
# High freq. dielectric constant tensor:
#      x y z
#    x 1.773920 0.000000 0.010530 
#    y 0.000000 1.755390 0.000000 
#    z 0.010530 0.000000 1.770290 
# 
# From -- ./inp_files/201190.got.cif
#   From: 2010.06.25/outbox.cif.g09.slc.cpg/sg12_101_cif.got.tgz:201190.got - 2010.06.28 00:19:55.
