data_PCOD8080368
_publ_section_title
;
Structure prediction by ZEFSAII (Michael W. Deem and Ramdas Pophale) SiO2 
 PCOD8080368
Probable space group: C 2/M
;
_chemical_formula_sum "Si O2"
_cell_formula_units_Z 56
_cell_length_a 27.071787
_cell_length_b 8.690515
_cell_length_c 24.968496
_cell_angle_alpha 90.000000
_cell_angle_beta 144.391943
_cell_angle_gamma 90.000000
_cell_volume 3420.226345
_symmetry_space_group_name_H-M "C 2/M"
_symmetry_group_IT_number 12
_symmetry_cell_setting 'monoclinic'
loop_
_space_group_symop_operation_xyz
x,y,z
-x,y,-z
-x,-y,-z
x,-y,z
1/2+x,1/2+y,z
1/2-x,1/2+y,-z
1/2-x,1/2-y,-z
1/2+x,1/2-y,z
loop_
_atom_site_type_symbol
_atom_site_label
_atom_site_fract_x
_atom_site_fract_y
_atom_site_fract_z
Si Si1 0.296376 0.681159 0.806143
Si Si2 0.405128 0.821905 0.809724
Si Si3 0.835748 0.321734 0.634089
Si Si4 0.542894 0.180744 0.462473
Si Si5 0.880437 0.818851 0.367443
Si Si6 0.141254 0.821873 0.455233
Si Si7 0.552051 0.330463 0.991548
O O1 0.278361 0.500000 0.789592
O O2 0.342860 0.723358 0.791824
O O3 0.209830 0.774082 0.736733
O O4 0.354086 0.727536 0.908680
O O5 0.387171 0.778959 0.732601
O O6 0.504298 0.784219 0.908752
O O7 0.387048 0.000000 0.805268
O O8 0.845285 0.500000 0.626991
O O9 0.874713 0.220478 0.620726
O O10 0.737289 0.280584 0.556406
O O11 0.452827 0.264320 0.390394
O O12 0.608824 0.237922 0.565563
O O13 0.578543 0.220536 0.435703
O O14 0.529163 0.000000 0.456260
O O15 0.886550 0.000000 0.381452
O O16 0.120786 0.000000 0.446699
O O17 0.556927 0.500000 0.969306
O O18 0.500000 0.341626 0.000000
#
# Coordination Sequence:
#
# PCOD8080368 Si02
#       7
#     8   8   8   8   8   8   8
#     4  10  19  31  46  66  94 126 157 189 231 278
#     4  10  18  28  45  68  95 125 157 193 231 273
#     4   9  19  32  45  66  94 123 155 190 230 273
#     4  11  21  34  50  68  94 125 154 186 229 275
#     4  11  21  33  49  70  94 120 156 194 226 267
#     4  10  19  32  49  68  92 122 157 194 228 265
#     4   8  16  29  43  62  91 123 154 189 228 275
#
# _framework density 16.373186
#
# number of rings (size 3 to 8) (size 9 to 14) (size 15 to 20)
#    0.000    2.143    0.000    6.429    0.000    6.000 
#    0.000    0.000    0.000    0.000    0.000    1.000 
#    0.000    0.000    0.000    0.000    0.000    0.000 
#
# Total GULP energy -347216.075603 kJ/mol
# GULP energy per Si atom -12400.574129 kJ/mol
# Density = 1.633592 g / cm^3
# Si number density = 16.373186 Si / 1000 Ang^3
#
#
#
# Elastic Constant Matrix: (Units=GPa)
#
#
# Indices 1 2 3 4 5 6 
#
# 1 67.7033 17.7890 35.8767 0.0000 -2.1319 0.0000
# 2 17.7890 54.8494 25.2099 0.0000 -3.3609 0.0000
# 3 35.8767 25.2099 112.6476 0.0000 -0.1377 0.0000
# 4 0.0000 0.0000 0.0000 28.6047 0.0000 0.0745
# 5 -2.1319 -3.3609 -0.1377 0.0000 21.4170 0.0000
# 6 0.0000 0.0000 0.0000 0.0745 0.0000 26.4871
#
#
#
# Elastic Compliance Matrix: (Units=1/GPa)
#
#
# Indices 1 2 3 4 5 6 
#
# 1 0.018435 -0.003572 -0.005070 0.000000 0.001242 0.000000
# 2 -0.003572 0.021230 -0.003610 0.000000 0.002953 0.000000
# 3 -0.005070 -0.003610 0.011299 0.000000 -0.000999 0.000000
# 4 0.000000 0.000000 0.000000 0.034960 0.000000 -0.000098
# 5 0.001242 0.002953 -0.000999 0.000000 0.047272 0.000000
# 6 0.000000 0.000000 0.000000 -0.000098 0.000000 0.037755
#
#
# Mechanical properties :
#
#
# Convention : Reuss Voigt Hill
#
# Bulk Modulus (GPa) = 37.79438 43.66127 40.72783
# Shear Modulus (GPa) = 24.47678 25.72340 25.10009
#
# Velocity S-wave (km/s) = 3.87063 3.96797 3.91960
# Velocity P-wave (km/s) = 6.56574 6.90777 6.73892
#
# Compressibility (1/GPa) = 0.02645896
#
# Stress axis : x y z
#
# Youngs Moduli (GPa) = 54.24511 47.10218 88.50581
#
# Poissons Ratio (x) = 0.16827 0.44875
# Poissons Ratio (y) = 0.19378 0.31950
# Poissons Ratio (z) = 0.27504 0.17003
#
# Static dielectric constant tensor:
#      x y z
#    x 2.808840 0.000000 0.054890 
#    y 0.000000 3.174660 0.000000 
#    z 0.054890 0.000000 3.336110 
# 
# 
# High freq. dielectric constant tensor:
#      x y z
#    x 1.595430 0.000000 0.002120 
#    y 0.000000 1.644120 0.000000 
#    z 0.002120 0.000000 1.627530 
# 
# From -- ./inp_files/348631.got.cif
#   From: 2010.06.25/outbox.cif.g09.slc.cpg/sg12_175_cif.got.tgz:348631.got - 2010.06.28 00:19:55.
