data_PCOD8080277
_publ_section_title
;
Structure prediction by ZEFSAII (Michael W. Deem and Ramdas Pophale) SiO2 
 PCOD8080277
Probable space group: C 2/M
;
_chemical_formula_sum "Si O2"
_cell_formula_units_Z 56
_cell_length_a 20.598097
_cell_length_b 9.248222
_cell_length_c 24.389149
_cell_angle_alpha 90.000000
_cell_angle_beta 45.508692
_cell_angle_gamma 90.000000
_cell_volume 3314.276828
_symmetry_space_group_name_H-M "C 2/M"
_symmetry_group_IT_number 12
_symmetry_cell_setting 'monoclinic'
loop_
_space_group_symop_operation_xyz
x,y,z
-x,y,-z
-x,-y,-z
x,-y,z
1/2+x,1/2+y,z
1/2-x,1/2+y,-z
1/2-x,1/2-y,-z
1/2+x,1/2-y,z
loop_
_atom_site_type_symbol
_atom_site_label
_atom_site_fract_x
_atom_site_fract_y
_atom_site_fract_z
Si Si1 0.231840 0.167770 0.955188
Si Si2 0.083850 0.333145 0.207935
Si Si3 0.458066 0.336285 0.355179
Si Si4 0.551065 0.168420 0.810144
Si Si5 0.179063 0.839834 0.664964
Si Si6 0.968555 0.169499 0.958511
Si Si7 0.180150 0.330299 0.502315
O O1 0.310346 0.202739 0.864515
O O2 0.136440 0.216224 0.985679
O O3 0.232673 0.000000 0.969894
O O4 0.250000 0.250000 0.000000
O O5 0.067354 0.500000 0.232888
O O6 0.050972 0.236887 0.278587
O O7 0.029562 0.294174 0.184480
O O8 0.478390 0.500000 0.361973
O O9 0.385736 0.330811 0.349292
O O10 0.418390 0.244992 0.430480
O O11 0.647551 0.224880 0.729065
O O12 0.560295 0.000000 0.816031
O O13 0.531399 0.246960 0.878571
O O14 0.282393 0.809953 0.582320
O O15 0.172839 0.000000 0.694660
O O16 0.981878 0.000000 0.940423
O O17 0.000000 0.216139 0.000000
O O18 0.174894 0.500000 0.520824
O O19 0.250000 0.250000 0.500000
#
# Coordination Sequence:
#
# PCOD8080277 Si02
#       7
#     8   8   8   8   8   8   8
#     4  10  19  32  50  70  92 119 156 197 235 279
#     4   9  17  28  42  63  88 115 150 190 231 271
#     4   9  16  24  36  56  83 116 149 183 226 271
#     4  10  18  28  44  65  88 116 152 193 234 272
#     4   8  15  25  37  55  81 115 151 184 222 270
#     4  10  21  35  50  68  93 125 156 191 237 285
#     4   9  15  23  35  53  80 115 151 184 223 269
#
# _framework density 16.896597
#
# number of rings (size 3 to 8) (size 9 to 14) (size 15 to 20)
#    0.000    2.714    1.429    2.143    0.000    5.429 
#    0.000    0.000    0.000    0.000    0.000    0.000 
#    0.000    1.143    0.000   13.143    0.000    7.143 
#
# Total GULP energy -347076.573077 kJ/mol
# GULP energy per Si atom -12395.591896 kJ/mol
# Density = 1.685814 g / cm^3
# Si number density = 16.896597 Si / 1000 Ang^3
#
#
#
# Elastic Constant Matrix: (Units=GPa)
#
#
# Indices 1 2 3 4 5 6 
#
# 1 52.1141 29.0325 42.6109 0.0000 -2.8291 -0.0002
# 2 29.0325 92.5621 72.4999 0.0000 -3.4835 -0.0003
# 3 42.6109 72.4999 149.3451 0.0000 -14.0750 0.0000
# 4 0.0000 0.0000 0.0000 36.0022 0.0000 -1.2582
# 5 -2.8291 -3.4835 -14.0750 0.0000 12.0309 0.0000
# 6 -0.0002 -0.0003 0.0000 -1.2582 0.0000 10.6068
#
#
#
# Elastic Compliance Matrix: (Units=1/GPa)
#
#
# Indices 1 2 3 4 5 6 
#
# 1 0.025843 -0.003660 -0.005759 0.000000 -0.001720 0.000000
# 2 -0.003660 0.018274 -0.008328 0.000000 -0.005312 0.000000
# 3 -0.005759 -0.008328 0.013517 0.000000 0.012048 0.000000
# 4 0.000000 0.000000 0.000000 0.027892 0.000000 0.003308
# 5 -0.001720 -0.005312 0.012048 0.000000 0.095272 -0.000001
# 6 0.000000 0.000000 0.000000 0.003308 -0.000001 0.094672
#
#
# Mechanical properties :
#
#
# Convention : Reuss Voigt Hill
#
# Bulk Modulus (GPa) = 45.16380 64.70085 54.93233
# Shear Modulus (GPa) = 15.70630 21.71985 18.71307
#
# Velocity S-wave (km/s) = 3.05217 3.58922 3.33153
# Velocity P-wave (km/s) = 6.26167 7.45332 6.88333
#
# Compressibility (1/GPa) = 0.02214162
#
# Stress axis : x y z
#
# Youngs Moduli (GPa) = 38.69537 54.72172 73.97967
#
# Poissons Ratio (x) = 0.20027 0.42604
# Poissons Ratio (y) = 0.14162 0.61608
# Poissons Ratio (z) = 0.22284 0.45571
#
# Static dielectric constant tensor:
#      x y z
#    x 2.694780 0.000000 -0.310490 
#    y 0.000000 3.266720 0.000000 
#    z -0.310490 0.000000 3.634110 
# 
# 
# High freq. dielectric constant tensor:
#      x y z
#    x 1.574300 0.000000 -0.023500 
#    y 0.000000 1.660390 0.000000 
#    z -0.023500 0.000000 1.669730 
# 
# From -- ./inp_files/287024.got.cif
#   From: 2010.06.25/outbox.cif.g09.slc.cpg/sg12_144_cif.got.tgz:287024.got - 2010.06.28 00:19:55.
