data_PCOD8080992
_publ_section_title
;
Structure prediction by ZEFSAII (Michael W. Deem and Ramdas Pophale) SiO2 
 PCOD8080992
Probable space group: C 2/M
;
_chemical_formula_sum "Si O2"
_cell_formula_units_Z 64
_cell_length_a 26.978962
_cell_length_b 9.295502
_cell_length_c 20.331936
_cell_angle_alpha 90.000000
_cell_angle_beta 139.504546
_cell_angle_gamma 90.000000
_cell_volume 3311.165487
_symmetry_space_group_name_H-M "C 2/M"
_symmetry_group_IT_number 12
_symmetry_cell_setting 'monoclinic'
loop_
_space_group_symop_operation_xyz
x,y,z
-x,y,-z
-x,-y,-z
x,-y,z
1/2+x,1/2+y,z
1/2-x,1/2+y,-z
1/2-x,1/2-y,-z
1/2+x,1/2-y,z
loop_
_atom_site_type_symbol
_atom_site_label
_atom_site_fract_x
_atom_site_fract_y
_atom_site_fract_z
Si Si1 0.319138 0.159415 0.710562
Si Si2 0.176081 0.657342 0.431619
Si Si3 0.738760 0.828877 0.838314
Si Si4 0.022128 0.328627 0.092182
Si Si5 0.440551 0.830070 0.581152
Si Si6 0.615456 0.171412 0.956165
Si Si7 0.810969 0.330902 0.357504
Si Si8 0.101127 0.329464 0.791120
O O1 0.352519 0.142850 0.671095
O O2 0.392212 0.233419 0.817442
O O3 0.245458 0.259100 0.646155
O O4 0.298967 0.000000 0.718021
O O5 0.196083 0.500000 0.481494
O O6 0.250000 0.750000 0.500000
O O7 0.111655 0.730530 0.411973
O O8 0.815781 0.747788 0.935596
O O9 0.708714 0.778358 0.735930
O O10 0.674582 0.777836 0.824945
O O11 0.751967 0.000000 0.853813
O O12 0.025793 0.500000 0.096921
O O13 0.000000 0.265028 0.000000
O O14 0.962951 0.277819 0.088428
O O15 0.398238 0.790741 0.468843
O O16 0.525584 0.764968 0.677707
O O17 0.448423 0.000000 0.595614
O O18 0.627877 0.000000 0.973354
O O19 0.610029 0.225225 0.875157
O O20 0.799318 0.500000 0.350670
O O21 0.095630 0.500000 0.785790
#
# Coordination Sequence:
#
# PCOD8080992 Si02
#       8
#     8   8   8   8   8   8   8   8
#     4  10  19  31  50  75 102 133 169 209 248 292
#     4  10  18  29  48  73 100 129 162 200 242 289
#     4  10  21  35  52  76 104 132 167 212 260 306
#     4   9  17  29  47  73 101 128 163 204 243 291
#     4   9  17  31  51  75 104 135 169 207 248 299
#     4  10  19  34  57  78  98 130 171 213 258 302
#     4  10  20  33  50  74 105 139 169 204 253 306
#     4   9  18  33  54  78 100 128 171 218 256 296
#
# _framework density 19.328541999999999
#
# number of rings (size 3 to 8) (size 9 to 14) (size 15 to 20)
#    0.000    2.375    1.250    1.875    0.000    5.000 
#    0.000    3.125    0.000    6.750    0.000    1.750 
#    0.000    0.000    0.000    0.000    0.000    0.000 
#
# Total GULP energy -396448.942486 kJ/mol
# GULP energy per Si atom -12389.029453 kJ/mol
# Density = 1.928455 g / cm^3
# Si number density = 19.328542 Si / 1000 Ang^3
#
#
#
# Elastic Constant Matrix: (Units=GPa)
#
#
# Indices 1 2 3 4 5 6 
#
# 1 77.6305 8.9787 19.7298 0.0000 -5.5694 0.0000
# 2 8.9787 24.7313 20.8302 0.0000 2.5611 0.0000
# 3 19.7298 20.8302 124.8183 0.0000 -2.9655 0.0000
# 4 0.0000 0.0000 0.0000 23.7123 0.0000 -0.3335
# 5 -5.5694 2.5611 -2.9655 0.0000 35.7025 0.0000
# 6 0.0000 0.0000 0.0000 -0.3335 0.0000 15.3206
#
#
#
# Elastic Compliance Matrix: (Units=1/GPa)
#
#
# Indices 1 2 3 4 5 6 
#
# 1 0.013890 -0.004052 -0.001464 0.000000 0.002336 0.000000
# 2 -0.004052 0.048817 -0.007620 0.000000 -0.004767 0.000000
# 3 -0.001464 -0.007620 0.009541 0.000000 0.001111 0.000000
# 4 0.000000 0.000000 0.000000 0.042185 0.000000 0.000918
# 5 0.002336 -0.004767 0.001111 0.000000 0.028808 0.000000
# 6 0.000000 0.000000 0.000000 0.000918 0.000000 0.065292
#
#
# Mechanical properties :
#
#
# Convention : Reuss Voigt Hill
#
# Bulk Modulus (GPa) = 21.74977 36.25083 29.00030
# Shear Modulus (GPa) = 19.98976 26.78984 23.38980
#
# Velocity S-wave (km/s) = 3.21940 3.72697 3.48245
# Velocity P-wave (km/s) = 5.00964 6.10870 5.58627
#
# Compressibility (1/GPa) = 0.04597751
#
# Stress axis : x y z
#
# Youngs Moduli (GPa) = 71.99546 20.48473 104.81058
#
# Poissons Ratio (x) = 0.08300 0.15343
# Poissons Ratio (y) = 0.29169 0.79861
# Poissons Ratio (z) = 0.10539 0.15609
#
# Static dielectric constant tensor:
#      x y z
#    x 4.675380 0.000000 -0.720860 
#    y 0.000000 3.040350 0.000000 
#    z -0.720860 0.000000 4.270380 
# 
# 
# High freq. dielectric constant tensor:
#      x y z
#    x 1.756060 0.000000 -0.005810 
#    y 0.000000 1.694980 0.000000 
#    z -0.005810 0.000000 1.773280 
# 
# From -- ./inp_files/327831.got.cif
#   From: 2010.06.25/outbox.cif.g09.slc.cpg/sg12_164_cif.got.tgz:327831.got - 2010.06.28 00:19:55.
