data_PCOD8080139
_publ_section_title
;
Structure prediction by ZEFSAII (Michael W. Deem and Ramdas Pophale) SiO2 
 PCOD8080139
Probable space group: C 2/M
;
_chemical_formula_sum "Si O2"
_cell_formula_units_Z 64
_cell_length_a 33.873197
_cell_length_b 9.065349
_cell_length_c 19.467436
_cell_angle_alpha 90.000000
_cell_angle_beta 42.855374
_cell_angle_gamma 90.000000
_cell_volume 4065.877055
_symmetry_space_group_name_H-M "C 2/M"
_symmetry_group_IT_number 12
_symmetry_cell_setting 'monoclinic'
loop_
_space_group_symop_operation_xyz
x,y,z
-x,y,-z
-x,-y,-z
x,-y,z
1/2+x,1/2+y,z
1/2-x,1/2+y,-z
1/2-x,1/2-y,-z
1/2+x,1/2-y,z
loop_
_atom_site_type_symbol
_atom_site_label
_atom_site_fract_x
_atom_site_fract_y
_atom_site_fract_z
Si Si1 0.214779 0.328027 0.375935
Si Si2 0.962166 0.825569 0.112819
Si Si3 0.668273 0.670320 0.714351
Si Si4 0.379670 0.326735 0.585275
Si Si5 0.468670 0.168774 0.242522
Si Si6 0.168351 0.333520 0.579672
Si Si7 0.443278 0.833840 0.618449
Si Si8 0.490709 0.674075 0.352733
O O1 0.198921 0.500000 0.385416
O O2 0.284713 0.301245 0.284745
O O3 0.183039 0.232288 0.358600
O O4 0.193254 0.269783 0.477221
O O5 0.895720 0.773311 0.182644
O O6 0.988050 0.745009 0.146675
O O7 0.966283 0.000000 0.119497
O O8 0.000000 0.774207 0.000000
O O9 0.664762 0.500000 0.700854
O O10 0.692034 0.743778 0.614376
O O11 0.376669 0.500000 0.601926
O O12 0.392809 0.248746 0.640959
O O13 0.428545 0.286525 0.466270
O O14 0.400306 0.179638 0.336662
O O15 0.496637 0.256339 0.270032
O O16 0.490380 0.000000 0.215857
O O17 0.189498 0.500000 0.562649
O O18 0.500000 0.837780 0.500000
O O19 0.456923 0.742953 0.669873
O O20 0.423325 0.000000 0.662439
O O21 0.499597 0.500000 0.336900
#
# Coordination Sequence:
#
# PCOD8080139 Si02
#       8
#     8   8   8   8   8   8   8   8
#     4  10  18  28  40  57  84 114 146 180 212 253
#     4   9  18  33  49  64  86 113 142 181 228 269
#     4   9  18  29  43  61  80 108 145 180 216 259
#     4  10  19  28  40  59  84 117 152 182 213 251
#     4  10  18  28  44  65  87 112 146 181 217 261
#     4   9  17  27  39  56  82 112 140 176 216 251
#     4   9  17  28  42  58  81 115 150 183 217 250
#     4  10  18  28  42  61  86 114 148 184 214 252
#
# _framework density 15.740762
#
# number of rings (size 3 to 8) (size 9 to 14) (size 15 to 20)
#    0.000    2.500    1.250    1.875    0.000    4.250 
#    0.000    0.000    0.000    0.000    0.000    0.000 
#    0.000    1.000    0.000    2.750    0.000    4.000 
#
# Total GULP energy -396739.909373 kJ/mol
# GULP energy per Si atom -12398.122168 kJ/mol
# Density = 1.570494 g / cm^3
# Si number density = 15.740762 Si / 1000 Ang^3
#
#
#
# Elastic Constant Matrix: (Units=GPa)
#
#
# Indices 1 2 3 4 5 6 
#
# 1 113.9846 51.8595 36.6806 -0.0105 22.3476 0.0050
# 2 51.8595 79.3610 29.1073 -0.0246 15.8966 0.0137
# 3 36.6806 29.1073 58.5817 -0.0212 13.0631 0.0119
# 4 -0.0105 -0.0246 -0.0212 16.8189 0.0145 8.3677
# 5 22.3476 15.8966 13.0631 0.0145 18.9505 -0.0065
# 6 0.0050 0.0137 0.0119 8.3677 -0.0065 29.6880
#
#
#
# Elastic Compliance Matrix: (Units=1/GPa)
#
#
# Indices 1 2 3 4 5 6 
#
# 1 0.014771 -0.006299 -0.004033 0.000004 -0.009355 -0.000001
# 2 -0.006299 0.019527 -0.004445 0.000032 -0.005887 -0.000017
# 3 -0.004033 -0.004445 0.023529 0.000037 -0.007734 -0.000019
# 4 0.000004 0.000032 0.000037 0.069154 -0.000116 -0.019491
# 5 -0.009355 -0.005887 -0.007734 -0.000116 0.074071 0.000056
# 6 -0.000001 -0.000017 -0.000019 -0.019491 0.000056 0.039177
#
#
# Mechanical properties :
#
#
# Convention : Reuss Voigt Hill
#
# Bulk Modulus (GPa) = 35.37092 54.13578 44.75335
# Shear Modulus (GPa) = 17.90785 22.04347 19.97566
#
# Velocity S-wave (km/s) = 3.37660 3.74626 3.56622
# Velocity P-wave (km/s) = 6.14179 7.29242 6.74170
#
# Compressibility (1/GPa) = 0.02827181
#
# Stress axis : x y z
#
# Youngs Moduli (GPa) = 67.70039 51.21211 42.50140
#
# Poissons Ratio (x) = 0.32260 0.17140
# Poissons Ratio (y) = 0.42647 0.18892
# Poissons Ratio (z) = 0.27302 0.22764
#
# Static dielectric constant tensor:
#      x y z
#    x 3.085600 -0.000010 0.076330 
#    y -0.000010 3.077090 0.000020 
#    z 0.076330 0.000020 2.676630 
# 
# 
# High freq. dielectric constant tensor:
#      x y z
#    x 1.604650 0.000000 0.015960 
#    y 0.000000 1.613000 0.000000 
#    z 0.015960 0.000000 1.548100 
# 
# From -- ./inp_files/249126.got.cif
#   From: 2010.06.25/outbox.cif.g09.slc.cpg/sg12_125_cif.got.tgz:249126.got - 2010.06.28 00:19:55.
