data_PCOD8080543
_publ_section_title
;
Structure prediction by ZEFSAII (Michael W. Deem and Ramdas Pophale) SiO2 
 PCOD8080543
Probable space group: C 2/M
;
_chemical_formula_sum "Si O2"
_cell_formula_units_Z 56
_cell_length_a 20.462909
_cell_length_b 9.027573
_cell_length_c 19.732129
_cell_angle_alpha 90.000000
_cell_angle_beta 59.124357
_cell_angle_gamma 90.000000
_cell_volume 3128.548623
_symmetry_space_group_name_H-M "C 2/M"
_symmetry_group_IT_number 12
_symmetry_cell_setting 'monoclinic'
loop_
_space_group_symop_operation_xyz
x,y,z
-x,y,-z
-x,-y,-z
x,-y,z
1/2+x,1/2+y,z
1/2-x,1/2+y,-z
1/2-x,1/2-y,-z
1/2+x,1/2-y,z
loop_
_atom_site_type_symbol
_atom_site_label
_atom_site_fract_x
_atom_site_fract_y
_atom_site_fract_z
Si Si1 0.318030 0.829878 0.498909
Si Si2 0.471001 0.325396 0.818360
Si Si3 0.408870 0.825721 0.328305
Si Si4 0.795506 0.824972 0.914765
Si Si5 0.777553 0.173432 0.172982
Si Si6 0.232366 0.172546 0.669693
Si Si7 0.548377 0.675277 0.912957
O O1 0.250000 0.750000 0.500000
O O2 0.394926 0.787736 0.416525
O O3 0.309788 0.794942 0.583981
O O4 0.302333 0.000000 0.494539
O O5 0.479189 0.500000 0.804844
O O6 0.510347 0.247858 0.732837
O O7 0.383539 0.278598 0.872702
O O8 0.515515 0.263227 0.860145
O O9 0.340211 0.762949 0.318670
O O10 0.414031 0.000000 0.312732
O O11 0.767163 0.770216 0.857232
O O12 0.784658 0.000000 0.926705
O O13 0.750000 0.750000 0.000000
O O14 0.746777 0.214062 0.264294
O O15 0.865065 0.222560 0.123054
O O16 0.767444 0.000000 0.161458
O O17 0.208365 0.000000 0.679282
O O18 0.539263 0.500000 0.917219
O O19 0.500000 0.745128 0.000000
#
# Coordination Sequence:
#
# PCOD8080543 Si02
#       7
#     8   8   8   8   8   8   8
#     4   8  15  26  43  71 105 138 171 208 254 304
#     4  10  20  36  55  74 100 139 179 210 253 317
#     4  10  18  28  47  78 111 136 166 219 268 299
#     4  11  24  40  58  77 103 138 176 218 260 314
#     4  10  19  33  55  78 103 137 174 216 260 307
#     4   9  16  30  51  74 104 143 180 208 248 317
#     4   9  16  29  51  75  96 124 167 212 252 303
#
# _framework density 17.899673
#
# number of rings (size 3 to 8) (size 9 to 14) (size 15 to 20)
#    0.000    2.429    1.429    1.714    0.000    4.571 
#    0.000    0.000    0.000    2.571    0.000    6.000 
#    0.000    0.000    0.000    0.000    0.000    0.000 
#
# Total GULP energy -346948.398427 kJ/mol
# GULP energy per Si atom -12391.014230 kJ/mol
# Density = 1.785893 g / cm^3
# Si number density = 17.899673 Si / 1000 Ang^3
#
#
#
# Elastic Constant Matrix: (Units=GPa)
#
#
# Indices 1 2 3 4 5 6 
#
# 1 67.6395 32.7394 40.6415 0.0000 -2.4745 0.0000
# 2 32.7394 46.9799 48.4698 0.0002 -6.5335 0.0001
# 3 40.6415 48.4698 173.6802 0.0000 -6.0376 -0.0001
# 4 0.0000 0.0002 0.0000 26.8830 0.0000 -0.4841
# 5 -2.4745 -6.5335 -6.0376 0.0000 24.8713 0.0000
# 6 0.0000 0.0001 -0.0001 -0.4841 0.0000 24.1527
#
#
#
# Elastic Compliance Matrix: (Units=1/GPa)
#
#
# Indices 1 2 3 4 5 6 
#
# 1 0.022589 -0.014727 -0.001243 0.000000 -0.001923 0.000000
# 2 -0.014727 0.040371 -0.007566 0.000000 0.007303 0.000000
# 3 -0.001243 -0.007566 0.008156 0.000000 -0.000131 0.000000
# 4 0.000000 0.000000 0.000000 0.037212 0.000000 0.000746
# 5 -0.001923 0.007303 -0.000131 0.000000 0.041902 0.000000
# 6 0.000000 0.000000 0.000000 0.000746 0.000000 0.041418
#
#
# Mechanical properties :
#
#
# Convention : Reuss Voigt Hill
#
# Bulk Modulus (GPa) = 41.59264 59.11124 50.35194
# Shear Modulus (GPa) = 20.26474 26.27799 23.27136
#
# Velocity S-wave (km/s) = 3.36836 3.83570 3.60960
# Velocity P-wave (km/s) = 6.19797 7.26031 6.75007
#
# Compressibility (1/GPa) = 0.02404271
#
# Stress axis : x y z
#
# Youngs Moduli (GPa) = 44.26944 24.77041 122.61604
#
# Poissons Ratio (x) = 0.36480 0.15238
# Poissons Ratio (y) = 0.65196 0.92776
# Poissons Ratio (z) = 0.05502 0.18742
#
# Static dielectric constant tensor:
#      x y z
#    x 3.019200 0.000000 0.010000 
#    y 0.000000 3.138500 0.000000 
#    z 0.010000 0.000000 4.174170 
# 
# 
# High freq. dielectric constant tensor:
#      x y z
#    x 1.651290 0.000000 -0.001620 
#    y 0.000000 1.678370 0.000000 
#    z -0.001620 0.000000 1.724160 
# 
# From -- ./inp_files/319000.got.cif
#   From: 2010.06.25/outbox.cif.g09.slc.cpg/sg12_160_cif.got.tgz:319000.got - 2010.06.28 00:19:55.
