data_PCOD8080196
_publ_section_title
;
Structure prediction by ZEFSAII (Michael W. Deem and Ramdas Pophale) SiO2 
 PCOD8080196
Probable space group: C 2/M
;
_chemical_formula_sum "Si O2"
_cell_formula_units_Z 56
_cell_length_a 27.077289
_cell_length_b 9.019872
_cell_length_c 14.501264
_cell_angle_alpha 90.000000
_cell_angle_beta 76.399949
_cell_angle_gamma 90.000000
_cell_volume 3442.390700
_symmetry_space_group_name_H-M "C 2/M"
_symmetry_group_IT_number 12
_symmetry_cell_setting 'monoclinic'
loop_
_space_group_symop_operation_xyz
x,y,z
-x,y,-z
-x,-y,-z
x,-y,z
1/2+x,1/2+y,z
1/2-x,1/2+y,-z
1/2-x,1/2-y,-z
1/2+x,1/2-y,z
loop_
_atom_site_type_symbol
_atom_site_label
_atom_site_fract_x
_atom_site_fract_y
_atom_site_fract_z
Si Si1 0.941200 0.668993 0.214519
Si Si2 0.128816 0.167515 0.203660
Si Si3 0.803612 0.325264 0.963423
Si Si4 0.038482 0.167707 0.103075
Si Si5 0.437067 0.324257 0.600490
Si Si6 0.956951 0.325577 0.410936
Si Si7 0.609030 0.170262 0.942582
O O1 0.960461 0.500000 0.198249
O O2 0.927830 0.704352 0.326873
O O3 0.892156 0.693036 0.168423
O O4 0.985382 0.773370 0.160949
O O5 0.172062 0.276105 0.145111
O O6 0.077673 0.185008 0.168674
O O7 0.112655 0.209282 0.315261
O O8 0.150038 0.000000 0.189080
O O9 0.796062 0.500000 0.966462
O O10 0.750000 0.250000 0.000000
O O11 0.839396 0.268518 0.032640
O O12 0.031053 0.000000 0.075554
O O13 0.058725 0.252498 0.004408
O O14 0.448337 0.500000 0.592315
O O15 0.486265 0.240460 0.619409
O O16 0.425329 0.260052 0.503884
O O17 0.959942 0.500000 0.432340
O O18 0.604911 0.000000 0.972622
#
# Coordination Sequence:
#
# PCOD8080196 Si02
#       7
#     8   8   8   8   8   8   8
#     4  10  19  30  43  61  91 127 159 187 220 265
#     4   9  18  31  47  67  93 123 155 188 227 274
#     4  10  20  34  53  72  92 116 147 189 235 280
#     4  10  18  28  42  64  92 122 156 191 223 260
#     4  10  18  30  45  63  91 126 158 193 230 266
#     4  10  19  28  42  64  91 125 162 197 223 258
#     4   9  19  33  46  63  88 122 155 183 224 278
#
# _framework density 16.267764
#
# number of rings (size 3 to 8) (size 9 to 14) (size 15 to 20)
#    0.000    2.286    1.429    3.000    0.000    5.143 
#    0.000    0.000    0.000    0.000    0.000    1.000 
#    0.000    0.000    0.000    0.000    0.000    0.000 
#
# Total GULP energy -347047.548333 kJ/mol
# GULP energy per Si atom -12394.555298 kJ/mol
# Density = 1.623074 g / cm^3
# Si number density = 16.267764 Si / 1000 Ang^3
#
#
#
# Elastic Constant Matrix: (Units=GPa)
#
#
# Indices 1 2 3 4 5 6 
#
# 1 58.9841 32.1746 52.2578 0.0000 -4.5658 0.0000
# 2 32.1746 71.4406 42.5819 0.0000 -2.8239 0.0000
# 3 52.2578 42.5819 125.5756 0.0000 7.6409 0.0000
# 4 0.0000 0.0000 0.0000 25.4705 0.0000 -5.2794
# 5 -4.5658 -2.8239 7.6409 0.0000 21.5218 0.0000
# 6 0.0000 0.0000 0.0000 -5.2794 0.0000 17.2963
#
#
#
# Elastic Compliance Matrix: (Units=1/GPa)
#
#
# Indices 1 2 3 4 5 6 
#
# 1 0.031650 -0.007093 -0.011363 0.000000 0.009818 0.000000
# 2 -0.007093 0.019572 -0.003833 0.000000 0.002424 0.000000
# 3 -0.011363 -0.003833 0.014482 0.000000 -0.008055 0.000000
# 4 0.000000 0.000000 0.000000 0.041913 0.000000 0.012793
# 5 0.009818 0.002424 -0.008055 0.000000 0.051725 0.000000
# 6 0.000000 0.000000 0.000000 0.012793 0.000000 0.061721
#
#
# Mechanical properties :
#
#
# Convention : Reuss Voigt Hill
#
# Bulk Modulus (GPa) = 47.33392 56.66987 52.00190
# Shear Modulus (GPa) = 18.33624 21.45678 19.89651
#
# Velocity S-wave (km/s) = 3.36095 3.63571 3.50103
# Velocity P-wave (km/s) = 6.64991 7.24816 6.95547
#
# Compressibility (1/GPa) = 0.02112650
#
# Stress axis : x y z
#
# Youngs Moduli (GPa) = 31.59511 51.09242 69.05176
#
# Poissons Ratio (x) = 0.36241 0.78466
# Poissons Ratio (y) = 0.22411 0.26465
# Poissons Ratio (z) = 0.35903 0.19581
#
# Static dielectric constant tensor:
#      x y z
#    x 2.831840 0.000000 0.247670 
#    y 0.000000 3.211030 0.000000 
#    z 0.247670 0.000000 3.402330 
# 
# 
# High freq. dielectric constant tensor:
#      x y z
#    x 1.579040 0.000000 0.017080 
#    y 0.000000 1.638350 0.000000 
#    z 0.017080 0.000000 1.627920 
# 
# From -- ./inp_files/242994.got.cif
#   From: 2010.06.25/outbox.cif.g09.slc.cpg/sg12_122_cif.got.tgz:242994.got - 2010.06.28 00:19:55.
