data_PCOD8080865
_publ_section_title
;
Structure prediction by ZEFSAII (Michael W. Deem and Ramdas Pophale) SiO2 
 PCOD8080865
Probable space group: C 2/M
;
_chemical_formula_sum "Si O2"
_cell_formula_units_Z 64
_cell_length_a 26.754031
_cell_length_b 8.977014
_cell_length_c 23.613659
_cell_angle_alpha 90.000000
_cell_angle_beta 135.230135
_cell_angle_gamma 90.000000
_cell_volume 3994.091405
_symmetry_space_group_name_H-M "C 2/M"
_symmetry_group_IT_number 12
_symmetry_cell_setting 'monoclinic'
loop_
_space_group_symop_operation_xyz
x,y,z
-x,y,-z
-x,-y,-z
x,-y,z
1/2+x,1/2+y,z
1/2-x,1/2+y,-z
1/2-x,1/2-y,-z
1/2+x,1/2-y,z
loop_
_atom_site_type_symbol
_atom_site_label
_atom_site_fract_x
_atom_site_fract_y
_atom_site_fract_z
Si Si1 0.700901 0.827853 0.005680
Si Si2 0.500647 0.331016 0.416568
Si Si3 0.712183 0.176137 0.838740
Si Si4 0.540755 0.670190 0.320890
Si Si5 0.410812 0.170433 0.172485
Si Si6 0.137403 0.325935 0.557855
Si Si7 0.320664 0.175202 0.534858
Si Si8 0.659715 0.674928 0.686316
O O1 0.714763 0.744747 0.076466
O O2 0.722319 0.000000 0.029013
O O3 0.750000 0.750000 0.000000
O O4 0.621041 0.812259 0.916782
O O5 0.518118 0.500000 0.449127
O O6 0.506023 0.311483 0.354094
O O7 0.555328 0.224574 0.492871
O O8 0.422243 0.283882 0.370703
O O9 0.645735 0.223506 0.825117
O O10 0.705230 0.243276 0.770725
O O11 0.720048 0.000000 0.841537
O O12 0.557721 0.500000 0.319168
O O13 0.482447 0.733051 0.230537
O O14 0.613672 0.761864 0.375947
O O15 0.430979 0.000000 0.201428
O O16 0.141452 0.500000 0.573372
O O17 0.171272 0.283257 0.524731
O O18 0.181102 0.239225 0.641835
O O19 0.250000 0.250000 0.500000
O O20 0.317083 0.000000 0.541483
O O21 0.674851 0.500000 0.701555
#
# Coordination Sequence:
#
# PCOD8080865 Si02
#       8
#     8   8   8   8   8   8   8   8
#     4   9  17  28  41  59  85 120 159 196 232 270
#     4   9  18  30  42  61  88 120 154 188 223 262
#     4  10  19  29  42  61  88 124 161 196 232 269
#     4  10  18  29  47  69  92 120 154 190 229 273
#     4   9  17  28  42  62  89 120 155 194 230 267
#     4  10  21  33  46  66  88 115 149 188 230 273
#     4  10  21  37  54  70  91 117 148 189 236 282
#     4  11  20  30  44  63  90 123 157 192 224 266
#
# _framework density 16.023669999999999
#
# number of rings (size 3 to 8) (size 9 to 14) (size 15 to 20)
#    0.000    2.250    1.250    3.375    0.000    7.000 
#    0.000    0.000    0.000    0.000    0.000    0.000 
#    0.000    1.000    0.000   10.500    0.000    4.500 
#
# Total GULP energy -396748.693153 kJ/mol
# GULP energy per Si atom -12398.396661 kJ/mol
# Density = 1.598720 g / cm^3
# Si number density = 16.023670 Si / 1000 Ang^3
#
#
#
# Elastic Constant Matrix: (Units=GPa)
#
#
# Indices 1 2 3 4 5 6 
#
# 1 39.9716 28.0391 35.9236 0.0000 7.1889 0.0000
# 2 28.0391 96.4422 65.8260 0.0000 2.7163 0.0000
# 3 35.9236 65.8260 130.3810 0.0000 -1.3905 0.0000
# 4 0.0000 0.0000 0.0000 34.5427 0.0000 1.1042
# 5 7.1889 2.7163 -1.3905 0.0000 14.6960 0.0000
# 6 0.0000 0.0000 0.0000 1.1042 0.0000 18.9801
#
#
#
# Elastic Compliance Matrix: (Units=1/GPa)
#
#
# Indices 1 2 3 4 5 6 
#
# 1 0.039830 -0.005194 -0.008558 0.000000 -0.019333 0.000000
# 2 -0.005194 0.016700 -0.007013 0.000000 -0.001209 0.000000
# 3 -0.008558 -0.007013 0.013641 0.000000 0.006773 0.000000
# 4 0.000000 0.000000 0.000000 0.029004 0.000000 -0.001687
# 5 -0.019333 -0.001209 0.006773 0.000000 0.078367 0.000000
# 6 0.000000 0.000000 0.000000 -0.001687 0.000000 0.052785
#
#
# Mechanical properties :
#
#
# Convention : Reuss Voigt Hill
#
# Bulk Modulus (GPa) = 34.91632 58.48578 46.70105
# Shear Modulus (GPa) = 17.76809 22.77752 20.27280
#
# Velocity S-wave (km/s) = 3.33358 3.77436 3.56079
# Velocity P-wave (km/s) = 6.05432 7.45475 6.79073
#
# Compressibility (1/GPa) = 0.02863990
#
# Stress axis : x y z
#
# Youngs Moduli (GPa) = 25.10681 59.88094 73.30979
#
# Poissons Ratio (x) = 0.31103 0.62739
# Poissons Ratio (y) = 0.13041 0.51413
# Poissons Ratio (z) = 0.21486 0.41995
#
# Static dielectric constant tensor:
#      x y z
#    x 2.626060 0.000000 -0.045930 
#    y 0.000000 3.169990 0.000000 
#    z -0.045930 0.000000 3.336470 
# 
# 
# High freq. dielectric constant tensor:
#      x y z
#    x 1.552150 0.000000 -0.003600 
#    y 0.000000 1.632390 0.000000 
#    z -0.003600 0.000000 1.624280 
# 
# From -- ./inp_files/326864.got.cif
#   From: 2010.06.25/outbox.cif.g09.slc.cpg/sg12_164_cif.got.tgz:326864.got - 2010.06.28 00:19:55.
