data_PCOD8080197
_publ_section_title
;
Structure prediction by ZEFSAII (Michael W. Deem and Ramdas Pophale) SiO2 
 PCOD8080197
Probable space group: C 2/M
;
_chemical_formula_sum "Si O2"
_cell_formula_units_Z 56
_cell_length_a 19.361061
_cell_length_b 9.315918
_cell_length_c 22.505743
_cell_angle_alpha 90.000000
_cell_angle_beta 53.435790
_cell_angle_gamma 90.000000
_cell_volume 3260.365767
_symmetry_space_group_name_H-M "C 2/M"
_symmetry_group_IT_number 12
_symmetry_cell_setting 'monoclinic'
loop_
_space_group_symop_operation_xyz
x,y,z
-x,y,-z
-x,-y,-z
x,-y,z
1/2+x,1/2+y,z
1/2-x,1/2+y,-z
1/2-x,1/2-y,-z
1/2+x,1/2-y,z
loop_
_atom_site_type_symbol
_atom_site_label
_atom_site_fract_x
_atom_site_fract_y
_atom_site_fract_z
Si Si1 0.971926 0.833268 0.190244
Si Si2 0.637814 0.669019 0.439559
Si Si3 0.757327 0.665349 0.202141
Si Si4 0.421177 0.331778 0.755673
Si Si5 0.549914 0.166947 0.916872
Si Si6 0.990346 0.830316 0.597573
Si Si7 0.223684 0.833474 0.689604
O O1 0.985408 0.748876 0.122339
O O2 0.877685 0.807943 0.266094
O O3 0.039469 0.768822 0.203572
O O4 0.987697 0.000000 0.168070
O O5 0.657121 0.500000 0.427643
O O6 0.580170 0.722113 0.413639
O O7 0.586476 0.711295 0.526279
O O8 0.727427 0.756178 0.390269
O O9 0.750984 0.500000 0.226635
O O10 0.681044 0.700431 0.194648
O O11 0.848794 0.696519 0.124414
O O12 0.743803 0.764150 0.265938
O O13 0.440375 0.500000 0.746696
O O14 0.469364 0.264265 0.673203
O O15 0.530906 0.000000 0.916502
O O16 0.500000 0.225608 0.000000
O O17 0.982318 0.000000 0.604189
O O18 0.247382 0.000000 0.678075
#
# Coordination Sequence:
#
# PCOD8080197 Si02
#       7
#     8   8   8   8   8   8   8
#     4   9  19  32  48  69  94 123 152 185 227 273
#     4   9  15  26  45  67  87 115 160 201 229 260
#     4   9  16  29  52  71  85 117 161 192 215 262
#     4   9  15  28  49  70  89 116 159 198 223 258
#     4   9  18  33  52  74  97 119 146 184 228 271
#     4   8  14  24  44  69  88 111 155 206 230 251
#     4  10  18  28  42  65  95 122 150 189 234 276
#
# _framework density 17.175988
#
# number of rings (size 3 to 8) (size 9 to 14) (size 15 to 20)
#    0.000    3.000    1.429    1.286    0.000    0.857 
#    0.000    3.571    0.000    0.000    0.000    0.000 
#    0.000    0.000    0.000    0.000    0.000    0.000 
#
# Total GULP energy -347042.485553 kJ/mol
# GULP energy per Si atom -12394.374484 kJ/mol
# Density = 1.713689 g / cm^3
# Si number density = 17.175988 Si / 1000 Ang^3
#
#
#
# Elastic Constant Matrix: (Units=GPa)
#
#
# Indices 1 2 3 4 5 6 
#
# 1 110.6154 30.8388 60.6575 0.0000 8.7068 0.0000
# 2 30.8388 43.6712 33.9479 0.0000 -2.6856 -0.0001
# 3 60.6575 33.9479 132.0181 0.0000 -4.1396 0.0000
# 4 0.0000 0.0000 0.0000 20.0535 0.0000 -1.2199
# 5 8.7068 -2.6856 -4.1396 0.0000 23.4301 0.0000
# 6 0.0000 -0.0001 0.0000 -1.2199 0.0000 15.7101
#
#
#
# Elastic Compliance Matrix: (Units=1/GPa)
#
#
# Indices 1 2 3 4 5 6 
#
# 1 0.014167 -0.006500 -0.005054 0.000000 -0.006903 0.000000
# 2 -0.006500 0.031694 -0.005002 0.000000 0.005164 0.000000
# 3 -0.005054 -0.005002 0.011287 0.000000 0.003299 0.000000
# 4 0.000000 0.000000 0.000000 0.050103 0.000000 0.003891
# 5 -0.006903 0.005164 0.003299 0.000000 0.046420 0.000000
# 6 0.000000 0.000000 0.000000 0.003891 0.000000 0.063955
#
#
# Mechanical properties :
#
#
# Convention : Reuss Voigt Hill
#
# Bulk Modulus (GPa) = 41.60393 59.68813 50.64603
# Shear Modulus (GPa) = 19.32364 22.56278 20.94321
#
# Velocity S-wave (km/s) = 3.35780 3.62833 3.49568
# Velocity P-wave (km/s) = 6.26959 7.23736 6.77079
#
# Compressibility (1/GPa) = 0.02403619
#
# Stress axis : x y z
#
# Youngs Moduli (GPa) = 70.58420 31.55188 88.60032
#
# Poissons Ratio (x) = 0.20508 0.44783
# Poissons Ratio (y) = 0.45879 0.44314
# Poissons Ratio (z) = 0.35677 0.15781
#
# Static dielectric constant tensor:
#      x y z
#    x 3.218000 0.000000 -0.094810 
#    y 0.000000 2.948720 0.000000 
#    z -0.094810 0.000000 3.367830 
# 
# 
# High freq. dielectric constant tensor:
#      x y z
#    x 1.649500 0.000000 -0.015170 
#    y 0.000000 1.630530 0.000000 
#    z -0.015170 0.000000 1.658540 
# 
# From -- ./inp_files/276378.got.cif
#   From: 2010.06.25/outbox.cif.g09.slc.cpg/sg12_139_cif.got.tgz:276378.got - 2010.06.28 00:19:55.
