data_PCOD8080506
_publ_section_title
;
Structure prediction by ZEFSAII (Michael W. Deem and Ramdas Pophale) SiO2 
 PCOD8080506
Probable space group: C 2/M
;
_chemical_formula_sum "Si O2"
_cell_formula_units_Z 40
_cell_length_a 18.680210
_cell_length_b 9.160045
_cell_length_c 22.475323
_cell_angle_alpha 90.000000
_cell_angle_beta 144.892370
_cell_angle_gamma 90.000000
_cell_volume 2211.767097
_symmetry_space_group_name_H-M "C 2/M"
_symmetry_group_IT_number 12
_symmetry_cell_setting 'monoclinic'
loop_
_space_group_symop_operation_xyz
x,y,z
-x,y,-z
-x,-y,-z
x,-y,z
1/2+x,1/2+y,z
1/2-x,1/2+y,-z
1/2-x,1/2-y,-z
1/2+x,1/2-y,z
loop_
_atom_site_type_symbol
_atom_site_label
_atom_site_fract_x
_atom_site_fract_y
_atom_site_fract_z
Si Si1 0.491400 0.173195 0.174188
Si Si2 0.371995 0.671881 0.203180
Si Si3 0.234358 0.661357 0.400476
Si Si4 0.413383 0.828629 0.992523
Si Si5 0.570154 0.162842 0.406760
O O1 0.406825 0.256294 0.164256
O O2 0.637966 0.210451 0.283422
O O3 0.468492 0.000000 0.166736
O O4 0.452554 0.234462 0.083408
O O5 0.398436 0.500000 0.217524
O O6 0.228760 0.708049 0.119006
O O7 0.449796 0.738974 0.310851
O O8 0.287037 0.500000 0.422927
O O9 0.351857 0.769766 0.485008
O O10 0.157473 0.659303 0.409002
O O11 0.437073 0.000000 0.011385
O O12 0.500000 0.758527 0.000000
O O13 0.527468 0.000000 0.395412
#
# Coordination Sequence:
#
# PCOD8080506 Si02
#       5
#     8   8   8   8   8
#     4   9  17  30  49  71  95 122 152 190 231 271
#     4  10  18  28  47  72  96 122 153 190 228 272
#     4   8  14  24  40  65  93 118 147 185 228 271
#     4   9  18  32  49  69  93 122 156 193 232 272
#     4   9  16  26  42  65  94 123 150 186 229 271
#
# _framework density 18.085087999999999
#
# number of rings (size 3 to 8) (size 9 to 14) (size 15 to 20)
#    0.000    3.000    0.000    3.000    0.000    4.800 
#    0.000    1.000    0.000    6.600    0.000    8.400 
#    0.000    0.000    0.000    0.000    0.000    0.000 
#
# Total GULP energy -247913.562964 kJ/mol
# GULP energy per Si atom -12395.678148 kJ/mol
# Density = 1.804393 g / cm^3
# Si number density = 18.085088 Si / 1000 Ang^3
#
#
#
# Elastic Constant Matrix: (Units=GPa)
#
#
# Indices 1 2 3 4 5 6 
#
# 1 64.8045 35.4160 42.3671 0.0000 13.2541 0.0000
# 2 35.4160 86.2181 57.9313 0.0000 10.2392 0.0000
# 3 42.3671 57.9313 119.9785 0.0000 23.2878 0.0000
# 4 0.0000 0.0000 0.0000 26.2914 0.0000 2.7579
# 5 13.2541 10.2392 23.2878 0.0000 9.1364 0.0000
# 6 0.0000 0.0000 0.0000 2.7579 0.0000 10.7467
#
#
#
# Elastic Compliance Matrix: (Units=1/GPa)
#
#
# Indices 1 2 3 4 5 6 
#
# 1 0.025050 -0.006931 0.000092 0.000000 -0.028808 0.000000
# 2 -0.006931 0.019151 -0.009075 0.000000 0.011723 0.000000
# 3 0.000092 -0.009075 0.021248 0.000000 -0.044123 0.000000
# 4 0.000000 0.000000 0.000000 0.039087 0.000000 -0.010031
# 5 -0.028808 0.011723 -0.044123 0.000000 0.250571 0.000000
# 6 0.000000 0.000000 0.000000 -0.010031 0.000000 0.095626
#
#
# Mechanical properties :
#
#
# Convention : Reuss Voigt Hill
#
# Bulk Modulus (GPa) = 29.74182 60.26998 45.00590
# Shear Modulus (GPa) = 10.12621 18.25403 14.19012
#
# Velocity S-wave (km/s) = 2.36883 3.18046 2.80417
# Velocity P-wave (km/s) = 4.89520 6.84728 5.95182
#
# Compressibility (1/GPa) = 0.03362269
#
# Stress axis : x y z
#
# Youngs Moduli (GPa) = 39.91969 52.21705 47.06240
#
# Poissons Ratio (x) = 0.36190 -0.00434
# Poissons Ratio (y) = 0.27667 0.42709
# Poissons Ratio (z) = -0.00369 0.47387
#
# Static dielectric constant tensor:
#      x y z
#    x 2.944930 0.000000 -0.021390 
#    y 0.000000 3.326800 0.000000 
#    z -0.021390 0.000000 3.714730 
# 
# 
# High freq. dielectric constant tensor:
#      x y z
#    x 1.643380 0.000000 0.007080 
#    y 0.000000 1.686140 0.000000 
#    z 0.007080 0.000000 1.721820 
# 
# From -- ./inp_files/151835.got.cif
#   From: 2010.06.25/outbox.cif.g09.slc.cpg/sg12_76_cif.got.tgz:151835.got - 2010.06.28 00:19:55.
