data_PCOD8080979
_publ_section_title
;
Structure prediction by ZEFSAII (Michael W. Deem and Ramdas Pophale) SiO2 
 PCOD8080979
Probable space group: C 2/M
;
_chemical_formula_sum "Si O2"
_cell_formula_units_Z 48
_cell_length_a 30.325354
_cell_length_b 8.684880
_cell_length_c 23.652655
_cell_angle_alpha 90.000000
_cell_angle_beta 154.195614
_cell_angle_gamma 90.000000
_cell_volume 2711.679034
_symmetry_space_group_name_H-M "C 2/M"
_symmetry_group_IT_number 12
_symmetry_cell_setting 'monoclinic'
loop_
_space_group_symop_operation_xyz
x,y,z
-x,y,-z
-x,-y,-z
x,-y,z
1/2+x,1/2+y,z
1/2-x,1/2+y,-z
1/2-x,1/2-y,-z
1/2+x,1/2-y,z
loop_
_atom_site_type_symbol
_atom_site_label
_atom_site_fract_x
_atom_site_fract_y
_atom_site_fract_z
Si Si1 0.853300 0.679766 0.482870
Si Si2 0.642941 0.680398 0.395807
Si Si3 0.903726 0.816851 0.423255
Si Si4 0.996015 0.676133 0.138605
Si Si5 0.186342 0.681107 0.138640
Si Si6 0.348470 0.825628 0.777745
O O1 0.874820 0.500000 0.508043
O O2 0.896539 0.752526 0.590357
O O3 0.908361 0.752798 0.492125
O O4 0.733533 0.713031 0.344938
O O5 0.659460 0.500000 0.420080
O O6 0.750000 0.750000 0.500000
O O7 0.553003 0.715688 0.248251
O O8 0.802257 0.757071 0.273458
O O9 0.000000 0.753485 0.500000
O O10 0.904485 0.000000 0.427670
O O11 0.995605 0.500000 0.160864
O O12 0.048923 0.683083 0.138531
O O13 0.882355 0.741816 0.993455
O O14 0.187209 0.500000 0.132264
O O15 0.133035 0.726530 0.136409
O O16 0.303577 0.000000 0.725144
#
# Coordination Sequence:
#
# PCOD8080979 Si02
#       6
#     8   8   8   8   8   8
#     4  11  21  33  51  76 105 136 173 216 257 300
#     4  12  23  35  50  71 103 141 179 213 249 300
#     4   9  18  35  59  82 104 133 169 212 261 310
#     4  10  18  29  48  72 103 140 173 207 248 301
#     4   8  15  28  48  76 103 132 170 207 252 308
#     4   9  16  28  47  70 101 138 172 205 245 302
#
# _framework density 17.70121
#
# number of rings (size 3 to 8) (size 9 to 14) (size 15 to 20)
#    0.000    2.167    1.667    4.500    0.000    2.333 
#    0.000    3.333    0.000    6.000    0.000    0.000 
#    0.000    0.000    0.000    0.000    0.000    0.000 
#
# Total GULP energy -297435.094384 kJ/mol
# GULP energy per Si atom -12393.128933 kJ/mol
# Density = 1.766092 g / cm^3
# Si number density = 17.701210 Si / 1000 Ang^3
#
#
#
# Elastic Constant Matrix: (Units=GPa)
#
#
# Indices 1 2 3 4 5 6 
#
# 1 87.6088 29.0325 61.1132 0.0000 -0.6056 0.0000
# 2 29.0325 65.0904 26.1503 0.0000 -1.4968 0.0000
# 3 61.1132 26.1503 124.0730 0.0000 -14.3311 0.0000
# 4 0.0000 0.0000 0.0000 20.3095 0.0000 -5.6552
# 5 -0.6056 -1.4968 -14.3311 0.0000 23.1056 0.0000
# 6 0.0000 0.0000 0.0000 -5.6552 0.0000 20.2245
#
#
#
# Elastic Compliance Matrix: (Units=1/GPa)
#
#
# Indices 1 2 3 4 5 6 
#
# 1 0.019446 -0.005132 -0.009130 0.000000 -0.005486 0.000000
# 2 -0.005132 0.018169 -0.001273 0.000000 0.000253 0.000000
# 3 -0.009130 -0.001273 0.013775 0.000000 0.008222 0.000000
# 4 0.000000 0.000000 0.000000 0.053396 0.000000 0.014931
# 5 -0.005486 0.000253 0.008222 0.000000 0.048252 0.000000
# 6 0.000000 0.000000 0.000000 0.014931 0.000000 0.053620
#
#
# Mechanical properties :
#
#
# Convention : Reuss Voigt Hill
#
# Bulk Modulus (GPa) = 49.21002 56.59602 52.90302
# Shear Modulus (GPa) = 20.44985 23.42632 21.93808
#
# Velocity S-wave (km/s) = 3.40263 3.64184 3.52427
# Velocity P-wave (km/s) = 6.58011 7.05170 6.81998
#
# Compressibility (1/GPa) = 0.02032107
#
# Stress axis : x y z
#
# Youngs Moduli (GPa) = 51.42421 55.03822 72.59558
#
# Poissons Ratio (x) = 0.28243 0.66283
# Poissons Ratio (y) = 0.26389 0.09238
# Poissons Ratio (z) = 0.46952 0.07004
#
# Static dielectric constant tensor:
#      x y z
#    x 3.235320 0.000000 -0.070490 
#    y 0.000000 3.074170 0.000000 
#    z -0.070490 0.000000 3.519670 
# 
# 
# High freq. dielectric constant tensor:
#      x y z
#    x 1.659950 0.000000 -0.016770 
#    y 0.000000 1.663790 0.000000 
#    z -0.016770 0.000000 1.682920 
# 
# From -- ./inp_files/352754.got.cif
#   From: 2010.06.25/outbox.cif.g09.slc.cpg/sg12_177_cif.got.tgz:352754.got - 2010.06.28 00:19:55.
