data_PCOD8080178
_publ_section_title
;
Structure prediction by ZEFSAII (Michael W. Deem and Ramdas Pophale) SiO2 
 PCOD8080178
Probable space group: C 2/M
;
_chemical_formula_sum "Si O2"
_cell_formula_units_Z 56
_cell_length_a 28.294840
_cell_length_b 9.562228
_cell_length_c 13.677895
_cell_angle_alpha 90.000000
_cell_angle_beta 75.382246
_cell_angle_gamma 90.000000
_cell_volume 3580.926305
_symmetry_space_group_name_H-M "C 2/M"
_symmetry_group_IT_number 12
_symmetry_cell_setting 'monoclinic'
loop_
_space_group_symop_operation_xyz
x,y,z
-x,y,-z
-x,-y,-z
x,-y,z
1/2+x,1/2+y,z
1/2-x,1/2+y,-z
1/2-x,1/2-y,-z
1/2+x,1/2-y,z
loop_
_atom_site_type_symbol
_atom_site_label
_atom_site_fract_x
_atom_site_fract_y
_atom_site_fract_z
Si Si1 0.707955 0.158631 0.133811
Si Si2 0.114110 0.159867 0.870662
Si Si3 0.897545 0.659427 0.776839
Si Si4 0.058108 0.157697 0.089693
Si Si5 0.299389 0.162822 0.090137
Si Si6 0.492114 0.164022 0.614230
Si Si7 0.038638 0.838473 0.753926
O O1 0.659080 0.180740 0.225398
O O2 0.748560 0.266200 0.150163
O O3 0.727773 0.000000 0.133940
O O4 0.693360 0.187831 0.028761
O O5 0.157637 0.265622 0.870646
O O6 0.091109 0.193860 0.776122
O O7 0.133658 0.000000 0.864308
O O8 0.069289 0.178694 0.969810
O O9 0.906630 0.500000 0.802467
O O10 0.904676 0.747564 0.870304
O O11 0.936083 0.702595 0.672374
O O12 0.002514 0.198020 0.143683
O O13 0.068801 0.000000 0.117121
O O14 0.297808 0.000000 0.118476
O O15 0.500000 0.216130 0.500000
O O16 0.530905 0.243460 0.662534
O O17 0.502715 0.000000 0.618860
O O18 0.035564 0.000000 0.723396
#
# Coordination Sequence:
#
# PCOD8080178 Si02
#       7
#     8   8   8   8   8   8   8
#     4   9  17  29  42  59  85 118 152 183 216 254
#     4  10  18  28  42  61  89 122 151 179 214 255
#     4   9  16  28  45  64  88 116 147 181 216 259
#     4   9  16  26  41  61  87 118 150 180 209 248
#     4  10  19  28  41  61  87 118 153 187 215 250
#     4   9  18  32  49  69  91 114 142 180 225 266
#     4   9  18  30  44  64  88 117 150 180 214 259
#
# _framework density 15.638412000000001
#
# number of rings (size 3 to 8) (size 9 to 14) (size 15 to 20)
#    0.000    2.714    1.429    0.857    0.000    3.714 
#    0.000    0.000    0.000    4.286    0.000    1.000 
#    0.000    0.000    0.000    0.000    0.000    0.000 
#
# Total GULP energy -347059.333542 kJ/mol
# GULP energy per Si atom -12394.976198 kJ/mol
# Density = 1.560282 g / cm^3
# Si number density = 15.638412 Si / 1000 Ang^3
#
#
#
# Elastic Constant Matrix: (Units=GPa)
#
#
# Indices 1 2 3 4 5 6 
#
# 1 100.4100 58.0933 40.3954 0.0000 8.9210 0.0000
# 2 58.0933 77.9038 36.5938 0.0000 9.0862 0.0000
# 3 40.3954 36.5938 68.1211 0.0000 7.5803 0.0000
# 4 0.0000 0.0000 0.0000 16.9815 0.0000 3.5240
# 5 8.9210 9.0862 7.5803 0.0000 15.5867 0.0000
# 6 0.0000 0.0000 0.0000 3.5240 0.0000 29.0014
#
#
#
# Elastic Compliance Matrix: (Units=1/GPa)
#
#
# Indices 1 2 3 4 5 6 
#
# 1 0.018657 -0.011512 -0.004692 0.000000 -0.001686 0.000000
# 2 -0.011512 0.024790 -0.005937 0.000000 -0.004975 0.000000
# 3 -0.004692 -0.005937 0.021109 0.000000 -0.004120 0.000000
# 4 0.000000 0.000000 0.000000 0.060411 0.000000 -0.007341
# 5 -0.001686 -0.004975 -0.004120 0.000000 0.070026 0.000000
# 6 0.000000 0.000000 0.000000 -0.007341 0.000000 0.035373
#
#
# Mechanical properties :
#
#
# Convention : Reuss Voigt Hill
#
# Bulk Modulus (GPa) = 49.32090 57.40001 53.36045
# Shear Modulus (GPa) = 17.76797 19.73741 18.75269
#
# Velocity S-wave (km/s) = 3.37438 3.55647 3.46662
# Velocity P-wave (km/s) = 6.84022 7.32454 7.08652
#
# Compressibility (1/GPa) = 0.02027538
#
# Stress axis : x y z
#
# Youngs Moduli (GPa) = 53.59956 40.33913 47.37225
#
# Poissons Ratio (x) = 0.46439 0.22226
# Poissons Ratio (y) = 0.61704 0.28123
# Poissons Ratio (z) = 0.25147 0.23948
#
# Static dielectric constant tensor:
#      x y z
#    x 3.008600 0.000000 -0.084120 
#    y 0.000000 3.024760 0.000000 
#    z -0.084120 0.000000 2.724010 
# 
# 
# High freq. dielectric constant tensor:
#      x y z
#    x 1.597310 0.000000 -0.005510 
#    y 0.000000 1.605420 0.000000 
#    z -0.005510 0.000000 1.553230 
# 
# From -- ./inp_files/247747.got.cif
#   From: 2010.06.25/outbox.cif.g09.slc.cpg/sg12_124_cif.got.tgz:247747.got - 2010.06.28 00:19:55.
