data_PCOD8080340
_publ_section_title
;
Structure prediction by ZEFSAII (Michael W. Deem and Ramdas Pophale) SiO2 
 PCOD8080340
Probable space group: C 2/M
;
_chemical_formula_sum "Si O2"
_cell_formula_units_Z 64
_cell_length_a 20.033777
_cell_length_b 21.516713
_cell_length_c 11.516383
_cell_angle_alpha 90.000000
_cell_angle_beta 59.866041
_cell_angle_gamma 90.000000
_cell_volume 4293.363631
_symmetry_space_group_name_H-M "C 2/M"
_symmetry_group_IT_number 12
_symmetry_cell_setting 'monoclinic'
loop_
_space_group_symop_operation_xyz
x,y,z
-x,y,-z
-x,-y,-z
x,-y,z
1/2+x,1/2+y,z
1/2-x,1/2+y,-z
1/2-x,1/2-y,-z
1/2+x,1/2-y,z
loop_
_atom_site_type_symbol
_atom_site_label
_atom_site_fract_x
_atom_site_fract_y
_atom_site_fract_z
Si Si1 0.051227 0.846972 0.223727
Si Si2 0.223023 0.244761 0.714150
Si Si3 0.158686 0.161451 0.343286
Si Si4 0.581025 0.571035 0.750234
Si Si5 0.226983 0.070251 0.459707
Si Si6 0.323029 0.826174 0.463700
Si Si7 0.914487 0.827981 0.059290
Si Si8 0.954182 0.749655 0.427803
O O1 0.109528 0.862494 0.277212
O O2 0.986893 0.900823 0.270913
O O3 0.010773 0.780215 0.283181
O O4 0.100190 0.843748 0.062572
O O5 0.274140 0.289705 0.752964
O O6 0.273986 0.186995 0.623893
O O7 0.199429 0.281482 0.620858
O O8 0.148406 0.222174 0.848148
O O9 0.196731 0.101078 0.367722
O O10 0.106723 0.196538 0.484818
O O11 0.560085 0.500000 0.798661
O O12 0.661263 0.575170 0.613596
O O13 0.589486 0.609041 0.862220
O O14 0.304679 0.103471 0.440619
O O15 0.249827 0.000000 0.411169
O O16 0.412976 0.811768 0.411682
O O17 0.000000 0.798516 0.000000
O O18 0.000000 0.726486 0.500000
#
# Coordination Sequence:
#
# PCOD8080340 Si02
#       8
#     8   8   8   8   8   8   8   8
#     4  10  19  29  42  63  91 118 141 176 209 253
#     4   9  16  27  44  64  82 116 144 173 215 257
#     4   9  18  30  45  62  87 114 142 178 217 255
#     4  10  19  30  42  59  86 119 152 177 202 243
#     4  10  18  28  45  65  84 109 148 186 208 242
#     4   9  15  27  47  61  84 111 144 178 216 252
#     4  10  19  28  42  62  90 114 146 178 207 251
#     4   9  16  28  45  66  87 110 141 172 219 265
#
# _framework density 14.906727999999999
#
# number of rings (size 3 to 8) (size 9 to 14) (size 15 to 20)
#    0.000    2.500    2.500    2.250    0.000    3.250 
#    0.000    1.250    0.000    0.375    0.000    0.000 
#    0.000   32.000    0.000    0.000    0.000    0.000 
#
# Total GULP energy -396620.876299 kJ/mol
# GULP energy per Si atom -12394.402384 kJ/mol
# Density = 1.487280 g / cm^3
# Si number density = 14.906728 Si / 1000 Ang^3
#
#
#
# Elastic Constant Matrix: (Units=GPa)
#
#
# Indices 1 2 3 4 5 6 
#
# 1 86.7346 62.8510 24.6232 0.0000 8.3422 0.0000
# 2 62.8510 98.7905 35.4371 0.0000 2.5212 0.0000
# 3 24.6232 35.4371 57.4296 0.0000 3.7239 0.0000
# 4 0.0000 0.0000 0.0000 14.7800 0.0000 -1.6843
# 5 8.3422 2.5212 3.7239 0.0000 21.1019 0.0000
# 6 0.0000 0.0000 0.0000 -1.6843 0.0000 20.5453
#
#
#
# Elastic Compliance Matrix: (Units=1/GPa)
#
#
# Indices 1 2 3 4 5 6 
#
# 1 0.022442 -0.013883 -0.000595 0.000000 -0.007108 0.000000
# 2 -0.013883 0.021589 -0.007645 0.000000 0.004258 0.000000
# 3 -0.000595 -0.007645 0.022569 0.000000 -0.002834 0.000000
# 4 0.000000 0.000000 0.000000 0.068297 0.000000 0.005599
# 5 -0.007108 0.004258 -0.002834 0.000000 0.050191 0.000000
# 6 0.000000 0.000000 0.000000 0.005599 0.000000 0.049132
#
#
# Mechanical properties :
#
#
# Convention : Reuss Voigt Hill
#
# Bulk Modulus (GPa) = 44.73468 54.30859 49.52164
# Shear Modulus (GPa) = 17.48769 19.28835 18.38802
#
# Velocity S-wave (km/s) = 3.42883 3.60103 3.51599
# Velocity P-wave (km/s) = 6.76393 7.33494 7.05521
#
# Compressibility (1/GPa) = 0.02235402
#
# Stress axis : x y z
#
# Youngs Moduli (GPa) = 44.55913 46.32088 44.30919
#
# Poissons Ratio (x) = 0.64308 0.02635
# Poissons Ratio (y) = 0.61862 0.33874
# Poissons Ratio (z) = 0.02650 0.35412
#
# Static dielectric constant tensor:
#      x y z
#    x 3.053960 0.000000 -0.049120 
#    y 0.000000 2.795590 0.000000 
#    z -0.049120 0.000000 2.807490 
# 
# 
# High freq. dielectric constant tensor:
#      x y z
#    x 1.568550 0.000000 0.005530 
#    y 0.000000 1.544470 0.000000 
#    z 0.005530 0.000000 1.556680 
# 
# From -- ./inp_files/169181.got.cif
#   From: 2010.06.25/outbox.cif.g09.slc.cpg/sg12_85_cif.got.tgz:169181.got - 2010.06.28 00:19:55.
