data_PCOD8080920
_publ_section_title
;
Structure prediction by ZEFSAII (Michael W. Deem and Ramdas Pophale) SiO2 
 PCOD8080920
Probable space group: C 2/M
;
_chemical_formula_sum "Si O2"
_cell_formula_units_Z 64
_cell_length_a 24.250439
_cell_length_b 9.371545
_cell_length_c 21.158357
_cell_angle_alpha 90.000000
_cell_angle_beta 51.511133
_cell_angle_gamma 90.000000
_cell_volume 3763.779924
_symmetry_space_group_name_H-M "C 2/M"
_symmetry_group_IT_number 12
_symmetry_cell_setting 'monoclinic'
loop_
_space_group_symop_operation_xyz
x,y,z
-x,y,-z
-x,-y,-z
x,-y,z
1/2+x,1/2+y,z
1/2-x,1/2+y,-z
1/2-x,1/2-y,-z
1/2+x,1/2-y,z
loop_
_atom_site_type_symbol
_atom_site_label
_atom_site_fract_x
_atom_site_fract_y
_atom_site_fract_z
Si Si1 0.720128 0.164047 0.166094
Si Si2 0.113650 0.835310 0.428050
Si Si3 0.877648 0.666476 0.181207
Si Si4 0.026308 0.330785 0.126639
Si Si5 0.258264 0.834512 0.702685
Si Si6 0.508721 0.335742 0.391775
Si Si7 0.645227 0.834051 0.947947
Si Si8 0.065657 0.331357 0.237918
O O1 0.718472 0.189749 0.241980
O O2 0.781679 0.254790 0.089746
O O3 0.646160 0.217289 0.190716
O O4 0.734114 0.000000 0.139461
O O5 0.182438 0.736579 0.383727
O O6 0.067481 0.789443 0.400547
O O7 0.068508 0.811214 0.523649
O O8 0.136585 0.000000 0.405377
O O9 0.864905 0.500000 0.204838
O O10 0.815593 0.756733 0.257774
O O11 0.881303 0.694970 0.103906
O O12 0.950061 0.724759 0.159288
O O13 0.027426 0.500000 0.121247
O O14 0.041526 0.277697 0.186471
O O15 0.086270 0.270731 0.036999
O O16 0.250839 0.000000 0.690402
O O17 0.519295 0.500000 0.365573
O O18 0.514661 0.240506 0.325295
O O19 0.658826 0.000000 0.950575
O O20 0.058171 0.500000 0.251119
#
# Coordination Sequence:
#
# PCOD8080920 Si02
#       8
#     8   8   8   8   8   8   8   8
#     4   9  18  30  43  66  99 129 153 186 239 289
#     4   9  17  30  49  73  99 125 154 191 234 278
#     4   9  17  31  51  71  92 123 162 206 245 275
#     4   9  18  32  50  70  92 124 167 204 237 279
#     4  10  18  29  47  73 101 126 154 193 237 285
#     4   9  18  31  48  72 100 126 155 192 231 277
#     4   9  17  30  50  72  91 118 162 209 241 273
#     4  10  19  32  48  67  98 134 160 189 233 289
#
# _framework density 17.004182
#
# number of rings (size 3 to 8) (size 9 to 14) (size 15 to 20)
#    0.000    2.750    1.250    1.500    0.000    3.500 
#    0.000    3.125    0.000    3.750    0.000    0.000 
#    0.000    0.000    0.000    0.000    0.000    0.000 
#
# Total GULP energy -396835.195001 kJ/mol
# GULP energy per Si atom -12401.099844 kJ/mol
# Density = 1.696548 g / cm^3
# Si number density = 17.004182 Si / 1000 Ang^3
#
#
#
# Elastic Constant Matrix: (Units=GPa)
#
#
# Indices 1 2 3 4 5 6 
#
# 1 91.6096 37.5002 64.7842 0.0015 -9.1954 -0.0016
# 2 37.5002 58.8684 54.1946 -0.0129 -12.4919 0.0101
# 3 64.7842 54.1946 120.4364 -0.0021 -21.5370 0.0013
# 4 0.0015 -0.0129 -0.0021 26.7145 0.0009 -4.3034
# 5 -9.1954 -12.4919 -21.5370 0.0009 22.8918 -0.0011
# 6 -0.0016 0.0101 0.0013 -4.3034 -0.0011 18.5093
#
#
#
# Elastic Compliance Matrix: (Units=1/GPa)
#
#
# Indices 1 2 3 4 5 6 
#
# 1 0.018437 -0.004708 -0.008336 -0.000003 -0.003006 0.000004
# 2 -0.004708 0.030554 -0.010307 0.000012 0.005085 -0.000013
# 3 -0.008336 -0.010307 0.019021 -0.000003 0.008922 0.000004
# 4 -0.000003 0.000012 -0.000003 0.038889 0.000001 0.009042
# 5 -0.003006 0.005085 0.008922 0.000001 0.053645 0.000000
# 6 0.000004 -0.000013 0.000004 0.009042 0.000000 0.056129
#
#
# Mechanical properties :
#
#
# Convention : Reuss Voigt Hill
#
# Bulk Modulus (GPa) = 46.92928 64.87472 55.90200
# Shear Modulus (GPa) = 18.48565 21.25213 19.86889
#
# Velocity S-wave (km/s) = 3.30073 3.53911 3.42200
# Velocity P-wave (km/s) = 6.49500 7.41185 6.96852
#
# Compressibility (1/GPa) = 0.02130866
#
# Stress axis : x y z
#
# Youngs Moduli (GPa) = 54.23998 32.72929 52.57379
#
# Poissons Ratio (x) = 0.15408 0.43828
# Poissons Ratio (y) = 0.25535 0.54188
# Poissons Ratio (z) = 0.45217 0.33734
#
# Static dielectric constant tensor:
#      x y z
#    x 3.104540 0.000000 -0.133640 
#    y 0.000000 3.012170 0.000000 
#    z -0.133640 0.000000 3.163020 
# 
# 
# High freq. dielectric constant tensor:
#      x y z
#    x 1.637390 0.000000 -0.016670 
#    y 0.000000 1.640910 0.000000 
#    z -0.016670 0.000000 1.655250 
# 
# From -- ./inp_files/282857.got.cif
#   From: 2010.06.25/outbox.cif.g09.slc.cpg/sg12_142_cif.got.tgz:282857.got - 2010.06.28 00:19:55.
