data_PCOD8080325
_publ_section_title
;
Structure prediction by ZEFSAII (Michael W. Deem and Ramdas Pophale) SiO2 
 PCOD8080325
Probable space group: C 2/M
;
_chemical_formula_sum "Si O2"
_cell_formula_units_Z 64
_cell_length_a 22.673970
_cell_length_b 21.236525
_cell_length_c 8.680047
_cell_angle_alpha 90.000000
_cell_angle_beta 68.323949
_cell_angle_gamma 90.000000
_cell_volume 3884.033601
_symmetry_space_group_name_H-M "C 2/M"
_symmetry_group_IT_number 12
_symmetry_cell_setting 'monoclinic'
loop_
_space_group_symop_operation_xyz
x,y,z
-x,y,-z
-x,-y,-z
x,-y,z
1/2+x,1/2+y,z
1/2-x,1/2+y,-z
1/2-x,1/2-y,-z
1/2+x,1/2-y,z
loop_
_atom_site_type_symbol
_atom_site_label
_atom_site_fract_x
_atom_site_fract_y
_atom_site_fract_z
Si Si1 0.661191 0.670555 0.427323
Si Si2 0.865269 0.836535 0.213678
Si Si3 0.271533 0.571903 0.826731
Si Si4 0.741791 0.774705 0.244862
Si Si5 0.390338 0.428865 0.932249
Si Si6 0.450838 0.673413 0.684059
Si Si7 0.557899 0.767253 0.043981
Si Si8 0.819262 0.672884 0.978422
O O1 0.618998 0.657120 0.620002
O O2 0.702411 0.608334 0.349041
O O3 0.704606 0.732876 0.407734
O O4 0.617605 0.687358 0.323139
O O5 0.790000 0.822650 0.279647
O O6 0.881522 0.901373 0.112225
O O7 0.905954 0.781368 0.100316
O O8 0.256941 0.500000 0.794545
O O9 0.322832 0.575922 0.913278
O O10 0.206510 0.604305 0.947604
O O11 0.692164 0.816040 0.192458
O O12 0.780749 0.727269 0.100550
O O13 0.414543 0.500000 0.922484
O O14 0.445013 0.390867 0.788174
O O15 0.500000 0.663990 0.500000
O O16 0.468889 0.731115 0.779175
O O17 0.605928 0.822448 0.050971
O O18 0.500000 0.796452 0.000000
#
# Coordination Sequence:
#
# PCOD8080325 Si02
#       8
#     8   8   8   8   8   8   8   8
#     4  10  18  28  44  69  96 121 149 188 233 274
#     4  10  18  28  46  68  95 123 150 188 232 275
#     4   9  17  30  48  68  91 123 157 186 225 272
#     4   9  15  27  45  70  93 118 146 182 241 282
#     4   9  18  31  46  64  89 124 163 193 221 265
#     4  10  19  31  46  63  90 122 155 195 230 269
#     4  10  19  31  47  68  92 121 153 188 233 281
#     4   9  15  28  49  67  93 119 148 191 228 276
#
# _framework density 16.477716000000001
#
# number of rings (size 3 to 8) (size 9 to 14) (size 15 to 20)
#    0.000    2.500    2.500    1.125    0.000    0.750 
#    0.000    0.000    0.000   13.125    0.000    0.000 
#    0.000    0.500    0.000    0.125    0.000    0.000 
#
# Total GULP energy -396666.003788 kJ/mol
# GULP energy per Si atom -12395.812618 kJ/mol
# Density = 1.644021 g / cm^3
# Si number density = 16.477716 Si / 1000 Ang^3
#
#
#
# Elastic Constant Matrix: (Units=GPa)
#
#
# Indices 1 2 3 4 5 6 
#
# 1 62.3915 11.2163 8.9177 0.0000 -3.4196 0.0000
# 2 11.2163 55.4640 25.2884 0.0000 -7.6738 0.0000
# 3 8.9177 25.2884 94.0690 0.0000 2.7723 0.0000
# 4 0.0000 0.0000 0.0000 11.9710 0.0000 1.0221
# 5 -3.4196 -7.6738 2.7723 0.0000 21.8054 0.0000
# 6 0.0000 0.0000 0.0000 1.0221 0.0000 15.5447
#
#
#
# Elastic Compliance Matrix: (Units=1/GPa)
#
#
# Indices 1 2 3 4 5 6 
#
# 1 0.016745 -0.002726 -0.000907 0.000000 0.001782 0.000000
# 2 -0.002726 0.022469 -0.006025 0.000000 0.008246 0.000000
# 3 -0.000907 -0.006025 0.012449 0.000000 -0.003845 0.000000
# 4 0.000000 0.000000 0.000000 0.084007 0.000000 -0.005524
# 5 0.001782 0.008246 -0.003845 0.000000 0.049530 0.000000
# 6 0.000000 0.000000 0.000000 -0.005524 0.000000 0.064694
#
#
# Mechanical properties :
#
#
# Convention : Reuss Voigt Hill
#
# Bulk Modulus (GPa) = 30.91448 33.64105 32.27776
# Shear Modulus (GPa) = 17.85758 20.96435 19.41097
#
# Velocity S-wave (km/s) = 3.29559 3.57078 3.43594
# Velocity P-wave (km/s) = 5.76917 6.12054 5.94745
#
# Compressibility (1/GPa) = 0.03234730
#
# Stress axis : x y z
#
# Youngs Moduli (GPa) = 59.71843 44.50601 80.32481
#
# Poissons Ratio (x) = 0.12133 0.07286
# Poissons Ratio (y) = 0.16281 0.48394
# Poissons Ratio (z) = 0.05417 0.26814
#
# Static dielectric constant tensor:
#      x y z
#    x 3.190190 0.000000 0.056980 
#    y 0.000000 2.919570 0.000000 
#    z 0.056980 0.000000 3.003270 
# 
# 
# High freq. dielectric constant tensor:
#      x y z
#    x 1.627500 0.000000 0.009320 
#    y 0.000000 1.598140 0.000000 
#    z 0.009320 0.000000 1.629060 
# 
# From -- ./inp_files/90390.got.cif
#   From: 2010.06.25/outbox.cif.g09.slc.cpg/sg12_46_cif.got.tgz:90390.got - 2010.06.28 00:19:55.
