data_PCOD8080327
_publ_section_title
;
Structure prediction by ZEFSAII (Michael W. Deem and Ramdas Pophale) SiO2 
 PCOD8080327
Probable space group: C 2/M
;
_chemical_formula_sum "Si O2"
_cell_formula_units_Z 64
_cell_length_a 24.839736
_cell_length_b 9.038887
_cell_length_c 17.819502
_cell_angle_alpha 90.000000
_cell_angle_beta 76.832602
_cell_angle_gamma 90.000000
_cell_volume 3895.709253
_symmetry_space_group_name_H-M "C 2/M"
_symmetry_group_IT_number 12
_symmetry_cell_setting 'monoclinic'
loop_
_space_group_symop_operation_xyz
x,y,z
-x,y,-z
-x,-y,-z
x,-y,z
1/2+x,1/2+y,z
1/2-x,1/2+y,-z
1/2-x,1/2-y,-z
1/2+x,1/2-y,z
loop_
_atom_site_type_symbol
_atom_site_label
_atom_site_fract_x
_atom_site_fract_y
_atom_site_fract_z
Si Si1 0.207607 0.675136 0.683637
Si Si2 0.098048 0.830566 0.322718
Si Si3 0.017145 0.829059 0.576131
Si Si4 0.170289 0.170810 0.163324
Si Si5 0.305329 0.670134 0.002569
Si Si6 0.180531 0.326550 0.402516
Si Si7 0.283415 0.325782 0.168545
Si Si8 0.629122 0.172735 0.575121
O O1 0.212491 0.500000 0.688029
O O2 0.266446 0.736799 0.640065
O O3 0.190002 0.741787 0.769454
O O4 0.161224 0.724739 0.639187
O O5 0.116723 0.797050 0.231329
O O6 0.128496 0.720296 0.369227
O O7 0.032640 0.802371 0.349450
O O8 0.112026 0.000000 0.341010
O O9 0.070101 0.749503 0.592656
O O10 0.000000 0.764722 0.500000
O O11 0.032548 0.000000 0.562221
O O12 0.220486 0.272769 0.175347
O O13 0.189273 0.000000 0.165730
O O14 0.153163 0.203416 0.080765
O O15 0.289974 0.500000 0.010537
O O16 0.322007 0.714615 0.082851
O O17 0.250000 0.750000 0.000000
O O18 0.191778 0.500000 0.388884
O O19 0.166995 0.283629 0.492334
O O20 0.282426 0.500000 0.185805
O O21 0.617540 0.000000 0.579077
#
# Coordination Sequence:
#
# PCOD8080327 Si02
#       8
#     8   8   8   8   8   8   8   8
#     4  11  22  35  49  68  97 130 164 197 239 292
#     4  10  19  31  49  73  99 129 161 193 235 286
#     4  10  20  34  52  73  96 125 161 201 242 283
#     4   9  16  28  46  67  96 131 160 188 234 286
#     4   8  15  26  41  64  94 126 156 190 229 280
#     4  11  21  33  50  72  96 124 161 200 241 282
#     4  10  18  28  44  69  98 125 159 196 235 281
#     4  10  23  38  51  69  93 127 166 204 242 284
#
# _framework density 16.428332000000001
#
# number of rings (size 3 to 8) (size 9 to 14) (size 15 to 20)
#    0.000    2.125    2.500    1.500    0.000    2.750 
#    0.000    0.000    0.000    0.000    0.000    0.875 
#    0.000    7.000    0.000    0.000    0.000    0.000 
#
# Total GULP energy -396581.508009 kJ/mol
# GULP energy per Si atom -12393.172125 kJ/mol
# Density = 1.639094 g / cm^3
# Si number density = 16.428332 Si / 1000 Ang^3
#
#
#
# Elastic Constant Matrix: (Units=GPa)
#
#
# Indices 1 2 3 4 5 6 
#
# 1 50.4518 20.1423 37.4947 0.0000 11.1946 0.0000
# 2 20.1423 45.3301 40.2231 0.0000 6.7150 0.0000
# 3 37.4947 40.2231 155.0599 0.0000 9.1918 0.0000
# 4 0.0000 0.0000 0.0000 22.2932 0.0000 1.3280
# 5 11.1946 6.7150 9.1918 0.0000 17.7736 0.0000
# 6 0.0000 0.0000 0.0000 1.3280 0.0000 23.5031
#
#
#
# Elastic Compliance Matrix: (Units=1/GPa)
#
#
# Indices 1 2 3 4 5 6 
#
# 1 0.028783 -0.006948 -0.004373 0.000000 -0.013242 0.000000
# 2 -0.006948 0.031256 -0.006177 0.000000 -0.004238 0.000000
# 3 -0.004373 -0.006177 0.009086 0.000000 0.000389 0.000000
# 4 0.000000 0.000000 0.000000 0.045008 0.000000 -0.002543
# 5 -0.013242 -0.004238 0.000389 0.000000 0.066004 0.000000
# 6 0.000000 0.000000 0.000000 -0.002543 0.000000 0.042691
#
#
# Mechanical properties :
#
#
# Convention : Reuss Voigt Hill
#
# Bulk Modulus (GPa) = 29.29946 49.61801 39.45874
# Shear Modulus (GPa) = 18.57359 22.91276 20.74318
#
# Velocity S-wave (km/s) = 3.36606 3.73863 3.55723
# Velocity P-wave (km/s) = 5.74287 6.99320 6.39865
#
# Compressibility (1/GPa) = 0.03413032
#
# Stress axis : x y z
#
# Youngs Moduli (GPa) = 34.74305 31.99345 110.06367
#
# Poissons Ratio (x) = 0.22229 0.48126
# Poissons Ratio (y) = 0.24139 0.67983
# Poissons Ratio (z) = 0.15192 0.19761
#
# Static dielectric constant tensor:
#      x y z
#    x 2.775000 0.000000 -0.006860 
#    y 0.000000 3.048590 0.000000 
#    z -0.006860 0.000000 3.835600 
# 
# 
# High freq. dielectric constant tensor:
#      x y z
#    x 1.584040 0.000000 -0.004260 
#    y 0.000000 1.638790 0.000000 
#    z -0.004260 0.000000 1.651830 
# 
# From -- ./inp_files/287605.got.cif
#   From: 2010.06.25/outbox.cif.g09.slc.cpg/sg12_144_cif.got.tgz:287605.got - 2010.06.28 00:19:55.
