data_PCOD8080695
_publ_section_title
;
Structure prediction by ZEFSAII (Michael W. Deem and Ramdas Pophale) SiO2 
 PCOD8080695
Probable space group: C 2/M
;
_chemical_formula_sum "Si O2"
_cell_formula_units_Z 48
_cell_length_a 24.831300
_cell_length_b 17.198318
_cell_length_c 24.789336
_cell_angle_alpha 90.000000
_cell_angle_beta 17.253980
_cell_angle_gamma 90.000000
_cell_volume 3140.024670
_symmetry_space_group_name_H-M "C 2/M"
_symmetry_group_IT_number 12
_symmetry_cell_setting 'monoclinic'
loop_
_space_group_symop_operation_xyz
x,y,z
-x,y,-z
-x,-y,-z
x,-y,z
1/2+x,1/2+y,z
1/2-x,1/2+y,-z
1/2-x,1/2-y,-z
1/2+x,1/2-y,z
loop_
_atom_site_type_symbol
_atom_site_label
_atom_site_fract_x
_atom_site_fract_y
_atom_site_fract_z
Si Si1 0.694917 0.335016 0.165627
Si Si2 0.433800 0.911373 0.191298
Si Si3 0.970682 0.091016 0.782541
Si Si4 0.448451 0.410308 0.488233
Si Si5 0.877283 0.410068 0.369910
Si Si6 0.209010 0.691120 0.087189
O O1 0.633000 0.382429 0.172183
O O2 0.564019 0.353210 0.340356
O O3 0.695310 0.241720 0.154916
O O4 0.899122 0.358107 0.986165
O O5 0.263896 0.891356 0.315708
O O6 0.374256 0.894845 0.309304
O O7 0.495420 0.000000 0.124690
O O8 0.180953 0.114550 0.580262
O O9 0.944460 0.000000 0.812518
O O10 0.876518 0.130067 0.925245
O O11 0.500000 0.393099 0.500000
O O12 0.487990 0.500000 0.434145
O O13 0.921564 0.500000 0.340587
O O14 0.021103 0.354664 0.260818
O O15 0.250000 0.750000 0.000000
#
# Coordination Sequence:
#
# PCOD8080695 Si02
#       6
#     8   8   8   8   8   8
#     4  11  20  30  45  67  92 121 151 190 232 266
#     4  10  18  29  47  66  86 120 158 189 223 264
#     4  10  18  29  45  63  89 123 154 184 217 263
#     4  10  21  35  49  65  86 118 162 202 229 257
#     4  10  18  29  46  66  91 126 159 183 215 265
#     4  10  20  28  41  67  94 121 152 184 223 271
#
# _framework density 15.286505
#
# number of rings (size 3 to 8) (size 9 to 14) (size 15 to 20)
#    0.000    1.833    5.000    2.000    0.000    4.667 
#    0.000    2.500    0.000    0.000    0.000    0.000 
#    0.000    2.667    0.000   11.333    0.000    1.000 
#
# Total GULP energy -297566.143841 kJ/mol
# GULP energy per Si atom -12398.589327 kJ/mol
# Density = 1.525171 g / cm^3
# Si number density = 15.286505 Si / 1000 Ang^3
#
#
#
# Elastic Constant Matrix: (Units=GPa)
#
#
# Indices 1 2 3 4 5 6 
#
# 1 59.7378 33.9044 38.6557 0.0102 -10.7435 -0.0121
# 2 33.9044 64.0933 48.8548 0.0182 -9.1119 -0.0126
# 3 38.6557 48.8548 103.2259 0.0142 -21.2402 -0.0095
# 4 0.0102 0.0182 0.0142 24.8160 0.0073 7.9736
# 5 -10.7435 -9.1119 -21.2402 0.0073 20.7340 0.0054
# 6 -0.0121 -0.0126 -0.0095 7.9736 0.0054 11.2976
#
#
#
# Elastic Compliance Matrix: (Units=1/GPa)
#
#
# Indices 1 2 3 4 5 6 
#
# 1 0.025834 -0.009957 -0.003938 -0.000008 0.004976 0.000016
# 2 -0.009957 0.028277 -0.010338 -0.000018 -0.003323 0.000027
# 3 -0.003938 -0.010338 0.018627 -0.000004 0.012498 -0.000003
# 4 -0.000008 -0.000018 -0.000004 0.052115 -0.000025 -0.036782
# 5 0.004976 -0.003323 0.012498 -0.000025 0.062151 0.000000
# 6 0.000016 0.000027 -0.000003 -0.036782 0.000000 0.114474
#
#
# Mechanical properties :
#
#
# Convention : Reuss Voigt Hill
#
# Bulk Modulus (GPa) = 41.19969 52.20965 46.70467
# Shear Modulus (GPa) = 13.96517 18.41232 16.18875
#
# Velocity S-wave (km/s) = 3.02580 3.47433 3.25779
# Velocity P-wave (km/s) = 6.26238 7.09386 6.69105
#
# Compressibility (1/GPa) = 0.02427203
#
# Stress axis : x y z
#
# Youngs Moduli (GPa) = 38.70879 35.36442 53.68678
#
# Poissons Ratio (x) = 0.35211 0.21142
# Poissons Ratio (y) = 0.38541 0.55502
# Poissons Ratio (z) = 0.15243 0.36560
#
# Static dielectric constant tensor:
#      x y z
#    x 2.703630 -0.000040 -0.093890 
#    y -0.000040 3.222050 0.000490 
#    z -0.093890 0.000490 3.218770 
# 
# 
# High freq. dielectric constant tensor:
#      x y z
#    x 1.534770 0.000000 -0.014680 
#    y 0.000000 1.577560 0.000020 
#    z -0.014680 0.000020 1.606890 
# 
# From -- ./inp_files/322527.got.cif
#   From: 2010.06.25/outbox.cif.g09.slc.cpg/sg12_162_cif.got.tgz:322527.got - 2010.06.28 00:19:55.
