data_PCOD8080848
_publ_section_title
;
Structure prediction by ZEFSAII (Michael W. Deem and Ramdas Pophale) SiO2 
 PCOD8080848
Probable space group: C 2/M
;
_chemical_formula_sum "Si O2"
_cell_formula_units_Z 64
_cell_length_a 25.232978
_cell_length_b 9.196332
_cell_length_c 17.757450
_cell_angle_alpha 90.000000
_cell_angle_beta 103.680073
_cell_angle_gamma 90.000000
_cell_volume 4003.734833
_symmetry_space_group_name_H-M "C 2/M"
_symmetry_group_IT_number 12
_symmetry_cell_setting 'monoclinic'
loop_
_space_group_symop_operation_xyz
x,y,z
-x,y,-z
-x,-y,-z
x,-y,z
1/2+x,1/2+y,z
1/2-x,1/2+y,-z
1/2-x,1/2-y,-z
1/2+x,1/2-y,z
loop_
_atom_site_type_symbol
_atom_site_label
_atom_site_fract_x
_atom_site_fract_y
_atom_site_fract_z
Si Si1 0.507292 0.829090 0.917058
Si Si2 0.091916 0.830387 0.182395
Si Si3 0.661158 0.329418 0.347958
Si Si4 0.279191 0.830433 0.337401
Si Si5 0.677855 0.671890 0.085249
Si Si6 0.295375 0.172388 0.180072
Si Si7 0.306782 0.170709 0.506085
Si Si8 0.629845 0.828507 0.927241
O O1 0.464180 0.754156 0.847781
O O2 0.566684 0.783619 0.907364
O O3 0.497352 0.000000 0.909955
O O4 0.500000 0.772278 0.000000
O O5 0.113430 0.793558 0.273142
O O6 0.136292 0.778778 0.136429
O O7 0.080295 0.000000 0.169460
O O8 0.664392 0.500000 0.367034
O O9 0.718469 0.269661 0.333819
O O10 0.649148 0.243737 0.422627
O O11 0.302970 0.763023 0.267589
O O12 0.320447 0.802496 0.421735
O O13 0.270896 0.000000 0.320733
O O14 0.676025 0.500000 0.072418
O O15 0.737791 0.726924 0.128018
O O16 0.662628 0.749645 0.003419
O O17 0.344886 0.225363 0.143698
O O18 0.295420 0.000000 0.182419
O O19 0.250000 0.250000 0.500000
O O20 0.301646 0.000000 0.521491
O O21 0.636879 0.000000 0.941819
#
# Coordination Sequence:
#
# PCOD8080848 Si02
#       8
#     8   8   8   8   8   8   8   8
#     4  10  20  33  45  61  90 120 148 188 231 264
#     4  10  19  30  48  69  86 116 154 185 223 267
#     4   9  16  28  44  64  91 115 143 181 222 265
#     4   8  13  24  42  63  88 115 141 174 212 257
#     4  10  18  29  47  67  88 114 148 187 223 261
#     4   9  16  28  46  66  88 117 151 182 216 263
#     4   9  16  25  41  64  91 121 147 173 214 263
#     4  10  20  32  46  63  86 120 154 183 223 265
#
# _framework density 15.985075
#
# number of rings (size 3 to 8) (size 9 to 14) (size 15 to 20)
#    0.000    2.625    2.500    1.500    0.000    1.250 
#    0.000    0.000    0.000    3.750    0.000    0.875 
#    0.000    7.000    0.000    0.000    0.000    0.000 
#
# Total GULP energy -396599.930104 kJ/mol
# GULP energy per Si atom -12393.747816 kJ/mol
# Density = 1.594869 g / cm^3
# Si number density = 15.985075 Si / 1000 Ang^3
#
#
#
# Elastic Constant Matrix: (Units=GPa)
#
#
# Indices 1 2 3 4 5 6 
#
# 1 91.9147 21.6228 69.0611 0.0000 -5.1153 0.0000
# 2 21.6228 31.2850 44.7735 0.0000 1.2311 0.0000
# 3 69.0611 44.7735 157.3069 0.0000 5.5745 0.0000
# 4 0.0000 0.0000 0.0000 25.7897 0.0000 7.4993
# 5 -5.1153 1.2311 5.5745 0.0000 17.6269 0.0000
# 6 0.0000 0.0000 0.0000 7.4993 0.0000 14.9867
#
#
#
# Elastic Compliance Matrix: (Units=1/GPa)
#
#
# Indices 1 2 3 4 5 6 
#
# 1 0.017201 -0.001682 -0.007336 0.000000 0.007429 0.000000
# 2 -0.001682 0.054119 -0.014679 0.000000 0.000374 0.000000
# 3 -0.007336 -0.014679 0.013951 0.000000 -0.005516 0.000000
# 4 0.000000 0.000000 0.000000 0.045378 0.000000 -0.022707
# 5 0.007429 0.000374 -0.005516 0.000000 0.060606 0.000000
# 6 0.000000 0.000000 0.000000 -0.022707 0.000000 0.078088
#
#
# Mechanical properties :
#
#
# Convention : Reuss Voigt Hill
#
# Bulk Modulus (GPa) = 26.40050 61.26902 43.83476
# Shear Modulus (GPa) = 15.18089 21.35062 18.26576
#
# Velocity S-wave (km/s) = 3.08505 3.65863 3.38402
# Velocity P-wave (km/s) = 5.40755 7.50064 6.53839
#
# Compressibility (1/GPa) = 0.03787806
#
# Stress axis : x y z
#
# Youngs Moduli (GPa) = 58.13681 18.47781 71.67897
#
# Poissons Ratio (x) = 0.03107 0.52585
# Poissons Ratio (y) = 0.09776 1.05215
# Poissons Ratio (z) = 0.42650 0.27123
#
# Static dielectric constant tensor:
#      x y z
#    x 2.900910 0.000000 -0.062620 
#    y 0.000000 2.857090 0.000000 
#    z -0.062620 0.000000 3.537230 
# 
# 
# High freq. dielectric constant tensor:
#      x y z
#    x 1.578920 0.000000 0.005670 
#    y 0.000000 1.592190 0.000000 
#    z 0.005670 0.000000 1.626340 
# 
# From -- ./inp_files/287647.got.cif
#   From: 2010.06.25/outbox.cif.g09.slc.cpg/sg12_144_cif.got.tgz:287647.got - 2010.06.28 00:19:55.
