data_PCOD8080274
_publ_section_title
;
Structure prediction by ZEFSAII (Michael W. Deem and Ramdas Pophale) SiO2 
 PCOD8080274
Probable space group: C 2/M
;
_chemical_formula_sum "Si O2"
_cell_formula_units_Z 64
_cell_length_a 24.579700
_cell_length_b 20.996887
_cell_length_c 8.143067
_cell_angle_alpha 90.000000
_cell_angle_beta 78.386455
_cell_angle_gamma 90.000000
_cell_volume 4116.576712
_symmetry_space_group_name_H-M "C 2/M"
_symmetry_group_IT_number 12
_symmetry_cell_setting 'monoclinic'
loop_
_space_group_symop_operation_xyz
x,y,z
-x,y,-z
-x,-y,-z
x,-y,z
1/2+x,1/2+y,z
1/2-x,1/2+y,-z
1/2-x,1/2-y,-z
1/2+x,1/2-y,z
loop_
_atom_site_type_symbol
_atom_site_label
_atom_site_fract_x
_atom_site_fract_y
_atom_site_fract_z
Si Si1 0.994936 0.426468 0.811557
Si Si2 0.385186 0.135166 0.759302
Si Si3 0.787184 0.819787 0.136338
Si Si4 0.390216 0.072249 0.418989
Si Si5 0.210725 0.810544 0.507909
Si Si6 0.780599 0.572733 0.959083
Si Si7 0.775330 0.428336 0.337688
Si Si8 0.824561 0.239186 0.796862
O O1 0.980789 0.500000 0.779498
O O2 0.947949 0.380788 0.768310
O O3 0.052403 0.404614 0.695265
O O4 0.000000 0.415367 0.000000
O O5 0.373251 0.116463 0.579712
O O6 0.374660 0.210629 0.779241
O O7 0.343419 0.097706 0.903728
O O8 0.819068 0.816690 0.293995
O O9 0.735882 0.770967 0.169761
O O10 0.762281 0.890316 0.130715
O O11 0.828356 0.803987 0.959535
O O12 0.341792 0.078284 0.314273
O O13 0.396533 0.000000 0.478532
O O14 0.250000 0.750000 0.500000
O O15 0.244914 0.875823 0.465058
O O16 0.169041 0.801136 0.377885
O O17 0.778709 0.500000 0.905395
O O18 0.761101 0.583645 0.156931
O O19 0.756835 0.500000 0.402061
#
# Coordination Sequence:
#
# PCOD8080274 Si02
#       8
#     8   8   8   8   8   8   8   8
#     4  10  20  34  47  62  86 115 150 196 243 276
#     4  11  20  30  45  62  84 115 151 197 230 272
#     4   9  17  29  44  59  84 115 141 187 226 263
#     4  10  19  30  44  62  84 112 151 193 235 274
#     4  10  18  29  47  63  88 119 152 191 229 274
#     4  10  18  28  44  64  89 117 151 190 231 272
#     4  10  19  30  44  67  93 120 156 199 231 269
#     4   9  18  31  41  63  86 108 151 188 222 271
#
# _framework density 15.546899
#
# number of rings (size 3 to 8) (size 9 to 14) (size 15 to 20)
#    0.000    2.125    1.250    4.500    1.750    4.500 
#    2.250    0.000    0.000    0.000    0.000    0.000 
#    0.000    0.000    0.000    0.000    0.000   26.250 
#
# Total GULP energy -396664.447861 kJ/mol
# GULP energy per Si atom -12395.763996 kJ/mol
# Density = 1.551151 g / cm^3
# Si number density = 15.546899 Si / 1000 Ang^3
#
#
#
# Elastic Constant Matrix: (Units=GPa)
#
#
# Indices 1 2 3 4 5 6 
#
# 1 41.9518 30.1559 27.3744 0.0000 10.3115 0.0000
# 2 30.1559 81.7293 41.6561 0.0000 3.0926 0.0000
# 3 27.3744 41.6561 90.9346 0.0000 18.9210 0.0000
# 4 0.0000 0.0000 0.0000 22.2166 0.0000 3.7876
# 5 10.3115 3.0926 18.9210 0.0000 20.9212 0.0000
# 6 0.0000 0.0000 0.0000 3.7876 0.0000 17.2278
#
#
#
# Elastic Compliance Matrix: (Units=1/GPa)
#
#
# Indices 1 2 3 4 5 6 
#
# 1 0.037823 -0.011898 -0.002984 0.000000 -0.014184 0.000000
# 2 -0.011898 0.020185 -0.007716 0.000000 0.009859 0.000000
# 3 -0.002984 -0.007716 0.018337 0.000000 -0.013973 0.000000
# 4 0.000000 0.000000 0.000000 0.046764 0.000000 -0.010281
# 5 -0.014184 0.009859 -0.013973 0.000000 0.065969 0.000000
# 6 0.000000 0.000000 0.000000 -0.010281 0.000000 0.060306
#
#
# Mechanical properties :
#
#
# Convention : Reuss Voigt Hill
#
# Bulk Modulus (GPa) = 32.10428 45.88761 38.99595
# Shear Modulus (GPa) = 16.39531 19.76841 18.08186
#
# Velocity S-wave (km/s) = 3.25094 3.56973 3.41406
# Velocity P-wave (km/s) = 5.89799 6.82424 6.37795
#
# Compressibility (1/GPa) = 0.03114849
#
# Stress axis : x y z
#
# Youngs Moduli (GPa) = 26.43889 49.54093 54.53318
#
# Poissons Ratio (x) = 0.58943 0.16275
# Poissons Ratio (y) = 0.31456 0.42080
# Poissons Ratio (z) = 0.07891 0.38228
#
# Static dielectric constant tensor:
#      x y z
#    x 2.632350 0.000000 0.259710 
#    y 0.000000 2.954590 0.000000 
#    z 0.259710 0.000000 3.270850 
# 
# 
# High freq. dielectric constant tensor:
#      x y z
#    x 1.543780 0.000000 0.030460 
#    y 0.000000 1.584420 0.000000 
#    z 0.030460 0.000000 1.611650 
# 
# From -- ./inp_files/98835.got.cif
#   From: 2010.06.25/outbox.cif.g09.slc.cpg/sg12_50_cif.got.tgz:98835.got - 2010.06.28 00:19:55.
