data_PCOD8080957
_publ_section_title
;
Structure prediction by ZEFSAII (Michael W. Deem and Ramdas Pophale) SiO2 
 PCOD8080957
Probable space group: C 2/M
;
_chemical_formula_sum "Si O2"
_cell_formula_units_Z 64
_cell_length_a 23.677201
_cell_length_b 8.985619
_cell_length_c 20.308008
_cell_angle_alpha 90.000000
_cell_angle_beta 58.228445
_cell_angle_gamma 90.000000
_cell_volume 3673.189986
_symmetry_space_group_name_H-M "C 2/M"
_symmetry_group_IT_number 12
_symmetry_cell_setting 'monoclinic'
loop_
_space_group_symop_operation_xyz
x,y,z
-x,y,-z
-x,-y,-z
x,-y,z
1/2+x,1/2+y,z
1/2-x,1/2+y,-z
1/2-x,1/2-y,-z
1/2+x,1/2-y,z
loop_
_atom_site_type_symbol
_atom_site_label
_atom_site_fract_x
_atom_site_fract_y
_atom_site_fract_z
Si Si1 0.045843 0.174611 0.533447
Si Si2 0.035623 0.174442 0.291106
Si Si3 0.695727 0.669970 0.815838
Si Si4 0.193325 0.675085 0.682205
Si Si5 0.173425 0.324619 0.405704
Si Si6 0.939816 0.176240 0.235862
Si Si7 0.160639 0.669421 0.261062
Si Si8 0.448278 0.328366 0.082202
O O1 0.114380 0.263226 0.486749
O O2 0.000000 0.214959 0.500000
O O3 0.008623 0.233973 0.621263
O O4 0.061720 0.000000 0.526943
O O5 0.110047 0.237097 0.248246
O O6 0.002126 0.221816 0.242889
O O7 0.042218 0.000000 0.293445
O O8 0.696515 0.500000 0.785952
O O9 0.694155 0.789195 0.758960
O O10 0.764227 0.693198 0.814430
O O11 0.627492 0.692133 0.899139
O O12 0.194334 0.500000 0.668835
O O13 0.258667 0.749115 0.609777
O O14 0.125874 0.745555 0.693775
O O15 0.179678 0.500000 0.410647
O O16 0.160210 0.280048 0.337663
O O17 0.954118 0.235986 0.152897
O O18 0.927302 0.000000 0.244323
O O19 0.137898 0.500000 0.269252
O O20 0.468186 0.500000 0.074491
O O21 0.500000 0.248665 0.000000
#
# Coordination Sequence:
#
# PCOD8080957 Si02
#       8
#     8   8   8   8   8   8   8   8
#     4  10  19  31  46  67  94 120 157 204 241 276
#     4  10  20  32  47  66  92 127 157 192 238 280
#     4   8  15  28  45  70  99 123 153 193 233 273
#     4  10  18  29  48  70  92 121 157 196 238 280
#     4  10  19  31  48  69  93 122 158 200 243 279
#     4   9  18  33  49  68  96 124 155 190 231 283
#     4   9  17  28  44  66  92 122 156 194 230 273
#     4   8  13  25  50  77  95 116 152 195 230 267
#
# _framework density 17.423548
#
# number of rings (size 3 to 8) (size 9 to 14) (size 15 to 20)
#    0.000    2.750    1.250    3.000    0.000    3.250 
#    0.000    0.625    0.000    6.750    0.000    0.000 
#    0.000    0.000    0.000    0.000    0.000    1.000 
#
# Total GULP energy -396566.493215 kJ/mol
# GULP energy per Si atom -12392.702913 kJ/mol
# Density = 1.738389 g / cm^3
# Si number density = 17.423548 Si / 1000 Ang^3
#
#
#
# Elastic Constant Matrix: (Units=GPa)
#
#
# Indices 1 2 3 4 5 6 
#
# 1 141.1345 38.5791 61.4573 0.0003 -21.2187 0.0001
# 2 38.5791 48.3368 20.9376 0.0010 -7.0298 0.0008
# 3 61.4573 20.9376 88.0711 0.0005 -21.7897 -0.0003
# 4 0.0003 0.0010 0.0005 10.6441 -0.0005 -4.9249
# 5 -21.2187 -7.0298 -21.7897 -0.0005 27.6778 0.0003
# 6 0.0001 0.0008 -0.0003 -4.9249 0.0003 26.5434
#
#
#
# Elastic Compliance Matrix: (Units=1/GPa)
#
#
# Indices 1 2 3 4 5 6 
#
# 1 0.011922 -0.006476 -0.006117 0.000001 0.002679 0.000000
# 2 -0.006476 0.026663 -0.001704 -0.000003 0.000465 -0.000001
# 3 -0.006117 -0.001704 0.018331 0.000000 0.009309 0.000000
# 4 0.000001 -0.000003 0.000000 0.102771 0.000002 0.019068
# 5 0.002679 0.000465 0.009309 0.000002 0.045631 0.000000
# 6 0.000000 -0.000001 0.000000 0.019068 0.000000 0.041212
#
#
# Mechanical properties :
#
#
# Convention : Reuss Voigt Hill
#
# Bulk Modulus (GPa) = 35.30892 57.72115 46.51503
# Shear Modulus (GPa) = 17.57057 23.41094 20.49076
#
# Velocity S-wave (km/s) = 3.17904 3.66954 3.43306
# Velocity P-wave (km/s) = 5.81241 7.15222 6.51684
#
# Compressibility (1/GPa) = 0.02832146
#
# Stress axis : x y z
#
# Youngs Moduli (GPa) = 83.87733 37.50517 54.55132
#
# Poissons Ratio (x) = 0.24289 0.33369
# Poissons Ratio (y) = 0.54320 0.09298
# Poissons Ratio (z) = 0.51307 0.06392
#
# Static dielectric constant tensor:
#      x y z
#    x 3.401640 0.000000 -0.301580 
#    y 0.000000 3.009220 0.000000 
#    z -0.301580 0.000000 3.189800 
# 
# 
# High freq. dielectric constant tensor:
#      x y z
#    x 1.674870 0.000000 -0.030990 
#    y 0.000000 1.655040 0.000000 
#    z -0.030990 0.000000 1.637380 
# 
# From -- ./inp_files/319993.got.cif
#   From: 2010.06.25/outbox.cif.g09.slc.cpg/sg12_160_cif.got.tgz:319993.got - 2010.06.28 00:19:55.
