data_PCOD8080712
_publ_section_title
;
Structure prediction by ZEFSAII (Michael W. Deem and Ramdas Pophale) SiO2 
 PCOD8080712
Probable space group: C 2/M
;
_chemical_formula_sum "Si O2"
_cell_formula_units_Z 48
_cell_length_a 23.913539
_cell_length_b 9.130225
_cell_length_c 13.635084
_cell_angle_alpha 90.000000
_cell_angle_beta 108.374941
_cell_angle_gamma 90.000000
_cell_volume 2825.242677
_symmetry_space_group_name_H-M "C 2/M"
_symmetry_group_IT_number 12
_symmetry_cell_setting 'monoclinic'
loop_
_space_group_symop_operation_xyz
x,y,z
-x,y,-z
-x,-y,-z
x,-y,z
1/2+x,1/2+y,z
1/2-x,1/2+y,-z
1/2-x,1/2-y,-z
1/2+x,1/2-y,z
loop_
_atom_site_type_symbol
_atom_site_label
_atom_site_fract_x
_atom_site_fract_y
_atom_site_fract_z
Si Si1 0.868046 0.334104 0.850607
Si Si2 0.440103 0.166659 0.082318
Si Si3 0.754991 0.330900 0.899977
Si Si4 0.984022 0.172286 0.386506
Si Si5 0.874639 0.168423 0.204837
Si Si6 0.952780 0.826809 0.772513
O O1 0.857146 0.500000 0.809245
O O2 0.807479 0.266794 0.861376
O O3 0.889496 0.239787 0.768774
O O4 0.919877 0.327649 0.959166
O O5 0.386806 0.229016 0.118421
O O6 0.497418 0.266214 0.126948
O O7 0.454451 0.000000 0.121573
O O8 0.769165 0.500000 0.931309
O O9 0.694007 0.313414 0.805284
O O10 0.750000 0.250000 0.000000
O O11 0.917258 0.216248 0.318269
O O12 0.000000 0.247055 0.500000
O O13 0.030464 0.223540 0.328817
O O14 0.988906 0.000000 0.400644
O O15 0.888929 0.000000 0.183727
O O16 0.950108 0.000000 0.781024
#
# Coordination Sequence:
#
# PCOD8080712 Si02
#       6
#     8   8   8   8   8   8
#     4  10  20  31  43  63  95 132 157 181 227 280
#     4  10  18  29  45  65  94 129 156 184 229 280
#     4  10  19  31  46  67  96 129 163 190 221 268
#     4   8  15  30  51  72  91 112 147 199 248 280
#     4   9  17  29  48  72  94 120 159 198 226 267
#     4  10  20  31  46  69  91 118 157 197 234 275
#
# _framework density 16.98969
#
# number of rings (size 3 to 8) (size 9 to 14) (size 15 to 20)
#    0.000    2.500    1.667    2.500    0.000    4.000 
#    0.000    0.000    0.000   13.500    0.000    0.000 
#    0.000    0.000    0.000    0.000    0.000    0.667 
#
# Total GULP energy -297477.732088 kJ/mol
# GULP energy per Si atom -12394.905504 kJ/mol
# Density = 1.695102 g / cm^3
# Si number density = 16.989690 Si / 1000 Ang^3
#
#
#
# Elastic Constant Matrix: (Units=GPa)
#
#
# Indices 1 2 3 4 5 6 
#
# 1 144.9108 39.5805 52.8655 0.0000 -15.0298 0.0000
# 2 39.5805 56.6179 25.6716 0.0000 -7.3694 0.0000
# 3 52.8655 25.6716 83.8556 0.0000 -6.9799 0.0000
# 4 0.0000 0.0000 0.0000 10.6790 0.0000 -3.3017
# 5 -15.0298 -7.3694 -6.9799 0.0000 15.5897 0.0000
# 6 0.0000 0.0000 0.0000 -3.3017 0.0000 28.1746
#
#
#
# Elastic Compliance Matrix: (Units=1/GPa)
#
#
# Indices 1 2 3 4 5 6 
#
# 1 0.010439 -0.004380 -0.004752 0.000000 0.005866 0.000000
# 2 -0.004380 0.023144 -0.003911 0.000000 0.004967 0.000000
# 3 -0.004752 -0.003911 0.016186 0.000000 0.000817 0.000000
# 4 0.000000 0.000000 0.000000 0.097162 0.000000 0.011386
# 5 0.005866 0.004967 0.000817 0.000000 0.072514 0.000000
# 6 0.000000 0.000000 0.000000 0.011386 0.000000 0.036827
#
#
# Mechanical properties :
#
#
# Convention : Reuss Voigt Hill
#
# Bulk Modulus (GPa) = 42.22206 57.95774 50.08990
# Shear Modulus (GPa) = 17.22639 22.03976 19.63307
#
# Velocity S-wave (km/s) = 3.18768 3.60563 3.40308
# Velocity P-wave (km/s) = 6.20113 7.17786 6.70730
#
# Compressibility (1/GPa) = 0.02368430
#
# Stress axis : x y z
#
# Youngs Moduli (GPa) = 95.79385 43.20845 61.78022
#
# Poissons Ratio (x) = 0.18923 0.29359
# Poissons Ratio (y) = 0.41953 0.24161
# Poissons Ratio (z) = 0.45522 0.16898
#
# Static dielectric constant tensor:
#      x y z
#    x 3.412930 0.000000 -0.011410 
#    y 0.000000 3.121500 0.000000 
#    z -0.011410 0.000000 3.130790 
# 
# 
# High freq. dielectric constant tensor:
#      x y z
#    x 1.663750 0.000000 -0.001630 
#    y 0.000000 1.643280 0.000000 
#    z -0.001630 0.000000 1.615770 
# 
# From -- ./inp_files/172251.got.cif
#   From: 2010.06.25/outbox.cif.g09.slc.cpg/sg12_87_cif.got.tgz:172251.got - 2010.06.28 00:19:55.
