data_PCOD8080486
_publ_section_title
;
Structure prediction by ZEFSAII (Michael W. Deem and Ramdas Pophale) SiO2 
 PCOD8080486
Probable space group: C 2/M
;
_chemical_formula_sum "Si O2"
_cell_formula_units_Z 64
_cell_length_a 30.708271
_cell_length_b 9.187015
_cell_length_c 16.746380
_cell_angle_alpha 90.000000
_cell_angle_beta 45.363926
_cell_angle_gamma 90.000000
_cell_volume 3361.838123
_symmetry_space_group_name_H-M "C 2/M"
_symmetry_group_IT_number 12
_symmetry_cell_setting 'monoclinic'
loop_
_space_group_symop_operation_xyz
x,y,z
-x,y,-z
-x,-y,-z
x,-y,z
1/2+x,1/2+y,z
1/2-x,1/2+y,-z
1/2-x,1/2-y,-z
1/2+x,1/2-y,z
loop_
_atom_site_type_symbol
_atom_site_label
_atom_site_fract_x
_atom_site_fract_y
_atom_site_fract_z
Si Si1 0.879070 0.164782 0.055849
Si Si2 0.096953 0.665100 0.205549
Si Si3 0.195090 0.671863 0.394797
Si Si4 0.013295 0.830099 0.198589
Si Si5 0.178620 0.329484 0.238330
Si Si6 0.173160 0.167411 0.713087
Si Si7 0.794669 0.666220 0.054373
Si Si8 0.114213 0.327065 0.645326
O O1 0.879776 0.180926 0.150919
O O2 0.826811 0.270746 0.091671
O O3 0.860838 0.000000 0.055213
O O4 0.944690 0.203255 0.932928
O O5 0.072397 0.500000 0.227095
O O6 0.045677 0.773817 0.238014
O O7 0.113673 0.699595 0.276705
O O8 0.160680 0.686457 0.077667
O O9 0.195036 0.500000 0.390310
O O10 0.176312 0.733547 0.331679
O O11 0.262463 0.723774 0.334142
O O12 0.144747 0.725014 0.523207
O O13 0.951674 0.744347 0.262451
O O14 0.999315 0.000000 0.226512
O O15 0.193433 0.500000 0.218533
O O16 0.232030 0.251595 0.119426
O O17 0.157057 0.271878 0.661213
O O18 0.177912 0.000000 0.677388
O O19 0.778408 0.500000 0.091736
O O20 0.108187 0.500000 0.658552
#
# Coordination Sequence:
#
# PCOD8080486 Si02
#       8
#     8   8   8   8   8   8   8   8
#     4   9  18  34  57  80 106 143 180 218 262 320
#     4   9  19  33  53  80 110 143 178 220 266 315
#     4   9  19  36  58  81 107 141 183 223 261 316
#     4  10  21  38  58  79 107 145 185 221 263 318
#     4  10  18  33  55  78 107 145 184 217 260 318
#     4  10  19  36  60  83 107 135 177 226 270 322
#     4  10  18  28  46  80 118 143 169 214 270 321
#     4  11  23  38  56  79 107 142 182 226 273 318
#
# _framework density 19.037203999999999
#
# number of rings (size 3 to 8) (size 9 to 14) (size 15 to 20)
#    0.000    2.250    1.250    1.875    0.000    2.500 
#    0.000    5.000    0.000    3.750    0.000    0.000 
#    0.000    0.000    0.000    0.000    0.000    0.000 
#
# Total GULP energy -396749.988482 kJ/mol
# GULP energy per Si atom -12398.437140 kJ/mol
# Density = 1.899387 g / cm^3
# Si number density = 19.037204 Si / 1000 Ang^3
#
#
#
# Elastic Constant Matrix: (Units=GPa)
#
#
# Indices 1 2 3 4 5 6 
#
# 1 45.4816 22.0893 14.6133 0.0003 13.6428 0.0006
# 2 22.0893 66.0447 19.4813 -0.0007 3.3016 0.0003
# 3 14.6133 19.4813 53.2488 0.0000 2.2140 0.0003
# 4 0.0003 -0.0007 0.0000 19.6119 0.0001 -0.4132
# 5 13.6428 3.3016 2.2140 0.0001 25.6722 0.0001
# 6 0.0006 0.0003 0.0003 -0.4132 0.0001 33.8240
#
#
#
# Elastic Compliance Matrix: (Units=1/GPa)
#
#
# Indices 1 2 3 4 5 6 
#
# 1 0.032522 -0.008577 -0.005133 -0.000001 -0.015737 0.000000
# 2 -0.008577 0.019305 -0.004813 0.000001 0.002490 0.000000
# 3 -0.005133 -0.004813 0.021889 0.000000 0.001459 0.000000
# 4 -0.000001 0.000001 0.000000 0.051003 0.000000 0.000623
# 5 -0.015737 0.002490 0.001459 0.000000 0.046870 0.000000
# 6 0.000000 0.000000 0.000000 0.000623 0.000000 0.029572
#
#
# Mechanical properties :
#
#
# Convention : Reuss Voigt Hill
#
# Bulk Modulus (GPa) = 27.26941 30.79363 29.03152
# Shear Modulus (GPa) = 19.96577 23.06105 21.51341
#
# Velocity S-wave (km/s) = 3.24200 3.48425 3.36530
# Velocity P-wave (km/s) = 5.32629 5.69186 5.51211
#
# Compressibility (1/GPa) = 0.03667112
#
# Stress axis : x y z
#
# Youngs Moduli (GPa) = 30.74816 51.80035 45.68603
#
# Poissons Ratio (x) = 0.44427 0.23451
# Poissons Ratio (y) = 0.26371 0.21987
# Poissons Ratio (z) = 0.15783 0.24929
#
# Static dielectric constant tensor:
#      x y z
#    x 3.491480 0.000000 0.183850 
#    y 0.000000 3.399080 0.000000 
#    z 0.183850 0.000000 3.600610 
# 
# 
# High freq. dielectric constant tensor:
#      x y z
#    x 1.737770 0.000000 0.009290 
#    y 0.000000 1.728010 0.000000 
#    z 0.009290 0.000000 1.730090 
# 
# From -- ./inp_files/249791.got.cif
#   From: 2010.06.25/outbox.cif.g09.slc.cpg/sg12_125_cif.got.tgz:249791.got - 2010.06.28 00:19:55.
