data_PCOD8080121
_publ_section_title
;
Structure prediction by ZEFSAII (Michael W. Deem and Ramdas Pophale) SiO2 
 PCOD8080121
Probable space group: C 2/M
;
_chemical_formula_sum "Si O2"
_cell_formula_units_Z 64
_cell_length_a 24.090999
_cell_length_b 9.124404
_cell_length_c 19.902530
_cell_angle_alpha 90.000000
_cell_angle_beta 57.276892
_cell_angle_gamma 90.000000
_cell_volume 3680.567527
_symmetry_space_group_name_H-M "C 2/M"
_symmetry_group_IT_number 12
_symmetry_cell_setting 'monoclinic'
loop_
_space_group_symop_operation_xyz
x,y,z
-x,y,-z
-x,-y,-z
x,-y,z
1/2+x,1/2+y,z
1/2-x,1/2+y,-z
1/2-x,1/2-y,-z
1/2+x,1/2-y,z
loop_
_atom_site_type_symbol
_atom_site_label
_atom_site_fract_x
_atom_site_fract_y
_atom_site_fract_z
Si Si1 0.539281 0.329163 0.767499
Si Si2 0.371811 0.672331 0.170973
Si Si3 0.355801 0.672972 0.031837
Si Si4 0.208023 0.673468 0.150983
Si Si5 0.906999 0.325552 0.870233
Si Si6 0.275425 0.173200 0.711965
Si Si7 0.715506 0.669789 0.423099
Si Si8 0.337982 0.667821 0.401245
O O1 0.520324 0.500000 0.786488
O O2 0.572378 0.268386 0.814923
O O3 0.474729 0.234143 0.794957
O O4 0.588387 0.301880 0.673007
O O5 0.367636 0.500000 0.182363
O O6 0.387870 0.712194 0.083227
O O7 0.299979 0.731629 0.238849
O O8 0.360894 0.500000 0.013796
O O9 0.279943 0.728845 0.079863
O O10 0.397774 0.761837 0.950487
O O11 0.210202 0.500000 0.147790
O O12 0.151977 0.735022 0.138350
O O13 0.192605 0.722592 0.237772
O O14 0.908326 0.500000 0.871726
O O15 0.312357 0.250769 0.625509
O O16 0.280507 0.000000 0.699165
O O17 0.722587 0.500000 0.402596
O O18 0.664444 0.700044 0.517383
O O19 0.787388 0.730051 0.395023
O O20 0.317275 0.500000 0.399696
#
# Coordination Sequence:
#
# PCOD8080121 Si02
#       8
#     8   8   8   8   8   8   8   8
#     4  10  19  34  52  68  92 133 173 197 221 281
#     4   8  15  29  51  72  91 120 166 203 227 273
#     4   9  17  33  55  74  89 119 165 208 240 285
#     4   8  17  33  54  73  93 124 167 205 237 283
#     4  11  22  34  47  71 101 128 157 203 254 288
#     4   9  15  30  53  73  94 127 163 198 237 285
#     4  10  18  27  46  79 107 123 149 198 250 286
#     4   9  18  32  49  69  99 135 166 191 225 285
#
# _framework density 17.388622999999999
#
# number of rings (size 3 to 8) (size 9 to 14) (size 15 to 20)
#    0.000    2.750    1.250    2.625    0.000    1.500 
#    0.000    7.500    0.000    0.750    0.000    5.250 
#    0.000    0.000    0.000    0.000    0.000    0.000 
#
# Total GULP energy -396675.411637 kJ/mol
# GULP energy per Si atom -12396.106614 kJ/mol
# Density = 1.734905 g / cm^3
# Si number density = 17.388623 Si / 1000 Ang^3
#
#
#
# Elastic Constant Matrix: (Units=GPa)
#
#
# Indices 1 2 3 4 5 6 
#
# 1 51.2221 19.1914 36.7854 -0.0009 -2.9941 0.0005
# 2 19.1914 51.4227 38.9541 -0.0012 3.3455 0.0002
# 3 36.7854 38.9541 115.2531 -0.0008 10.0237 0.0006
# 4 -0.0009 -0.0012 -0.0008 28.1147 0.0001 1.4448
# 5 -2.9941 3.3455 10.0237 0.0001 24.7725 0.0000
# 6 0.0005 0.0002 0.0006 1.4448 0.0000 22.0148
#
#
#
# Elastic Compliance Matrix: (Units=1/GPa)
#
#
# Indices 1 2 3 4 5 6 
#
# 1 0.027258 -0.004808 -0.007689 0.000000 0.007055 0.000000
# 2 -0.004808 0.026987 -0.007483 0.000001 -0.001198 0.000000
# 3 -0.007689 -0.007483 0.014151 0.000000 -0.005644 0.000000
# 4 0.000000 0.000001 0.000000 0.035689 0.000000 -0.002342
# 5 0.007055 -0.001198 -0.005644 0.000000 0.043666 0.000000
# 6 0.000000 0.000000 0.000000 -0.002342 0.000000 0.045578
#
#
# Mechanical properties :
#
#
# Convention : Reuss Voigt Hill
#
# Bulk Modulus (GPa) = 35.16431 45.30663 40.23547
# Shear Modulus (GPa) = 20.59603 23.17821 21.88712
#
# Velocity S-wave (km/s) = 3.44532 3.65492 3.55167
# Velocity P-wave (km/s) = 6.00779 6.62746 6.32521
#
# Compressibility (1/GPa) = 0.02843793
#
# Stress axis : x y z
#
# Youngs Moduli (GPa) = 36.68633 37.05468 70.66887
#
# Poissons Ratio (x) = 0.17814 0.54335
# Poissons Ratio (y) = 0.17637 0.52879
# Poissons Ratio (z) = 0.28207 0.27727
#
# Static dielectric constant tensor:
#      x y z
#    x 3.387230 0.000000 0.234150 
#    y 0.000000 2.980010 0.000000 
#    z 0.234150 0.000000 3.336810 
# 
# 
# High freq. dielectric constant tensor:
#      x y z
#    x 1.651200 0.000000 0.019300 
#    y 0.000000 1.646740 0.000000 
#    z 0.019300 0.000000 1.675710 
# 
# From -- ./inp_files/324177.got.cif
#   From: 2010.06.25/outbox.cif.g09.slc.cpg/sg12_163_cif.got.tgz:324177.got - 2010.06.28 00:19:55.
