data_PCOD8080691
_publ_section_title
;
Structure prediction by ZEFSAII (Michael W. Deem and Ramdas Pophale) SiO2 
 PCOD8080691
Probable space group: C 2/M
;
_chemical_formula_sum "Si O2"
_cell_formula_units_Z 64
_cell_length_a 27.603133
_cell_length_b 9.268717
_cell_length_c 19.907765
_cell_angle_alpha 90.000000
_cell_angle_beta 48.077003
_cell_angle_gamma 90.000000
_cell_volume 3789.647326
_symmetry_space_group_name_H-M "C 2/M"
_symmetry_group_IT_number 12
_symmetry_cell_setting 'monoclinic'
loop_
_space_group_symop_operation_xyz
x,y,z
-x,y,-z
-x,-y,-z
x,-y,z
1/2+x,1/2+y,z
1/2-x,1/2+y,-z
1/2-x,1/2-y,-z
1/2+x,1/2-y,z
loop_
_atom_site_type_symbol
_atom_site_label
_atom_site_fract_x
_atom_site_fract_y
_atom_site_fract_z
Si Si1 0.556719 0.328137 0.900856
Si Si2 0.975107 0.830413 0.356267
Si Si3 0.215868 0.839312 0.610419
Si Si4 0.051203 0.328913 0.394553
Si Si5 0.333982 0.341278 0.518824
Si Si6 0.573273 0.668876 0.738599
Si Si7 0.819699 0.838760 0.688688
Si Si8 0.799380 0.161375 0.216006
O O1 0.550989 0.500000 0.904637
O O2 0.548925 0.264392 0.831977
O O3 0.626994 0.282886 0.865865
O O4 0.500000 0.260942 0.000000
O O5 0.905149 0.770811 0.445957
O O6 0.978670 0.800376 0.272582
O O7 0.029031 0.736211 0.343778
O O8 0.984970 0.000000 0.363972
O O9 0.277276 0.741214 0.530046
O O10 0.145957 0.776532 0.649221
O O11 0.213165 0.840221 0.693328
O O12 0.229696 0.000000 0.571037
O O13 0.058169 0.500000 0.382388
O O14 0.120754 0.261074 0.345123
O O15 0.000000 0.284553 0.500000
O O16 0.338010 0.500000 0.482309
O O17 0.316059 0.349987 0.612620
O O18 0.582718 0.500000 0.742214
O O19 0.751928 0.765106 0.774945
O O20 0.826181 0.000000 0.713835
O O21 0.790295 0.000000 0.195422
#
# Coordination Sequence:
#
# PCOD8080691 Si02
#       8
#     8   8   8   8   8   8   8   8
#     4   8  13  24  46  75 101 123 149 180 217 267
#     4  10  19  31  44  59  86 120 154 189 227 267
#     4   8  14  25  40  57  82 116 150 180 213 253
#     4  11  22  33  46  64  85 113 155 201 237 267
#     4   9  17  26  38  58  82 113 151 187 219 255
#     4   8  15  27  42  62  89 121 151 182 219 263
#     4  10  18  29  45  63  87 119 154 191 229 268
#     4   8  14  25  42  66  94 120 147 184 224 260
#
# _framework density 16.888114999999999
#
# number of rings (size 3 to 8) (size 9 to 14) (size 15 to 20)
#    0.000    3.000    1.250    2.250    0.000    2.000 
#    0.000    0.625    0.000    1.125    0.000    0.875 
#    0.000    0.000    0.000    0.000    0.000    0.000 
#
# Total GULP energy -396554.547253 kJ/mol
# GULP energy per Si atom -12392.329602 kJ/mol
# Density = 1.684968 g / cm^3
# Si number density = 16.888115 Si / 1000 Ang^3
#
#
#
# Elastic Constant Matrix: (Units=GPa)
#
#
# Indices 1 2 3 4 5 6 
#
# 1 110.3434 45.9242 32.8242 -0.0017 -13.6265 0.0010
# 2 45.9242 63.7931 21.5550 -0.0066 -8.5462 0.0078
# 3 32.8242 21.5550 63.8541 -0.0059 -15.3570 0.0052
# 4 -0.0017 -0.0066 -0.0059 9.7320 0.0028 -5.2886
# 5 -13.6265 -8.5462 -15.3570 0.0028 20.7932 -0.0019
# 6 0.0010 0.0078 0.0052 -5.2886 -0.0019 21.6995
#
#
#
# Elastic Compliance Matrix: (Units=1/GPa)
#
#
# Indices 1 2 3 4 5 6 
#
# 1 0.014046 -0.008479 -0.003627 -0.000005 0.003041 0.000002
# 2 -0.008479 0.023021 -0.003008 0.000009 0.001684 -0.000005
# 3 -0.003627 -0.003008 0.021488 0.000006 0.012257 -0.000001
# 4 -0.000005 0.000009 0.000006 0.118440 -0.000008 0.028866
# 5 0.003041 0.001684 0.012257 -0.000008 0.059831 -0.000001
# 6 0.000002 -0.000005 -0.000001 0.028866 -0.000001 0.053119
#
#
# Mechanical properties :
#
#
# Convention : Reuss Voigt Hill
#
# Bulk Modulus (GPa) = 35.29919 48.73305 42.01612
# Shear Modulus (GPa) = 15.16922 19.62409 17.39665
#
# Velocity S-wave (km/s) = 3.00028 3.41252 3.21302
# Velocity P-wave (km/s) = 5.74016 6.66679 6.22075
#
# Compressibility (1/GPa) = 0.02832927
#
# Stress axis : x y z
#
# Youngs Moduli (GPa) = 71.19588 43.43809 46.53708
#
# Poissons Ratio (x) = 0.36829 0.16877
# Poissons Ratio (y) = 0.60364 0.13997
# Poissons Ratio (z) = 0.25820 0.13065
#
# Static dielectric constant tensor:
#      x y z
#    x 3.215370 0.000000 -0.099730 
#    y 0.000000 3.165210 0.000010 
#    z -0.099730 0.000010 3.103590 
# 
# 
# High freq. dielectric constant tensor:
#      x y z
#    x 1.652510 0.000000 -0.008440 
#    y 0.000000 1.625100 0.000000 
#    z -0.008440 0.000000 1.612890 
# 
# From -- ./inp_files/326882.got.cif
#   From: 2010.06.25/outbox.cif.g09.slc.cpg/sg12_164_cif.got.tgz:326882.got - 2010.06.28 00:19:55.
