data_PCOD8080971
_publ_section_title
;
Structure prediction by ZEFSAII (Michael W. Deem and Ramdas Pophale) SiO2 
 PCOD8080971
Probable space group: C 2/M
;
_chemical_formula_sum "Si O2"
_cell_formula_units_Z 48
_cell_length_a 23.266927
_cell_length_b 8.829186
_cell_length_c 17.193039
_cell_angle_alpha 90.000000
_cell_angle_beta 57.643555
_cell_angle_gamma 90.000000
_cell_volume 2983.546652
_symmetry_space_group_name_H-M "C 2/M"
_symmetry_group_IT_number 12
_symmetry_cell_setting 'monoclinic'
loop_
_space_group_symop_operation_xyz
x,y,z
-x,y,-z
-x,-y,-z
x,-y,z
1/2+x,1/2+y,z
1/2-x,1/2+y,-z
1/2-x,1/2-y,-z
1/2+x,1/2-y,z
loop_
_atom_site_type_symbol
_atom_site_label
_atom_site_fract_x
_atom_site_fract_y
_atom_site_fract_z
Si Si1 0.117407 0.828082 0.280750
Si Si2 0.015400 0.324352 0.578582
Si Si3 0.754493 0.320682 0.762509
Si Si4 0.736515 0.328683 0.090729
Si Si5 0.785953 0.677080 0.359911
Si Si6 0.148484 0.177118 0.548016
O O1 0.168818 0.746759 0.304958
O O2 0.155200 0.826740 0.168990
O O3 0.047465 0.736677 0.324792
O O4 0.103868 0.000000 0.318847
O O5 0.026695 0.500000 0.588701
O O6 0.081813 0.232126 0.552624
O O7 0.000000 0.293407 0.500000
O O8 0.757341 0.500000 0.759947
O O9 0.724987 0.260671 0.866938
O O10 0.706643 0.260862 0.728113
O O11 0.764215 0.500000 0.067581
O O12 0.750000 0.250000 0.000000
O O13 0.795858 0.500000 0.339806
O O14 0.844765 0.738061 0.374218
O O15 0.712677 0.718795 0.448286
O O16 0.143910 0.000000 0.567943
#
# Coordination Sequence:
#
# PCOD8080971 Si02
#       6
#     8   8   8   8   8   8
#     4   9  19  32  47  69  97 128 162 198 241 291
#     4  11  22  33  47  69  97 131 168 203 242 291
#     4  10  18  29  48  71  98 127 157 197 244 291
#     4   9  18  31  49  74 101 128 160 200 249 297
#     4  10  19  33  49  68  94 126 166 208 245 288
#     4  10  21  33  48  67  93 129 167 206 247 287
#
# _framework density 16.088235999999998
#
# number of rings (size 3 to 8) (size 9 to 14) (size 15 to 20)
#    1.000    1.167    0.000    4.500    0.000    6.000 
#    0.000    0.000    0.000    0.000    0.000    1.167 
#    0.000    9.333    0.000    0.000    0.000    0.000 
#
# Total GULP energy -297496.706631 kJ/mol
# GULP energy per Si atom -12395.696110 kJ/mol
# Density = 1.605162 g / cm^3
# Si number density = 16.088236 Si / 1000 Ang^3
#
#
#
# Elastic Constant Matrix: (Units=GPa)
#
#
# Indices 1 2 3 4 5 6 
#
# 1 73.4646 27.6530 27.1631 0.0000 15.9574 0.0000
# 2 27.6530 95.3152 35.9994 0.0000 16.8029 -0.0003
# 3 27.1631 35.9994 61.9343 0.0000 18.5054 0.0000
# 4 0.0000 0.0000 0.0000 26.0371 0.0000 2.8156
# 5 15.9574 16.8029 18.5054 0.0000 26.5439 0.0000
# 6 0.0000 -0.0003 0.0000 2.8156 0.0000 31.4828
#
#
#
# Elastic Compliance Matrix: (Units=1/GPa)
#
#
# Indices 1 2 3 4 5 6 
#
# 1 0.017435 -0.002306 -0.004561 0.000000 -0.005842 0.000000
# 2 -0.002306 0.014069 -0.006214 0.000000 -0.003188 0.000000
# 3 -0.004561 -0.006214 0.024964 0.000000 -0.010728 0.000000
# 4 0.000000 0.000000 0.000000 0.038782 0.000000 -0.003468
# 5 -0.005842 -0.003188 -0.010728 0.000000 0.050683 0.000000
# 6 0.000000 0.000000 0.000000 -0.003468 0.000000 0.032074
#
#
# Mechanical properties :
#
#
# Convention : Reuss Voigt Hill
#
# Bulk Modulus (GPa) = 32.99557 45.81612 39.40584
# Shear Modulus (GPa) = 23.33493 26.13934 24.73714
#
# Velocity S-wave (km/s) = 3.81259 4.03519 3.92547
# Velocity P-wave (km/s) = 6.31940 7.08874 6.71509
#
# Compressibility (1/GPa) = 0.03030710
#
# Stress axis : x y z
#
# Youngs Moduli (GPa) = 57.35482 71.07608 40.05781
#
# Poissons Ratio (x) = 0.16389 0.18270
# Poissons Ratio (y) = 0.13225 0.24892
# Poissons Ratio (z) = 0.26159 0.44167
#
# Static dielectric constant tensor:
#      x y z
#    x 2.903420 0.000000 0.109440 
#    y 0.000000 3.165910 0.000000 
#    z 0.109440 0.000000 2.810560 
# 
# 
# High freq. dielectric constant tensor:
#      x y z
#    x 1.598460 0.000000 0.016900 
#    y 0.000000 1.642060 0.000000 
#    z 0.016900 0.000000 1.587790 
# 
# From -- ./inp_files/273596.got.cif
#   From: 2010.06.25/outbox.cif.g09.slc.cpg/sg12_137_cif.got.tgz:273596.got - 2010.06.28 00:19:55.
