data_PCOD8080962
_publ_section_title
;
Structure prediction by ZEFSAII (Michael W. Deem and Ramdas Pophale) SiO2 
 PCOD8080962
Probable space group: C 2/M
;
_chemical_formula_sum "Si O2"
_cell_formula_units_Z 48
_cell_length_a 22.504516
_cell_length_b 9.051758
_cell_length_c 14.067745
_cell_angle_alpha 90.000000
_cell_angle_beta 103.865378
_cell_angle_gamma 90.000000
_cell_volume 2782.174484
_symmetry_space_group_name_H-M "C 2/M"
_symmetry_group_IT_number 12
_symmetry_cell_setting 'monoclinic'
loop_
_space_group_symop_operation_xyz
x,y,z
-x,y,-z
-x,-y,-z
x,-y,z
1/2+x,1/2+y,z
1/2-x,1/2+y,-z
1/2-x,1/2-y,-z
1/2+x,1/2-y,z
loop_
_atom_site_type_symbol
_atom_site_label
_atom_site_fract_x
_atom_site_fract_y
_atom_site_fract_z
Si Si1 0.388256 0.327022 0.822335
Si Si2 0.951834 0.174451 0.406149
Si Si3 0.169908 0.170720 0.537680
Si Si4 0.806500 0.671552 0.643512
Si Si5 0.567701 0.166504 0.984710
Si Si6 0.520993 0.673203 0.792912
O O1 0.377584 0.500000 0.829798
O O2 0.332075 0.257453 0.743800
O O3 0.450695 0.291407 0.790224
O O4 0.388404 0.255575 0.927093
O O5 0.883284 0.218215 0.410236
O O6 0.965550 0.237701 0.306700
O O7 0.000000 0.242435 0.500000
O O8 0.960770 0.000000 0.405751
O O9 0.162922 0.267511 0.440638
O O10 0.233884 0.200201 0.614478
O O11 0.163310 0.000000 0.504297
O O12 0.822794 0.500000 0.658788
O O13 0.567286 0.245049 0.882193
O O14 0.592397 0.000000 0.983201
O O15 0.500000 0.168650 0.000000
O O16 0.534567 0.500000 0.806382
#
# Coordination Sequence:
#
# PCOD8080962 Si02
#       6
#     8   8   8   8   8   8
#     4  10  18  29  48  71  93 119 154 191 227 271
#     4   9  16  28  48  71  93 119 153 189 223 266
#     4   9  18  32  48  67  92 123 156 188 226 271
#     4  10  19  30  46  68  94 122 153 191 230 268
#     4   9  17  29  45  67  96 124 149 184 231 276
#     4   9  17  29  47  70  94 121 153 189 228 271
#
# _framework density 17.252693000000001
#
# number of rings (size 3 to 8) (size 9 to 14) (size 15 to 20)
#    0.000    2.667    0.000    2.500    0.000    6.000 
#    0.000    0.833    0.000    3.000    0.000    0.000 
#    0.000    0.000    0.000    0.000    0.000    0.000 
#
# Total GULP energy -297627.015443 kJ/mol
# GULP energy per Si atom -12401.125643 kJ/mol
# Density = 1.721343 g / cm^3
# Si number density = 17.252693 Si / 1000 Ang^3
#
#
#
# Elastic Constant Matrix: (Units=GPa)
#
#
# Indices 1 2 3 4 5 6 
#
# 1 66.3795 28.0108 53.6679 0.0000 -4.1373 0.0000
# 2 28.0108 80.0500 63.0936 0.0000 7.8680 0.0000
# 3 53.6679 63.0936 171.7005 0.0000 2.1150 0.0000
# 4 0.0000 0.0000 0.0000 33.5934 0.0000 5.0347
# 5 -4.1373 7.8680 2.1150 0.0000 24.6410 0.0000
# 6 0.0000 0.0000 0.0000 5.0347 0.0000 15.3428
#
#
#
# Elastic Compliance Matrix: (Units=1/GPa)
#
#
# Indices 1 2 3 4 5 6 
#
# 1 0.021293 -0.003757 -0.005340 0.000000 0.005233 0.000000
# 2 -0.003757 0.018903 -0.005696 0.000000 -0.006178 0.000000
# 3 -0.005340 -0.005696 0.009585 0.000000 0.000099 0.000000
# 4 0.000000 0.000000 0.000000 0.031307 0.000000 -0.010273
# 5 0.005233 -0.006178 0.000099 0.000000 0.043425 0.000000
# 6 0.000000 0.000000 0.000000 -0.010273 0.000000 0.068548
#
#
# Mechanical properties :
#
#
# Convention : Reuss Voigt Hill
#
# Bulk Modulus (GPa) = 49.51202 67.51941 58.51571
# Shear Modulus (GPa) = 21.79790 26.27262 24.03526
#
# Velocity S-wave (km/s) = 3.55836 3.90656 3.73652
# Velocity P-wave (km/s) = 6.75596 7.71808 7.25299
#
# Compressibility (1/GPa) = 0.02019711
#
# Stress axis : x y z
#
# Youngs Moduli (GPa) = 46.96287 52.90063 104.33050
#
# Poissons Ratio (x) = 0.19873 0.55709
# Poissons Ratio (y) = 0.17642 0.59426
# Poissons Ratio (z) = 0.25076 0.30132
#
# Static dielectric constant tensor:
#      x y z
#    x 2.993080 0.000000 0.018410 
#    y 0.000000 3.165520 0.000000 
#    z 0.018410 0.000000 3.383980 
# 
# 
# High freq. dielectric constant tensor:
#      x y z
#    x 1.632770 0.000000 0.007200 
#    y 0.000000 1.657820 0.000000 
#    z 0.007200 0.000000 1.676350 
# 
# From -- ./inp_files/230438.got.cif
#   From: 2010.06.25/outbox.cif.g09.slc.cpg/sg12_116_cif.got.tgz:230438.got - 2010.06.28 00:19:55.
