data_PCOD8080423
_publ_section_title
;
Structure prediction by ZEFSAII (Michael W. Deem and Ramdas Pophale) SiO2 
 PCOD8080423
Probable space group: C 2/M
;
_chemical_formula_sum "Si O2"
_cell_formula_units_Z 56
_cell_length_a 24.810100
_cell_length_b 14.272946
_cell_length_c 20.928085
_cell_angle_alpha 90.000000
_cell_angle_beta 157.193945
_cell_angle_gamma 90.000000
_cell_volume 2872.565694
_symmetry_space_group_name_H-M "C 2/M"
_symmetry_group_IT_number 12
_symmetry_cell_setting 'monoclinic'
loop_
_space_group_symop_operation_xyz
x,y,z
-x,y,-z
-x,-y,-z
x,-y,z
1/2+x,1/2+y,z
1/2-x,1/2+y,-z
1/2-x,1/2-y,-z
1/2+x,1/2-y,z
loop_
_atom_site_type_symbol
_atom_site_label
_atom_site_fract_x
_atom_site_fract_y
_atom_site_fract_z
Si Si1 0.149188 0.703835 0.128068
Si Si2 0.585091 0.398230 0.029314
Si Si3 0.671211 0.893191 0.384771
Si Si4 0.939129 0.110311 0.741020
Si Si5 0.874132 0.611757 0.032525
Si Si6 0.403759 0.388615 0.208598
Si Si7 0.171389 0.893560 0.574096
O O1 0.189711 0.811568 0.153246
O O2 0.273766 0.670276 0.308794
O O3 0.144238 0.639580 0.060795
O O4 0.000000 0.700671 0.000000
O O5 0.656178 0.500000 0.090011
O O6 0.500000 0.414000 0.000000
O O7 0.481347 0.365949 0.859101
O O8 0.785868 0.845491 0.557658
O O9 0.518130 0.844556 0.219182
O O10 0.722954 0.887291 0.368999
O O11 0.650994 0.000000 0.384262
O O12 0.054735 0.148009 0.816925
O O13 0.924683 0.000000 0.713091
O O14 0.880814 0.500000 0.041555
O O15 0.746513 0.651749 0.935282
O O16 0.398505 0.500000 0.203296
O O17 0.519967 0.356222 0.386987
O O18 0.162509 0.000000 0.589405
#
# Coordination Sequence:
#
# PCOD8080423 Si02
#       7
#     8   8   8   8   8   8   8
#     4  11  20  29  46  71 103 134 171 203 248 285
#     4   9  19  35  54  75  94 119 168 226 260 286
#     4   8  14  25  46  73 103 132 159 191 239 294
#     4   8  14  30  53  73  94 127 163 206 256 291
#     4  10  18  28  45  77 112 139 162 189 229 300
#     4   8  16  29  48  75 106 136 165 191 233 298
#     4   9  16  28  46  73 108 141 163 188 232 296
#
# _framework density 19.494767
#
# number of rings (size 3 to 8) (size 9 to 14) (size 15 to 20)
#    0.000    3.000    1.429    2.143    0.000    1.143 
#    0.000    3.571    0.000    0.000    7.429    2.000 
#    0.000    0.857    0.000    0.000    0.000    0.000 
#
# Total GULP energy -346896.931199 kJ/mol
# GULP energy per Si atom -12389.176114 kJ/mol
# Density = 1.945040 g / cm^3
# Si number density = 19.494767 Si / 1000 Ang^3
#
#
#
# Elastic Constant Matrix: (Units=GPa)
#
#
# Indices 1 2 3 4 5 6 
#
# 1 97.2345 17.2464 79.3253 0.0000 -5.7771 0.0001
# 2 17.2464 45.3370 32.5484 0.0009 -7.4030 -0.0007
# 3 79.3253 32.5484 135.7953 0.0017 -0.6713 -0.0015
# 4 0.0000 0.0009 0.0017 11.9371 0.0006 10.9419
# 5 -5.7771 -7.4030 -0.6713 0.0006 40.0520 -0.0004
# 6 0.0001 -0.0007 -0.0015 10.9419 -0.0004 10.4343
#
#
#
# Elastic Compliance Matrix: (Units=1/GPa)
#
#
# Indices 1 2 3 4 5 6 
#
# 1 0.020014 0.001514 -0.012040 0.000081 0.002965 -0.000086
# 2 0.001514 0.027719 -0.007503 -0.000058 0.005216 0.000061
# 3 -0.012040 -0.007503 0.016181 -0.000086 -0.002852 0.000093
# 4 0.000081 -0.000058 -0.000086 2.159545 -0.000053 -2.264586
# 5 0.002965 0.005216 -0.002852 -0.000053 0.026311 0.000056
# 6 -0.000086 0.000061 0.000093 -2.264586 0.000056 2.470574
#
#
# Mechanical properties :
#
#
# Convention : Reuss Voigt Hill
#
# Bulk Modulus (GPa) = 35.89602 59.62299 47.75950
# Shear Modulus (GPa) = 1.04917 22.43447 11.74182
#
# Velocity S-wave (km/s) = 0.73440 3.39602 2.45686
# Velocity P-wave (km/s) = 4.37861 6.78437 5.70964
#
# Compressibility (1/GPa) = 0.02785824
#
# Stress axis : x y z
#
# Youngs Moduli (GPa) = 49.96493 36.07622 61.80036
#
# Poissons Ratio (x) = -0.05462 0.74405
# Poissons Ratio (y) = -0.07565 0.46366
# Poissons Ratio (z) = 0.60155 0.27067
#
# Static dielectric constant tensor:
#      x y z
#    x 3.511320 0.000000 0.066040 
#    y 0.000000 3.539880 0.000000 
#    z 0.066040 0.000000 3.792310 
# 
# 
# High freq. dielectric constant tensor:
#      x y z
#    x 1.739590 0.000000 -0.015390 
#    y 0.000000 1.744290 0.000000 
#    z -0.015390 0.000000 1.752710 
# 
# From -- ./inp_files/284567.got.cif
#   From: 2010.06.25/outbox.cif.g09.slc.cpg/sg12_143_cif.got.tgz:284567.got - 2010.06.28 00:19:55.
