data_PCOD8080179
_publ_section_title
;
Structure prediction by ZEFSAII (Michael W. Deem and Ramdas Pophale) SiO2 
 PCOD8080179
Probable space group: C 2/M
;
_chemical_formula_sum "Si O2"
_cell_formula_units_Z 64
_cell_length_a 29.485853
_cell_length_b 8.961016
_cell_length_c 29.559146
_cell_angle_alpha 90.000000
_cell_angle_beta 153.015556
_cell_angle_gamma 90.000000
_cell_volume 3543.872612
_symmetry_space_group_name_H-M "C 2/M"
_symmetry_group_IT_number 12
_symmetry_cell_setting 'monoclinic'
loop_
_space_group_symop_operation_xyz
x,y,z
-x,y,-z
-x,-y,-z
x,-y,z
1/2+x,1/2+y,z
1/2-x,1/2+y,-z
1/2-x,1/2-y,-z
1/2+x,1/2-y,z
loop_
_atom_site_type_symbol
_atom_site_label
_atom_site_fract_x
_atom_site_fract_y
_atom_site_fract_z
Si Si1 0.157522 0.676854 0.893115
Si Si2 0.482183 0.838394 0.535086
Si Si3 0.626049 0.824709 0.763671
Si Si4 0.291571 0.329895 0.345458
Si Si5 0.822987 0.827547 0.274493
Si Si6 0.791512 0.669553 0.637010
Si Si7 0.921597 0.172812 0.593869
Si Si8 0.544319 0.673246 0.272997
O O1 0.163388 0.500000 0.902644
O O2 0.159284 0.732106 0.842549
O O3 0.055932 0.733823 0.825955
O O4 0.250000 0.750000 0.000000
O O5 0.500000 0.880261 0.500000
O O6 0.372817 0.770220 0.443146
O O7 0.560430 0.710540 0.617805
O O8 0.493376 0.000000 0.571224
O O9 0.706003 0.762129 0.797288
O O10 0.511558 0.769811 0.651734
O O11 0.629942 0.000000 0.765270
O O12 0.331427 0.500000 0.376624
O O13 0.266299 0.276989 0.271096
O O14 0.200838 0.320914 0.300889
O O15 0.804104 0.000000 0.248116
O O16 0.813258 0.500000 0.640499
O O17 0.682339 0.718128 0.521786
O O18 0.873508 0.780139 0.690429
O O19 0.912904 0.209218 0.639318
O O20 0.947647 0.000000 0.608841
O O21 0.519435 0.500000 0.244710
#
# Coordination Sequence:
#
# PCOD8080179 Si02
#       8
#     8   8   8   8   8   8   8   8
#     4  10  21  38  59  81 103 124 150 191 243 298
#     4   9  16  25  38  57  83 118 162 210 251 281
#     4  10  20  32  49  74 100 127 161 201 245 292
#     4   9  18  29  41  60  88 127 172 210 242 281
#     4  10  18  28  42  61  90 127 165 204 244 287
#     4  10  19  31  46  66  96 135 176 211 242 277
#     4   9  18  31  47  68  97 134 171 206 244 288
#     4  10  20  33  50  74 101 129 164 202 243 293
#
# _framework density 18.059341
#
# number of rings (size 3 to 8) (size 9 to 14) (size 15 to 20)
#    0.000    2.375    0.000    3.000    0.000    6.000 
#    0.000    0.000    0.000    0.000    0.000    0.875 
#    0.000    7.000    0.000    0.000    0.000    0.000 
#
# Total GULP energy -396456.916357 kJ/mol
# GULP energy per Si atom -12389.278636 kJ/mol
# Density = 1.801824 g / cm^3
# Si number density = 18.059341 Si / 1000 Ang^3
#
#
#
# Elastic Constant Matrix: (Units=GPa)
#
#
# Indices 1 2 3 4 5 6 
#
# 1 125.8937 33.8478 36.8474 0.0001 -5.9843 0.0000
# 2 33.8478 53.9598 22.0759 0.0001 3.8147 0.0000
# 3 36.8474 22.0759 69.0889 0.0001 -4.3389 0.0000
# 4 0.0001 0.0001 0.0001 22.3159 0.0001 1.6056
# 5 -5.9843 3.8147 -4.3389 0.0001 12.2645 0.0000
# 6 0.0000 0.0000 0.0000 1.6056 0.0000 30.3621
#
#
#
# Elastic Compliance Matrix: (Units=1/GPa)
#
#
# Indices 1 2 3 4 5 6 
#
# 1 0.010802 -0.005725 -0.003568 0.000000 0.005789 0.000000
# 2 -0.005725 0.025431 -0.005875 0.000000 -0.012782 0.000000
# 3 -0.003568 -0.005875 0.018675 0.000000 0.006693 0.000000
# 4 0.000000 0.000000 0.000000 0.044982 0.000000 -0.002379
# 5 0.005789 -0.012782 0.006693 0.000000 0.090705 0.000000
# 6 0.000000 0.000000 0.000000 -0.002379 0.000000 0.033062
#
#
# Mechanical properties :
#
#
# Convention : Reuss Voigt Hill
#
# Bulk Modulus (GPa) = 40.69922 48.27608 44.48765
# Shear Modulus (GPa) = 19.07060 23.39990 21.23525
#
# Velocity S-wave (km/s) = 3.25314 3.60352 3.43280
# Velocity P-wave (km/s) = 6.05771 6.64107 6.35608
#
# Compressibility (1/GPa) = 0.02457050
#
# Stress axis : x y z
#
# Youngs Moduli (GPa) = 92.57486 39.32208 53.54835
#
# Poissons Ratio (x) = 0.22513 0.19107
# Poissons Ratio (y) = 0.53003 0.31460
# Poissons Ratio (z) = 0.33032 0.23102
#
# Static dielectric constant tensor:
#      x y z
#    x 3.663210 0.000000 -0.227630 
#    y 0.000000 3.351540 0.000000 
#    z -0.227630 0.000000 2.765500 
# 
# 
# High freq. dielectric constant tensor:
#      x y z
#    x 1.717080 0.000000 -0.026390 
#    y 0.000000 1.709000 0.000000 
#    z -0.026390 0.000000 1.634400 
# 
# From -- ./inp_files/384592.got.cif
#   From: 2010.06.25/outbox.cif.g09.slc.cpg/sg12_193_cif.got.tgz:384592.got - 2010.06.28 00:19:55.
