data_PCOD8080496
_publ_section_title
;
Structure prediction by ZEFSAII (Michael W. Deem and Ramdas Pophale) SiO2 
 PCOD8080496
Probable space group: C 2/M
;
_chemical_formula_sum "Si O2"
_cell_formula_units_Z 56
_cell_length_a 19.572729
_cell_length_b 9.013886
_cell_length_c 24.470252
_cell_angle_alpha 90.000000
_cell_angle_beta 131.788540
_cell_angle_gamma 90.000000
_cell_volume 3218.942382
_symmetry_space_group_name_H-M "C 2/M"
_symmetry_group_IT_number 12
_symmetry_cell_setting 'monoclinic'
loop_
_space_group_symop_operation_xyz
x,y,z
-x,y,-z
-x,-y,-z
x,-y,z
1/2+x,1/2+y,z
1/2-x,1/2+y,-z
1/2-x,1/2-y,-z
1/2+x,1/2-y,z
loop_
_atom_site_type_symbol
_atom_site_label
_atom_site_fract_x
_atom_site_fract_y
_atom_site_fract_z
Si Si1 0.548792 0.824804 0.188168
Si Si2 0.763102 0.170670 0.698254
Si Si3 0.446911 0.823699 0.241477
Si Si4 0.438946 0.323668 0.916968
Si Si5 0.733860 0.173325 0.802617
Si Si6 0.886924 0.326133 0.600371
Si Si7 0.786513 0.329494 0.443944
O O1 0.648003 0.772656 0.261477
O O2 0.474867 0.777912 0.194978
O O3 0.519927 0.746808 0.116258
O O4 0.550592 0.000000 0.180411
O O5 0.710938 0.208866 0.726791
O O6 0.693893 0.197105 0.610231
O O7 0.797108 0.000000 0.718377
O O8 0.346653 0.755560 0.202965
O O9 0.519656 0.758846 0.324689
O O10 0.443604 0.000000 0.245257
O O11 0.441378 0.500000 0.911609
O O12 0.334950 0.264201 0.871087
O O13 0.500000 0.269035 0.000000
O O14 0.735799 0.000000 0.814906
O O15 0.888696 0.500000 0.611346
O O16 0.874138 0.286654 0.528723
O O17 0.800775 0.266335 0.587337
O O18 0.760875 0.500000 0.441480
#
# Coordination Sequence:
#
# PCOD8080496 Si02
#       7
#     8   8   8   8   8   8   8
#     4  10  18  28  47  71  92 117 149 183 220 263
#     4   9  16  28  45  65  88 119 158 193 224 259
#     4   9  16  27  43  66  93 121 150 182 225 270
#     4   9  18  34  54  72  90 116 148 180 217 264
#     4   8  15  28  46  65  89 119 149 181 221 269
#     4   9  16  26  40  61  89 119 151 187 227 267
#     4   9  16  25  40  63  88 115 153 196 228 255
#
# _framework density 17.397019
#
# number of rings (size 3 to 8) (size 9 to 14) (size 15 to 20)
#    0.000    3.000    1.429    1.286    0.000    0.286 
#    0.000    1.429    0.000   14.571    0.000    0.000 
#    0.000    9.143    0.000    0.000    0.000    0.000 
#
# Total GULP energy -346901.069808 kJ/mol
# GULP energy per Si atom -12389.323922 kJ/mol
# Density = 1.735742 g / cm^3
# Si number density = 17.397019 Si / 1000 Ang^3
#
#
#
# Elastic Constant Matrix: (Units=GPa)
#
#
# Indices 1 2 3 4 5 6 
#
# 1 129.6924 20.1005 71.7367 0.0000 -7.4926 0.0000
# 2 20.1005 21.6205 21.1979 0.0000 -4.7354 0.0000
# 3 71.7367 21.1979 153.9229 0.0000 -16.5888 0.0000
# 4 0.0000 0.0000 0.0000 18.3091 0.0000 -3.7420
# 5 -7.4926 -4.7354 -16.5888 0.0000 22.4347 0.0000
# 6 0.0000 0.0000 0.0000 -3.7420 0.0000 16.1808
#
#
#
# Elastic Compliance Matrix: (Units=1/GPa)
#
#
# Indices 1 2 3 4 5 6 
#
# 1 0.011044 -0.006148 -0.004393 0.000000 -0.000858 0.000000
# 2 -0.006148 0.057740 -0.004340 0.000000 0.006925 0.000000
# 3 -0.004393 -0.004340 0.009654 0.000000 0.004755 0.000000
# 4 0.000000 0.000000 0.000000 0.057327 0.000000 0.013258
# 5 -0.000858 0.006925 0.004755 0.000000 0.049266 0.000000
# 6 0.000000 0.000000 0.000000 0.013258 0.000000 0.064868
#
#
# Mechanical properties :
#
#
# Convention : Reuss Voigt Hill
#
# Bulk Modulus (GPa) = 20.54393 59.03400 39.78897
# Shear Modulus (GPa) = 16.89841 24.19829 20.54835
#
# Velocity S-wave (km/s) = 3.12001 3.73358 3.44050
# Velocity P-wave (km/s) = 4.98135 7.25212 6.22122
#
# Compressibility (1/GPa) = 0.04867617
#
# Stress axis : x y z
#
# Youngs Moduli (GPa) = 90.55024 17.31892 103.58202
#
# Poissons Ratio (x) = 0.10648 0.45500
# Poissons Ratio (y) = 0.55673 0.44955
# Poissons Ratio (z) = 0.39775 0.07517
#
# Static dielectric constant tensor:
#      x y z
#    x 3.358930 0.000000 -0.083110 
#    y 0.000000 2.967650 0.000000 
#    z -0.083110 0.000000 3.520650 
# 
# 
# High freq. dielectric constant tensor:
#      x y z
#    x 1.650740 0.000000 -0.017090 
#    y 0.000000 1.640060 0.000000 
#    z -0.017090 0.000000 1.675950 
# 
# From -- ./inp_files/280217.got.cif
#   From: 2010.06.25/outbox.cif.g09.slc.cpg/sg12_141_cif.got.tgz:280217.got - 2010.06.28 00:19:55.
