data_PCOD8080614
_publ_section_title
;
Structure prediction by ZEFSAII (Michael W. Deem and Ramdas Pophale) SiO2 
 PCOD8080614
Probable space group: C 2/M
;
_chemical_formula_sum "Si O2"
_cell_formula_units_Z 40
_cell_length_a 30.555578
_cell_length_b 16.813512
_cell_length_c 5.205888
_cell_angle_alpha 90.000000
_cell_angle_beta 68.847149
_cell_angle_gamma 90.000000
_cell_volume 2494.301708
_symmetry_space_group_name_H-M "C 2/M"
_symmetry_group_IT_number 12
_symmetry_cell_setting 'monoclinic'
loop_
_space_group_symop_operation_xyz
x,y,z
-x,y,-z
-x,-y,-z
x,-y,z
1/2+x,1/2+y,z
1/2-x,1/2+y,-z
1/2-x,1/2-y,-z
1/2+x,1/2-y,z
loop_
_atom_site_type_symbol
_atom_site_label
_atom_site_fract_x
_atom_site_fract_y
_atom_site_fract_z
Si Si1 0.207887 0.189242 0.074639
Si Si2 0.411940 0.411118 0.013741
Si Si3 0.604663 0.729422 0.262368
Si Si4 0.447114 0.260138 0.122312
Si Si5 0.193248 0.910067 0.607749
O O1 0.160250 0.242184 0.173359
O O2 0.210166 0.131053 0.312131
O O3 0.250000 0.250000 0.000000
O O4 0.213689 0.137426 0.806171
O O5 0.431400 0.500000 0.927604
O O6 0.448074 0.357259 0.103057
O O7 0.363046 0.410915 0.270056
O O8 0.404259 0.366459 0.754473
O O9 0.577226 0.766051 0.561821
O O10 0.584005 0.773438 0.050436
O O11 0.500000 0.226770 0.000000
O O12 0.212768 0.000000 0.574241
#
# Coordination Sequence:
#
# PCOD8080614 Si02
#       5
#     8   8   8   8   8
#     4  11  19  32  50  69  87 115 155 196 228 270
#     4   8  17  27  41  54  78 109 144 183 216 246
#     4   9  18  31  38  59  80 103 145 186 219 262
#     4  10  18  29  41  54  80 112 147 182 225 256
#     4  10  19  32  47  66  92 121 150 191 232 272
#
# _framework density 16.036553000000001
#
# number of rings (size 3 to 8) (size 9 to 14) (size 15 to 20)
#    1.200    1.200    2.000    1.800    0.000    2.000 
#    0.000    1.000    0.000    0.000    0.000    0.000 
#    0.000    0.000    0.000    0.000    0.000   70.000 
#
# Total GULP energy -247763.658083 kJ/mol
# GULP energy per Si atom -12388.182904 kJ/mol
# Density = 1.600005 g / cm^3
# Si number density = 16.036553 Si / 1000 Ang^3
#
#
#
# Elastic Constant Matrix: (Units=GPa)
#
#
# Indices 1 2 3 4 5 6 
#
# 1 93.8070 24.8108 44.5417 0.0000 -0.3361 0.0000
# 2 24.8108 24.3892 14.5870 0.0000 2.5746 0.0000
# 3 44.5417 14.5870 112.3931 0.0000 14.6048 0.0000
# 4 0.0000 0.0000 0.0000 13.0258 0.0000 -0.0280
# 5 -0.3361 2.5746 14.6048 0.0000 19.5613 0.0000
# 6 0.0000 0.0000 0.0000 -0.0280 0.0000 17.9549
#
#
#
# Elastic Compliance Matrix: (Units=1/GPa)
#
#
# Indices 1 2 3 4 5 6 
#
# 1 0.017387 -0.014908 -0.005814 0.000000 0.006601 0.000000
# 2 -0.014908 0.057286 -0.000569 0.000000 -0.007371 0.000000
# 3 -0.005814 -0.000569 0.012490 0.000000 -0.009350 0.000000
# 4 0.000000 0.000000 0.000000 0.076771 0.000000 0.000120
# 5 0.006601 -0.007371 -0.009350 0.000000 0.059186 0.000000
# 6 0.000000 0.000000 0.000000 0.000120 0.000000 0.055695
#
#
# Mechanical properties :
#
#
# Convention : Reuss Voigt Hill
#
# Bulk Modulus (GPa) = 22.43036 44.27425 33.35230
# Shear Modulus (GPa) = 14.86959 19.88504 17.37731
#
# Velocity S-wave (km/s) = 3.04835 3.52516 3.29539
# Velocity P-wave (km/s) = 5.13880 6.65111 5.94325
#
# Compressibility (1/GPa) = 0.04458244
#
# Stress axis : x y z
#
# Youngs Moduli (GPa) = 57.51380 17.45641 80.06281
#
# Poissons Ratio (x) = 0.26023 0.46545
# Poissons Ratio (y) = 0.85739 0.04556
# Poissons Ratio (z) = 0.33436 0.00993
#
# Static dielectric constant tensor:
#      x y z
#    x 2.927920 0.000000 0.079930 
#    y 0.000000 2.558940 0.000000 
#    z 0.079930 0.000000 3.052130 
# 
# 
# High freq. dielectric constant tensor:
#      x y z
#    x 1.605670 0.000000 0.009520 
#    y 0.000000 1.545500 0.000000 
#    z 0.009520 0.000000 1.630120 
# 
# From -- ./inp_files/20195.got.cif
#   From: 2010.06.25/outbox.cif.g09.slc.cpg/sg12_11_cif.got.tgz:20195.got - 2010.06.28 00:19:55.
