data_PCOD8080087
_publ_section_title
;
Structure prediction by ZEFSAII (Michael W. Deem and Ramdas Pophale) SiO2 
 PCOD8080087
Probable space group: C 2/M
;
_chemical_formula_sum "Si O2"
_cell_formula_units_Z 64
_cell_length_a 25.342626
_cell_length_b 9.146774
_cell_length_c 23.744048
_cell_angle_alpha 90.000000
_cell_angle_beta 134.166394
_cell_angle_gamma 90.000000
_cell_volume 3948.088679
_symmetry_space_group_name_H-M "C 2/M"
_symmetry_group_IT_number 12
_symmetry_cell_setting 'monoclinic'
loop_
_space_group_symop_operation_xyz
x,y,z
-x,y,-z
-x,-y,-z
x,-y,z
1/2+x,1/2+y,z
1/2-x,1/2+y,-z
1/2-x,1/2-y,-z
1/2+x,1/2-y,z
loop_
_atom_site_type_symbol
_atom_site_label
_atom_site_fract_x
_atom_site_fract_y
_atom_site_fract_z
Si Si1 0.333974 0.171062 0.850325
Si Si2 0.201116 0.327841 0.700236
Si Si3 0.085345 0.672788 0.421734
Si Si4 0.770940 0.672156 0.407798
Si Si5 0.952208 0.669577 0.843220
Si Si6 0.059733 0.165143 0.995478
Si Si7 0.964807 0.326008 0.416297
Si Si8 0.876983 0.328184 0.673420
O O1 0.254458 0.241574 0.781823
O O2 0.383788 0.204794 0.832937
O O3 0.369198 0.243892 0.932080
O O4 0.325677 0.000000 0.855322
O O5 0.210527 0.500000 0.717599
O O6 0.220393 0.285675 0.650792
O O7 0.118856 0.272504 0.652700
O O8 0.086387 0.500000 0.429262
O O9 0.158591 0.733951 0.506199
O O10 0.082850 0.718996 0.354496
O O11 0.012789 0.733816 0.399354
O O12 0.762078 0.500000 0.409198
O O13 0.700340 0.748204 0.381392
O O14 0.973472 0.500000 0.862670
O O15 0.929913 0.718565 0.763932
O O16 0.024209 0.761413 0.913786
O O17 0.083453 0.000000 0.998729
O O18 0.000000 0.169351 0.000000
O O19 0.965476 0.500000 0.419731
O O20 0.000000 0.263436 0.500000
O O21 0.860826 0.500000 0.663674
#
# Coordination Sequence:
#
# PCOD8080087 Si02
#       8
#     8   8   8   8   8   8   8   8
#     4  10  18  29  44  63  93 125 150 178 222 279
#     4  10  18  27  45  69  91 117 155 197 231 265
#     4   9  17  29  45  65  89 121 160 197 231 266
#     4  10  18  28  44  66  91 121 156 193 230 267
#     4   9  17  28  41  61  90 124 151 175 218 275
#     4   9  17  28  44  66  90 116 148 185 221 264
#     4   9  15  27  46  67  89 116 155 201 239 265
#     4  10  19  30  44  65  94 125 156 187 222 274
#
# _framework density 16.210376
#
# number of rings (size 3 to 8) (size 9 to 14) (size 15 to 20)
#    0.000    2.500    2.500    1.125    0.000    2.500 
#    0.000    0.000    0.000    1.875    0.000    0.875 
#    0.000    0.000    0.000    0.000    0.000    0.000 
#
# Total GULP energy -396777.329043 kJ/mol
# GULP energy per Si atom -12399.291533 kJ/mol
# Density = 1.617348 g / cm^3
# Si number density = 16.210376 Si / 1000 Ang^3
#
#
#
# Elastic Constant Matrix: (Units=GPa)
#
#
# Indices 1 2 3 4 5 6 
#
# 1 99.1803 27.5631 56.8283 0.0000 5.8074 0.0000
# 2 27.5631 47.3003 45.2068 0.0000 7.5597 0.0000
# 3 56.8283 45.2068 140.8778 0.0000 14.8995 0.0000
# 4 0.0000 0.0000 0.0000 22.8834 0.0000 2.9505
# 5 5.8074 7.5597 14.8995 0.0000 17.5416 0.0000
# 6 0.0000 0.0000 0.0000 2.9505 0.0000 12.0652
#
#
#
# Elastic Compliance Matrix: (Units=1/GPa)
#
#
# Indices 1 2 3 4 5 6 
#
# 1 0.013598 -0.003940 -0.004312 0.000000 0.000858 0.000000
# 2 -0.003940 0.032092 -0.008113 0.000000 -0.005635 0.000000
# 3 -0.004312 -0.008113 0.011998 0.000000 -0.005267 0.000000
# 4 0.000000 0.000000 0.000000 0.045123 0.000000 -0.011034
# 5 0.000858 -0.005635 -0.005267 0.000000 0.063626 0.000000
# 6 0.000000 0.000000 0.000000 -0.011034 0.000000 0.085581
#
#
# Mechanical properties :
#
#
# Convention : Reuss Voigt Hill
#
# Bulk Modulus (GPa) = 40.06635 60.72830 50.39733
# Shear Modulus (GPa) = 17.06102 21.01538 19.03820
#
# Velocity S-wave (km/s) = 3.24771 3.60448 3.43074
# Velocity P-wave (km/s) = 6.23166 7.40723 6.84473
#
# Compressibility (1/GPa) = 0.02495860
#
# Stress axis : x y z
#
# Youngs Moduli (GPa) = 73.54094 31.16066 83.34764
#
# Poissons Ratio (x) = 0.12278 0.35936
# Poissons Ratio (y) = 0.28977 0.67617
# Poissons Ratio (z) = 0.31708 0.25279
#
# Static dielectric constant tensor:
#      x y z
#    x 2.975090 0.000000 0.004740 
#    y 0.000000 2.854560 0.000000 
#    z 0.004740 0.000000 3.189450 
# 
# 
# High freq. dielectric constant tensor:
#      x y z
#    x 1.589550 0.000000 0.003790 
#    y 0.000000 1.602130 0.000000 
#    z 0.003790 0.000000 1.631620 
# 
# From -- ./inp_files/348575.got.cif
#   From: 2010.06.25/outbox.cif.g09.slc.cpg/sg12_175_cif.got.tgz:348575.got - 2010.06.28 00:19:55.
