data_PCOD8080295
_publ_section_title
;
Structure prediction by ZEFSAII (Michael W. Deem and Ramdas Pophale) SiO2 
 PCOD8080295
Probable space group: C 2/M
;
_chemical_formula_sum "Si O2"
_cell_formula_units_Z 48
_cell_length_a 25.675148
_cell_length_b 13.463044
_cell_length_c 13.981758
_cell_angle_alpha 90.000000
_cell_angle_beta 33.599545
_cell_angle_gamma 90.000000
_cell_volume 2674.516821
_symmetry_space_group_name_H-M "C 2/M"
_symmetry_group_IT_number 12
_symmetry_cell_setting 'monoclinic'
loop_
_space_group_symop_operation_xyz
x,y,z
-x,y,-z
-x,-y,-z
x,-y,z
1/2+x,1/2+y,z
1/2-x,1/2+y,-z
1/2-x,1/2-y,-z
1/2+x,1/2-y,z
loop_
_atom_site_type_symbol
_atom_site_label
_atom_site_fract_x
_atom_site_fract_y
_atom_site_fract_z
Si Si1 0.785415 0.681547 0.634743
Si Si2 0.889228 0.887400 0.186780
Si Si3 0.953348 0.386770 0.865928
Si Si4 0.216070 0.610691 0.746218
Si Si5 0.122948 0.688357 0.702567
Si Si6 0.465175 0.115665 0.454121
O O1 0.677511 0.638151 0.804548
O O2 0.792232 0.801371 0.635741
O O3 0.822113 0.649039 0.474113
O O4 0.853446 0.635567 0.610832
O O5 0.856993 0.806667 0.315252
O O6 0.870225 0.000000 0.250826
O O7 0.000000 0.872399 0.000000
O O8 0.989382 0.500000 0.812044
O O9 0.012144 0.326069 0.855009
O O10 0.972978 0.341776 0.729572
O O11 0.845288 0.379458 0.062690
O O12 0.261943 0.500000 0.672735
O O13 0.152164 0.625187 0.750126
O O14 0.500000 0.166506 0.500000
O O15 0.484075 0.000000 0.433088
#
# Coordination Sequence:
#
# PCOD8080295 Si02
#       6
#     8   8   8   8   8   8
#     4  10  20  31  46  69  94 121 155 191 223 265
#     4  10  19  29  42  63  95 129 153 176 213 268
#     4   9  17  29  47  70  92 116 151 194 233 268
#     4  10  18  28  44  67  96 125 150 180 224 276
#     4  10  18  28  44  66  94 125 155 186 220 264
#     4   9  18  34  54  71  87 112 151 199 242 271
#
# _framework density 17.947167
#
# number of rings (size 3 to 8) (size 9 to 14) (size 15 to 20)
#    0.000    2.333    0.000    5.500    0.000    5.333 
#    0.000    0.833    0.000    0.500    0.000    0.000 
#    0.000    0.000    0.000    0.000    0.000    0.000 
#
# Total GULP energy -297354.524129 kJ/mol
# GULP energy per Si atom -12389.771839 kJ/mol
# Density = 1.790632 g / cm^3
# Si number density = 17.947167 Si / 1000 Ang^3
#
#
#
# Elastic Constant Matrix: (Units=GPa)
#
#
# Indices 1 2 3 4 5 6 
#
# 1 99.6261 3.1090 27.3313 0.0000 1.4891 0.0000
# 2 3.1090 58.2837 -0.4123 0.0000 4.7256 0.0000
# 3 27.3313 -0.4123 46.9589 0.0000 -4.2211 0.0000
# 4 0.0000 0.0000 0.0000 25.4696 0.0000 -4.8565
# 5 1.4891 4.7256 -4.2211 0.0000 20.9731 0.0000
# 6 0.0000 0.0000 0.0000 -4.8565 0.0000 16.4243
#
#
#
# Elastic Compliance Matrix: (Units=1/GPa)
#
#
# Indices 1 2 3 4 5 6 
#
# 1 0.012069 -0.000517 -0.007226 0.000000 -0.002195 0.000000
# 2 -0.000517 0.017501 0.000105 0.000000 -0.003885 0.000000
# 3 -0.007226 0.000105 0.026017 0.000000 0.005726 0.000000
# 4 0.000000 0.000000 0.000000 0.041609 0.000000 0.012303
# 5 -0.002195 -0.003885 0.005726 0.000000 0.049864 0.000000
# 6 0.000000 0.000000 0.000000 0.012303 0.000000 0.064523
#
#
# Mechanical properties :
#
#
# Convention : Reuss Voigt Hill
#
# Bulk Modulus (GPa) = 24.80742 29.43608 27.12175
# Shear Modulus (GPa) = 20.80776 24.22943 22.51859
#
# Velocity S-wave (km/s) = 3.40867 3.67828 3.54604
# Velocity P-wave (km/s) = 5.41706 5.87169 5.64895
#
# Compressibility (1/GPa) = 0.04031053
#
# Stress axis : x y z
#
# Youngs Moduli (GPa) = 82.85748 57.14021 38.43689
#
# Poissons Ratio (x) = 0.02954 0.27775
# Poissons Ratio (y) = 0.04283 -0.00405
# Poissons Ratio (z) = 0.59875 -0.00601
#
# Static dielectric constant tensor:
#      x y z
#    x 3.292580 0.000000 0.011890 
#    y 0.000000 3.367560 0.000000 
#    z 0.011890 0.000000 3.322870 
# 
# 
# High freq. dielectric constant tensor:
#      x y z
#    x 1.656330 0.000000 -0.002610 
#    y 0.000000 1.690740 0.000000 
#    z -0.002610 0.000000 1.686620 
# 
# From -- ./inp_files/214406.got.cif
#   From: 2010.06.25/outbox.cif.g09.slc.cpg/sg12_108_cif.got.tgz:214406.got - 2010.06.28 00:19:55.
