data_PCOD8080702
_publ_section_title
;
Structure prediction by ZEFSAII (Michael W. Deem and Ramdas Pophale) SiO2 
 PCOD8080702
Probable space group: C 2/M
;
_chemical_formula_sum "Si O2"
_cell_formula_units_Z 64
_cell_length_a 24.393724
_cell_length_b 10.264140
_cell_length_c 17.112373
_cell_angle_alpha 90.000000
_cell_angle_beta 64.730474
_cell_angle_gamma 90.000000
_cell_volume 3874.611029
_symmetry_space_group_name_H-M "C 2/M"
_symmetry_group_IT_number 12
_symmetry_cell_setting 'monoclinic'
loop_
_space_group_symop_operation_xyz
x,y,z
-x,y,-z
-x,-y,-z
x,-y,z
1/2+x,1/2+y,z
1/2-x,1/2+y,-z
1/2-x,1/2-y,-z
1/2+x,1/2-y,z
loop_
_atom_site_type_symbol
_atom_site_label
_atom_site_fract_x
_atom_site_fract_y
_atom_site_fract_z
Si Si1 0.468995 0.649194 0.940341
Si Si2 0.217202 0.645271 0.119677
Si Si3 0.820821 0.149308 0.394546
Si Si4 0.345054 0.862062 0.162377
Si Si5 0.587136 0.352840 0.788688
Si Si6 0.217841 0.149741 0.414920
Si Si7 0.292996 0.354724 0.745378
Si Si8 0.340071 0.771074 0.001011
O O1 0.455661 0.500000 0.967208
O O2 0.514719 0.667694 0.838427
O O3 0.406069 0.709615 0.952142
O O4 0.500000 0.711249 0.000000
O O5 0.211396 0.500000 0.158117
O O6 0.191124 0.747622 0.199345
O O7 0.175065 0.655158 0.069496
O O8 0.287182 0.666934 0.053255
O O9 0.886317 0.176778 0.313889
O O10 0.826921 0.172891 0.483902
O O11 0.773088 0.248730 0.386538
O O12 0.800130 0.000000 0.390074
O O13 0.383523 0.738894 0.164109
O O14 0.277452 0.848369 0.235317
O O15 0.373050 0.000000 0.175296
O O16 0.341957 0.872785 0.070467
O O17 0.603587 0.500000 0.804081
O O18 0.178878 0.173623 0.358345
O O19 0.242327 0.000000 0.401621
O O20 0.311180 0.500000 0.765262
#
# Coordination Sequence:
#
# PCOD8080702 Si02
#       8
#     8   8   8   8   8   8   8   8
#     4  10  19  31  48  70  98 130 164 197 235 284
#     4  10  21  34  52  72  94 123 161 208 246 280
#     4   9  17  27  43  67  94 125 159 194 234 280
#     4  10  18  29  45  64  93 127 157 192 232 279
#     4  10  19  30  44  67  95 126 162 195 226 272
#     4   9  16  28  44  65  95 127 155 191 238 290
#     4   9  18  30  45  67  94 125 156 190 239 292
#     4  10  20  34  49  68  95 128 164 199 241 286
#
# _framework density 16.517786999999998
#
# number of rings (size 3 to 8) (size 9 to 14) (size 15 to 20)
#    0.000    2.375    2.500    0.750    0.000    6.000 
#    0.000    1.875    0.000    0.000    0.000    0.875 
#    0.000    6.000    0.000    0.000    0.000    0.000 
#
# Total GULP energy -396428.183520 kJ/mol
# GULP energy per Si atom -12388.380735 kJ/mol
# Density = 1.648019 g / cm^3
# Si number density = 16.517787 Si / 1000 Ang^3
#
#
#
# Elastic Constant Matrix: (Units=GPa)
#
#
# Indices 1 2 3 4 5 6 
#
# 1 57.8589 26.4667 34.3127 0.0000 -1.2092 0.0000
# 2 26.4667 89.0930 37.7818 0.0000 9.2666 0.0000
# 3 34.3127 37.7818 111.5438 0.0000 8.7683 0.0000
# 4 0.0000 0.0000 0.0000 15.2743 0.0000 4.9886
# 5 -1.2092 9.2666 8.7683 0.0000 24.4162 0.0000
# 6 0.0000 0.0000 0.0000 4.9886 0.0000 12.9603
#
#
#
# Elastic Compliance Matrix: (Units=1/GPa)
#
#
# Indices 1 2 3 4 5 6 
#
# 1 0.023105 -0.004917 -0.005844 0.000000 0.005109 0.000000
# 2 -0.004917 0.014447 -0.003016 0.000000 -0.004643 0.000000
# 3 -0.005844 -0.003016 0.012057 0.000000 -0.003475 0.000000
# 4 0.000000 0.000000 0.000000 0.074883 0.000000 -0.028824
# 5 0.005109 -0.004643 -0.003475 0.000000 0.044219 0.000000
# 6 0.000000 0.000000 0.000000 -0.028824 0.000000 0.088254
#
#
# Mechanical properties :
#
#
# Convention : Reuss Voigt Hill
#
# Bulk Modulus (GPa) = 45.33873 50.62425 47.98149
# Shear Modulus (GPa) = 17.13089 21.19246 19.16168
#
# Velocity S-wave (km/s) = 3.22393 3.58580 3.40967
# Velocity P-wave (km/s) = 6.43166 6.91800 6.67926
#
# Compressibility (1/GPa) = 0.02205620
#
# Stress axis : x y z
#
# Youngs Moduli (GPa) = 43.28089 69.21952 82.93714
#
# Poissons Ratio (x) = 0.34035 0.48465
# Poissons Ratio (y) = 0.21281 0.25012
# Poissons Ratio (z) = 0.25291 0.20875
#
# Static dielectric constant tensor:
#      x y z
#    x 2.727450 0.000000 0.054150 
#    y 0.000000 3.187060 0.000000 
#    z 0.054150 0.000000 3.407350 
# 
# 
# High freq. dielectric constant tensor:
#      x y z
#    x 1.581260 0.000000 0.013150 
#    y 0.000000 1.642120 0.000000 
#    z 0.013150 0.000000 1.643830 
# 
# From -- ./inp_files/323629.got.cif
#   From: 2010.06.25/outbox.cif.g09.slc.cpg/sg12_162_cif.got.tgz:323629.got - 2010.06.28 00:19:55.
