data_PCOD8080407
_publ_section_title
;
Structure prediction by ZEFSAII (Michael W. Deem and Ramdas Pophale) SiO2 
 PCOD8080407
Probable space group: C 2/M
;
_chemical_formula_sum "Si O2"
_cell_formula_units_Z 48
_cell_length_a 22.075485
_cell_length_b 14.199106
_cell_length_c 25.208148
_cell_angle_alpha 90.000000
_cell_angle_beta 22.156150
_cell_angle_gamma 90.000000
_cell_volume 2979.927338
_symmetry_space_group_name_H-M "C 2/M"
_symmetry_group_IT_number 12
_symmetry_cell_setting 'monoclinic'
loop_
_space_group_symop_operation_xyz
x,y,z
-x,y,-z
-x,-y,-z
x,-y,z
1/2+x,1/2+y,z
1/2-x,1/2+y,-z
1/2-x,1/2-y,-z
1/2+x,1/2-y,z
loop_
_atom_site_type_symbol
_atom_site_label
_atom_site_fract_x
_atom_site_fract_y
_atom_site_fract_z
Si Si1 0.558492 0.605166 0.227717
Si Si2 0.834135 0.110999 0.259784
Si Si3 0.187998 0.891452 0.840228
Si Si4 0.607298 0.206036 0.237364
Si Si5 0.325058 0.391406 0.982035
Si Si6 0.201376 0.607934 0.475174
O O1 0.587402 0.500000 0.226993
O O2 0.608014 0.680484 0.232277
O O3 0.668288 0.620686 0.086641
O O4 0.372775 0.618548 0.363783
O O5 0.763995 0.136457 0.258955
O O6 0.714751 0.145480 0.403256
O O7 0.013765 0.152008 0.121811
O O8 0.854820 0.000000 0.250576
O O9 0.285721 0.823848 0.799472
O O10 0.233061 0.000000 0.815738
O O11 0.000000 0.875203 0.000000
O O12 0.425499 0.171539 0.391223
O O13 0.673633 0.164204 0.128415
O O14 0.304101 0.500000 0.015194
O O15 0.141927 0.500000 0.524550
#
# Coordination Sequence:
#
# PCOD8080407 Si02
#       6
#     8   8   8   8   8   8
#     4   9  20  35  46  61  94 129 154 186 232 267
#     4   8  15  29  44  64 100 129 137 164 233 291
#     4  10  18  28  45  72 100 120 143 182 230 279
#     4  12  19  27  48  74  92 117 161 190 215 269
#     4   9  16  29  48  69  93 120 147 185 230 275
#     4   9  18  31  47  69  96 120 144 185 232 277
#
# _framework density 16.107776000000001
#
# number of rings (size 3 to 8) (size 9 to 14) (size 15 to 20)
#    0.000    2.500    1.667    4.500    0.000    0.667 
#    0.000    2.500    0.000    0.500    0.000    2.333 
#    0.000    0.000    0.000    0.000    0.000    0.000 
#
# Total GULP energy -297508.639206 kJ/mol
# GULP energy per Si atom -12396.193300 kJ/mol
# Density = 1.607111 g / cm^3
# Si number density = 16.107776 Si / 1000 Ang^3
#
#
#
# Elastic Constant Matrix: (Units=GPa)
#
#
# Indices 1 2 3 4 5 6 
#
# 1 71.7812 53.4749 26.9078 -0.0043 2.6430 0.0007
# 2 53.4749 97.5335 43.0979 -0.0044 8.0527 0.0098
# 3 26.9078 43.0979 94.7278 -0.0159 17.1605 0.0093
# 4 -0.0043 -0.0044 -0.0159 13.5220 0.0072 -0.2101
# 5 2.6430 8.0527 17.1605 0.0072 14.3183 -0.0047
# 6 0.0007 0.0098 0.0093 -0.2101 -0.0047 25.6002
#
#
#
# Elastic Compliance Matrix: (Units=1/GPa)
#
#
# Indices 1 2 3 4 5 6 
#
# 1 0.023910 -0.012668 -0.001941 -0.000001 0.005037 0.000006
# 2 -0.012668 0.019545 -0.004760 -0.000002 -0.002949 -0.000006
# 3 -0.001941 -0.004760 0.016252 0.000026 -0.016443 -0.000007
# 4 -0.000001 -0.000002 0.000026 0.073963 -0.000067 0.000607
# 5 0.005037 -0.002949 -0.016443 -0.000067 0.090276 0.000023
# 6 0.000006 -0.000006 -0.000007 0.000607 0.000023 0.039067
#
#
# Mechanical properties :
#
#
# Convention : Reuss Voigt Hill
#
# Bulk Modulus (GPa) = 47.68520 56.77821 52.23170
# Shear Modulus (GPa) = 16.19482 20.05889 18.12686
#
# Velocity S-wave (km/s) = 3.17425 3.53270 3.35826
# Velocity P-wave (km/s) = 6.56526 7.20870 6.89449
#
# Compressibility (1/GPa) = 0.02097087
#
# Stress axis : x y z
#
# Youngs Moduli (GPa) = 41.82297 51.16431 61.53030
#
# Poissons Ratio (x) = 0.64813 0.11943
# Poissons Ratio (y) = 0.52979 0.29287
# Poissons Ratio (z) = 0.08118 0.24353
#
# Static dielectric constant tensor:
#      x y z
#    x 2.978150 -0.000010 0.217460 
#    y -0.000010 2.810800 0.000070 
#    z 0.217460 0.000070 3.133560 
# 
# 
# High freq. dielectric constant tensor:
#      x y z
#    x 1.600570 0.000000 0.014440 
#    y 0.000000 1.580990 0.000010 
#    z 0.014440 0.000010 1.629260 
# 
# From -- ./inp_files/85126.got.cif
#   From: 2010.06.25/outbox.cif.g09.slc.cpg/sg12_43_cif.got.tgz:85126.got - 2010.06.28 00:19:55.
