data_PCOD8080188
_publ_section_title
;
Structure prediction by ZEFSAII (Michael W. Deem and Ramdas Pophale) SiO2 
 PCOD8080188
Probable space group: C 2/M
;
_chemical_formula_sum "Si O2"
_cell_formula_units_Z 56
_cell_length_a 27.553884
_cell_length_b 9.074220
_cell_length_c 14.458765
_cell_angle_alpha 90.000000
_cell_angle_beta 104.102889
_cell_angle_gamma 90.000000
_cell_volume 3506.164244
_symmetry_space_group_name_H-M "C 2/M"
_symmetry_group_IT_number 12
_symmetry_cell_setting 'monoclinic'
loop_
_space_group_symop_operation_xyz
x,y,z
-x,y,-z
-x,-y,-z
x,-y,z
1/2+x,1/2+y,z
1/2-x,1/2+y,-z
1/2-x,1/2-y,-z
1/2+x,1/2-y,z
loop_
_atom_site_type_symbol
_atom_site_label
_atom_site_fract_x
_atom_site_fract_y
_atom_site_fract_z
Si Si1 0.944426 0.672300 0.480120
Si Si2 0.630816 0.331325 0.428568
Si Si3 0.690137 0.671662 0.283568
Si Si4 0.137444 0.668146 0.698935
Si Si5 0.308926 0.167889 0.101575
Si Si6 0.290385 0.172071 0.891238
Si Si7 0.787262 0.171459 0.388482
O O1 0.948209 0.500000 0.499671
O O2 0.915192 0.736059 0.555038
O O3 0.916392 0.709789 0.369921
O O4 0.000000 0.741519 0.500000
O O5 0.616993 0.500000 0.442515
O O6 0.640572 0.303380 0.323932
O O7 0.682582 0.290458 0.504351
O O8 0.700446 0.500000 0.272489
O O9 0.681820 0.747985 0.180605
O O10 0.736267 0.738082 0.362075
O O11 0.150529 0.500000 0.675806
O O12 0.140512 0.684682 0.812485
O O13 0.178986 0.779262 0.681646
O O14 0.266091 0.271658 0.123333
O O15 0.288761 0.000000 0.097059
O O16 0.320944 0.207058 0.000242
O O17 0.288744 0.000000 0.867564
O O18 0.774479 0.000000 0.373062
#
# Coordination Sequence:
#
# PCOD8080188 Si02
#       7
#     8   8   8   8   8   8   8
#     4   9  18  32  50  72  93 112 140 181 227 272
#     4   9  20  33  45  63  88 118 151 183 219 266
#     4  11  20  30  42  60  89 124 154 181 219 263
#     4   9  16  28  46  65  89 120 147 176 220 270
#     4   9  17  29  43  61  87 120 154 185 221 259
#     4  10  19  28  41  62  88 119 155 192 218 249
#     4  10  18  28  42  63  88 116 152 187 214 253
#
# _framework density 15.971871
#
# number of rings (size 3 to 8) (size 9 to 14) (size 15 to 20)
#    0.000    2.429    1.429    1.714    0.000    2.571 
#    0.000    0.000    0.000    0.000    0.000    1.000 
#    0.000    8.000    0.000    0.000    0.000    0.000 
#
# Total GULP energy -347002.341602 kJ/mol
# GULP energy per Si atom -12392.940771 kJ/mol
# Density = 1.593552 g / cm^3
# Si number density = 15.971871 Si / 1000 Ang^3
#
#
#
# Elastic Constant Matrix: (Units=GPa)
#
#
# Indices 1 2 3 4 5 6 
#
# 1 80.3977 34.0822 53.1493 0.0000 -2.5527 0.0000
# 2 34.0822 68.5874 41.2358 0.0000 -7.4268 0.0000
# 3 53.1493 41.2358 115.7073 0.0000 -11.8056 0.0000
# 4 0.0000 0.0000 0.0000 22.2448 0.0000 -3.7198
# 5 -2.5527 -7.4268 -11.8056 0.0000 15.8400 0.0000
# 6 0.0000 0.0000 0.0000 -3.7198 0.0000 17.5005
#
#
#
# Elastic Compliance Matrix: (Units=1/GPa)
#
#
# Indices 1 2 3 4 5 6 
#
# 1 0.019707 -0.005844 -0.007495 0.000000 -0.005150 0.000000
# 2 -0.005844 0.020536 -0.004056 0.000000 0.005664 0.000000
# 3 -0.007495 -0.004056 0.014301 0.000000 0.007549 0.000000
# 4 0.000000 0.000000 0.000000 0.046611 0.000000 0.009907
# 5 -0.005150 0.005664 0.007549 0.000000 0.070583 0.000000
# 6 0.000000 0.000000 0.000000 0.009907 0.000000 0.059247
#
#
# Mechanical properties :
#
#
# Convention : Reuss Voigt Hill
#
# Bulk Modulus (GPa) = 50.62514 57.95855 54.29185
# Shear Modulus (GPa) = 18.35802 20.19872 19.27837
#
# Velocity S-wave (km/s) = 3.39395 3.56004 3.47799
# Velocity P-wave (km/s) = 6.86468 7.29830 7.08481
#
# Compressibility (1/GPa) = 0.01975303
#
# Stress axis : x y z
#
# Youngs Moduli (GPa) = 50.74370 48.69489 69.92520
#
# Poissons Ratio (x) = 0.28459 0.52408
# Poissons Ratio (y) = 0.29656 0.28363
# Poissons Ratio (z) = 0.38032 0.19752
#
# Static dielectric constant tensor:
#      x y z
#    x 2.719230 0.000000 0.043000 
#    y 0.000000 3.091400 0.000000 
#    z 0.043000 0.000000 3.319040 
# 
# 
# High freq. dielectric constant tensor:
#      x y z
#    x 1.559330 0.000000 -0.004730 
#    y 0.000000 1.622890 0.000000 
#    z -0.004730 0.000000 1.620570 
# 
# From -- ./inp_files/247900.got.cif
#   From: 2010.06.25/outbox.cif.g09.slc.cpg/sg12_124_cif.got.tgz:247900.got - 2010.06.28 00:19:55.
