data_PCOD8080517
_publ_section_title
;
Structure prediction by ZEFSAII (Michael W. Deem and Ramdas Pophale) SiO2 
 PCOD8080517
Probable space group: C 2/M
;
_chemical_formula_sum "Si O2"
_cell_formula_units_Z 48
_cell_length_a 22.608492
_cell_length_b 9.257944
_cell_length_c 13.947600
_cell_angle_alpha 90.000000
_cell_angle_beta 76.470147
_cell_angle_gamma 90.000000
_cell_volume 2838.329146
_symmetry_space_group_name_H-M "C 2/M"
_symmetry_group_IT_number 12
_symmetry_cell_setting 'monoclinic'
loop_
_space_group_symop_operation_xyz
x,y,z
-x,y,-z
-x,-y,-z
x,-y,z
1/2+x,1/2+y,z
1/2-x,1/2+y,-z
1/2-x,1/2-y,-z
1/2+x,1/2-y,z
loop_
_atom_site_type_symbol
_atom_site_label
_atom_site_fract_x
_atom_site_fract_y
_atom_site_fract_z
Si Si1 0.943308 0.668058 0.588316
Si Si2 0.930590 0.340881 0.994118
Si Si3 0.599514 0.331789 0.819114
Si Si4 0.173448 0.168797 0.441262
Si Si5 0.209541 0.165874 0.640539
Si Si6 0.985054 0.330575 0.782688
O O1 0.926056 0.500000 0.588150
O O2 0.887007 0.761512 0.576382
O O3 0.959362 0.714867 0.689939
O O4 0.000000 0.705917 0.500000
O O5 0.900755 0.500000 0.016051
O O6 0.894289 0.229028 0.074759
O O7 0.932739 0.292466 0.881509
O O8 0.000000 0.346988 0.000000
O O9 0.583935 0.500000 0.830217
O O10 0.663271 0.301518 0.743691
O O11 0.546897 0.255187 0.778645
O O12 0.176849 0.204032 0.552817
O O13 0.231665 0.235313 0.365144
O O14 0.171945 0.000000 0.420449
O O15 0.230899 0.000000 0.632336
O O16 0.001326 0.500000 0.781176
#
# Coordination Sequence:
#
# PCOD8080517 Si02
#       6
#     8   8   8   8   8   8
#     4  10  20  33  50  71  96 127 158 187 226 278
#     4   8  15  28  44  64  93 125 155 189 230 276
#     4  10  18  28  47  73  96 120 154 196 236 271
#     4  10  20  33  50  71  94 123 157 192 231 273
#     4   9  19  34  49  68  96 125 153 190 235 279
#     4   9  18  31  46  67  97 130 157 185 229 280
#
# _framework density 16.911356999999999
#
# number of rings (size 3 to 8) (size 9 to 14) (size 15 to 20)
#    0.000    2.667    0.000    3.000    0.000    6.000 
#    0.000    0.000    0.000    1.000    0.000    0.000 
#    0.000    0.000    0.000    0.000    0.000    0.000 
#
# Total GULP energy -297578.436639 kJ/mol
# GULP energy per Si atom -12399.101527 kJ/mol
# Density = 1.687287 g / cm^3
# Si number density = 16.911357 Si / 1000 Ang^3
#
#
#
# Elastic Constant Matrix: (Units=GPa)
#
#
# Indices 1 2 3 4 5 6 
#
# 1 94.7751 63.8993 59.9565 0.0000 -2.6124 0.0000
# 2 63.8993 93.0411 60.9968 0.0000 -7.7905 0.0000
# 3 59.9565 60.9968 139.3737 0.0000 -2.3279 0.0000
# 4 0.0000 0.0000 0.0000 36.9892 0.0000 -17.5324
# 5 -2.6124 -7.7905 -2.3279 0.0000 20.1728 0.0000
# 6 0.0000 0.0000 0.0000 -17.5324 0.0000 54.9113
#
#
#
# Elastic Compliance Matrix: (Units=1/GPa)
#
#
# Indices 1 2 3 4 5 6 
#
# 1 0.021119 -0.012235 -0.003771 0.000000 -0.002425 0.000000
# 2 -0.012235 0.022697 -0.004559 0.000000 0.006655 0.000000
# 3 -0.003771 -0.004559 0.010775 0.000000 -0.001005 0.000000
# 4 0.000000 0.000000 0.000000 0.031856 0.000000 0.010171
# 5 -0.002425 0.006655 -0.001005 0.000000 0.051712 0.000000
# 6 0.000000 0.000000 0.000000 0.010171 0.000000 0.021459
#
#
# Mechanical properties :
#
#
# Convention : Reuss Voigt Hill
#
# Bulk Modulus (GPa) = 74.28452 77.43279 75.85866
# Shear Modulus (GPa) = 24.36235 31.90382 28.13308
#
# Velocity S-wave (km/s) = 3.79963 4.34813 4.08310
# Velocity P-wave (km/s) = 7.95429 8.43180 8.19652
#
# Compressibility (1/GPa) = 0.01346175
#
# Stress axis : x y z
#
# Youngs Moduli (GPa) = 47.35002 44.05915 92.80364
#
# Poissons Ratio (x) = 0.53908 0.34996
# Poissons Ratio (y) = 0.57934 0.42306
# Poissons Ratio (z) = 0.17855 0.20085
#
# Static dielectric constant tensor:
#      x y z
#    x 2.847770 0.000000 0.039100 
#    y 0.000000 3.212450 0.000000 
#    z 0.039100 0.000000 3.619190 
# 
# 
# High freq. dielectric constant tensor:
#      x y z
#    x 1.618280 0.000000 -0.004330 
#    y 0.000000 1.656480 0.000000 
#    z -0.004330 0.000000 1.663480 
# 
# From -- ./inp_files/229838.got.cif
#   From: 2010.06.25/outbox.cif.g09.slc.cpg/sg12_115_cif.got.tgz:229838.got - 2010.06.28 00:19:55.
