data_PCOD8080425
_publ_section_title
;
Structure prediction by ZEFSAII (Michael W. Deem and Ramdas Pophale) SiO2 
 PCOD8080425
Probable space group: C 2/M
;
_chemical_formula_sum "Si O2"
_cell_formula_units_Z 56
_cell_length_a 9.463504
_cell_length_b 21.045164
_cell_length_c 30.001913
_cell_angle_alpha 90.000000
_cell_angle_beta 30.656164
_cell_angle_gamma 90.000000
_cell_volume 3046.669828
_symmetry_space_group_name_H-M "C 2/M"
_symmetry_group_IT_number 12
_symmetry_cell_setting 'monoclinic'
loop_
_space_group_symop_operation_xyz
x,y,z
-x,y,-z
-x,-y,-z
x,-y,z
1/2+x,1/2+y,z
1/2-x,1/2+y,-z
1/2-x,1/2-y,-z
1/2+x,1/2-y,z
loop_
_atom_site_type_symbol
_atom_site_label
_atom_site_fract_x
_atom_site_fract_y
_atom_site_fract_z
Si Si1 0.960159 0.216390 0.410959
Si Si2 0.291038 0.825709 0.904253
Si Si3 0.247737 0.160335 0.691503
Si Si4 0.011815 0.348995 0.708092
Si Si5 0.619220 0.071696 0.761887
Si Si6 0.740356 0.388914 0.596641
Si Si7 0.262726 0.761782 0.165190
O O1 0.131924 0.268737 0.338231
O O2 0.164264 0.170803 0.383980
O O3 0.750000 0.250000 0.500000
O O4 0.799506 0.178900 0.416092
O O5 0.493559 0.882245 0.833516
O O6 0.432683 0.787477 0.906113
O O7 0.231719 0.773694 0.882873
O O8 0.000000 0.854920 0.000000
O O9 0.387598 0.123635 0.695401
O O10 0.321769 0.122242 0.626294
O O11 0.921340 0.173234 0.785586
O O12 0.835475 0.287311 0.770101
O O13 0.995285 0.405854 0.748279
O O14 0.955362 0.071859 0.671110
O O15 0.520312 0.000000 0.797766
O O16 0.000000 0.422807 0.500000
#
# Coordination Sequence:
#
# PCOD8080425 Si02
#       7
#     8   8   8   8   8   8   8
#     4  10  18  28  45  79 117 143 174 219 284 340
#     4  11  21  35  61  91 117 149 179 221 285 342
#     4  11  18  30  52  77 117 144 178 223 278 341
#     4   9  20  32  54  77 106 154 183 222 284 337
#     4  10  23  43  58  74 110 153 198 238 270 324
#     4  11  21  34  53  82 109 149 194 234 279 325
#     4  10  18  34  54  85 123 142 169 221 281 346
#
# _framework density 18.380725000000002
#
# number of rings (size 3 to 8) (size 9 to 14) (size 15 to 20)
#    0.000    1.714    4.286    3.000    0.000    0.571 
#    0.000    0.714    0.000    0.857    0.000    1.000 
#    0.000    0.000    0.000    0.000    0.000    0.000 
#
# Total GULP energy -347090.517681 kJ/mol
# GULP energy per Si atom -12396.089917 kJ/mol
# Density = 1.833889 g / cm^3
# Si number density = 18.380725 Si / 1000 Ang^3
#
#
#
# Elastic Constant Matrix: (Units=GPa)
#
#
# Indices 1 2 3 4 5 6 
#
# 1 117.9429 21.9649 24.2225 -0.0944 -3.6963 -0.0837
# 2 21.9649 68.2571 19.1009 -0.0682 -5.3649 -0.0168
# 3 24.2225 19.1009 100.2306 -0.2743 -11.5326 0.1115
# 4 -0.0944 -0.0682 -0.2743 8.2799 0.0809 -1.8180
# 5 -3.6963 -5.3649 -11.5326 0.0809 23.6613 -0.0389
# 6 -0.0837 -0.0168 0.1115 -1.8180 -0.0389 10.3807
#
#
#
# Elastic Compliance Matrix: (Units=1/GPa)
#
#
# Indices 1 2 3 4 5 6 
#
# 1 0.009308 -0.002498 -0.001771 0.000048 0.000025 0.000099
# 2 -0.002498 0.016254 -0.002240 0.000019 0.002203 0.000042
# 3 -0.001771 -0.002240 0.011381 0.000276 0.004761 -0.000074
# 4 0.000048 0.000019 0.000276 0.125616 -0.000247 0.021996
# 5 0.000025 0.002203 0.004761 -0.000247 0.045088 0.000078
# 6 0.000099 0.000042 -0.000074 0.021996 0.000078 0.100187
#
#
# Mechanical properties :
#
#
# Convention : Reuss Voigt Hill
#
# Bulk Modulus (GPa) = 41.79654 46.33415 44.06535
# Shear Modulus (GPa) = 15.20550 23.20719 19.20635
#
# Velocity S-wave (km/s) = 2.87932 3.55714 3.23603
# Velocity P-wave (km/s) = 5.81745 6.49105 6.16346
#
# Compressibility (1/GPa) = 0.02392542
#
# Stress axis : x y z
#
# Youngs Moduli (GPa) = 107.42985 61.52157 87.86933
#
# Poissons Ratio (x) = 0.15367 0.15559
# Poissons Ratio (y) = 0.26835 0.19687
# Poissons Ratio (z) = 0.19022 0.13784
#
# Static dielectric constant tensor:
#      x y z
#    x 2.638020 0.003290 0.392090 
#    y 0.003290 3.002470 -0.002280 
#    z 0.392090 -0.002280 3.159550 
# 
# 
# High freq. dielectric constant tensor:
#      x y z
#    x 1.723570 0.000000 -0.009740 
#    y 0.000000 1.662940 0.000010 
#    z -0.009740 0.000010 1.707640 
# 
# From -- ./inp_files/258006.got.cif
#   From: 2010.06.25/outbox.cif.g09.slc.cpg/sg12_130_cif.got.tgz:258006.got - 2010.06.28 00:19:55.
