data_PCOD8080684
_publ_section_title
;
Structure prediction by ZEFSAII (Michael W. Deem and Ramdas Pophale) SiO2 
 PCOD8080684
Probable space group: C 2/M
;
_chemical_formula_sum "Si O2"
_cell_formula_units_Z 64
_cell_length_a 28.483841
_cell_length_b 8.983214
_cell_length_c 20.349235
_cell_angle_alpha 90.000000
_cell_angle_beta 51.579867
_cell_angle_gamma 90.000000
_cell_volume 4079.468739
_symmetry_space_group_name_H-M "C 2/M"
_symmetry_group_IT_number 12
_symmetry_cell_setting 'monoclinic'
loop_
_space_group_symop_operation_xyz
x,y,z
-x,y,-z
-x,-y,-z
x,-y,z
1/2+x,1/2+y,z
1/2-x,1/2+y,-z
1/2-x,1/2-y,-z
1/2+x,1/2-y,z
loop_
_atom_site_type_symbol
_atom_site_label
_atom_site_fract_x
_atom_site_fract_y
_atom_site_fract_z
Si Si1 0.306975 0.667147 0.029860
Si Si2 0.359240 0.671058 0.731578
Si Si3 0.143650 0.822960 0.489469
Si Si4 0.227656 0.326430 0.671473
Si Si5 0.720318 0.829562 0.820580
Si Si6 0.167475 0.667985 0.117784
Si Si7 0.929510 0.328615 0.556188
Si Si8 0.187394 0.325087 0.570318
O O1 0.331994 0.500000 0.008432
O O2 0.316605 0.736654 0.093577
O O3 0.237450 0.670591 0.072590
O O4 0.344082 0.760030 0.943583
O O5 0.379794 0.500000 0.714218
O O6 0.291137 0.686798 0.768143
O O7 0.368052 0.737818 0.796745
O O8 0.400610 0.762259 0.646595
O O9 0.206842 0.763413 0.405118
O O10 0.090675 0.761908 0.490509
O O11 0.136896 0.753971 0.569244
O O12 0.139787 0.000000 0.497426
O O13 0.238216 0.500000 0.673735
O O14 0.205117 0.262387 0.761215
O O15 0.178302 0.297284 0.656937
O O16 0.700091 0.000000 0.846208
O O17 0.142739 0.500000 0.138807
O O18 0.910034 0.500000 0.566141
O O19 0.000000 0.310719 0.500000
O O20 0.189785 0.500000 0.552780
O O21 0.250000 0.250000 0.500000
#
# Coordination Sequence:
#
# PCOD8080684 Si02
#       8
#     8   8   8   8   8   8   8   8
#     4   9  16  24  34  54  78 103 136 170 201 238
#     4  10  18  29  45  60  77 104 137 175 213 251
#     4  10  18  31  46  60  79 106 140 178 217 257
#     4   8  14  25  40  59  82 108 138 169 203 246
#     4   9  15  25  39  56  80 110 138 168 204 243
#     4   9  16  26  39  54  75 103 135 169 204 245
#     4  11  23  35  46  62  83 107 140 182 223 261
#     4   9  16  26  41  61  83 108 138 173 210 251
#
# _framework density 15.688317
#
# number of rings (size 3 to 8) (size 9 to 14) (size 15 to 20)
#    0.000    2.625    1.250    3.000    0.000    4.500 
#    0.000    1.250    0.000    0.000    0.000    0.000 
#    0.000    0.000    0.000    1.125    0.000   22.500 
#
# Total GULP energy -396607.112242 kJ/mol
# GULP energy per Si atom -12393.972258 kJ/mol
# Density = 1.565261 g / cm^3
# Si number density = 15.688317 Si / 1000 Ang^3
#
#
#
# Elastic Constant Matrix: (Units=GPa)
#
#
# Indices 1 2 3 4 5 6 
#
# 1 70.0259 43.7792 48.7135 0.0014 32.0458 0.0001
# 2 43.7792 104.4525 41.6412 0.0097 21.3377 0.0003
# 3 48.7135 41.6412 64.6229 0.0000 36.0399 -0.0008
# 4 0.0014 0.0097 0.0000 23.7901 -0.0012 7.9433
# 5 32.0458 21.3377 36.0399 -0.0012 31.9748 0.0014
# 6 0.0001 0.0003 -0.0008 7.9433 0.0014 19.5688
#
#
#
# Elastic Compliance Matrix: (Units=1/GPa)
#
#
# Indices 1 2 3 4 5 6 
#
# 1 0.034412 -0.005859 -0.013762 -0.000001 -0.015067 0.000001
# 2 -0.005859 0.013931 -0.007136 -0.000006 0.004619 0.000001
# 3 -0.013762 -0.007136 0.054116 0.000000 -0.042442 0.000005
# 4 -0.000001 -0.000006 0.000000 0.048625 0.000007 -0.019738
# 5 -0.015067 0.004619 -0.042442 0.000007 0.091130 -0.000011
# 6 0.000001 0.000001 0.000005 -0.019738 -0.000011 0.059113
#
#
# Mechanical properties :
#
#
# Convention : Reuss Voigt Hill
#
# Bulk Modulus (GPa) = 20.43108 56.37434 38.40271
# Shear Modulus (GPa) = 13.47145 22.06456 17.76801
#
# Velocity S-wave (km/s) = 2.93353 3.75431 3.36901
# Velocity P-wave (km/s) = 4.95232 7.40305 6.29804
#
# Compressibility (1/GPa) = 0.04894504
#
# Stress axis : x y z
#
# Youngs Moduli (GPa) = 29.05979 71.78429 18.47878
#
# Poissons Ratio (x) = 0.42056 0.25431
# Poissons Ratio (y) = 0.17025 0.13186
# Poissons Ratio (z) = 0.39992 0.51225
#
# Static dielectric constant tensor:
#      x y z
#    x 2.908390 0.000000 0.551140 
#    y 0.000000 3.123670 0.000000 
#    z 0.551140 0.000000 2.984090 
# 
# 
# High freq. dielectric constant tensor:
#      x y z
#    x 1.562560 0.000000 0.053320 
#    y 0.000000 1.611640 0.000000 
#    z 0.053320 0.000000 1.575540 
# 
# From -- ./inp_files/326875.got.cif
#   From: 2010.06.25/outbox.cif.g09.slc.cpg/sg12_164_cif.got.tgz:326875.got - 2010.06.28 00:19:55.
