data_PCOD8080539
_publ_section_title
;
Structure prediction by ZEFSAII (Michael W. Deem and Ramdas Pophale) SiO2 
 PCOD8080539
Probable space group: C 2/M
;
_chemical_formula_sum "Si O2"
_cell_formula_units_Z 56
_cell_length_a 19.682074
_cell_length_b 9.365551
_cell_length_c 30.986859
_cell_angle_alpha 90.000000
_cell_angle_beta 149.089805
_cell_angle_gamma 90.000000
_cell_volume 2934.176125
_symmetry_space_group_name_H-M "C 2/M"
_symmetry_group_IT_number 12
_symmetry_cell_setting 'monoclinic'
loop_
_space_group_symop_operation_xyz
x,y,z
-x,y,-z
-x,-y,-z
x,-y,z
1/2+x,1/2+y,z
1/2-x,1/2+y,-z
1/2-x,1/2-y,-z
1/2+x,1/2-y,z
loop_
_atom_site_type_symbol
_atom_site_label
_atom_site_fract_x
_atom_site_fract_y
_atom_site_fract_z
Si Si1 0.994009 0.664999 0.093317
Si Si2 0.204595 0.831629 0.725793
Si Si3 0.922007 0.161623 0.131473
Si Si4 0.867021 0.166346 0.408236
Si Si5 0.701461 0.159722 0.081825
Si Si6 0.410752 0.163769 0.713610
Si Si7 0.624819 0.833173 0.761167
O O1 0.973839 0.500000 0.094886
O O2 0.145906 0.710571 0.180571
O O3 0.903552 0.758685 0.075971
O O4 0.946206 0.691329 0.017377
O O5 0.168850 0.773392 0.658715
O O6 0.111021 0.747875 0.708328
O O7 0.180454 0.000000 0.717303
O O8 0.788919 0.168994 0.086331
O O9 0.040192 0.237789 0.221236
O O10 0.965193 0.000000 0.145968
O O11 0.746509 0.193199 0.376239
O O12 0.000000 0.239414 0.500000
O O13 0.893626 0.000000 0.416659
O O14 0.750304 0.272579 0.143664
O O15 0.709787 0.000000 0.106808
O O16 0.486754 0.197756 0.710595
O O17 0.436325 0.000000 0.741496
O O18 0.649180 0.000000 0.767110
#
# Coordination Sequence:
#
# PCOD8080539 Si02
#       7
#     8   8   8   8   8   8   8
#     4  10  19  32  50  72 102 141 181 219 260 305
#     4  10  20  35  55  77 104 138 174 216 262 311
#     4  10  18  28  47  76 106 136 172 219 263 304
#     4   9  17  33  60  87 103 125 172 222 257 304
#     4   9  19  33  49  72 103 140 182 220 255 302
#     4   9  17  34  56  77 103 138 176 211 256 313
#     4  10  21  35  53  75 107 145 176 213 257 309
#
# _framework density 19.085425999999998
#
# number of rings (size 3 to 8) (size 9 to 14) (size 15 to 20)
#    0.000    2.429    1.429    1.286    0.000    2.857 
#    0.000    3.571    0.000    1.714    0.000    0.000 
#    0.000    0.000    0.000    0.000    0.000    0.000 
#
# Total GULP energy -347119.778240 kJ/mol
# GULP energy per Si atom -12397.134937 kJ/mol
# Density = 1.904199 g / cm^3
# Si number density = 19.085426 Si / 1000 Ang^3
#
#
#
# Elastic Constant Matrix: (Units=GPa)
#
#
# Indices 1 2 3 4 5 6 
#
# 1 79.6867 33.1127 47.5951 0.0000 -14.0794 0.0000
# 2 33.1127 63.2905 24.9573 0.0000 -5.7558 0.0000
# 3 47.5951 24.9573 119.4668 0.0001 5.6793 0.0000
# 4 0.0000 0.0000 0.0001 15.2814 0.0000 -5.7959
# 5 -14.0794 -5.7558 5.6793 0.0000 18.4884 0.0000
# 6 0.0000 0.0000 0.0000 -5.7959 0.0000 29.1415
#
#
#
# Elastic Compliance Matrix: (Units=1/GPa)
#
#
# Indices 1 2 3 4 5 6 
#
# 1 0.024457 -0.007475 -0.009090 0.000000 0.019090 0.000000
# 2 -0.007475 0.020325 -0.001317 0.000000 0.001040 0.000000
# 3 -0.009090 -0.001317 0.012803 0.000000 -0.011265 0.000000
# 4 0.000000 0.000000 0.000000 0.070778 0.000000 0.014077
# 5 0.019090 0.001040 -0.011265 0.000000 0.072410 0.000000
# 6 0.000000 0.000000 0.000000 0.014077 0.000000 0.037115
#
#
# Mechanical properties :
#
#
# Convention : Reuss Voigt Hill
#
# Bulk Modulus (GPa) = 45.82851 52.64160 49.23506
# Shear Modulus (GPa) = 17.79829 23.03417 20.41623
#
# Velocity S-wave (km/s) = 3.05710 3.47781 3.27422
# Velocity P-wave (km/s) = 6.04364 6.61581 6.33618
#
# Compressibility (1/GPa) = 0.02182048
#
# Stress axis : x y z
#
# Youngs Moduli (GPa) = 40.88749 49.20011 78.10972
#
# Poissons Ratio (x) = 0.36779 0.70999
# Poissons Ratio (y) = 0.30565 0.10289
# Poissons Ratio (z) = 0.37165 0.06481
#
# Static dielectric constant tensor:
#      x y z
#    x 3.523770 0.000000 0.034760 
#    y 0.000000 3.358970 0.000000 
#    z 0.034760 0.000000 3.529780 
# 
# 
# High freq. dielectric constant tensor:
#      x y z
#    x 1.745540 0.000000 0.002030 
#    y 0.000000 1.721740 0.000000 
#    z 0.002030 0.000000 1.722210 
# 
# From -- ./inp_files/281665.got.cif
#   From: 2010.06.25/outbox.cif.g09.slc.cpg/sg12_141_cif.got.tgz:281665.got - 2010.06.28 00:19:55.
