data_PCOD8080460
_publ_section_title
;
Structure prediction by ZEFSAII (Michael W. Deem and Ramdas Pophale) SiO2 
 PCOD8080460
Probable space group: C 2/M
;
_chemical_formula_sum "Si O2"
_cell_formula_units_Z 64
_cell_length_a 22.882875
_cell_length_b 9.203089
_cell_length_c 25.411482
_cell_angle_alpha 90.000000
_cell_angle_beta 134.260677
_cell_angle_gamma 90.000000
_cell_volume 3832.582216
_symmetry_space_group_name_H-M "C 2/M"
_symmetry_group_IT_number 12
_symmetry_cell_setting 'monoclinic'
loop_
_space_group_symop_operation_xyz
x,y,z
-x,y,-z
-x,-y,-z
x,-y,z
1/2+x,1/2+y,z
1/2-x,1/2+y,-z
1/2-x,1/2-y,-z
1/2+x,1/2-y,z
loop_
_atom_site_type_symbol
_atom_site_label
_atom_site_fract_x
_atom_site_fract_y
_atom_site_fract_z
Si Si1 0.074342 0.672144 0.582269
Si Si2 0.217913 0.830425 0.929195
Si Si3 0.960089 0.832769 0.221200
Si Si4 0.101370 0.834243 0.703447
Si Si5 0.749648 0.338998 0.334881
Si Si6 0.634906 0.338767 0.172928
Si Si7 0.096557 0.672426 0.245896
Si Si8 0.279096 0.830761 0.856242
O O1 0.073962 0.500000 0.587694
O O2 0.064979 0.736508 0.634428
O O3 0.158362 0.723164 0.606626
O O4 0.000000 0.728838 0.500000
O O5 0.124493 0.788071 0.859553
O O6 0.273585 0.786802 0.914073
O O7 0.225241 0.000000 0.944037
O O8 0.250000 0.750000 0.000000
O O9 0.954039 0.810901 0.279904
O O10 0.028961 0.724283 0.244243
O O11 0.982323 0.000000 0.221823
O O12 0.194033 0.792492 0.774901
O O13 0.097459 0.000000 0.682093
O O14 0.745086 0.500000 0.358443
O O15 0.723017 0.352061 0.256820
O O16 0.685541 0.229071 0.322854
O O17 0.596947 0.500000 0.140214
O O18 0.577427 0.243046 0.176082
O O19 0.648009 0.260282 0.125075
O O20 0.096970 0.500000 0.241659
O O21 0.299252 0.000000 0.862456
#
# Coordination Sequence:
#
# PCOD8080460 Si02
#       8
#     8   8   8   8   8   8   8   8
#     4  10  19  30  46  70 100 128 153 188 235 283
#     4   9  19  33  49  71 100 130 156 186 231 282
#     4   9  18  33  50  69  95 127 158 192 233 277
#     4   9  17  29  46  67  92 122 157 193 231 274
#     4   8  16  29  44  65  93 123 153 187 230 276
#     4   9  16  26  44  68  91 119 151 188 231 275
#     4  10  18  28  46  72  94 118 156 201 238 270
#     4   9  16  28  47  70  94 121 155 195 231 268
#
# _framework density 16.698924000000002
#
# number of rings (size 3 to 8) (size 9 to 14) (size 15 to 20)
#    0.750    2.125    1.250    2.625    0.000    2.250 
#    0.000    2.500    0.000    1.500    0.000    5.250 
#    0.000    0.000    0.000    0.000    0.000    0.000 
#
# Total GULP energy -396512.881618 kJ/mol
# GULP energy per Si atom -12391.027551 kJ/mol
# Density = 1.666092 g / cm^3
# Si number density = 16.698924 Si / 1000 Ang^3
#
#
#
# Elastic Constant Matrix: (Units=GPa)
#
#
# Indices 1 2 3 4 5 6 
#
# 1 83.4062 45.0686 18.0038 0.0000 -2.9610 0.0000
# 2 45.0686 82.1688 21.4700 0.0000 -4.2061 0.0000
# 3 18.0038 21.4700 66.2956 0.0000 -8.9043 0.0000
# 4 0.0000 0.0000 0.0000 20.7169 0.0000 -5.5832
# 5 -2.9610 -4.2061 -8.9043 0.0000 17.5758 0.0000
# 6 0.0000 0.0000 0.0000 -5.5832 0.0000 30.8861
#
#
#
# Elastic Compliance Matrix: (Units=1/GPa)
#
#
# Indices 1 2 3 4 5 6 
#
# 1 0.017228 -0.008990 -0.001788 0.000000 -0.000155 0.000000
# 2 -0.008990 0.018005 -0.003234 0.000000 0.001156 0.000000
# 3 -0.001788 -0.003234 0.017675 0.000000 0.007879 0.000000
# 4 0.000000 0.000000 0.000000 0.050742 0.000000 0.009172
# 5 -0.000155 0.001156 0.007879 0.000000 0.061139 0.000000
# 6 0.000000 0.000000 0.000000 0.009172 0.000000 0.034035
#
#
# Mechanical properties :
#
#
# Convention : Reuss Voigt Hill
#
# Bulk Modulus (GPa) = 40.18700 44.55060 42.36880
# Shear Modulus (GPa) = 21.26367 23.65763 22.46065
#
# Velocity S-wave (km/s) = 3.57228 3.76801 3.67145
# Velocity P-wave (km/s) = 6.41349 6.75775 6.58787
#
# Compressibility (1/GPa) = 0.02488367
#
# Stress axis : x y z
#
# Youngs Moduli (GPa) = 58.04613 55.53933 56.57628
#
# Poissons Ratio (x) = 0.49930 0.10115
# Poissons Ratio (y) = 0.52183 0.18299
# Poissons Ratio (z) = 0.10378 0.17964
#
# Static dielectric constant tensor:
#      x y z
#    x 2.940740 0.000000 0.205280 
#    y 0.000000 3.045760 0.000000 
#    z 0.205280 0.000000 2.266440 
# 
# 
# High freq. dielectric constant tensor:
#      x y z
#    x 1.640250 0.000000 -0.003630 
#    y 0.000000 1.643480 0.000000 
#    z -0.003630 0.000000 1.600440 
# 
# From -- ./inp_files/367051.got.cif
#   From: 2010.06.25/outbox.cif.g09.slc.cpg/sg12_184_cif.got.tgz:367051.got - 2010.06.28 00:19:55.
