data_PCOD8080562
_publ_section_title
;
Structure prediction by ZEFSAII (Michael W. Deem and Ramdas Pophale) SiO2 
 PCOD8080562
Probable space group: C 2/M
;
_chemical_formula_sum "Si O2"
_cell_formula_units_Z 64
_cell_length_a 31.701847
_cell_length_b 13.804389
_cell_length_c 20.486222
_cell_angle_alpha 90.000000
_cell_angle_beta 155.767426
_cell_angle_gamma 90.000000
_cell_volume 3679.721298
_symmetry_space_group_name_H-M "C 2/M"
_symmetry_group_IT_number 12
_symmetry_cell_setting 'monoclinic'
loop_
_space_group_symop_operation_xyz
x,y,z
-x,y,-z
-x,-y,-z
x,-y,z
1/2+x,1/2+y,z
1/2-x,1/2+y,-z
1/2-x,1/2-y,-z
1/2+x,1/2-y,z
loop_
_atom_site_type_symbol
_atom_site_label
_atom_site_fract_x
_atom_site_fract_y
_atom_site_fract_z
Si Si1 0.957142 0.391413 0.867458
Si Si2 0.916796 0.263379 0.052097
Si Si3 0.205654 0.204677 0.702672
Si Si4 0.153023 0.891737 0.757027
Si Si5 0.014549 0.238227 0.643820
Si Si6 0.480071 0.388368 0.720405
Si Si7 0.749017 0.610548 0.628476
Si Si8 0.877343 0.611747 0.119474
O O1 0.964194 0.500000 0.846050
O O2 0.838607 0.354603 0.705602
O O3 0.020172 0.311992 0.916945
O O4 0.000000 0.395617 0.000000
O O5 0.924662 0.339664 0.122093
O O6 0.966246 0.161607 0.142191
O O7 0.799720 0.235162 0.867047
O O8 0.177916 0.120293 0.715312
O O9 0.251434 0.163670 0.700820
O O10 0.102380 0.266710 0.541889
O O11 0.070048 0.811822 0.660783
O O12 0.108836 0.000000 0.704063
O O13 0.254187 0.877886 0.944618
O O14 0.075815 0.334862 0.750818
O O15 0.015396 0.159413 0.702638
O O16 0.513209 0.500000 0.764905
O O17 0.358701 0.375000 0.559940
O O18 0.770391 0.500000 0.676817
O O19 0.911282 0.500000 0.169860
#
# Coordination Sequence:
#
# PCOD8080562 Si02
#       8
#     8   8   8   8   8   8   8   8
#     4  10  18  28  48  76 101 122 150 192 241 291
#     4  10  19  32  50  73  97 125 157 194 237 282
#     4  10  19  30  46  71 100 126 155 195 240 280
#     4  10  19  30  49  74  98 124 156 197 240 281
#     4  10  19  32  50  71  96 126 160 194 234 282
#     4   9  19  34  50  68  96 129 161 195 232 276
#     4   9  17  30  48  72  97 123 155 194 241 285
#     4   9  19  34  51  70  96 126 156 195 238 280
#
# _framework density 17.392621999999999
#
# number of rings (size 3 to 8) (size 9 to 14) (size 15 to 20)
#    0.000    2.375    1.250    1.875    0.000    3.500 
#    0.000    0.625    0.000    1.875    0.000    0.000 
#    0.000    0.000    0.000    0.000    0.000    0.000 
#
# Total GULP energy -396669.154112 kJ/mol
# GULP energy per Si atom -12395.911066 kJ/mol
# Density = 1.735304 g / cm^3
# Si number density = 17.392622 Si / 1000 Ang^3
#
#
#
# Elastic Constant Matrix: (Units=GPa)
#
#
# Indices 1 2 3 4 5 6 
#
# 1 58.6084 19.6205 23.6236 0.0000 7.0038 0.0000
# 2 19.6205 75.5628 42.9825 0.0000 -0.1973 0.0000
# 3 23.6236 42.9825 103.1772 0.0000 3.4484 0.0000
# 4 0.0000 0.0000 0.0000 21.4090 0.0000 0.8855
# 5 7.0038 -0.1973 3.4484 0.0000 22.8134 0.0000
# 6 0.0000 0.0000 0.0000 0.8855 0.0000 15.8496
#
#
#
# Elastic Compliance Matrix: (Units=1/GPa)
#
#
# Indices 1 2 3 4 5 6 
#
# 1 0.020129 -0.003577 -0.002926 0.000000 -0.005768 0.000000
# 2 -0.003577 0.018015 -0.006762 0.000000 0.002276 0.000000
# 3 -0.002926 -0.006762 0.013218 0.000000 -0.001158 0.000000
# 4 0.000000 0.000000 0.000000 0.046818 0.000000 -0.002616
# 5 -0.005768 0.002276 -0.001158 0.000000 0.045799 0.000000
# 6 0.000000 0.000000 0.000000 -0.002616 0.000000 0.063239
#
#
# Mechanical properties :
#
#
# Convention : Reuss Voigt Hill
#
# Bulk Modulus (GPa) = 40.27141 45.53351 42.90246
# Shear Modulus (GPa) = 20.65904 22.08918 21.37411
#
# Velocity S-wave (km/s) = 3.45019 3.56762 3.50940
# Velocity P-wave (km/s) = 6.25111 6.57321 6.41418
#
# Compressibility (1/GPa) = 0.02483151
#
# Stress axis : x y z
#
# Youngs Moduli (GPa) = 49.68067 55.50840 75.65686
#
# Poissons Ratio (x) = 0.19858 0.22134
# Poissons Ratio (y) = 0.17773 0.51159
# Poissons Ratio (z) = 0.14534 0.37535
#
# Static dielectric constant tensor:
#      x y z
#    x 3.276670 0.000000 0.226710 
#    y 0.000000 2.997370 0.000000 
#    z 0.226710 0.000000 3.506100 
# 
# 
# High freq. dielectric constant tensor:
#      x y z
#    x 1.667840 0.000000 0.013770 
#    y 0.000000 1.636990 0.000000 
#    z 0.013770 0.000000 1.681680 
# 
# From -- ./inp_files/224806.got.cif
#   From: 2010.06.25/outbox.cif.g09.slc.cpg/sg12_113_cif.got.tgz:224806.got - 2010.06.28 00:19:55.
