data_PCOD8080004
_publ_section_title
;
Structure prediction by ZEFSAII (Michael W. Deem and Ramdas Pophale) SiO2 
 PCOD8080004
Probable space group: C 2/M
;
_chemical_formula_sum "Si O2"
_cell_formula_units_Z 56
_cell_length_a 20.829187
_cell_length_b 9.267809
_cell_length_c 22.741812
_cell_angle_alpha 90.000000
_cell_angle_beta 47.522675
_cell_angle_gamma 90.000000
_cell_volume 3237.895094
_symmetry_space_group_name_H-M "C 2/M"
_symmetry_group_IT_number 12
_symmetry_cell_setting 'monoclinic'
loop_
_space_group_symop_operation_xyz
x,y,z
-x,y,-z
-x,-y,-z
x,-y,z
1/2+x,1/2+y,z
1/2-x,1/2+y,-z
1/2-x,1/2-y,-z
1/2+x,1/2-y,z
loop_
_atom_site_type_symbol
_atom_site_label
_atom_site_fract_x
_atom_site_fract_y
_atom_site_fract_z
Si Si1 0.310343 0.671553 0.083978
Si Si2 0.054499 0.828737 0.097731
Si Si3 0.632903 0.666303 0.171041
Si Si4 0.556688 0.665634 0.341791
Si Si5 0.808728 0.330511 0.662443
Si Si6 0.931438 0.659868 0.489624
Si Si7 0.630918 0.329809 0.825332
O O1 0.299663 0.500000 0.090615
O O2 0.217380 0.739019 0.128965
O O3 0.346018 0.729654 0.124245
O O4 0.377069 0.725541 0.993048
O O5 0.084324 0.774427 0.143239
O O6 0.959566 0.761669 0.141594
O O7 0.048638 0.000000 0.100482
O O8 0.661520 0.500000 0.145668
O O9 0.565428 0.683001 0.266473
O O10 0.558666 0.500000 0.360411
O O11 0.637011 0.745883 0.322258
O O12 0.463369 0.731927 0.419072
O O13 0.824461 0.500000 0.664902
O O14 0.839971 0.291485 0.576523
O O15 0.707577 0.288429 0.732125
O O16 0.923073 0.500000 0.467246
O O17 0.000000 0.659806 0.500000
O O18 0.620237 0.500000 0.836586
#
# Coordination Sequence:
#
# PCOD8080004 Si02
#       7
#     8   8   8   8   8   8   8
#     4  10  18  30  52  74  90 116 158 202 235 265
#     4   9  18  31  47  70  96 122 155 194 232 273
#     4  10  20  32  46  67  98 129 154 185 230 281
#     4  10  18  27  42  65  92 123 154 182 221 273
#     4   9  16  28  46  69  92 115 147 190 235 269
#     4   8  15  26  42  65  92 116 144 188 233 268
#     4   9  16  28  49  73  94 117 153 197 234 269
#
# _framework density 17.295186999999999
#
# number of rings (size 3 to 8) (size 9 to 14) (size 15 to 20)
#    0.000    2.714    1.429    2.143    0.000    4.857 
#    0.000    0.000    0.000    5.143    0.000    0.000 
#    0.000    0.000    0.000    0.000    0.000    1.429 
#
# Total GULP energy -347084.178452 kJ/mol
# GULP energy per Si atom -12395.863516 kJ/mol
# Density = 1.725582 g / cm^3
# Si number density = 17.295187 Si / 1000 Ang^3
#
#
#
# Elastic Constant Matrix: (Units=GPa)
#
#
# Indices 1 2 3 4 5 6 
#
# 1 107.8539 26.5377 64.6407 0.0000 -0.8160 0.0001
# 2 26.5377 43.5915 41.2455 0.0001 0.5116 0.0003
# 3 64.6407 41.2455 158.4230 0.0000 -0.0547 0.0000
# 4 0.0000 0.0001 0.0000 19.1253 0.0000 1.7728
# 5 -0.8160 0.5116 -0.0547 0.0000 9.3106 0.0000
# 6 0.0001 0.0003 0.0000 1.7728 0.0000 13.3221
#
#
#
# Elastic Compliance Matrix: (Units=1/GPa)
#
#
# Indices 1 2 3 4 5 6 
#
# 1 0.012737 -0.003785 -0.004211 0.000000 0.001299 0.000000
# 2 -0.003785 0.031591 -0.006681 0.000000 -0.002107 -0.000001
# 3 -0.004211 -0.006681 0.009770 0.000000 0.000055 0.000000
# 4 0.000000 0.000000 0.000000 0.052940 0.000000 -0.007045
# 5 0.001299 -0.002107 0.000055 0.000000 0.107634 0.000000
# 6 0.000000 -0.000001 0.000000 -0.007045 0.000000 0.076001
#
#
# Mechanical properties :
#
#
# Convention : Reuss Voigt Hill
#
# Bulk Modulus (GPa) = 40.41481 63.85737 52.13609
# Shear Modulus (GPa) = 15.23119 20.18123 17.70621
#
# Velocity S-wave (km/s) = 2.97081 3.41965 3.20310
# Velocity P-wave (km/s) = 5.93178 7.25219 6.62496
#
# Compressibility (1/GPa) = 0.02474341
#
# Stress axis : x y z
#
# Youngs Moduli (GPa) = 78.51301 31.65505 102.35505
#
# Poissons Ratio (x) = 0.11980 0.43103
# Poissons Ratio (y) = 0.29714 0.68385
# Poissons Ratio (z) = 0.33063 0.21149
#
# Static dielectric constant tensor:
#      x y z
#    x 3.112730 0.000000 -0.003260 
#    y 0.000000 2.974630 0.000000 
#    z -0.003260 0.000000 3.749400 
# 
# 
# High freq. dielectric constant tensor:
#      x y z
#    x 1.633150 0.000000 0.000990 
#    y 0.000000 1.636140 0.000000 
#    z 0.000990 0.000000 1.690990 
# 
# From -- ./inp_files/280144.got.cif
#   From: 2010.06.25/outbox.cif.g09.slc.cpg/sg12_141_cif.got.tgz:280144.got - 2010.06.28 00:19:55.
