data_PCOD8080454
_publ_section_title
;
Structure prediction by ZEFSAII (Michael W. Deem and Ramdas Pophale) SiO2 
 PCOD8080454
Probable space group: C 2/M
;
_chemical_formula_sum "Si O2"
_cell_formula_units_Z 64
_cell_length_a 25.031462
_cell_length_b 8.979937
_cell_length_c 23.223882
_cell_angle_alpha 90.000000
_cell_angle_beta 47.330062
_cell_angle_gamma 90.000000
_cell_volume 3838.321533
_symmetry_space_group_name_H-M "C 2/M"
_symmetry_group_IT_number 12
_symmetry_cell_setting 'monoclinic'
loop_
_space_group_symop_operation_xyz
x,y,z
-x,y,-z
-x,-y,-z
x,-y,z
1/2+x,1/2+y,z
1/2-x,1/2+y,-z
1/2-x,1/2-y,-z
1/2+x,1/2-y,z
loop_
_atom_site_type_symbol
_atom_site_label
_atom_site_fract_x
_atom_site_fract_y
_atom_site_fract_z
Si Si1 0.284247 0.326318 0.920134
Si Si2 0.948597 0.823911 0.803984
Si Si3 0.664236 0.827506 0.918539
Si Si4 0.076130 0.325134 0.657853
Si Si5 0.383387 0.674003 0.158064
Si Si6 0.975941 0.325295 0.904275
Si Si7 0.321760 0.327479 0.324801
Si Si8 0.800321 0.671161 0.508016
O O1 0.281311 0.500000 0.935260
O O2 0.366653 0.271319 0.850861
O O3 0.239081 0.286940 0.895998
O O4 0.250000 0.250000 0.000000
O O5 0.977400 0.758737 0.842787
O O6 0.999404 0.760654 0.715857
O O7 0.955460 0.000000 0.801631
O O8 0.661923 0.725469 0.864061
O O9 0.661088 0.000000 0.902627
O O10 0.598490 0.787786 0.009121
O O11 0.060967 0.500000 0.674543
O O12 0.126302 0.274643 0.674600
O O13 0.115851 0.282709 0.567352
O O14 0.401469 0.500000 0.140589
O O15 0.458404 0.765142 0.104735
O O16 0.333665 0.711887 0.249565
O O17 0.985330 0.500000 0.886614
O O18 0.341663 0.500000 0.322629
O O19 0.235359 0.297395 0.402893
O O20 0.794853 0.500000 0.496319
O O21 0.750000 0.750000 0.500000
#
# Coordination Sequence:
#
# PCOD8080454 Si02
#       8
#     8   8   8   8   8   8   8   8
#     4  10  21  37  55  73  94 125 164 207 253 294
#     4  11  21  32  50  74 100 129 161 202 250 293
#     4  10  22  38  52  69  95 129 167 206 247 288
#     4  10  18  28  46  71  98 129 164 196 237 292
#     4  11  22  33  49  74 102 132 165 200 241 291
#     4  11  21  34  52  71  97 131 166 203 243 288
#     4   9  17  30  46  67  99 131 160 197 242 286
#     4   8  15  27  43  65  94 128 160 193 234 287
#
# _framework density 16.673954999999999
#
# number of rings (size 3 to 8) (size 9 to 14) (size 15 to 20)
#    0.000    2.000    2.500    1.875    0.000    4.500 
#    0.000    0.000    0.000    0.000    0.000    0.875 
#    0.000    7.000    0.000    0.000    0.000    0.000 
#
# Total GULP energy -396630.463508 kJ/mol
# GULP energy per Si atom -12394.701985 kJ/mol
# Density = 1.663600 g / cm^3
# Si number density = 16.673955 Si / 1000 Ang^3
#
#
#
# Elastic Constant Matrix: (Units=GPa)
#
#
# Indices 1 2 3 4 5 6 
#
# 1 72.8422 24.6955 41.1543 0.0005 -17.0147 0.0008
# 2 24.6955 55.2505 42.3592 0.0019 -8.8186 -0.0025
# 3 41.1543 42.3592 119.5182 0.0012 -25.6083 0.0006
# 4 0.0005 0.0019 0.0012 24.4859 -0.0002 -0.8762
# 5 -17.0147 -8.8186 -25.6083 -0.0002 18.9653 0.0005
# 6 0.0008 -0.0025 0.0006 -0.8762 0.0005 21.0869
#
#
#
# Elastic Compliance Matrix: (Units=1/GPa)
#
#
# Indices 1 2 3 4 5 6 
#
# 1 0.019582 -0.004997 -0.002400 0.000000 0.012004 -0.000002
# 2 -0.004997 0.026130 -0.008299 -0.000001 -0.003538 0.000004
# 3 -0.002400 -0.008299 0.015262 0.000000 0.014596 -0.000002
# 4 0.000000 -0.000001 0.000000 0.040901 0.000000 0.001700
# 5 0.012004 -0.003538 0.014596 0.000000 0.081560 -0.000003
# 6 -0.000002 0.000004 -0.000002 0.001700 -0.000003 0.047493
#
#
# Mechanical properties :
#
#
# Convention : Reuss Voigt Hill
#
# Bulk Modulus (GPa) = 33.80202 51.55877 42.68039
# Shear Modulus (GPa) = 18.37016 22.20109 20.28562
#
# Velocity S-wave (km/s) = 3.32283 3.65291 3.49177
# Velocity P-wave (km/s) = 5.91929 6.98430 6.47373
#
# Compressibility (1/GPa) = 0.02958403
#
# Stress axis : x y z
#
# Youngs Moduli (GPa) = 51.06678 38.26958 65.52332
#
# Poissons Ratio (x) = 0.19123 0.15724
# Poissons Ratio (y) = 0.25517 0.54375
# Poissons Ratio (z) = 0.12255 0.31758
#
# Static dielectric constant tensor:
#      x y z
#    x 2.933240 0.000000 -0.202750 
#    y 0.000000 3.164850 0.000000 
#    z -0.202750 0.000000 3.732520 
# 
# 
# High freq. dielectric constant tensor:
#      x y z
#    x 1.598740 0.000000 -0.013480 
#    y 0.000000 1.652000 0.000000 
#    z -0.013480 0.000000 1.656950 
# 
# From -- ./inp_files/287766.got.cif
#   From: 2010.06.25/outbox.cif.g09.slc.cpg/sg12_144_cif.got.tgz:287766.got - 2010.06.28 00:19:55.
