data_PCOD8080788
_publ_section_title
;
Structure prediction by ZEFSAII (Michael W. Deem and Ramdas Pophale) SiO2 
 PCOD8080788
Probable space group: C 2/M
;
_chemical_formula_sum "Si O2"
_cell_formula_units_Z 64
_cell_length_a 20.636918
_cell_length_b 9.091106
_cell_length_c 20.514993
_cell_angle_alpha 90.000000
_cell_angle_beta 73.316791
_cell_angle_gamma 90.000000
_cell_volume 3686.855608
_symmetry_space_group_name_H-M "C 2/M"
_symmetry_group_IT_number 12
_symmetry_cell_setting 'monoclinic'
loop_
_space_group_symop_operation_xyz
x,y,z
-x,y,-z
-x,-y,-z
x,-y,z
1/2+x,1/2+y,z
1/2-x,1/2+y,-z
1/2-x,1/2-y,-z
1/2+x,1/2-y,z
loop_
_atom_site_type_symbol
_atom_site_label
_atom_site_fract_x
_atom_site_fract_y
_atom_site_fract_z
Si Si1 0.308326 0.675441 0.294292
Si Si2 0.104724 0.825790 0.849187
Si Si3 0.574167 0.325597 0.994193
Si Si4 0.926608 0.674808 0.502626
Si Si5 0.056131 0.673683 0.268774
Si Si6 0.547294 0.673684 0.140338
Si Si7 0.156000 0.674880 0.351713
Si Si8 0.908805 0.326161 0.361199
O O1 0.312236 0.500000 0.297780
O O2 0.339732 0.736035 0.217173
O O3 0.231766 0.734166 0.319768
O O4 0.348976 0.742067 0.342632
O O5 0.030266 0.775479 0.847834
O O6 0.107490 0.000000 0.847476
O O7 0.120682 0.770356 0.919547
O O8 0.572396 0.500000 0.994053
O O9 0.592112 0.276976 0.063308
O O10 0.500000 0.264497 0.000000
O O11 0.930946 0.500000 0.503069
O O12 0.872012 0.733077 0.570848
O O13 0.905401 0.727245 0.436991
O O14 0.000000 0.739902 0.500000
O O15 0.061752 0.500000 0.260673
O O16 0.077477 0.744574 0.194017
O O17 0.108158 0.734377 0.307795
O O18 0.980683 0.721807 0.310460
O O19 0.551827 0.500000 0.150607
O O20 0.154909 0.500000 0.351185
O O21 0.898059 0.500000 0.357815
#
# Coordination Sequence:
#
# PCOD8080788 Si02
#       8
#     8   8   8   8   8   8   8   8
#     4  10  19  31  48  70  96 120 146 187 234 273
#     4   8  13  23  41  65  90 116 146 183 224 262
#     4   7  11  20  37  62  88 113 146 185 216 254
#     4   9  15  28  49  69  89 118 157 191 216 257
#     4  10  18  29  46  68  92 118 152 190 224 264
#     4   9  15  25  44  68  90 114 149 190 226 262
#     4   9  18  31  47  68  91 120 157 189 220 265
#     4  10  19  30  49  71  90 118 155 190 223 265
#
# _framework density 17.358965999999999
#
# number of rings (size 3 to 8) (size 9 to 14) (size 15 to 20)
#    0.000    3.000    2.500    1.500    0.000    0.500 
#    0.000    0.625    0.000    6.000    0.000    0.000 
#    0.000    0.000    0.000    0.000    0.000    0.000 
#
# Total GULP energy -396452.250437 kJ/mol
# GULP energy per Si atom -12389.132826 kJ/mol
# Density = 1.731946 g / cm^3
# Si number density = 17.358966 Si / 1000 Ang^3
#
#
#
# Elastic Constant Matrix: (Units=GPa)
#
#
# Indices 1 2 3 4 5 6 
#
# 1 97.0610 15.3189 63.9468 0.0000 -0.2403 0.0000
# 2 15.3189 12.8159 21.0545 -0.0001 3.4064 -0.0001
# 3 63.9468 21.0545 194.0244 0.0000 -1.0429 0.0000
# 4 0.0000 -0.0001 0.0000 23.1094 0.0000 6.3154
# 5 -0.2403 3.4064 -1.0429 0.0000 23.9221 0.0000
# 6 0.0000 -0.0001 0.0000 6.3154 0.0000 13.7269
#
#
#
# Elastic Compliance Matrix: (Units=1/GPa)
#
#
# Indices 1 2 3 4 5 6 
#
# 1 0.014493 -0.012107 -0.003454 0.000000 0.001719 0.000000
# 2 -0.012107 0.109982 -0.008031 0.000000 -0.016133 0.000000
# 3 -0.003454 -0.008031 0.007171 0.000000 0.001422 0.000000
# 4 0.000000 0.000000 0.000000 0.049496 0.000000 -0.022772
# 5 0.001719 -0.016133 0.001422 0.000000 0.044179 0.000000
# 6 0.000000 0.000000 0.000000 -0.022772 0.000000 0.083326
#
#
# Mechanical properties :
#
#
# Convention : Reuss Voigt Hill
#
# Bulk Modulus (GPa) = 11.83953 56.06020 33.94986
# Shear Modulus (GPa) = 13.02135 25.72373 19.37254
#
# Velocity S-wave (km/s) = 2.74181 3.85368 3.34428
# Velocity P-wave (km/s) = 4.10592 7.22260 5.87471
#
# Compressibility (1/GPa) = 0.08446281
#
# Stress axis : x y z
#
# Youngs Moduli (GPa) = 68.99760 9.09243 139.44280
#
# Poissons Ratio (x) = 0.11008 0.48159
# Poissons Ratio (y) = 0.83535 1.11988
# Poissons Ratio (z) = 0.23830 0.07302
#
# Static dielectric constant tensor:
#      x y z
#    x 3.107010 0.000000 -0.179940 
#    y 0.000000 2.662170 0.000000 
#    z -0.179940 0.000000 3.866620 
# 
# 
# High freq. dielectric constant tensor:
#      x y z
#    x 1.637490 0.000000 -0.003260 
#    y 0.000000 1.612570 0.000000 
#    z -0.003260 0.000000 1.699730 
# 
# From -- ./inp_files/282570.got.cif
#   From: 2010.06.25/outbox.cif.g09.slc.cpg/sg12_142_cif.got.tgz:282570.got - 2010.06.28 00:19:55.
