data_PCOD8080193
_publ_section_title
;
Structure prediction by ZEFSAII (Michael W. Deem and Ramdas Pophale) SiO2 
 PCOD8080193
Probable space group: C 2/M
;
_chemical_formula_sum "Si O2"
_cell_formula_units_Z 56
_cell_length_a 18.014902
_cell_length_b 13.827491
_cell_length_c 13.231109
_cell_angle_alpha 90.000000
_cell_angle_beta 76.746059
_cell_angle_gamma 90.000000
_cell_volume 3208.090331
_symmetry_space_group_name_H-M "C 2/M"
_symmetry_group_IT_number 12
_symmetry_cell_setting 'monoclinic'
loop_
_space_group_symop_operation_xyz
x,y,z
-x,y,-z
-x,-y,-z
x,-y,z
1/2+x,1/2+y,z
1/2-x,1/2+y,-z
1/2-x,1/2-y,-z
1/2+x,1/2-y,z
loop_
_atom_site_type_symbol
_atom_site_label
_atom_site_fract_x
_atom_site_fract_y
_atom_site_fract_z
Si Si1 0.826405 0.608718 0.638570
Si Si2 0.254261 0.295837 0.709681
Si Si3 0.033085 0.734135 0.385184
Si Si4 0.379670 0.610314 0.766820
Si Si5 0.501581 0.612349 0.886671
Si Si6 0.602425 0.273393 0.701785
Si Si7 0.205909 0.110448 0.512937
O O1 0.819257 0.500000 0.685050
O O2 0.778852 0.684063 0.722516
O O3 0.915397 0.639050 0.612027
O O4 0.790200 0.612966 0.537309
O O5 0.289289 0.361332 0.789947
O O6 0.162563 0.301215 0.734307
O O7 0.290272 0.329911 0.591615
O O8 0.081295 0.824066 0.329944
O O9 0.000000 0.771744 0.500000
O O10 0.963997 0.710081 0.329808
O O11 0.391504 0.500000 0.731399
O O12 0.417571 0.629850 0.864122
O O13 0.522543 0.500000 0.883863
O O14 0.567446 0.661698 0.801170
O O15 0.500000 0.656351 0.000000
O O16 0.644045 0.341478 0.606772
O O17 0.181244 0.000000 0.498837
#
# Coordination Sequence:
#
# PCOD8080193 Si02
#       7
#     8   8   8   8   8   8   8
#     4   9  18  30  41  56  85 127 162 184 213 254
#     4  10  18  30  46  68  97 123 150 186 225 273
#     4  10  18  28  42  63  92 122 154 189 220 263
#     4   9  18  31  47  66  91 120 146 181 232 280
#     4   9  18  33  51  69  89 115 152 198 239 272
#     4  10  18  29  46  69  94 121 155 189 226 270
#     4  10  18  29  47  68  95 127 154 185 225 270
#
# _framework density 17.455867999999999
#
# number of rings (size 3 to 8) (size 9 to 14) (size 15 to 20)
#    0.000    2.429    0.000    5.143    0.000    1.714 
#    0.000    2.143    0.000    0.000    0.000    0.000 
#    0.000   53.143    0.000    0.000    0.000    0.000 
#
# Total GULP energy -346976.286235 kJ/mol
# GULP energy per Si atom -12392.010223 kJ/mol
# Density = 1.741614 g / cm^3
# Si number density = 17.455868 Si / 1000 Ang^3
#
#
#
# Elastic Constant Matrix: (Units=GPa)
#
#
# Indices 1 2 3 4 5 6 
#
# 1 144.1278 35.5980 36.9754 0.0000 11.3792 0.0000
# 2 35.5980 74.0843 15.3258 0.0000 7.5566 0.0000
# 3 36.9754 15.3258 67.5222 0.0000 11.1381 0.0000
# 4 0.0000 0.0000 0.0000 13.0941 0.0000 5.3796
# 5 11.3792 7.5566 11.1381 0.0000 17.6872 0.0000
# 6 0.0000 0.0000 0.0000 5.3796 0.0000 23.5925
#
#
#
# Elastic Compliance Matrix: (Units=1/GPa)
#
#
# Indices 1 2 3 4 5 6 
#
# 1 0.008875 -0.003283 -0.003799 0.000000 -0.001915 0.000000
# 2 -0.003283 0.015705 -0.001125 0.000000 -0.003889 0.000000
# 3 -0.003799 -0.001125 0.018595 0.000000 -0.008785 0.000000
# 4 0.000000 0.000000 0.000000 0.084264 0.000000 -0.019214
# 5 -0.001915 -0.003889 -0.008785 0.000000 0.064964 0.000000
# 6 0.000000 0.000000 0.000000 -0.019214 0.000000 0.046768
#
#
# Mechanical properties :
#
#
# Convention : Reuss Voigt Hill
#
# Bulk Modulus (GPa) = 37.36911 51.28143 44.32527
# Shear Modulus (GPa) = 18.90321 24.06376 21.48349
#
# Velocity S-wave (km/s) = 3.29434 3.71691 3.51198
# Velocity P-wave (km/s) = 5.99370 6.91824 6.47250
#
# Compressibility (1/GPa) = 0.02676007
#
# Stress axis : x y z
#
# Youngs Moduli (GPa) = 112.67604 63.67298 53.77868
#
# Poissons Ratio (x) = 0.20906 0.20430
# Poissons Ratio (y) = 0.36995 0.06051
# Poissons Ratio (z) = 0.42804 0.07165
#
# Static dielectric constant tensor:
#      x y z
#    x 3.870250 0.000000 0.205200 
#    y 0.000000 3.252170 0.000000 
#    z 0.205200 0.000000 2.853330 
# 
# 
# High freq. dielectric constant tensor:
#      x y z
#    x 1.698660 0.000000 0.016400 
#    y 0.000000 1.662930 0.000000 
#    z 0.016400 0.000000 1.618060 
# 
# From -- ./inp_files/224292.got.cif
#   From: 2010.06.25/outbox.cif.g09.slc.cpg/sg12_113_cif.got.tgz:224292.got - 2010.06.28 00:19:55.
