data_PCOD8080996
_publ_section_title
;
Structure prediction by ZEFSAII (Michael W. Deem and Ramdas Pophale) SiO2 
 PCOD8080996
Probable space group: C 2/M
;
_chemical_formula_sum "Si O2"
_cell_formula_units_Z 64
_cell_length_a 17.613967
_cell_length_b 16.038342
_cell_length_c 18.386869
_cell_angle_alpha 90.000000
_cell_angle_beta 141.770451
_cell_angle_gamma 90.000000
_cell_volume 3214.284255
_symmetry_space_group_name_H-M "C 2/M"
_symmetry_group_IT_number 12
_symmetry_cell_setting 'monoclinic'
loop_
_space_group_symop_operation_xyz
x,y,z
-x,y,-z
-x,-y,-z
x,-y,z
1/2+x,1/2+y,z
1/2-x,1/2+y,-z
1/2-x,1/2-y,-z
1/2+x,1/2-y,z
loop_
_atom_site_type_symbol
_atom_site_label
_atom_site_fract_x
_atom_site_fract_y
_atom_site_fract_z
Si Si1 0.477279 0.901116 0.317314
Si Si2 0.624543 0.181171 0.626880
Si Si3 0.232647 0.403469 0.582504
Si Si4 0.622217 0.363560 0.565346
Si Si5 0.551801 0.598735 0.359135
Si Si6 0.064953 0.598657 0.877775
Si Si7 0.351107 0.908031 0.813508
Si Si8 0.774129 0.901404 0.138301
O O1 0.377395 0.849873 0.290841
O O2 0.617032 0.877861 0.444483
O O3 0.454469 0.867490 0.218222
O O4 0.452045 0.000000 0.305450
O O5 0.500000 0.142450 0.500000
O O6 0.734612 0.142605 0.662002
O O7 0.629076 0.280119 0.619741
O O8 0.226235 0.500000 0.594569
O O9 0.361437 0.378782 0.642905
O O10 0.500000 0.412642 0.500000
O O11 0.608796 0.349152 0.469191
O O12 0.742467 0.416652 0.672459
O O13 0.556265 0.500000 0.380026
O O14 0.413937 0.631479 0.238856
O O15 0.043412 0.500000 0.859851
O O16 0.965308 0.638075 0.859779
O O17 0.201021 0.621838 0.009473
O O18 0.300012 0.862478 0.848025
O O19 0.395505 0.000000 0.869562
O O20 0.780593 0.000000 0.154597
#
# Coordination Sequence:
#
# PCOD8080996 Si02
#       8
#     8   8   8   8   8   8   8   8
#     4   9  16  30  52  75  98 123 156 204 251 285
#     4   9  19  32  48  72  96 129 160 200 246 288
#     4   9  17  31  51  76 100 121 154 199 250 300
#     4  11  20  30  45  71  99 133 162 193 237 291
#     4  10  19  30  47  73 104 133 159 193 238 291
#     4   9  17  29  49  77  99 120 161 207 241 281
#     4  10  18  29  48  73 101 130 161 199 241 285
#     4   9  17  29  46  72 103 131 158 195 240 284
#
# _framework density 19.911121000000001
#
# number of rings (size 3 to 8) (size 9 to 14) (size 15 to 20)
#    0.000    2.500    1.250    1.875    0.000    6.000 
#    0.000    1.250    0.000    1.500    3.250    4.375 
#    0.000    0.000    0.000    0.000    0.000    0.000 
#
# Total GULP energy -396505.579044 kJ/mol
# GULP energy per Si atom -12390.799345 kJ/mol
# Density = 1.986580 g / cm^3
# Si number density = 19.911121 Si / 1000 Ang^3
#
#
#
# Elastic Constant Matrix: (Units=GPa)
#
#
# Indices 1 2 3 4 5 6 
#
# 1 153.7207 26.4404 59.1050 0.0000 -11.3381 0.0000
# 2 26.4404 28.1002 8.3486 0.0000 -0.3157 0.0000
# 3 59.1050 8.3486 108.2533 0.0001 -2.2249 0.0001
# 4 0.0000 0.0000 0.0001 8.5902 0.0000 -1.9252
# 5 -11.3381 -0.3157 -2.2249 0.0000 21.2578 0.0000
# 6 0.0000 0.0000 0.0001 -1.9252 0.0000 14.5875
#
#
#
# Elastic Compliance Matrix: (Units=1/GPa)
#
#
# Indices 1 2 3 4 5 6 
#
# 1 0.010072 -0.008002 -0.004784 0.000000 0.004752 0.000000
# 2 -0.008002 0.042780 0.000997 0.000000 -0.003528 0.000000
# 3 -0.004784 0.000997 0.011746 0.000000 -0.001308 0.000000
# 4 0.000000 0.000000 0.000000 0.119959 0.000000 0.015832
# 5 0.004752 -0.003528 -0.001308 0.000000 0.049387 0.000000
# 6 0.000000 0.000000 0.000000 0.015832 0.000000 0.070641
#
#
# Mechanical properties :
#
#
# Convention : Reuss Voigt Hill
#
# Bulk Modulus (GPa) = 24.37836 53.09581 38.73709
# Shear Modulus (GPa) = 14.62685 21.96579 18.29632
#
# Velocity S-wave (km/s) = 2.71330 3.32504 3.03462
# Velocity P-wave (km/s) = 4.69960 6.43937 5.63701
#
# Compressibility (1/GPa) = 0.04101998
#
# Stress axis : x y z
#
# Youngs Moduli (GPa) = 99.28799 23.37520 85.13573
#
# Poissons Ratio (x) = 0.18705 0.40731
# Poissons Ratio (y) = 0.79450 -0.08490
# Poissons Ratio (z) = 0.47502 -0.02331
#
# Static dielectric constant tensor:
#      x y z
#    x 3.889930 0.000000 0.029050 
#    y 0.000000 3.104170 0.000000 
#    z 0.029050 0.000000 3.523670 
# 
# 
# High freq. dielectric constant tensor:
#      x y z
#    x 1.787660 0.000000 -0.002030 
#    y 0.000000 1.726150 0.000000 
#    z -0.002030 0.000000 1.753970 
# 
# From -- ./inp_files/278924.got.cif
#   From: 2010.06.25/outbox.cif.g09.slc.cpg/sg12_140_cif.got.tgz:278924.got - 2010.06.28 00:19:55.
