data_PCOD8080880
_publ_section_title
;
Structure prediction by ZEFSAII (Michael W. Deem and Ramdas Pophale) SiO2 
 PCOD8080880
Probable space group: C 2/M
;
_chemical_formula_sum "Si O2"
_cell_formula_units_Z 64
_cell_length_a 25.440634
_cell_length_b 13.015724
_cell_length_c 22.999231
_cell_angle_alpha 90.000000
_cell_angle_beta 150.505272
_cell_angle_gamma 90.000000
_cell_volume 3749.538016
_symmetry_space_group_name_H-M "C 2/M"
_symmetry_group_IT_number 12
_symmetry_cell_setting 'monoclinic'
loop_
_space_group_symop_operation_xyz
x,y,z
-x,y,-z
-x,-y,-z
x,-y,z
1/2+x,1/2+y,z
1/2-x,1/2+y,-z
1/2-x,1/2-y,-z
1/2+x,1/2-y,z
loop_
_atom_site_type_symbol
_atom_site_label
_atom_site_fract_x
_atom_site_fract_y
_atom_site_fract_z
Si Si1 0.778777 0.881009 0.242136
Si Si2 0.773567 0.779862 0.587711
Si Si3 0.498473 0.759132 0.209263
Si Si4 0.148751 0.381255 0.008272
Si Si5 0.439270 0.118938 0.616450
Si Si6 0.025679 0.801476 0.631590
Si Si7 0.200804 0.118054 0.608704
Si Si8 0.365437 0.383639 0.154581
O O1 0.878118 0.807035 0.321824
O O2 0.744472 0.862454 0.275661
O O3 0.813592 0.000000 0.265213
O O4 0.678897 0.854384 0.104091
O O5 0.750000 0.750000 0.500000
O O6 0.898939 0.809914 0.711578
O O7 0.687911 0.868695 0.520763
O O8 0.759576 0.682176 0.615984
O O9 0.455611 0.819004 0.111512
O O10 0.532217 0.840062 0.291798
O O11 0.402785 0.685620 0.136998
O O12 0.120584 0.500000 0.974847
O O13 0.247584 0.351170 0.061615
O O14 0.506110 0.183518 0.632981
O O15 0.471291 0.000000 0.642137
O O16 0.051623 0.870320 0.712852
O O17 0.921852 0.849634 0.502207
O O18 0.210714 0.000000 0.599752
O O19 0.366806 0.500000 0.134222
#
# Coordination Sequence:
#
# PCOD8080880 Si02
#       8
#     8   8   8   8   8   8   8   8
#     4   9  17  29  47  71  96 124 154 187 231 275
#     4   9  20  32  44  66  90 117 153 189 231 272
#     4  10  18  30  47  67  91 127 161 188 231 279
#     4   9  17  29  45  67  96 124 150 186 230 277
#     4   9  18  31  46  67  94 122 155 194 233 277
#     4   9  16  27  46  70  95 122 152 187 234 282
#     4  10  18  29  47  70  95 122 154 191 229 277
#     4   9  17  28  44  70  98 121 152 193 234 277
#
# _framework density 17.068770000000001
#
# number of rings (size 3 to 8) (size 9 to 14) (size 15 to 20)
#    0.000    2.750    0.000    3.750    0.000    4.000 
#    0.000    0.625    0.000    8.250    0.000    0.000 
#    0.000    5.000    0.000    0.000    0.000    0.000 
#
# Total GULP energy -396619.782224 kJ/mol
# GULP energy per Si atom -12394.368194 kJ/mol
# Density = 1.702992 g / cm^3
# Si number density = 17.068770 Si / 1000 Ang^3
#
#
#
# Elastic Constant Matrix: (Units=GPa)
#
#
# Indices 1 2 3 4 5 6 
#
# 1 70.9171 28.3528 21.2579 0.0000 -12.6392 0.0000
# 2 28.3528 66.4924 19.6307 0.0000 -4.1650 0.0000
# 3 21.2579 19.6307 80.7619 0.0000 -8.6321 0.0000
# 4 0.0000 0.0000 0.0000 22.6945 0.0000 -2.7328
# 5 -12.6392 -4.1650 -8.6321 0.0000 19.6536 0.0000
# 6 0.0000 0.0000 0.0000 -2.7328 0.0000 18.3924
#
#
#
# Elastic Compliance Matrix: (Units=1/GPa)
#
#
# Indices 1 2 3 4 5 6 
#
# 1 0.019349 -0.006935 -0.002344 0.000000 0.009944 0.000000
# 2 -0.006935 0.018748 -0.002921 0.000000 -0.001770 0.000000
# 3 -0.002344 -0.002921 0.014146 0.000000 0.004086 0.000000
# 4 0.000000 0.000000 0.000000 0.044866 0.000000 0.006666
# 5 0.009944 -0.001770 0.004086 0.000000 0.058696 0.000000
# 6 0.000000 0.000000 0.000000 0.006666 0.000000 0.055361
#
#
# Mechanical properties :
#
#
# Convention : Reuss Voigt Hill
#
# Bulk Modulus (GPa) = 35.91732 39.62824 37.77278
# Shear Modulus (GPa) = 20.42090 22.07676 21.24883
#
# Velocity S-wave (km/s) = 3.46264 3.60029 3.53213
# Velocity P-wave (km/s) = 6.08891 6.36789 6.22996
#
# Compressibility (1/GPa) = 0.02784172
#
# Stress axis : x y z
#
# Youngs Moduli (GPa) = 51.68295 53.33883 70.69213
#
# Poissons Ratio (x) = 0.36993 0.16572
# Poissons Ratio (y) = 0.35844 0.20647
# Poissons Ratio (z) = 0.12116 0.15579
#
# Static dielectric constant tensor:
#      x y z
#    x 3.085860 0.000000 0.037700 
#    y 0.000000 2.986050 0.000000 
#    z 0.037700 0.000000 3.321800 
# 
# 
# High freq. dielectric constant tensor:
#      x y z
#    x 1.641450 0.000000 -0.001710 
#    y 0.000000 1.631070 0.000000 
#    z -0.001710 0.000000 1.659080 
# 
# From -- ./inp_files/349396.got.cif
#   From: 2010.06.25/outbox.cif.g09.slc.cpg/sg12_175_cif.got.tgz:349396.got - 2010.06.28 00:19:55.
