data_PCOD8080247
_publ_section_title
;
Structure prediction by ZEFSAII (Michael W. Deem and Ramdas Pophale) SiO2 
 PCOD8080247
Probable space group: C 2/M
;
_chemical_formula_sum "Si O2"
_cell_formula_units_Z 64
_cell_length_a 28.153326
_cell_length_b 9.662035
_cell_length_c 14.535350
_cell_angle_alpha 90.000000
_cell_angle_beta 108.111111
_cell_angle_gamma 90.000000
_cell_volume 3757.989671
_symmetry_space_group_name_H-M "C 2/M"
_symmetry_group_IT_number 12
_symmetry_cell_setting 'monoclinic'
loop_
_space_group_symop_operation_xyz
x,y,z
-x,y,-z
-x,-y,-z
x,-y,z
1/2+x,1/2+y,z
1/2-x,1/2+y,-z
1/2-x,1/2-y,-z
1/2+x,1/2-y,z
loop_
_atom_site_type_symbol
_atom_site_label
_atom_site_fract_x
_atom_site_fract_y
_atom_site_fract_z
Si Si1 0.803634 0.161436 0.436273
Si Si2 0.492576 0.337473 0.888584
Si Si3 0.340822 0.662158 0.268326
Si Si4 0.754080 0.843799 0.090099
Si Si5 0.856377 0.653480 0.969385
Si Si6 0.404544 0.338967 0.142122
Si Si7 0.188994 0.339939 0.383004
Si Si8 0.400589 0.839458 0.804606
O O1 0.837515 0.218039 0.370913
O O2 0.821638 0.248511 0.533921
O O3 0.744928 0.187546 0.378570
O O4 0.813286 0.000000 0.462940
O O5 0.481261 0.500000 0.875253
O O6 0.540391 0.294172 0.855793
O O7 0.448262 0.255423 0.810695
O O8 0.500000 0.293931 0.000000
O O9 0.332069 0.500000 0.271940
O O10 0.294049 0.723277 0.183400
O O11 0.392332 0.695511 0.242994
O O12 0.699705 0.843723 0.104602
O O13 0.770009 0.000000 0.071649
O O14 0.750000 0.750000 0.000000
O O15 0.869148 0.500000 0.014777
O O16 0.891645 0.691675 0.906153
O O17 0.863510 0.760996 0.056176
O O18 0.396317 0.500000 0.118072
O O19 0.182709 0.500000 0.406491
O O20 0.147862 0.295157 0.283153
O O21 0.413587 0.000000 0.794934
#
# Coordination Sequence:
#
# PCOD8080247 Si02
#       8
#     8   8   8   8   8   8   8   8
#     4   9  17  32  54  76  99 128 162 198 240 296
#     4  10  20  33  49  71  99 129 167 212 250 284
#     4   9  17  30  49  69  94 131 165 192 236 293
#     4  10  18  28  43  65  95 128 160 192 228 278
#     4  10  19  29  44  69  97 126 162 199 233 282
#     4  10  19  32  48  67  95 131 164 197 240 286
#     4   9  18  33  52  76 102 126 157 202 250 292
#     4  10  20  33  51  72  98 131 164 202 250 299
#
# _framework density 17.030383
#
# number of rings (size 3 to 8) (size 9 to 14) (size 15 to 20)
#    0.000    2.375    2.500    0.750    0.000    4.250 
#    0.000    1.250    0.000    3.750    0.000    5.250 
#    0.000    0.000    0.000    0.000    0.000    0.000 
#
# Total GULP energy -396585.980996 kJ/mol
# GULP energy per Si atom -12393.311906 kJ/mol
# Density = 1.699162 g / cm^3
# Si number density = 17.030383 Si / 1000 Ang^3
#
#
#
# Elastic Constant Matrix: (Units=GPa)
#
#
# Indices 1 2 3 4 5 6 
#
# 1 92.9113 28.2601 37.4935 0.0000 -14.8908 0.0000
# 2 28.2601 43.0582 33.8999 0.0000 -3.0564 0.0000
# 3 37.4935 33.8999 76.7787 0.0000 -14.3745 0.0000
# 4 0.0000 0.0000 0.0000 25.3628 0.0000 3.6290
# 5 -14.8908 -3.0564 -14.3745 0.0000 30.7166 0.0000
# 6 0.0000 0.0000 0.0000 3.6290 0.0000 21.3646
#
#
#
# Elastic Compliance Matrix: (Units=1/GPa)
#
#
# Indices 1 2 3 4 5 6 
#
# 1 0.015007 -0.006842 -0.003368 0.000000 0.005018 0.000000
# 2 -0.006842 0.039215 -0.015195 0.000000 -0.006526 0.000000
# 3 -0.003368 -0.015195 0.022786 0.000000 0.007518 0.000000
# 4 0.000000 0.000000 0.000000 0.040410 0.000000 -0.006864
# 5 0.005018 -0.006526 0.007518 0.000000 0.037857 0.000000
# 6 0.000000 0.000000 0.000000 -0.006864 0.000000 0.047972
#
#
# Mechanical properties :
#
#
# Convention : Reuss Voigt Hill
#
# Bulk Modulus (GPa) = 38.17094 45.78391 41.97742
# Shear Modulus (GPa) = 19.02656 23.02846 21.02751
#
# Velocity S-wave (km/s) = 3.34610 3.68121 3.51765
# Velocity P-wave (km/s) = 6.11479 6.70899 6.41876
#
# Compressibility (1/GPa) = 0.02619794
#
# Stress axis : x y z
#
# Youngs Moduli (GPa) = 66.63354 25.50067 43.88668
#
# Poissons Ratio (x) = 0.17447 0.14782
# Poissons Ratio (y) = 0.45588 0.66686
# Poissons Ratio (z) = 0.22444 0.38749
#
# Static dielectric constant tensor:
#      x y z
#    x 3.367280 0.000000 -0.172530 
#    y 0.000000 3.053720 0.000000 
#    z -0.172530 0.000000 3.084660 
# 
# 
# High freq. dielectric constant tensor:
#      x y z
#    x 1.657540 0.000000 -0.013080 
#    y 0.000000 1.643790 0.000000 
#    z -0.013080 0.000000 1.634560 
# 
# From -- ./inp_files/248465.got.cif
#   From: 2010.06.25/outbox.cif.g09.slc.cpg/sg12_125_cif.got.tgz:248465.got - 2010.06.28 00:19:55.
