data_PCOD8080316
_publ_section_title
;
Structure prediction by ZEFSAII (Michael W. Deem and Ramdas Pophale) SiO2 
 PCOD8080316
Probable space group: C 2/M
;
_chemical_formula_sum "Si O2"
_cell_formula_units_Z 48
_cell_length_a 24.379339
_cell_length_b 9.082652
_cell_length_c 15.021242
_cell_angle_alpha 90.000000
_cell_angle_beta 118.505372
_cell_angle_gamma 90.000000
_cell_volume 2922.919387
_symmetry_space_group_name_H-M "C 2/M"
_symmetry_group_IT_number 12
_symmetry_cell_setting 'monoclinic'
loop_
_space_group_symop_operation_xyz
x,y,z
-x,y,-z
-x,-y,-z
x,-y,z
1/2+x,1/2+y,z
1/2-x,1/2+y,-z
1/2-x,1/2-y,-z
1/2+x,1/2-y,z
loop_
_atom_site_type_symbol
_atom_site_label
_atom_site_fract_x
_atom_site_fract_y
_atom_site_fract_z
Si Si1 0.811971 0.170573 0.017506
Si Si2 0.836983 0.670618 0.517588
Si Si3 0.205845 0.326319 0.165709
Si Si4 0.651696 0.667621 0.764576
Si Si5 0.199875 0.828950 0.341177
Si Si6 0.929820 0.673894 0.437227
O O1 0.859739 0.185475 0.137678
O O2 0.798175 0.000000 0.986110
O O3 0.750000 0.250000 0.000000
O O4 0.835110 0.251910 0.945511
O O5 0.843518 0.500000 0.549055
O O6 0.841812 0.767652 0.610209
O O7 0.772321 0.700248 0.417084
O O8 0.891781 0.724688 0.494858
O O9 0.194912 0.500000 0.155493
O O10 0.278369 0.283399 0.208344
O O11 0.181013 0.259804 0.238525
O O12 0.641686 0.500000 0.727002
O O13 0.600865 0.765780 0.676199
O O14 0.185090 0.000000 0.316015
O O15 0.928716 0.500000 0.428003
O O16 0.000000 0.734896 0.500000
#
# Coordination Sequence:
#
# PCOD8080316 Si02
#       6
#     8   8   8   8   8   8
#     4   9  17  28  42  64  92 122 154 188 228 278
#     4   9  18  31  44  64  92 122 154 192 231 271
#     4  10  18  28  44  68  95 124 153 186 230 281
#     4   9  18  30  44  64  92 123 154 190 229 270
#     4  10  18  28  46  68  91 124 154 187 232 278
#     4  10  20  33  49  68  91 123 161 195 229 269
#
# _framework density 16.421938000000001
#
# number of rings (size 3 to 8) (size 9 to 14) (size 15 to 20)
#    0.000    2.500    1.667    2.500    0.000    5.000 
#    0.000    0.000    0.000    0.000    0.000    1.167 
#    0.000    9.333    0.000    0.000    0.000    0.000 
#
# Total GULP energy -297546.463830 kJ/mol
# GULP energy per Si atom -12397.769326 kJ/mol
# Density = 1.638456 g / cm^3
# Si number density = 16.421938 Si / 1000 Ang^3
#
#
#
# Elastic Constant Matrix: (Units=GPa)
#
#
# Indices 1 2 3 4 5 6 
#
# 1 69.1690 29.4917 46.7076 0.0000 -9.6490 0.0000
# 2 29.4917 84.4604 61.6301 0.0000 -14.9578 0.0000
# 3 46.7076 61.6301 122.5673 0.0000 -25.7724 0.0000
# 4 0.0000 0.0000 0.0000 35.4713 0.0000 -6.8610
# 5 -9.6490 -14.9578 -25.7724 0.0000 22.9452 0.0000
# 6 0.0000 0.0000 0.0000 -6.8610 0.0000 17.0408
#
#
#
# Elastic Compliance Matrix: (Units=1/GPa)
#
#
# Indices 1 2 3 4 5 6 
#
# 1 0.019729 -0.002233 -0.006490 0.000000 -0.000449 0.000000
# 2 -0.002233 0.019034 -0.008259 0.000000 0.002193 0.000000
# 3 -0.006490 -0.008259 0.017123 0.000000 0.011120 0.000000
# 4 0.000000 0.000000 0.000000 0.030573 0.000000 0.012309
# 5 -0.000449 0.002193 0.011120 0.000000 0.057313 0.000000
# 6 0.000000 0.000000 0.000000 0.012309 0.000000 0.063639
#
#
# Mechanical properties :
#
#
# Convention : Reuss Voigt Hill
#
# Bulk Modulus (GPa) = 45.61425 61.31729 53.46577
# Shear Modulus (GPa) = 20.10598 24.31592 22.21095
#
# Velocity S-wave (km/s) = 3.50285 3.85216 3.68165
# Velocity P-wave (km/s) = 6.64806 7.56341 7.12046
#
# Compressibility (1/GPa) = 0.02192297
#
# Stress axis : x y z
#
# Youngs Moduli (GPa) = 50.68618 52.53632 58.40106
#
# Poissons Ratio (x) = 0.11730 0.37902
# Poissons Ratio (y) = 0.11317 0.48234
# Poissons Ratio (z) = 0.32895 0.43390
#
# Static dielectric constant tensor:
#      x y z
#    x 2.815090 0.000000 -0.230590 
#    y 0.000000 3.147740 0.000000 
#    z -0.230590 0.000000 3.076610 
# 
# 
# High freq. dielectric constant tensor:
#      x y z
#    x 1.577680 0.000000 -0.029750 
#    y 0.000000 1.642180 0.000000 
#    z -0.029750 0.000000 1.636470 
# 
# From -- ./inp_files/236620.got.cif
#   From: 2010.06.25/outbox.cif.g09.slc.cpg/sg12_119_cif.got.tgz:236620.got - 2010.06.28 00:19:55.
