data_PCOD8080993
_publ_section_title
;
Structure prediction by ZEFSAII (Michael W. Deem and Ramdas Pophale) SiO2 
 PCOD8080993
Probable space group: C 2/M
;
_chemical_formula_sum "Si O2"
_cell_formula_units_Z 64
_cell_length_a 20.605877
_cell_length_b 12.925166
_cell_length_c 15.608742
_cell_angle_alpha 90.000000
_cell_angle_beta 59.770073
_cell_angle_gamma 90.000000
_cell_volume 3591.822620
_symmetry_space_group_name_H-M "C 2/M"
_symmetry_group_IT_number 12
_symmetry_cell_setting 'monoclinic'
loop_
_space_group_symop_operation_xyz
x,y,z
-x,y,-z
-x,-y,-z
x,-y,z
1/2+x,1/2+y,z
1/2-x,1/2+y,-z
1/2-x,1/2-y,-z
1/2+x,1/2-y,z
loop_
_atom_site_type_symbol
_atom_site_label
_atom_site_fract_x
_atom_site_fract_y
_atom_site_fract_z
Si Si1 0.602672 0.378381 0.583482
Si Si2 0.641419 0.118286 0.011582
Si Si3 0.305125 0.762433 0.178534
Si Si4 0.689248 0.620426 0.366227
Si Si5 0.078001 0.187983 0.119979
Si Si6 0.229904 0.883140 0.940084
Si Si7 0.936634 0.879808 0.688055
Si Si8 0.410301 0.619451 0.215238
O O1 0.601216 0.500000 0.571410
O O2 0.666832 0.336931 0.475826
O O3 0.520032 0.337016 0.611557
O O4 0.620077 0.348712 0.670102
O O5 0.658739 0.144772 0.901126
O O6 0.615337 0.000000 0.036485
O O7 0.575542 0.191224 0.092917
O O8 0.716455 0.144073 0.015875
O O9 0.257608 0.811063 0.287083
O O10 0.252873 0.691163 0.152142
O O11 0.371225 0.692119 0.172333
O O12 0.713239 0.500000 0.350113
O O13 0.616047 0.638593 0.357328
O O14 0.096147 0.181414 0.208689
O O15 0.999564 0.134013 0.150081
O O16 0.143337 0.130646 0.024314
O O17 0.244227 0.000000 0.900670
O O18 0.940335 0.000000 0.712285
O O19 0.391093 0.500000 0.208288
#
# Coordination Sequence:
#
# PCOD8080993 Si02
#       8
#     8   8   8   8   8   8   8   8
#     4   8  16  30  48  72 100 125 152 194 245 287
#     4  10  21  35  49  71 101 127 155 195 237 282
#     4  11  21  32  47  70  97 130 167 197 229 278
#     4  10  18  29  48  73 100 130 160 194 238 284
#     4  10  18  32  52  73  96 129 160 191 238 285
#     4  10  19  32  51  74  99 124 155 197 242 284
#     4   9  15  26  49  79 104 122 151 198 245 285
#     4  10  21  36  51  70  96 123 159 204 242 280
#
# _framework density 17.818251
#
# number of rings (size 3 to 8) (size 9 to 14) (size 15 to 20)
#    0.000    2.250    0.000    6.000    0.000    6.000 
#    0.000    5.000    0.000    0.000    0.000    7.000 
#    0.000   16.000    0.000    0.000    0.000    0.000 
#
# Total GULP energy -396715.728748 kJ/mol
# GULP energy per Si atom -12397.366523 kJ/mol
# Density = 1.777770 g / cm^3
# Si number density = 17.818251 Si / 1000 Ang^3
#
#
#
# Elastic Constant Matrix: (Units=GPa)
#
#
# Indices 1 2 3 4 5 6 
#
# 1 56.4460 20.0516 16.3402 0.0000 7.0347 0.0000
# 2 20.0516 66.6338 29.5008 0.0000 4.1219 0.0000
# 3 16.3402 29.5008 96.1403 0.0000 -1.6708 0.0000
# 4 0.0000 0.0000 0.0000 27.8836 0.0000 0.9079
# 5 7.0347 4.1219 -1.6708 0.0000 16.3408 0.0000
# 6 0.0000 0.0000 0.0000 0.9079 0.0000 26.0568
#
#
#
# Elastic Compliance Matrix: (Units=1/GPa)
#
#
# Indices 1 2 3 4 5 6 
#
# 1 0.021097 -0.004859 -0.002235 0.000000 -0.008085 0.000000
# 2 -0.004859 0.018892 -0.005027 0.000000 -0.003188 0.000000
# 3 -0.002235 -0.005027 0.012385 0.000000 0.003497 0.000000
# 4 0.000000 0.000000 0.000000 0.035904 0.000000 -0.001251
# 5 -0.008085 -0.003188 0.003497 0.000000 0.065839 0.000000
# 6 0.000000 0.000000 0.000000 -0.001251 0.000000 0.038421
#
#
# Mechanical properties :
#
#
# Convention : Reuss Voigt Hill
#
# Bulk Modulus (GPa) = 35.54654 39.00061 37.27357
# Shear Modulus (GPa) = 22.10860 24.27807 23.19334
#
# Velocity S-wave (km/s) = 3.52630 3.69526 3.61177
# Velocity P-wave (km/s) = 6.04752 6.33578 6.19333
#
# Compressibility (1/GPa) = 0.02813213
#
# Stress axis : x y z
#
# Youngs Moduli (GPa) = 47.40072 52.93204 80.74553
#
# Poissons Ratio (x) = 0.25718 0.18049
# Poissons Ratio (y) = 0.23031 0.40588
# Poissons Ratio (z) = 0.10595 0.26607
#
# Static dielectric constant tensor:
#      x y z
#    x 3.117220 0.000000 0.121340 
#    y 0.000000 3.235090 0.000000 
#    z 0.121340 0.000000 3.572710 
# 
# 
# High freq. dielectric constant tensor:
#      x y z
#    x 1.675280 0.000000 0.010690 
#    y 0.000000 1.670100 0.000000 
#    z 0.010690 0.000000 1.691220 
# 
# From -- ./inp_files/225279.got.cif
#   From: 2010.06.25/outbox.cif.g09.slc.cpg/sg12_113_cif.got.tgz:225279.got - 2010.06.28 00:19:55.
