data_PCOD8080336
_publ_section_title
;
Structure prediction by ZEFSAII (Michael W. Deem and Ramdas Pophale) SiO2 
 PCOD8080336
Probable space group: C 2/M
;
_chemical_formula_sum "Si O2"
_cell_formula_units_Z 40
_cell_length_a 17.375681
_cell_length_b 21.854096
_cell_length_c 6.641207
_cell_angle_alpha 90.000000
_cell_angle_beta 75.603053
_cell_angle_gamma 90.000000
_cell_volume 2442.668623
_symmetry_space_group_name_H-M "C 2/M"
_symmetry_group_IT_number 12
_symmetry_cell_setting 'monoclinic'
loop_
_space_group_symop_operation_xyz
x,y,z
-x,y,-z
-x,-y,-z
x,-y,z
1/2+x,1/2+y,z
1/2-x,1/2+y,-z
1/2-x,1/2-y,-z
1/2+x,1/2-y,z
loop_
_atom_site_type_symbol
_atom_site_label
_atom_site_fract_x
_atom_site_fract_y
_atom_site_fract_z
Si Si1 0.136060 0.786956 0.686069
Si Si2 0.500000 0.113488 0.000000
Si Si3 0.305531 0.825060 0.605824
Si Si4 0.423484 0.930661 0.432093
Si Si5 0.101088 0.281704 0.105989
Si Si6 0.000000 0.217619 0.500000
O O1 0.210671 0.833165 0.639939
O O2 0.160331 0.721465 0.580944
O O3 0.068310 0.818751 0.584564
O O4 0.109495 0.771399 0.931947
O O5 0.450578 0.070872 0.183186
O O6 0.569356 0.154871 0.044678
O O7 0.347276 0.889916 0.539202
O O8 0.318423 0.797525 0.822931
O O9 0.500000 0.905414 0.500000
O O10 0.401532 0.000000 0.507210
O O11 0.036778 0.260315 0.307802
#
# Coordination Sequence:
#
# PCOD8080336 Si02
#       6
#     8   4   8   8   8   4
#     4  10  19  30  48  70  98 127 157 197 248 285
#     4  12  17  30  50  66  94 132 163 196 226 276
#     4  10  20  32  46  70  94 127 167 201 235 284
#     4  11  22  34  48  67  95 133 169 197 229 275
#     4  11  17  29  48  68  98 130 156 194 239 282
#     4  10  18  28  44  72  98 124 152 186 240 302
#
# _framework density 16.375533000000001
#
# number of rings (size 3 to 8) (size 9 to 14) (size 15 to 20)
#    0.000    1.400    6.000    2.100    1.400    0.000 
#    0.000    0.000    0.000    0.000    0.000    0.700 
#    0.000    3.200    0.000    0.200    0.000    0.000 
#
# Total GULP energy -247782.594499 kJ/mol
# GULP energy per Si atom -12389.129725 kJ/mol
# Density = 1.633826 g / cm^3
# Si number density = 16.375533 Si / 1000 Ang^3
#
#
#
# Elastic Constant Matrix: (Units=GPa)
#
#
# Indices 1 2 3 4 5 6 
#
# 1 139.4509 36.1061 41.1228 0.0000 13.9631 0.0000
# 2 36.1061 53.0016 18.0535 0.0000 -4.9496 0.0000
# 3 41.1228 18.0535 100.3699 0.0000 4.0890 0.0000
# 4 0.0000 0.0000 0.0000 12.0011 0.0000 -3.8900
# 5 13.9631 -4.9496 4.0890 0.0000 23.5640 0.0000
# 6 0.0000 0.0000 0.0000 -3.8900 0.0000 21.4155
#
#
#
# Elastic Compliance Matrix: (Units=1/GPa)
#
#
# Indices 1 2 3 4 5 6 
#
# 1 0.010484 -0.006869 -0.002768 0.000000 -0.007175 0.000000
# 2 -0.006869 0.025174 -0.002110 0.000000 0.009724 0.000000
# 3 -0.002768 -0.002110 0.011509 0.000000 -0.000800 0.000000
# 4 0.000000 0.000000 0.000000 0.088539 0.000000 0.016083
# 5 -0.007175 0.009724 -0.000800 0.000000 0.048871 0.000000
# 6 0.000000 0.000000 0.000000 0.016083 0.000000 0.049617
#
#
# Mechanical properties :
#
#
# Convention : Reuss Voigt Hill
#
# Bulk Modulus (GPa) = 42.24107 53.70970 47.97538
# Shear Modulus (GPa) = 18.82686 24.56544 21.69615
#
# Velocity S-wave (km/s) = 3.39439 3.87735 3.64388
# Velocity P-wave (km/s) = 6.41980 7.27428 6.86035
#
# Compressibility (1/GPa) = 0.02367365
#
# Stress axis : x y z
#
# Youngs Moduli (GPa) = 95.38189 39.72396 86.88753
#
# Poissons Ratio (x) = 0.27288 0.24047
# Poissons Ratio (y) = 0.65522 0.18330
# Poissons Ratio (z) = 0.26398 0.08380
#
# Static dielectric constant tensor:
#      x y z
#    x 3.443050 0.000000 0.282270 
#    y 0.000000 2.553700 0.000000 
#    z 0.282270 0.000000 3.471900 
# 
# 
# High freq. dielectric constant tensor:
#      x y z
#    x 1.633990 0.000000 0.013710 
#    y 0.000000 1.564410 0.000000 
#    z 0.013710 0.000000 1.652570 
# 
# From -- ./inp_files/15805.got.cif
#   From: 2010.06.25/outbox.cif.g09.slc.cpg/sg12_8_cif.got.tgz:15805.got - 2010.06.28 00:19:55.
