data_PCOD8080479
_publ_section_title
;
Structure prediction by ZEFSAII (Michael W. Deem and Ramdas Pophale) SiO2 
 PCOD8080479
Probable space group: C 2/M
;
_chemical_formula_sum "Si O2"
_cell_formula_units_Z 60
_cell_length_a 31.533482
_cell_length_b 18.434425
_cell_length_c 12.173456
_cell_angle_alpha 90.000000
_cell_angle_beta 28.358552
_cell_angle_gamma 90.000000
_cell_volume 3361.226807
_symmetry_space_group_name_H-M "C 2/M"
_symmetry_group_IT_number 12
_symmetry_cell_setting 'monoclinic'
loop_
_space_group_symop_operation_xyz
x,y,z
-x,y,-z
-x,-y,-z
x,-y,z
1/2+x,1/2+y,z
1/2-x,1/2+y,-z
1/2-x,1/2-y,-z
1/2+x,1/2-y,z
loop_
_atom_site_type_symbol
_atom_site_label
_atom_site_fract_x
_atom_site_fract_y
_atom_site_fract_z
Si Si1 0.666773 0.583223 0.242976
Si Si2 0.222916 0.579399 0.335144
Si Si3 0.240783 0.775690 0.644066
Si Si4 0.140604 0.780107 0.438857
Si Si5 0.449656 0.724210 0.814875
Si Si6 0.000000 0.317724 0.500000
Si Si7 0.660713 0.141536 0.269042
Si Si8 0.415725 0.421401 0.792343
O O1 0.673227 0.500000 0.269049
O O2 0.647154 0.636039 0.389163
O O3 0.586076 0.591143 0.336511
O O4 0.760986 0.606969 0.979196
O O5 0.202171 0.500000 0.434146
O O6 0.231335 0.639386 0.411886
O O7 0.147635 0.600970 0.416701
O O8 0.312475 0.578299 0.060580
O O9 0.250000 0.750000 0.500000
O O10 0.307701 0.728092 0.564908
O O11 0.139660 0.762026 0.913178
O O12 0.181021 0.726583 0.252379
O O13 0.036312 0.756530 0.690758
O O14 0.445015 0.769069 0.712232
O O15 0.464923 0.640275 0.747958
O O16 0.070392 0.367560 0.404510
O O17 0.458737 0.500000 0.722997
#
# Coordination Sequence:
#
# PCOD8080479 Si02
#       8
#     8   8   8   8   8   4   8   8
#     4  10  18  29  46  72 107 142 168 199 246 305
#     4   8  15  30  50  72  94 123 164 208 248 292
#     4  10  21  37  56  75  97 131 175 217 257 299
#     4  10  20  32  49  73 100 133 171 214 255 296
#     4  10  19  31  50  77 105 132 167 208 251 302
#     4  10  18  28  46  74 104 136 166 206 254 302
#     4   9  16  28  47  71 101 137 173 203 244 301
#     4   8  14  25  44  69 101 135 162 189 234 299
#
# _framework density 17.850625000000001
#
# number of rings (size 3 to 8) (size 9 to 14) (size 15 to 20)
#    0.000    2.667    0.000    4.800    0.000    1.067 
#    0.000    3.667    0.000    0.000    0.000   17.733 
#    0.000    0.000    0.000    0.000    0.000    0.000 
#
# Total GULP energy -371818.102304 kJ/mol
# GULP energy per Si atom -12393.936743 kJ/mol
# Density = 1.781000 g / cm^3
# Si number density = 17.850625 Si / 1000 Ang^3
#
#
#
# Elastic Constant Matrix: (Units=GPa)
#
#
# Indices 1 2 3 4 5 6 
#
# 1 116.1118 47.6636 50.7812 0.0000 -2.2083 0.0000
# 2 47.6636 109.4944 34.1919 0.0000 2.0845 0.0000
# 3 50.7812 34.1919 71.2287 0.0000 1.8969 0.0000
# 4 0.0000 0.0000 0.0000 16.8119 0.0000 -1.7941
# 5 -2.2083 2.0845 1.8969 0.0000 24.2284 0.0000
# 6 0.0000 0.0000 0.0000 -1.7941 0.0000 18.6192
#
#
#
# Elastic Compliance Matrix: (Units=1/GPa)
#
#
# Indices 1 2 3 4 5 6 
#
# 1 0.013611 -0.003433 -0.008114 0.000000 0.002171 0.000000
# 2 -0.003433 0.011616 -0.003100 0.000000 -0.001070 0.000000
# 3 -0.008114 -0.003100 0.021369 0.000000 -0.002146 0.000000
# 4 0.000000 0.000000 0.000000 0.060100 0.000000 0.005791
# 5 0.002171 -0.001070 -0.002146 0.000000 0.041732 0.000000
# 6 0.000000 0.000000 0.000000 0.005791 0.000000 0.054266
#
#
# Mechanical properties :
#
#
# Convention : Reuss Voigt Hill
#
# Bulk Modulus (GPa) = 57.79438 62.45648 60.12543
# Shear Modulus (GPa) = 21.03006 22.87845 21.95426
#
# Velocity S-wave (km/s) = 3.43609 3.58391 3.51078
# Velocity P-wave (km/s) = 6.94185 7.22428 7.08447
#
# Compressibility (1/GPa) = 0.01730272
#
# Stress axis : x y z
#
# Youngs Moduli (GPa) = 73.46753 86.09123 46.79604
#
# Poissons Ratio (x) = 0.29553 0.37971
# Poissons Ratio (y) = 0.25219 0.14507
# Poissons Ratio (z) = 0.59612 0.26689
#
# Static dielectric constant tensor:
#      x y z
#    x 3.123330 0.000000 -0.294510 
#    y 0.000000 3.587300 0.000000 
#    z -0.294510 0.000000 3.143200 
# 
# 
# High freq. dielectric constant tensor:
#      x y z
#    x 1.666200 0.000000 -0.030980 
#    y 0.000000 1.692000 0.000000 
#    z -0.030980 0.000000 1.674500 
# 
# From -- ./inp_files/189935.got.cif
#   From: 2010.06.25/outbox.cif.g09.slc.cpg/sg12_95_cif.got.tgz:189935.got - 2010.06.28 00:19:55.
