data_PCOD8080379
_publ_section_title
;
Structure prediction by ZEFSAII (Michael W. Deem and Ramdas Pophale) SiO2 
 PCOD8080379
Probable space group: C 2/M
;
_chemical_formula_sum "Si O2"
_cell_formula_units_Z 64
_cell_length_a 27.732195
_cell_length_b 9.355885
_cell_length_c 14.323212
_cell_angle_alpha 90.000000
_cell_angle_beta 91.449468
_cell_angle_gamma 90.000000
_cell_volume 3715.100389
_symmetry_space_group_name_H-M "C 2/M"
_symmetry_group_IT_number 12
_symmetry_cell_setting 'monoclinic'
loop_
_space_group_symop_operation_xyz
x,y,z
-x,y,-z
-x,-y,-z
x,-y,z
1/2+x,1/2+y,z
1/2-x,1/2+y,-z
1/2-x,1/2-y,-z
1/2+x,1/2-y,z
loop_
_atom_site_type_symbol
_atom_site_label
_atom_site_fract_x
_atom_site_fract_y
_atom_site_fract_z
Si Si1 0.144616 0.659428 0.323933
Si Si2 0.938530 0.834956 0.734038
Si Si3 0.597500 0.841405 0.520712
Si Si4 0.494474 0.840558 0.386027
Si Si5 0.416247 0.838224 0.218870
Si Si6 0.754727 0.666287 0.596390
Si Si7 0.152360 0.166114 0.670459
Si Si8 0.986050 0.834657 0.103141
O O1 0.147397 0.500000 0.281376
O O2 0.113844 0.760846 0.253783
O O3 0.114692 0.659414 0.417139
O O4 0.198307 0.720151 0.344449
O O5 0.966522 0.775690 0.644060
O O6 0.968090 0.804207 0.829182
O O7 0.929679 0.000000 0.714785
O O8 0.538088 0.813430 0.518731
O O9 0.626211 0.718709 0.575362
O O10 0.606985 0.000000 0.565712
O O11 0.449924 0.830862 0.311127
O O12 0.517547 0.000000 0.383483
O O13 0.366627 0.755002 0.241345
O O14 0.440977 0.760581 0.132438
O O15 0.404269 0.000000 0.188716
O O16 0.761023 0.500000 0.570327
O O17 0.750000 0.750000 0.500000
O O18 0.709338 0.692249 0.661469
O O19 0.140126 0.000000 0.684028
O O20 0.970631 0.000000 0.107721
O O21 0.000000 0.788172 0.000000
#
# Coordination Sequence:
#
# PCOD8080379 Si02
#       8
#     8   8   8   8   8   8   8   8
#     4  10  20  33  46  62  91 128 163 199 241 284
#     4  10  20  32  46  67  93 121 154 192 233 282
#     4   9  17  29  45  63  86 123 165 199 235 279
#     4   8  15  28  44  61  85 121 159 190 225 271
#     4   9  17  29  47  72  99 127 157 190 232 285
#     4  10  20  32  48  68  91 125 169 211 247 281
#     4  10  18  28  45  69  95 124 161 206 246 277
#     4   9  18  34  55  77 101 126 151 187 238 292
#
# _framework density 17.226991000000002
#
# number of rings (size 3 to 8) (size 9 to 14) (size 15 to 20)
#    0.000    2.625    1.250    1.875    0.000    5.750 
#    0.000    2.500    0.000    0.000    0.000    0.875 
#    0.000    0.000    0.000    0.000    0.000    0.000 
#
# Total GULP energy -396744.521299 kJ/mol
# GULP energy per Si atom -12398.266291 kJ/mol
# Density = 1.718778 g / cm^3
# Si number density = 17.226991 Si / 1000 Ang^3
#
#
#
# Elastic Constant Matrix: (Units=GPa)
#
#
# Indices 1 2 3 4 5 6 
#
# 1 125.2269 59.6984 34.6677 0.0000 0.2332 0.0000
# 2 59.6984 101.2098 38.5130 0.0000 -4.9850 0.0000
# 3 34.6677 38.5130 61.3723 0.0000 -10.8752 0.0000
# 4 0.0000 0.0000 0.0000 19.8279 0.0000 0.0944
# 5 0.2332 -4.9850 -10.8752 0.0000 17.6681 0.0000
# 6 0.0000 0.0000 0.0000 0.0944 0.0000 28.6401
#
#
#
# Elastic Compliance Matrix: (Units=1/GPa)
#
#
# Indices 1 2 3 4 5 6 
#
# 1 0.011758 -0.005693 -0.003795 0.000000 -0.004098 0.000000
# 2 -0.005693 0.015773 -0.006600 0.000000 0.000463 0.000000
# 3 -0.003795 -0.006600 0.024983 0.000000 0.013566 0.000000
# 4 0.000000 0.000000 0.000000 0.050435 0.000000 -0.000166
# 5 -0.004098 0.000463 0.013566 0.000000 0.065134 0.000000
# 6 0.000000 0.000000 0.000000 -0.000166 0.000000 0.034917
#
#
# Mechanical properties :
#
#
# Convention : Reuss Voigt Hill
#
# Bulk Modulus (GPa) = 49.17034 61.50745 55.33890
# Shear Modulus (GPa) = 20.66500 23.55588 22.11044
#
# Velocity S-wave (km/s) = 3.46724 3.70182 3.58645
# Velocity P-wave (km/s) = 6.68084 7.35207 7.02448
#
# Compressibility (1/GPa) = 0.02033746
#
# Stress axis : x y z
#
# Youngs Moduli (GPa) = 85.05026 63.40063 40.02651
#
# Poissons Ratio (x) = 0.36093 0.15191
# Poissons Ratio (y) = 0.48418 0.26418
# Poissons Ratio (z) = 0.32279 0.41845
#
# Static dielectric constant tensor:
#      x y z
#    x 3.494440 0.000000 0.005000 
#    y 0.000000 3.354490 0.000000 
#    z 0.005000 0.000000 2.981650 
# 
# 
# High freq. dielectric constant tensor:
#      x y z
#    x 1.672330 0.000000 -0.002240 
#    y 0.000000 1.669820 0.000000 
#    z -0.002240 0.000000 1.622640 
# 
# From -- ./inp_files/244062.got.cif
#   From: 2010.06.25/outbox.cif.g09.slc.cpg/sg12_123_cif.got.tgz:244062.got - 2010.06.28 00:19:55.
