data_PCOD8080558
_publ_section_title
;
Structure prediction by ZEFSAII (Michael W. Deem and Ramdas Pophale) SiO2 
 PCOD8080558
Probable space group: C 2/M
;
_chemical_formula_sum "Si O2"
_cell_formula_units_Z 56
_cell_length_a 18.904864
_cell_length_b 8.994267
_cell_length_c 23.286461
_cell_angle_alpha 90.000000
_cell_angle_beta 51.371418
_cell_angle_gamma 90.000000
_cell_volume 3093.215281
_symmetry_space_group_name_H-M "C 2/M"
_symmetry_group_IT_number 12
_symmetry_cell_setting 'monoclinic'
loop_
_space_group_symop_operation_xyz
x,y,z
-x,y,-z
-x,-y,-z
x,-y,z
1/2+x,1/2+y,z
1/2-x,1/2+y,-z
1/2-x,1/2-y,-z
1/2+x,1/2-y,z
loop_
_atom_site_type_symbol
_atom_site_label
_atom_site_fract_x
_atom_site_fract_y
_atom_site_fract_z
Si Si1 0.445069 0.664450 0.293378
Si Si2 0.375243 0.663259 0.722496
Si Si3 0.073405 0.823756 0.132765
Si Si4 0.655981 0.175524 0.562352
Si Si5 0.494039 0.674469 0.437134
Si Si6 0.078872 0.176510 0.000407
Si Si7 0.722474 0.175014 0.134540
O O1 0.400682 0.500000 0.312092
O O2 0.533864 0.656692 0.286911
O O3 0.479408 0.718809 0.213133
O O4 0.373484 0.776968 0.358046
O O5 0.329416 0.500000 0.744599
O O6 0.408034 0.710637 0.641901
O O7 0.305308 0.778241 0.786496
O O8 0.159880 0.748875 0.118286
O O9 0.089344 0.000000 0.127834
O O10 0.065058 0.764437 0.072165
O O11 0.750000 0.250000 0.500000
O O12 0.583859 0.228097 0.552025
O O13 0.665933 0.000000 0.555467
O O14 0.500000 0.721362 0.500000
O O15 0.470484 0.500000 0.441313
O O16 0.175427 0.230012 0.927541
O O17 0.073349 0.000000 0.003081
O O18 0.000000 0.243715 0.000000
O O19 0.712768 0.000000 0.133560
#
# Coordination Sequence:
#
# PCOD8080558 Si02
#       7
#     8   8   8   8   8   8   8
#     4   8  15  29  48  70  94 123 161 200 242 288
#     4   8  15  29  49  71  97 127 157 194 241 291
#     4   9  17  31  52  72  92 122 159 199 240 285
#     4  11  21  33  51  74 102 133 166 205 246 291
#     4   9  18  34  54  74  99 132 166 201 247 299
#     4   9  18  32  48  68  96 129 160 191 235 287
#     4  10  18  28  48  74  96 121 159 204 238 275
#
# _framework density 18.104137999999999
#
# number of rings (size 3 to 8) (size 9 to 14) (size 15 to 20)
#    0.000    2.857    0.000    3.857    0.000    5.429 
#    0.000    2.143    0.000    5.571    0.000    0.000 
#    0.000    0.000    0.000    0.000    0.000    0.000 
#
# Total GULP energy -347041.039322 kJ/mol
# GULP energy per Si atom -12394.322833 kJ/mol
# Density = 1.806293 g / cm^3
# Si number density = 18.104138 Si / 1000 Ang^3
#
#
#
# Elastic Constant Matrix: (Units=GPa)
#
#
# Indices 1 2 3 4 5 6 
#
# 1 77.5022 38.0144 73.6485 0.0000 2.7534 0.0000
# 2 38.0144 81.6246 58.8251 0.0001 -7.1971 0.0001
# 3 73.6485 58.8251 187.4777 0.0000 8.5865 -0.0001
# 4 0.0000 0.0001 0.0000 28.0347 0.0000 -2.8301
# 5 2.7534 -7.1971 8.5865 0.0000 27.5702 0.0000
# 6 0.0000 0.0001 -0.0001 -2.8301 0.0000 17.7788
#
#
#
# Elastic Compliance Matrix: (Units=1/GPa)
#
#
# Indices 1 2 3 4 5 6 
#
# 1 0.022253 -0.005484 -0.006953 0.000000 -0.001489 0.000000
# 2 -0.005484 0.018139 -0.003834 0.000000 0.006477 0.000000
# 3 -0.006953 -0.003834 0.009417 0.000000 -0.003239 0.000000
# 4 0.000000 0.000000 0.000000 0.036253 0.000000 0.005771
# 5 -0.001489 0.006477 -0.003239 0.000000 0.039119 0.000000
# 6 0.000000 0.000000 0.000000 0.005771 0.000000 0.057165
#
#
# Mechanical properties :
#
#
# Convention : Reuss Voigt Hill
#
# Bulk Modulus (GPa) = 57.91353 76.39787 67.15570
# Shear Modulus (GPa) = 22.66099 26.41783 24.53941
#
# Velocity S-wave (km/s) = 3.54178 3.82411 3.68565
# Velocity P-wave (km/s) = 6.98457 7.86061 7.43550
#
# Compressibility (1/GPa) = 0.01726712
#
# Stress axis : x y z
#
# Youngs Moduli (GPa) = 44.93822 55.12872 106.19519
#
# Poissons Ratio (x) = 0.30233 0.73836
# Poissons Ratio (y) = 0.24645 0.40714
# Poissons Ratio (z) = 0.31245 0.21136
#
# Static dielectric constant tensor:
#      x y z
#    x 3.123640 0.000000 0.264720 
#    y 0.000000 3.190460 0.000000 
#    z 0.264720 0.000000 4.106100 
# 
# 
# High freq. dielectric constant tensor:
#      x y z
#    x 1.659320 0.000000 0.007700 
#    y 0.000000 1.683420 0.000000 
#    z 0.007700 0.000000 1.725790 
# 
# From -- ./inp_files/342350.got.cif
#   From: 2010.06.25/outbox.cif.g09.slc.cpg/sg12_172_cif.got.tgz:342350.got - 2010.06.28 00:19:55.
