data_PCOD8080052
_publ_section_title
;
Structure prediction by ZEFSAII (Michael W. Deem and Ramdas Pophale) SiO2 
 PCOD8080052
Probable space group: C 2/M
;
_chemical_formula_sum "Si O2"
_cell_formula_units_Z 64
_cell_length_a 24.833766
_cell_length_b 9.297864
_cell_length_c 23.861386
_cell_angle_alpha 90.000000
_cell_angle_beta 46.035589
_cell_angle_gamma 90.000000
_cell_volume 3965.663615
_symmetry_space_group_name_H-M "C 2/M"
_symmetry_group_IT_number 12
_symmetry_cell_setting 'monoclinic'
loop_
_space_group_symop_operation_xyz
x,y,z
-x,y,-z
-x,-y,-z
x,-y,z
1/2+x,1/2+y,z
1/2-x,1/2+y,-z
1/2-x,1/2-y,-z
1/2+x,1/2-y,z
loop_
_atom_site_type_symbol
_atom_site_label
_atom_site_fract_x
_atom_site_fract_y
_atom_site_fract_z
Si Si1 0.921660 0.331203 0.829776
Si Si2 0.556834 0.666707 0.689232
Si Si3 0.358367 0.334683 0.677202
Si Si4 0.305048 0.163428 0.998028
Si Si5 0.970095 0.833656 0.418736
Si Si6 0.726246 0.333854 0.571788
Si Si7 0.152223 0.669741 0.425786
Si Si8 0.306911 0.333477 0.833707
O O1 0.929445 0.500000 0.811838
O O2 0.866482 0.263789 0.823439
O O3 0.002664 0.258849 0.767920
O O4 0.889891 0.300807 0.916484
O O5 0.535378 0.500000 0.710845
O O6 0.548470 0.715597 0.630839
O O7 0.640563 0.699335 0.649554
O O8 0.347595 0.500000 0.666749
O O9 0.443799 0.303787 0.631299
O O10 0.331041 0.231981 0.647533
O O11 0.307464 0.295070 0.767742
O O12 0.278914 0.192304 0.081378
O O13 0.289345 0.000000 0.993811
O O14 0.250000 0.250000 0.000000
O O15 0.923133 0.738891 0.495762
O O16 0.948684 0.000000 0.443422
O O17 0.737085 0.500000 0.549298
O O18 0.750000 0.250000 0.500000
O O19 0.777346 0.286884 0.586835
O O20 0.140910 0.500000 0.430166
O O21 0.331744 0.500000 0.823640
#
# Coordination Sequence:
#
# PCOD8080052 Si02
#       8
#     8   8   8   8   8   8   8   8
#     4  10  18  27  43  72 102 124 151 193 240 278
#     4  10  19  33  51  69  92 127 161 193 231 280
#     4  10  20  33  49  69  93 127 165 191 219 274
#     4   8  15  26  42  65  95 126 154 187 227 275
#     4  10  19  33  51  69  91 125 164 193 223 276
#     4  10  21  36  53  70  90 119 159 199 241 282
#     4  11  23  35  48  70  95 121 154 199 246 278
#     4   9  16  30  48  66  93 131 165 187 221 279
#
# _framework density 16.138534
#
# number of rings (size 3 to 8) (size 9 to 14) (size 15 to 20)
#    0.000    2.250    2.500    1.125    0.000    4.500 
#    0.000    0.000    0.000    0.000    0.000    0.875 
#    0.000    7.000    0.000    0.000    0.000    0.000 
#
# Total GULP energy -396627.310582 kJ/mol
# GULP energy per Si atom -12394.603456 kJ/mol
# Density = 1.610180 g / cm^3
# Si number density = 16.138534 Si / 1000 Ang^3
#
#
#
# Elastic Constant Matrix: (Units=GPa)
#
#
# Indices 1 2 3 4 5 6 
#
# 1 66.2387 30.6367 44.7454 0.0002 10.2952 0.0001
# 2 30.6367 60.6117 55.5399 0.0002 3.2409 0.0029
# 3 44.7454 55.5399 148.5188 -0.0002 8.9530 0.0005
# 4 0.0002 0.0002 -0.0002 26.3994 0.0000 -0.2585
# 5 10.2952 3.2409 8.9530 0.0000 14.6052 -0.0001
# 6 0.0001 0.0029 0.0005 -0.2585 -0.0001 20.4399
#
#
#
# Elastic Compliance Matrix: (Units=1/GPa)
#
#
# Indices 1 2 3 4 5 6 
#
# 1 0.022851 -0.008008 -0.003142 0.000000 -0.012405 0.000001
# 2 -0.008008 0.027906 -0.008297 0.000000 0.004538 -0.000004
# 3 -0.003142 -0.008297 0.010942 0.000000 -0.002652 0.000001
# 4 0.000000 0.000000 0.000000 0.037884 0.000000 0.000479
# 5 -0.012405 0.004538 -0.002652 0.000000 0.077831 0.000000
# 6 0.000001 -0.000004 0.000001 0.000479 0.000000 0.048930
#
#
# Mechanical properties :
#
#
# Convention : Reuss Voigt Hill
#
# Bulk Modulus (GPa) = 43.84797 59.69038 51.76918
# Shear Modulus (GPa) = 18.32573 21.91870 20.12222
#
# Velocity S-wave (km/s) = 3.37341 3.68932 3.53490
# Velocity P-wave (km/s) = 6.51168 7.43066 6.98629
#
# Compressibility (1/GPa) = 0.02280607
#
# Stress axis : x y z
#
# Youngs Moduli (GPa) = 43.76109 35.83474 91.38860
#
# Poissons Ratio (x) = 0.28696 0.28716
# Poissons Ratio (y) = 0.35043 0.75822
# Poissons Ratio (z) = 0.13751 0.29731
#
# Static dielectric constant tensor:
#      x y z
#    x 2.845010 0.000000 -0.010590 
#    y 0.000000 3.088680 0.000000 
#    z -0.010590 0.000000 3.581840 
# 
# 
# High freq. dielectric constant tensor:
#      x y z
#    x 1.579110 0.000000 -0.002110 
#    y 0.000000 1.625940 0.000000 
#    z -0.002110 0.000000 1.633640 
# 
# From -- ./inp_files/287541.got.cif
#   From: 2010.06.25/outbox.cif.g09.slc.cpg/sg12_144_cif.got.tgz:287541.got - 2010.06.28 00:19:55.
