data_PCOD8080781
_publ_section_title
;
Structure prediction by ZEFSAII (Michael W. Deem and Ramdas Pophale) SiO2 
 PCOD8080781
Probable space group: C 2/M
;
_chemical_formula_sum "Si O2"
_cell_formula_units_Z 56
_cell_length_a 22.973833
_cell_length_b 9.164649
_cell_length_c 21.478632
_cell_angle_alpha 90.000000
_cell_angle_beta 131.912196
_cell_angle_gamma 90.000000
_cell_volume 3365.330383
_symmetry_space_group_name_H-M "C 2/M"
_symmetry_group_IT_number 12
_symmetry_cell_setting 'monoclinic'
loop_
_space_group_symop_operation_xyz
x,y,z
-x,y,-z
-x,-y,-z
x,-y,z
1/2+x,1/2+y,z
1/2-x,1/2+y,-z
1/2-x,1/2-y,-z
1/2+x,1/2-y,z
loop_
_atom_site_type_symbol
_atom_site_label
_atom_site_fract_x
_atom_site_fract_y
_atom_site_fract_z
Si Si1 0.024133 0.171628 0.268012
Si Si2 0.241813 0.161088 0.587393
Si Si3 0.346588 0.669103 0.120216
Si Si4 0.866899 0.337432 0.567270
Si Si5 0.411450 0.330453 0.917878
Si Si6 0.119574 0.673063 0.231011
Si Si7 0.800380 0.170857 0.950573
O O1 0.062242 0.237554 0.357674
O O2 0.056321 0.247234 0.228946
O O3 0.932352 0.204353 0.206967
O O4 0.042402 0.000000 0.277010
O O5 0.169850 0.269864 0.522242
O O6 0.300397 0.156529 0.571401
O O7 0.292256 0.212120 0.683165
O O8 0.206542 0.000000 0.573184
O O9 0.326743 0.500000 0.111635
O O10 0.283930 0.753821 0.117765
O O11 0.340427 0.720115 0.043925
O O12 0.897907 0.500000 0.574552
O O13 0.399129 0.500000 0.891616
O O14 0.388561 0.229165 0.844308
O O15 0.357237 0.279781 0.936009
O O16 0.500000 0.299940 0.000000
O O17 0.104929 0.500000 0.224885
O O18 0.786398 0.000000 0.938716
#
# Coordination Sequence:
#
# PCOD8080781 Si02
#       7
#     8   8   8   8   8   8   8
#     4  10  18  29  46  67  94 126 155 186 230 279
#     4   8  15  27  40  58  88 122 152 183 224 273
#     4   9  18  32  49  68  90 119 154 190 228 270
#     4   9  16  25  40  64  91 118 151 189 226 268
#     4  10  20  34  50  68  94 126 156 186 225 276
#     4  10  20  31  45  68  95 123 157 194 229 268
#     4   9  18  32  49  68  90 119 154 190 227 266
#
# _framework density 16.640269
#
# number of rings (size 3 to 8) (size 9 to 14) (size 15 to 20)
#    0.000    2.714    0.000    3.000    0.000    8.286 
#    0.000    2.857    0.000    0.000    0.000    1.000 
#    0.000    8.000    0.000    0.000    0.000    0.000 
#
# Total GULP energy -347156.295633 kJ/mol
# GULP energy per Si atom -12398.439130 kJ/mol
# Density = 1.660239 g / cm^3
# Si number density = 16.640269 Si / 1000 Ang^3
#
#
#
# Elastic Constant Matrix: (Units=GPa)
#
#
# Indices 1 2 3 4 5 6 
#
# 1 88.4610 46.3662 50.4961 0.0000 10.5110 0.0000
# 2 46.3662 89.0574 61.5989 0.0000 9.6170 0.0000
# 3 50.4961 61.5989 116.5603 0.0000 12.3585 0.0000
# 4 0.0000 0.0000 0.0000 29.9667 0.0000 5.3695
# 5 10.5110 9.6170 12.3585 0.0000 16.8423 0.0000
# 6 0.0000 0.0000 0.0000 5.3695 0.0000 17.3437
#
#
#
# Elastic Compliance Matrix: (Units=1/GPa)
#
#
# Indices 1 2 3 4 5 6 
#
# 1 0.017052 -0.005692 -0.003899 0.000000 -0.004531 0.000000
# 2 -0.005692 0.019792 -0.007777 0.000000 -0.002042 0.000000
# 3 -0.003899 -0.007777 0.014801 0.000000 -0.003987 0.000000
# 4 0.000000 0.000000 0.000000 0.035330 0.000000 -0.010938
# 5 -0.004531 -0.002042 -0.003987 0.000000 0.066294 0.000000
# 6 0.000000 0.000000 0.000000 -0.010938 0.000000 0.061044
#
#
# Mechanical properties :
#
#
# Convention : Reuss Voigt Hill
#
# Bulk Modulus (GPa) = 59.13944 67.88899 63.51422
# Shear Modulus (GPa) = 19.63219 21.87170 20.75195
#
# Velocity S-wave (km/s) = 3.43855 3.62938 3.53525
# Velocity P-wave (km/s) = 7.16812 7.64524 7.41052
#
# Compressibility (1/GPa) = 0.01690919
#
# Stress axis : x y z
#
# Youngs Moduli (GPa) = 58.64578 50.52605 67.56312
#
# Poissons Ratio (x) = 0.28757 0.26342
# Poissons Ratio (y) = 0.33379 0.52545
# Poissons Ratio (z) = 0.22865 0.39295
#
# Static dielectric constant tensor:
#      x y z
#    x 2.804880 0.000000 0.102320 
#    y 0.000000 3.250130 0.000000 
#    z 0.102320 0.000000 3.296240 
# 
# 
# High freq. dielectric constant tensor:
#      x y z
#    x 1.595390 0.000000 0.014110 
#    y 0.000000 1.649590 0.000000 
#    z 0.014110 0.000000 1.646290 
# 
# From -- ./inp_files/287354.got.cif
#   From: 2010.06.25/outbox.cif.g09.slc.cpg/sg12_144_cif.got.tgz:287354.got - 2010.06.28 00:19:55.
