data_PCOD8080666
_publ_section_title
;
Structure prediction by ZEFSAII (Michael W. Deem and Ramdas Pophale) SiO2 
 PCOD8080666
Probable space group: C 2/M
;
_chemical_formula_sum "Si O2"
_cell_formula_units_Z 60
_cell_length_a 29.987457
_cell_length_b 22.693548
_cell_length_c 18.303451
_cell_angle_alpha 90.000000
_cell_angle_beta 163.555077
_cell_angle_gamma 90.000000
_cell_volume 3526.183871
_symmetry_space_group_name_H-M "C 2/M"
_symmetry_group_IT_number 12
_symmetry_cell_setting 'monoclinic'
loop_
_space_group_symop_operation_xyz
x,y,z
-x,y,-z
-x,-y,-z
x,-y,z
1/2+x,1/2+y,z
1/2-x,1/2+y,-z
1/2-x,1/2-y,-z
1/2+x,1/2-y,z
loop_
_atom_site_type_symbol
_atom_site_label
_atom_site_fract_x
_atom_site_fract_y
_atom_site_fract_z
Si Si1 0.317888 0.066054 0.563225
Si Si2 0.500000 0.595519 0.000000
Si Si3 0.057733 0.249315 0.275262
Si Si4 0.469067 0.140427 0.679005
Si Si5 0.743503 0.065673 0.844843
Si Si6 0.857352 0.850013 0.912047
Si Si7 0.345607 0.828177 0.707380
Si Si8 0.098166 0.433599 0.763740
O O1 0.155079 0.057853 0.261556
O O2 0.444958 0.096684 0.709674
O O3 0.300956 0.105527 0.610208
O O4 0.373803 0.000000 0.672378
O O5 0.521121 0.635667 0.961687
O O6 0.997397 0.292353 0.244782
O O7 0.197082 0.202450 0.516227
O O8 0.123147 0.290071 0.314635
O O9 0.900307 0.215290 0.005137
O O10 0.316334 0.146473 0.390018
O O11 0.607630 0.112228 0.846634
O O12 0.870070 0.106236 0.001697
O O13 0.576946 0.065712 0.542938
O O14 0.719561 0.086993 0.891179
O O15 0.814321 0.000000 0.955473
O O16 0.500000 0.830212 0.000000
O O17 0.140259 0.500000 0.856264
#
# Coordination Sequence:
#
# PCOD8080666 Si02
#       8
#     8   4   8   8   8   8   8   8
#     4  10  19  30  44  67  91 116 150 191 230 271
#     4  10  19  30  44  68  94 124 145 184 232 270
#     4  10  19  31  44  64  87 118 157 194 223 263
#     4   9  18  28  45  66  86 117 149 189 227 269
#     4   8  15  26  43  65  90 116 141 175 225 280
#     4  10  18  29  44  65  91 118 151 186 222 271
#     4  10  20  32  47  61  86 127 159 189 225 272
#     4   8  13  26  45  65  88 114 142 176 226 279
#
# _framework density 17.015561999999999
#
# number of rings (size 3 to 8) (size 9 to 14) (size 15 to 20)
#    0.000    2.667    1.333    2.200    2.800    4.000 
#    0.000    0.667    0.000    0.000    0.000    0.000 
#    0.000    0.000    0.000   28.000    0.000    4.933 
#
# Total GULP energy -371677.926962 kJ/mol
# GULP energy per Si atom -12389.264232 kJ/mol
# Density = 1.697683 g / cm^3
# Si number density = 17.015562 Si / 1000 Ang^3
#
#
#
# Elastic Constant Matrix: (Units=GPa)
#
#
# Indices 1 2 3 4 5 6 
#
# 1 108.4607 62.0859 4.3493 0.0000 7.5563 0.0000
# 2 62.0859 130.4718 12.6822 0.0000 -0.8931 0.0000
# 3 4.3493 12.6822 22.5708 -0.0001 -6.7492 0.0000
# 4 0.0000 0.0000 -0.0001 15.4366 0.0000 -8.7992
# 5 7.5563 -0.8931 -6.7492 0.0000 14.6321 0.0000
# 6 0.0000 0.0000 0.0000 -8.7992 0.0000 19.6210
#
#
#
# Elastic Compliance Matrix: (Units=1/GPa)
#
#
# Indices 1 2 3 4 5 6 
#
# 1 0.013449 -0.006315 -0.001433 0.000000 -0.007992 0.000000
# 2 -0.006315 0.011117 -0.004467 0.000000 0.001879 0.000000
# 3 -0.001433 -0.004467 0.054788 0.000000 0.025739 0.000000
# 4 0.000000 0.000000 0.000000 0.087028 0.000000 0.039028
# 5 -0.007992 0.001879 0.025739 0.000000 0.084457 0.000000
# 6 0.000000 0.000000 0.000000 0.039028 0.000000 0.068468
#
#
# Mechanical properties :
#
#
# Convention : Reuss Voigt Hill
#
# Bulk Modulus (GPa) = 18.20751 46.63756 32.42254
# Shear Modulus (GPa) = 13.81042 22.09701 17.95372
#
# Velocity S-wave (km/s) = 2.85201 3.60757 3.25181
# Velocity P-wave (km/s) = 4.64425 6.69485 5.76151
#
# Compressibility (1/GPa) = 0.05492238
#
# Stress axis : x y z
#
# Youngs Moduli (GPa) = 74.35372 89.95395 18.25229
#
# Poissons Ratio (x) = 0.56809 0.02615
# Poissons Ratio (y) = 0.46957 0.08154
# Poissons Ratio (z) = 0.10654 0.40187
#
# Static dielectric constant tensor:
#      x y z
#    x 3.449040 0.000000 0.041590 
#    y 0.000000 3.447710 0.000000 
#    z 0.041590 0.000000 2.756960 
# 
# 
# High freq. dielectric constant tensor:
#      x y z
#    x 1.646660 0.000000 -0.001870 
#    y 0.000000 1.660250 0.000000 
#    z -0.001870 0.000000 1.602010 
# 
# From -- ./inp_files/297108.got.cif
#   From: 2010.06.25/outbox.cif.g09.slc.cpg/sg12_149_cif.got.tgz:297108.got - 2010.06.28 00:19:55.
