data_PCOD8080018
_publ_section_title
;
Structure prediction by ZEFSAII (Michael W. Deem and Ramdas Pophale) SiO2 
 PCOD8080018
Probable space group: C 2/M
;
_chemical_formula_sum "Si O2"
_cell_formula_units_Z 64
_cell_length_a 9.120090
_cell_length_b 25.922342
_cell_length_c 21.405357
_cell_angle_alpha 90.000000
_cell_angle_beta 129.713227
_cell_angle_gamma 90.000000
_cell_volume 3892.821680
_symmetry_space_group_name_H-M "C 2/M"
_symmetry_group_IT_number 12
_symmetry_cell_setting 'monoclinic'
loop_
_space_group_symop_operation_xyz
x,y,z
-x,y,-z
-x,-y,-z
x,-y,z
1/2+x,1/2+y,z
1/2-x,1/2+y,-z
1/2-x,1/2-y,-z
1/2+x,1/2-y,z
loop_
_atom_site_type_symbol
_atom_site_label
_atom_site_fract_x
_atom_site_fract_y
_atom_site_fract_z
Si Si1 0.364491 0.641271 0.074336
Si Si2 0.833163 0.806811 0.506594
Si Si3 0.597312 0.295702 0.341367
Si Si4 0.035172 0.637889 0.886325
Si Si5 0.782874 0.667784 0.182780
Si Si6 0.668899 0.942885 0.094870
Si Si7 0.454731 0.188716 0.353480
Si Si8 0.281050 0.710605 0.161583
O O1 0.581532 0.642147 0.112426
O O2 0.336794 0.590733 0.110104
O O3 0.320582 0.693316 0.101416
O O4 0.232634 0.638623 0.977781
O O5 0.750000 0.750000 0.500000
O O6 0.907818 0.828141 0.594315
O O7 0.646354 0.839385 0.432739
O O8 0.000000 0.806874 0.500000
O O9 0.536461 0.237556 0.338668
O O10 0.809518 0.296568 0.369496
O O11 0.443148 0.316277 0.249677
O O12 0.069443 0.638726 0.821834
O O13 0.911343 0.586820 0.866336
O O14 0.923882 0.689818 0.874079
O O15 0.844705 0.655507 0.271023
O O16 0.778398 0.728152 0.165303
O O17 0.743346 0.000000 0.133789
O O18 0.500000 0.947457 0.000000
#
# Coordination Sequence:
#
# PCOD8080018 Si02
#       8
#     8   8   8   8   8   8   8   8
#     4  10  19  34  44  69  89 122 161 195 231 269
#     4  10  18  27  43  60  80 110 158 205 234 268
#     4  10  18  29  43  58  83 118 161 200 228 269
#     4  10  21  30  48  65  93 120 161 198 228 271
#     4  11  21  29  43  65  98 129 160 191 226 263
#     4   8  16  34  55  68  83 111 150 197 247 293
#     4  10  19  29  42  59  85 121 160 197 232 264
#     4  10  20  30  44  62  91 135 166 188 221 266
#
# _framework density 16.440517
#
# number of rings (size 3 to 8) (size 9 to 14) (size 15 to 20)
#    0.000    2.125    1.250    5.625    7.000    3.000 
#    0.000    0.625    0.000    3.000    0.000    0.000 
#    0.000    0.000    0.000   18.000    0.500    2.000 
#
# Total GULP energy -396496.959611 kJ/mol
# GULP energy per Si atom -12390.529988 kJ/mol
# Density = 1.640310 g / cm^3
# Si number density = 16.440517 Si / 1000 Ang^3
#
#
#
# Elastic Constant Matrix: (Units=GPa)
#
#
# Indices 1 2 3 4 5 6 
#
# 1 111.9054 22.6745 21.6547 0.0000 -11.7170 0.0000
# 2 22.6745 63.0428 12.8235 0.0000 -2.1665 0.0000
# 3 21.6547 12.8235 69.1031 0.0000 -3.4354 0.0000
# 4 0.0000 0.0000 0.0000 3.9085 0.0000 0.2172
# 5 -11.7170 -2.1665 -3.4354 0.0000 30.6728 0.0000
# 6 0.0000 0.0000 0.0000 0.2172 0.0000 -2.0230
#
#
#
# Elastic Compliance Matrix: (Units=1/GPa)
#
#
# Indices 1 2 3 4 5 6 
#
# 1 0.010418 -0.003116 -0.002513 0.000000 0.003478 0.000000
# 2 -0.003116 0.017437 -0.002270 0.000000 -0.000213 0.000000
# 3 -0.002513 -0.002270 0.015712 0.000000 0.000639 0.000000
# 4 0.000000 0.000000 0.000000 0.254333 0.000000 0.027301
# 5 0.003478 -0.000213 0.000639 0.000000 0.033987 0.000000
# 6 0.000000 0.000000 0.000000 0.027301 0.000000 -0.491386
#
#
# Mechanical properties :
#
#
# Convention : Reuss Voigt Hill
#
# Bulk Modulus (GPa) = 36.01271 39.81740 37.91506
# Shear Modulus (GPa) = -37.19040 18.97158 -9.10941
#
# Velocity S-wave (km/s) = -4.76133 3.40067 -2.35645
# Velocity P-wave (km/s) = 2.87657 6.30009 3.96336
#
# Compressibility (1/GPa) = 0.02776798
#
# Stress axis : x y z
#
# Youngs Moduli (GPa) = 95.98684 57.34774 63.64641
#
# Poissons Ratio (x) = 0.17871 0.15997
# Poissons Ratio (y) = 0.29912 0.14447
# Poissons Ratio (z) = 0.24126 0.13018
#
# Static dielectric constant tensor:
#      x y z
#    x 3.257310 0.000000 0.109070 
#    y 0.000000 2.767120 0.000000 
#    z 0.109070 0.000000 4.103300 
# 
# 
# High freq. dielectric constant tensor:
#      x y z
#    x 1.650590 0.000000 -0.001110 
#    y 0.000000 1.553620 0.000000 
#    z -0.001110 0.000000 1.643120 
# 
# From -- ./inp_files/302564.got.cif
#   From: 2010.06.25/outbox.cif.g09.slc.cpg/sg12_152_cif.got.tgz:302564.got - 2010.06.28 00:19:55.
