data_PCOD8080623
_publ_section_title
;
Structure prediction by ZEFSAII (Michael W. Deem and Ramdas Pophale) SiO2 
 PCOD8080623
Probable space group: C 2/M
;
_chemical_formula_sum "Si O2"
_cell_formula_units_Z 64
_cell_length_a 22.829545
_cell_length_b 29.637218
_cell_length_c 19.433337
_cell_angle_alpha 90.000000
_cell_angle_beta 163.072518
_cell_angle_gamma 90.000000
_cell_volume 3828.383359
_symmetry_space_group_name_H-M "C 2/M"
_symmetry_group_IT_number 12
_symmetry_cell_setting 'monoclinic'
loop_
_space_group_symop_operation_xyz
x,y,z
-x,y,-z
-x,-y,-z
x,-y,z
1/2+x,1/2+y,z
1/2-x,1/2+y,-z
1/2-x,1/2-y,-z
1/2+x,1/2-y,z
loop_
_atom_site_type_symbol
_atom_site_label
_atom_site_fract_x
_atom_site_fract_y
_atom_site_fract_z
Si Si1 0.158981 0.948978 0.093922
Si Si2 0.374807 0.701924 0.570258
Si Si3 0.963393 0.231864 0.382320
Si Si4 0.722423 0.643439 0.994163
Si Si5 0.351050 0.050505 0.164714
Si Si6 0.256937 0.914747 0.348914
Si Si7 0.945073 0.713690 0.148362
Si Si8 0.006775 0.335071 0.429331
O O1 0.963704 0.917103 0.866517
O O2 0.079247 0.000000 0.008476
O O3 0.302547 0.942305 0.190602
O O4 0.274512 0.937444 0.293629
O O5 0.402315 0.702125 0.518726
O O6 0.492060 0.746092 0.730009
O O7 0.141356 0.698669 0.326334
O O8 0.489502 0.657983 0.728357
O O9 0.000000 0.212536 0.500000
O O10 0.051015 0.282234 0.475997
O O11 0.726136 0.230446 0.096935
O O12 0.736065 0.589613 0.992167
O O13 0.862374 0.671654 0.098887
O O14 0.797867 0.652499 0.156707
O O15 0.589996 0.059019 0.428161
O O16 0.294380 0.000000 0.074634
O O17 0.314390 0.861745 0.408589
O O18 0.000000 0.352139 0.500000
#
# Coordination Sequence:
#
# PCOD8080623 Si02
#       8
#     8   8   8   8   8   8   8   8
#     4  10  19  31  43  58  82 119 168 213 249 286
#     4  10  19  34  53  72  94 131 165 194 236 291
#     4  10  19  34  51  71 102 126 153 206 245 276
#     4  10  18  33  50  66  95 128 166 203 240 284
#     4  10  20  31  46  66  89 119 157 202 250 288
#     4  10  18  29  43  59  84 122 164 207 249 287
#     4  10  19  34  53  72  95 128 168 193 235 294
#     4  10  18  29  44  65  96 125 162 208 248 280
#
# _framework density 16.71724
#
# number of rings (size 3 to 8) (size 9 to 14) (size 15 to 20)
#    0.000    2.000    2.500    4.125    0.000    3.500 
#    0.000    2.500    0.000    0.000    0.000    0.000 
#    0.000    8.000    0.000    9.000    0.000    0.000 
#
# Total GULP energy -396682.916200 kJ/mol
# GULP energy per Si atom -12396.341131 kJ/mol
# Density = 1.667919 g / cm^3
# Si number density = 16.717240 Si / 1000 Ang^3
#
#
#
# Elastic Constant Matrix: (Units=GPa)
#
#
# Indices 1 2 3 4 5 6 
#
# 1 58.7851 17.5109 35.6196 0.0001 -5.1502 -0.0003
# 2 17.5109 94.9690 31.5146 0.0003 -1.9944 -0.0011
# 3 35.6196 31.5146 79.4394 0.0001 8.5292 0.0054
# 4 0.0001 0.0003 0.0001 23.3167 0.0009 0.5235
# 5 -5.1502 -1.9944 8.5292 0.0009 23.7051 0.0028
# 6 -0.0003 -0.0011 0.0054 0.5235 0.0028 12.9992
#
#
#
# Elastic Compliance Matrix: (Units=1/GPa)
#
#
# Indices 1 2 3 4 5 6 
#
# 1 0.025471 -0.000396 -0.012331 0.000000 0.009937 0.000004
# 2 -0.000396 0.012322 -0.005006 0.000000 0.002752 0.000002
# 3 -0.012331 -0.005006 0.021257 0.000001 -0.010749 -0.000007
# 4 0.000000 0.000000 0.000001 0.042927 -0.000002 -0.001729
# 5 0.009937 0.002752 -0.010749 -0.000002 0.048443 -0.000006
# 6 0.000004 0.000002 -0.000007 -0.001729 -0.000006 0.076998
#
#
# Mechanical properties :
#
#
# Convention : Reuss Voigt Hill
#
# Bulk Modulus (GPa) = 42.40083 44.72042 43.56062
# Shear Modulus (GPa) = 18.46758 21.90742 20.18750
#
# Velocity S-wave (km/s) = 3.32731 3.62397 3.47880
# Velocity P-wave (km/s) = 6.33876 6.65733 6.50000
#
# Compressibility (1/GPa) = 0.02358444
#
# Stress axis : x y z
#
# Youngs Moduli (GPa) = 39.25989 81.15701 47.04271
#
# Poissons Ratio (x) = 0.03213 0.58008
# Poissons Ratio (y) = 0.01555 0.23550
# Poissons Ratio (z) = 0.48411 0.40628
#
# Static dielectric constant tensor:
#      x y z
#    x 2.960800 0.000000 0.014440 
#    y 0.000000 3.266570 0.000000 
#    z 0.014440 0.000000 3.097620 
# 
# 
# High freq. dielectric constant tensor:
#      x y z
#    x 1.615560 0.000000 0.018610 
#    y 0.000000 1.635360 0.000000 
#    z 0.018610 0.000000 1.633730 
# 
# From -- ./inp_files/286787.got.cif
#   From: 2010.06.25/outbox.cif.g09.slc.cpg/sg12_144_cif.got.tgz:286787.got - 2010.06.28 00:19:55.
