data_PCOD8080254
_publ_section_title
;
Structure prediction by ZEFSAII (Michael W. Deem and Ramdas Pophale) SiO2 
 PCOD8080254
Probable space group: C 2/M
;
_chemical_formula_sum "Si O2"
_cell_formula_units_Z 56
_cell_length_a 27.638845
_cell_length_b 9.001654
_cell_length_c 17.336532
_cell_angle_alpha 90.000000
_cell_angle_beta 54.097342
_cell_angle_gamma 90.000000
_cell_volume 3493.793168
_symmetry_space_group_name_H-M "C 2/M"
_symmetry_group_IT_number 12
_symmetry_cell_setting 'monoclinic'
loop_
_space_group_symop_operation_xyz
x,y,z
-x,y,-z
-x,-y,-z
x,-y,z
1/2+x,1/2+y,z
1/2-x,1/2+y,-z
1/2-x,1/2-y,-z
1/2+x,1/2-y,z
loop_
_atom_site_type_symbol
_atom_site_label
_atom_site_fract_x
_atom_site_fract_y
_atom_site_fract_z
Si Si1 0.275096 0.324851 0.214862
Si Si2 0.100721 0.324843 0.885964
Si Si3 0.418844 0.670921 0.941521
Si Si4 0.736606 0.672802 0.391191
Si Si5 0.664485 0.671088 0.603357
Si Si6 0.547722 0.669272 0.795354
Si Si7 0.211694 0.827160 0.971156
O O1 0.276676 0.500000 0.222646
O O2 0.337160 0.257991 0.185989
O O3 0.225763 0.256550 0.319466
O O4 0.263908 0.279335 0.136290
O O5 0.110674 0.500000 0.878884
O O6 0.057668 0.281356 0.856305
O O7 0.070994 0.271504 0.993045
O O8 0.410129 0.500000 0.976467
O O9 0.478354 0.689880 0.832845
O O10 0.358163 0.719837 0.954193
O O11 0.743332 0.500000 0.367333
O O12 0.680265 0.707642 0.499556
O O13 0.797269 0.727090 0.375428
O O14 0.680914 0.500000 0.605996
O O15 0.593886 0.703295 0.682438
O O16 0.557053 0.500000 0.815584
O O17 0.220018 0.000000 0.975988
O O18 0.250000 0.750000 0.000000
#
# Coordination Sequence:
#
# PCOD8080254 Si02
#       7
#     8   8   8   8   8   8   8
#     4  10  19  32  48  66  91 124 156 186 228 280
#     4  11  20  28  41  65  93 121 155 192 223 258
#     4   9  19  33  47  64  88 121 155 182 221 279
#     4  10  18  28  43  67  93 121 158 196 227 258
#     4   9  18  29  43  63  92 128 160 189 223 263
#     4  10  18  30  46  62  88 128 160 182 216 267
#     4   9  19  34  51  70  90 112 145 189 235 282
#
# _framework density 16.028424000000001
#
# number of rings (size 3 to 8) (size 9 to 14) (size 15 to 20)
#    0.000    2.286    1.429    3.429    0.000    5.714 
#    0.000    0.000    0.000    0.000    0.000    1.000 
#    0.000    8.000    0.000    0.000    0.000    0.000 
#
# Total GULP energy -347029.263092 kJ/mol
# GULP energy per Si atom -12393.902253 kJ/mol
# Density = 1.599194 g / cm^3
# Si number density = 16.028424 Si / 1000 Ang^3
#
#
#
# Elastic Constant Matrix: (Units=GPa)
#
#
# Indices 1 2 3 4 5 6 
#
# 1 88.5903 34.6697 69.2359 0.0000 -2.0040 0.0000
# 2 34.6697 69.2593 46.7789 0.0000 2.9534 0.0002
# 3 69.2359 46.7789 127.5242 0.0000 -11.7696 0.0000
# 4 0.0000 0.0000 0.0000 24.5821 0.0000 3.7502
# 5 -2.0040 2.9534 -11.7696 0.0000 20.7857 0.0000
# 6 0.0000 0.0002 0.0000 3.7502 0.0000 19.7646
#
#
#
# Elastic Compliance Matrix: (Units=1/GPa)
#
#
# Indices 1 2 3 4 5 6 
#
# 1 0.020476 -0.003171 -0.010266 0.000000 -0.003388 0.000000
# 2 -0.003171 0.020727 -0.006522 0.000000 -0.006944 0.000000
# 3 -0.010266 -0.006522 0.016673 0.000000 0.009378 0.000000
# 4 0.000000 0.000000 0.000000 0.041893 0.000000 -0.007949
# 5 -0.003388 -0.006944 0.009378 0.000000 0.054080 0.000000
# 6 0.000000 0.000000 0.000000 -0.007949 0.000000 0.052104
#
#
# Mechanical properties :
#
#
# Convention : Reuss Voigt Hill
#
# Bulk Modulus (GPa) = 55.68893 65.19365 60.44129
# Shear Modulus (GPa) = 19.85244 22.00578 20.92911
#
# Velocity S-wave (km/s) = 3.52316 3.70932 3.61744
# Velocity P-wave (km/s) = 7.16725 7.68814 7.43226
#
# Compressibility (1/GPa) = 0.01795689
#
# Stress axis : x y z
#
# Youngs Moduli (GPa) = 48.83864 48.24516 59.97546
#
# Poissons Ratio (x) = 0.15300 0.61571
# Poissons Ratio (y) = 0.15488 0.39119
# Poissons Ratio (z) = 0.50138 0.31468
#
# Static dielectric constant tensor:
#      x y z
#    x 2.744880 0.000000 -0.192870 
#    y 0.000000 3.080870 0.000000 
#    z -0.192870 0.000000 3.354290 
# 
# 
# High freq. dielectric constant tensor:
#      x y z
#    x 1.566960 0.000000 -0.018520 
#    y 0.000000 1.621950 0.000000 
#    z -0.018520 0.000000 1.618960 
# 
# From -- ./inp_files/243648.got.cif
#   From: 2010.06.25/outbox.cif.g09.slc.cpg/sg12_122_cif.got.tgz:243648.got - 2010.06.28 00:19:55.
