data_PCOD8080725
_publ_section_title
;
Structure prediction by ZEFSAII (Michael W. Deem and Ramdas Pophale) SiO2 
 PCOD8080725
Probable space group: C 2/M
;
_chemical_formula_sum "Si O2"
_cell_formula_units_Z 56
_cell_length_a 26.999314
_cell_length_b 8.615618
_cell_length_c 16.164237
_cell_angle_alpha 90.000000
_cell_angle_beta 65.658670
_cell_angle_gamma 90.000000
_cell_volume 3425.810800
_symmetry_space_group_name_H-M "C 2/M"
_symmetry_group_IT_number 12
_symmetry_cell_setting 'monoclinic'
loop_
_space_group_symop_operation_xyz
x,y,z
-x,y,-z
-x,-y,-z
x,-y,z
1/2+x,1/2+y,z
1/2-x,1/2+y,-z
1/2-x,1/2-y,-z
1/2+x,1/2-y,z
loop_
_atom_site_type_symbol
_atom_site_label
_atom_site_fract_x
_atom_site_fract_y
_atom_site_fract_z
Si Si1 0.854010 0.683609 0.302090
Si Si2 0.758853 0.818710 0.868258
Si Si3 0.554972 0.317958 0.869921
Si Si4 0.940442 0.681419 0.957323
Si Si5 0.756915 0.316272 0.695350
Si Si6 0.664900 0.319841 0.034014
Si Si7 0.696420 0.180051 0.501376
O O1 0.859139 0.500000 0.284008
O O2 0.906785 0.769546 0.231818
O O3 0.800427 0.743508 0.292178
O O4 0.852441 0.727564 0.402324
O O5 0.777191 0.759934 0.766085
O O6 0.704649 0.728757 0.932320
O O7 0.745320 0.000000 0.876945
O O8 0.807842 0.780241 0.896949
O O9 0.558772 0.500000 0.883717
O O10 0.493491 0.272363 0.889219
O O11 0.574450 0.229915 0.939003
O O12 0.952732 0.500000 0.945240
O O13 0.890615 0.723221 0.931850
O O14 0.749410 0.500000 0.711146
O O15 0.805280 0.275449 0.595113
O O16 0.651285 0.500000 0.033745
O O17 0.750000 0.250000 0.500000
O O18 0.704634 0.000000 0.503686
#
# Coordination Sequence:
#
# PCOD8080725 Si02
#       7
#     8   8   8   8   8   8   8
#     4  10  18  30  46  66  93 123 155 188 224 266
#     4  10  20  32  47  68  92 121 155 187 223 267
#     4  11  21  33  48  68  93 121 153 185 223 268
#     4  11  21  34  50  68  91 119 152 188 226 266
#     4  10  18  29  45  67  94 123 154 187 226 268
#     4  10  20  34  49  66  91 121 153 189 226 265
#     4   8  16  28  43  63  89 120 151 185 223 266
#
# _framework density 16.346495999999998
#
# number of rings (size 3 to 8) (size 9 to 14) (size 15 to 20)
#    0.000    2.000    0.000    6.000    0.000    2.857 
#    0.000    0.000    0.000    0.000    0.000    1.000 
#    0.000    8.000    0.000    0.000    0.000    0.000 
#
# Total GULP energy -347056.067718 kJ/mol
# GULP energy per Si atom -12394.859561 kJ/mol
# Density = 1.630929 g / cm^3
# Si number density = 16.346496 Si / 1000 Ang^3
#
#
#
# Elastic Constant Matrix: (Units=GPa)
#
#
# Indices 1 2 3 4 5 6 
#
# 1 71.4636 19.2922 40.4082 0.0000 -1.8712 0.0000
# 2 19.2922 56.1577 27.5512 0.0000 1.4956 0.0000
# 3 40.4082 27.5512 130.3122 0.0000 -4.7079 0.0000
# 4 0.0000 0.0000 0.0000 24.3754 0.0000 -0.3307
# 5 -1.8712 1.4956 -4.7079 0.0000 18.8521 0.0000
# 6 0.0000 0.0000 0.0000 -0.3307 0.0000 24.6194
#
#
#
# Elastic Compliance Matrix: (Units=1/GPa)
#
#
# Indices 1 2 3 4 5 6 
#
# 1 0.017671 -0.003818 -0.004640 0.000000 0.000898 0.000000
# 2 -0.003818 0.020825 -0.003322 0.000000 -0.002861 0.000000
# 3 -0.004640 -0.003322 0.009897 0.000000 0.002275 0.000000
# 4 0.000000 0.000000 0.000000 0.041033 0.000000 0.000551
# 5 0.000898 -0.002861 0.002275 0.000000 0.053929 0.000000
# 6 0.000000 0.000000 0.000000 0.000551 0.000000 0.040626
#
#
# Mechanical properties :
#
#
# Convention : Reuss Voigt Hill
#
# Bulk Modulus (GPa) = 40.27000 48.04853 44.15927
# Shear Modulus (GPa) = 23.16767 24.94815 24.05791
#
# Velocity S-wave (km/s) = 3.76877 3.91091 3.84050
# Velocity P-wave (km/s) = 6.60507 7.06054 6.83660
#
# Compressibility (1/GPa) = 0.02483238
#
# Stress axis : x y z
#
# Youngs Moduli (GPa) = 56.59002 48.01968 101.03841
#
# Poissons Ratio (x) = 0.18335 0.46880
# Poissons Ratio (y) = 0.21607 0.33568
# Poissons Ratio (z) = 0.26257 0.15953
#
# Static dielectric constant tensor:
#      x y z
#    x 2.852640 0.000000 -0.019580 
#    y 0.000000 3.225030 0.000000 
#    z -0.019580 0.000000 3.770250 
# 
# 
# High freq. dielectric constant tensor:
#      x y z
#    x 1.592490 0.000000 -0.003140 
#    y 0.000000 1.649240 0.000000 
#    z -0.003140 0.000000 1.632320 
# 
# From -- ./inp_files/243066.got.cif
#   From: 2010.06.25/outbox.cif.g09.slc.cpg/sg12_122_cif.got.tgz:243066.got - 2010.06.28 00:19:55.
