data_PCOD8080117
_publ_section_title
;
Structure prediction by ZEFSAII (Michael W. Deem and Ramdas Pophale) SiO2 
 PCOD8080117
Probable space group: C 2/M
;
_chemical_formula_sum "Si O2"
_cell_formula_units_Z 48
_cell_length_a 22.474506
_cell_length_b 9.227976
_cell_length_c 14.051680
_cell_angle_alpha 90.000000
_cell_angle_beta 77.448701
_cell_angle_gamma 90.000000
_cell_volume 2844.592028
_symmetry_space_group_name_H-M "C 2/M"
_symmetry_group_IT_number 12
_symmetry_cell_setting 'monoclinic'
loop_
_space_group_symop_operation_xyz
x,y,z
-x,y,-z
-x,-y,-z
x,-y,z
1/2+x,1/2+y,z
1/2-x,1/2+y,-z
1/2-x,1/2-y,-z
1/2+x,1/2-y,z
loop_
_atom_site_type_symbol
_atom_site_label
_atom_site_fract_x
_atom_site_fract_y
_atom_site_fract_z
Si Si1 0.259718 0.331596 0.722896
Si Si2 0.799154 0.828620 0.918320
Si Si3 0.859844 0.830260 0.306914
Si Si4 0.050234 0.666143 0.849231
Si Si5 0.585874 0.167061 0.049025
Si Si6 0.192677 0.834886 0.485863
O O1 0.240550 0.500000 0.731008
O O2 0.286746 0.283654 0.814021
O O3 0.199289 0.240869 0.721133
O O4 0.314067 0.302955 0.625163
O O5 0.866181 0.774542 0.920785
O O6 0.794864 0.000000 0.935833
O O7 0.750000 0.750000 0.000000
O O8 0.921425 0.765646 0.242320
O O9 0.862349 0.798144 0.421305
O O10 0.857849 0.000000 0.285423
O O11 0.059831 0.500000 0.817037
O O12 0.978992 0.702385 0.881318
O O13 0.083546 0.697725 0.937388
O O14 0.604256 0.000000 0.060687
O O15 0.250000 0.750000 0.500000
O O16 0.210259 0.000000 0.494845
#
# Coordination Sequence:
#
# PCOD8080117 Si02
#       6
#     8   8   8   8   8   8
#     4   9  18  32  47  64  93 130 157 180 222 278
#     4  11  22  33  48  70  95 124 155 186 224 271
#     4  10  18  27  46  75  97 115 149 195 233 264
#     4   9  18  33  51  68  90 122 154 185 228 279
#     4   9  19  35  51  67  90 122 157 189 224 269
#     4   8  15  28  44  64  91 120 151 187 225 266
#
# _framework density 16.874126
#
# number of rings (size 3 to 8) (size 9 to 14) (size 15 to 20)
#    0.000    2.667    0.000    3.000    0.000    7.333 
#    0.000    1.667    0.000    1.000    0.000    7.000 
#    0.000    0.000    0.000    0.000    0.000    0.000 
#
# Total GULP energy -297380.704144 kJ/mol
# GULP energy per Si atom -12390.862673 kJ/mol
# Density = 1.683572 g / cm^3
# Si number density = 16.874126 Si / 1000 Ang^3
#
#
#
# Elastic Constant Matrix: (Units=GPa)
#
#
# Indices 1 2 3 4 5 6 
#
# 1 73.7254 40.8919 55.3394 0.0000 -1.1927 0.0000
# 2 40.8919 71.4348 63.8453 0.0000 -3.9854 0.0000
# 3 55.3394 63.8453 162.4506 0.0000 -9.0296 0.0000
# 4 0.0000 0.0000 0.0000 27.6137 0.0000 -4.8364
# 5 -1.1927 -3.9854 -9.0296 0.0000 22.9130 0.0000
# 6 0.0000 0.0000 0.0000 -4.8364 0.0000 29.2126
#
#
#
# Elastic Compliance Matrix: (Units=1/GPa)
#
#
# Indices 1 2 3 4 5 6 
#
# 1 0.021378 -0.008849 -0.003914 0.000000 -0.001969 0.000000
# 2 -0.008849 0.025245 -0.006839 0.000000 0.001236 0.000000
# 3 -0.003914 -0.006839 0.010325 0.000000 0.002676 0.000000
# 4 0.000000 0.000000 0.000000 0.037295 0.000000 0.006175
# 5 -0.001969 0.001236 0.002676 0.000000 0.044810 0.000000
# 6 0.000000 0.000000 0.000000 0.006175 0.000000 0.035254
#
#
# Mechanical properties :
#
#
# Convention : Reuss Voigt Hill
#
# Bulk Modulus (GPa) = 56.35339 69.75156 63.05247
# Shear Modulus (GPa) = 22.78655 25.78347 24.28501
#
# Velocity S-wave (km/s) = 3.67874 3.91319 3.79778
# Velocity P-wave (km/s) = 7.17726 7.86407 7.52850
#
# Compressibility (1/GPa) = 0.01774516
#
# Stress axis : x y z
#
# Youngs Moduli (GPa) = 46.77645 39.61128 96.84788
#
# Poissons Ratio (x) = 0.35053 0.37908
# Poissons Ratio (y) = 0.41394 0.66230
# Poissons Ratio (z) = 0.18309 0.27088
#
# Static dielectric constant tensor:
#      x y z
#    x 2.830250 0.000000 -0.049160 
#    y 0.000000 3.175480 0.000000 
#    z -0.049160 0.000000 3.874130 
# 
# 
# High freq. dielectric constant tensor:
#      x y z
#    x 1.611460 0.000000 -0.011320 
#    y 0.000000 1.657220 0.000000 
#    z -0.011320 0.000000 1.669980 
# 
# From -- ./inp_files/172394.got.cif
#   From: 2010.06.25/outbox.cif.g09.slc.cpg/sg12_87_cif.got.tgz:172394.got - 2010.06.28 00:19:55.
