data_PCOD8080676
_publ_section_title
;
Structure prediction by ZEFSAII (Michael W. Deem and Ramdas Pophale) SiO2 
 PCOD8080676
Probable space group: C 2/M
;
_chemical_formula_sum "Si O2"
_cell_formula_units_Z 44
_cell_length_a 7.824010
_cell_length_b 29.804916
_cell_length_c 14.963137
_cell_angle_alpha 90.000000
_cell_angle_beta 127.016019
_cell_angle_gamma 90.000000
_cell_volume 2786.102200
_symmetry_space_group_name_H-M "C 2/M"
_symmetry_group_IT_number 12
_symmetry_cell_setting 'monoclinic'
loop_
_space_group_symop_operation_xyz
x,y,z
-x,y,-z
-x,-y,-z
x,-y,z
1/2+x,1/2+y,z
1/2-x,1/2+y,-z
1/2-x,1/2-y,-z
1/2+x,1/2-y,z
loop_
_atom_site_type_symbol
_atom_site_label
_atom_site_fract_x
_atom_site_fract_y
_atom_site_fract_z
Si Si1 0.500000 0.910459 0.500000
Si Si2 0.568373 0.726289 0.766131
Si Si3 0.366461 0.688929 0.871004
Si Si4 0.484003 0.870240 0.317051
Si Si5 0.706872 0.292300 0.622873
Si Si6 0.246979 0.051120 0.569761
O O1 0.395838 0.878813 0.390138
O O2 0.683633 0.941547 0.512329
O O3 0.529427 0.694553 0.839265
O O4 0.733224 0.765667 0.845246
O O5 0.657626 0.696901 0.711871
O O6 0.344539 0.746926 0.662857
O O7 0.209216 0.646417 0.805899
O O8 0.500000 0.676685 0.000000
O O9 0.667928 0.833098 0.381588
O O10 0.601903 0.916421 0.320893
O O11 0.500000 0.282081 0.500000
O O12 0.000000 0.065066 0.500000
O O13 0.283641 0.000000 0.611711
#
# Coordination Sequence:
#
# PCOD8080676 Si02
#       6
#     4   8   8   8   8   8
#     4   8  19  32  48  76 106 124 160 196 246 300
#     4   9  20  31  45  66  88 128 173 208 245 284
#     4  10  19  34  48  65  93 130 176 213 246 279
#     4   9  20  29  47  72  97 126 158 203 244 295
#     4  10  18  29  44  66  98 124 155 197 255 302
#     4   9  17  31  52  77 103 131 156 192 246 303
#
# _framework density 15.792672
#
# number of rings (size 3 to 8) (size 9 to 14) (size 15 to 20)
#    1.091    1.636    0.000    1.909    2.545    0.000 
#    3.273    0.000    0.000    0.545    0.000    0.000 
#    0.000    4.364    0.000    0.000    0.000    0.000 
#
# Total GULP energy -272581.641343 kJ/mol
# GULP energy per Si atom -12390.074606 kJ/mol
# Density = 1.575673 g / cm^3
# Si number density = 15.792672 Si / 1000 Ang^3
#
#
#
# Elastic Constant Matrix: (Units=GPa)
#
#
# Indices 1 2 3 4 5 6 
#
# 1 85.6871 21.9746 24.2563 0.0000 -0.1863 0.0000
# 2 21.9746 66.5150 35.1632 0.0000 1.2790 0.0000
# 3 24.2563 35.1632 95.2654 0.0000 11.3195 0.0000
# 4 0.0000 0.0000 0.0000 15.3700 0.0000 -1.9869
# 5 -0.1863 1.2790 11.3195 0.0000 17.5373 0.0000
# 6 0.0000 0.0000 0.0000 -1.9869 0.0000 24.1940
#
#
#
# Elastic Compliance Matrix: (Units=1/GPa)
#
#
# Indices 1 2 3 4 5 6 
#
# 1 0.013159 -0.003096 -0.002438 0.000000 0.001939 0.000000
# 2 -0.003096 0.019590 -0.006790 0.000000 0.002921 0.000000
# 3 -0.002438 -0.006790 0.014695 0.000000 -0.009016 0.000000
# 4 0.000000 0.000000 0.000000 0.065760 0.000000 0.005401
# 5 0.001939 0.002921 -0.009016 0.000000 0.062648 0.000000
# 6 0.000000 0.000000 0.000000 0.005401 0.000000 0.041776
#
#
# Mechanical properties :
#
#
# Convention : Reuss Voigt Hill
#
# Bulk Modulus (GPa) = 43.86560 45.58395 44.72477
# Shear Modulus (GPa) = 20.01007 22.49183 21.25095
#
# Velocity S-wave (km/s) = 3.56342 3.77794 3.67225
# Velocity P-wave (km/s) = 6.69080 6.92511 6.80896
#
# Compressibility (1/GPa) = 0.02279691
#
# Stress axis : x y z
#
# Youngs Moduli (GPa) = 75.99555 51.04612 68.04931
#
# Poissons Ratio (x) = 0.15801 0.16592
# Poissons Ratio (y) = 0.23525 0.46204
# Poissons Ratio (z) = 0.18530 0.34659
#
# Static dielectric constant tensor:
#      x y z
#    x 3.247030 0.000000 -0.018710 
#    y 0.000000 2.811460 0.000000 
#    z -0.018710 0.000000 2.712740 
# 
# 
# High freq. dielectric constant tensor:
#      x y z
#    x 1.623990 0.000000 0.001210 
#    y 0.000000 1.583060 0.000000 
#    z 0.001210 0.000000 1.574810 
# 
# From -- ./inp_files/200435.got.cif
#   From: 2010.06.25/outbox.cif.g09.slc.cpg/sg12_101_cif.got.tgz:200435.got - 2010.06.28 00:19:55.
