data_PCOD8080452
_publ_section_title
;
Structure prediction by ZEFSAII (Michael W. Deem and Ramdas Pophale) SiO2 
 PCOD8080452
Probable space group: C 2/M
;
_chemical_formula_sum "Si O2"
_cell_formula_units_Z 48
_cell_length_a 27.813013
_cell_length_b 9.352311
_cell_length_c 11.425812
_cell_angle_alpha 90.000000
_cell_angle_beta 76.277544
_cell_angle_gamma 90.000000
_cell_volume 2887.202778
_symmetry_space_group_name_H-M "C 2/M"
_symmetry_group_IT_number 12
_symmetry_cell_setting 'monoclinic'
loop_
_space_group_symop_operation_xyz
x,y,z
-x,y,-z
-x,-y,-z
x,-y,z
1/2+x,1/2+y,z
1/2-x,1/2+y,-z
1/2-x,1/2-y,-z
1/2+x,1/2-y,z
loop_
_atom_site_type_symbol
_atom_site_label
_atom_site_fract_x
_atom_site_fract_y
_atom_site_fract_z
Si Si1 0.280063 0.833090 0.145225
Si Si2 0.891302 0.332895 0.473810
Si Si3 0.709109 0.167735 0.595983
Si Si4 0.409923 0.667625 0.697987
Si Si5 0.678951 0.335057 0.082315
Si Si6 0.997078 0.342519 0.362660
O O1 0.288701 0.779266 0.271782
O O2 0.224088 0.792805 0.141889
O O3 0.290654 0.000000 0.127884
O O4 0.318940 0.754538 0.038267
O O5 0.891699 0.500000 0.508962
O O6 0.844574 0.292118 0.422419
O O7 0.889585 0.241597 0.593042
O O8 0.940349 0.296623 0.367720
O O9 0.750000 0.250000 0.500000
O O10 0.720336 0.000000 0.580200
O O11 0.415174 0.500000 0.670198
O O12 0.372011 0.700916 0.823767
O O13 0.463116 0.729363 0.708792
O O14 0.682392 0.500000 0.045539
O O15 0.008809 0.500000 0.303454
O O16 0.000000 0.348121 0.500000
#
# Coordination Sequence:
#
# PCOD8080452 Si02
#       6
#     8   8   8   8   8   8
#     4   9  18  32  48  66  89 118 152 186 220 264
#     4   9  18  31  46  66  95 126 151 182 226 273
#     4  10  20  33  49  70  95 122 152 185 224 271
#     4  10  18  28  46  71  95 118 150 191 230 269
#     4   9  18  31  46  66  92 118 146 186 230 267
#     4   8  15  28  44  64  91 121 152 186 225 268
#
# _framework density 16.625087000000001
#
# number of rings (size 3 to 8) (size 9 to 14) (size 15 to 20)
#    0.000    2.833    0.000    2.500    0.000    7.000 
#    0.000    3.333    0.000    1.000    0.000    7.000 
#    0.000    0.000    0.000    0.000    0.000    0.000 
#
# Total GULP energy -297556.686178 kJ/mol
# GULP energy per Si atom -12398.195257 kJ/mol
# Density = 1.658725 g / cm^3
# Si number density = 16.625087 Si / 1000 Ang^3
#
#
#
# Elastic Constant Matrix: (Units=GPa)
#
#
# Indices 1 2 3 4 5 6 
#
# 1 129.5404 52.4852 70.5596 0.0000 -12.9144 0.0000
# 2 52.4852 70.4833 61.4718 0.0000 -10.7662 0.0000
# 3 70.5596 61.4718 118.0658 0.0000 -8.0670 0.0000
# 4 0.0000 0.0000 0.0000 29.3070 0.0000 -6.4684
# 5 -12.9144 -10.7662 -8.0670 0.0000 24.9817 0.0000
# 6 0.0000 0.0000 0.0000 -6.4684 0.0000 25.1512
#
#
#
# Elastic Compliance Matrix: (Units=1/GPa)
#
#
# Indices 1 2 3 4 5 6 
#
# 1 0.012551 -0.004640 -0.004886 0.000000 0.002911 0.000000
# 2 -0.004640 0.028954 -0.011875 0.000000 0.006245 0.000000
# 3 -0.004886 -0.011875 0.017435 0.000000 -0.002014 0.000000
# 4 0.000000 0.000000 0.000000 0.036175 0.000000 0.009303
# 5 0.002911 0.006245 -0.002014 0.000000 0.043575 0.000000
# 6 0.000000 0.000000 0.000000 0.009303 0.000000 0.042152
#
#
# Mechanical properties :
#
#
# Convention : Reuss Voigt Hill
#
# Bulk Modulus (GPa) = 61.96844 76.34696 69.15770
# Shear Modulus (GPa) = 21.83168 24.79285 23.31227
#
# Velocity S-wave (km/s) = 3.62771 3.86591 3.74870
# Velocity P-wave (km/s) = 7.40959 8.12093 7.77340
#
# Compressibility (1/GPa) = 0.01613725
#
# Stress axis : x y z
#
# Youngs Moduli (GPa) = 79.67297 34.53775 57.35477
#
# Poissons Ratio (x) = 0.16026 0.28025
# Poissons Ratio (y) = 0.36970 0.68110
# Poissons Ratio (z) = 0.38930 0.41014
#
# Static dielectric constant tensor:
#      x y z
#    x 3.493840 0.000000 -0.150010 
#    y 0.000000 3.132170 0.000000 
#    z -0.150010 0.000000 2.957450 
# 
# 
# High freq. dielectric constant tensor:
#      x y z
#    x 1.642020 0.000000 -0.016560 
#    y 0.000000 1.640780 0.000000 
#    z -0.016560 0.000000 1.616160 
# 
# From -- ./inp_files/179154.got.cif
#   From: 2010.06.25/outbox.cif.g09.slc.cpg/sg12_90_cif.got.tgz:179154.got - 2010.06.28 00:19:55.
