data_PCOD8080176
_publ_section_title
;
Structure prediction by ZEFSAII (Michael W. Deem and Ramdas Pophale) SiO2 
 PCOD8080176
Probable space group: C 2/M
;
_chemical_formula_sum "Si O2"
_cell_formula_units_Z 64
_cell_length_a 27.550848
_cell_length_b 9.008228
_cell_length_c 16.815542
_cell_angle_alpha 90.000000
_cell_angle_beta 102.132096
_cell_angle_gamma 90.000000
_cell_volume 4080.144755
_symmetry_space_group_name_H-M "C 2/M"
_symmetry_group_IT_number 12
_symmetry_cell_setting 'monoclinic'
loop_
_space_group_symop_operation_xyz
x,y,z
-x,y,-z
-x,-y,-z
x,-y,z
1/2+x,1/2+y,z
1/2-x,1/2+y,-z
1/2-x,1/2-y,-z
1/2+x,1/2-y,z
loop_
_atom_site_type_symbol
_atom_site_label
_atom_site_fract_x
_atom_site_fract_y
_atom_site_fract_z
Si Si1 0.205568 0.671309 0.096368
Si Si2 0.128879 0.667500 0.934477
Si Si3 0.800786 0.673436 0.174617
Si Si4 0.698056 0.327829 0.493808
Si Si5 0.832010 0.326498 0.662973
Si Si6 0.719125 0.669261 0.673298
Si Si7 0.555604 0.675152 0.017592
Si Si8 0.129822 0.175490 0.178678
O O1 0.205225 0.500000 0.123731
O O2 0.261275 0.731665 0.110327
O O3 0.180165 0.770104 0.155335
O O4 0.178335 0.693150 0.003595
O O5 0.109644 0.500000 0.937123
O O6 0.145681 0.701759 0.849582
O O7 0.083966 0.770244 0.948289
O O8 0.787044 0.500000 0.165432
O O9 0.803253 0.724929 0.266764
O O10 0.702495 0.500000 0.472202
O O11 0.750000 0.250000 0.500000
O O12 0.659231 0.247807 0.421051
O O13 0.684734 0.309655 0.582763
O O14 0.842118 0.500000 0.659099
O O15 0.776342 0.290397 0.674091
O O16 0.872666 0.254581 0.736336
O O17 0.716316 0.500000 0.702457
O O18 0.554484 0.500000 0.011829
O O19 0.583513 0.726883 0.107749
O O20 0.500000 0.741035 0.000000
O O21 0.130915 0.000000 0.190570
#
# Coordination Sequence:
#
# PCOD8080176 Si02
#       8
#     8   8   8   8   8   8   8   8
#     4  10  18  29  42  57  85 117 148 184 218 253
#     4   9  20  33  44  63  86 113 148 183 219 261
#     4  11  20  28  41  61  87 117 152 185 213 254
#     4   9  17  28  41  57  81 114 153 188 220 257
#     4  10  18  28  42  61  87 115 149 187 219 258
#     4   9  18  29  40  57  84 119 152 183 218 253
#     4   9  19  35  52  69  88 111 143 184 228 271
#     4  10  18  28  45  66  87 114 147 182 222 264
#
# _framework density 15.685717
#
# number of rings (size 3 to 8) (size 9 to 14) (size 15 to 20)
#    0.000    2.375    1.250    3.000    0.000    4.750 
#    0.000    0.000    0.000    0.000    0.000    0.000 
#    0.000    1.000    0.000   11.250    0.000    5.625 
#
# Total GULP energy -396638.626392 kJ/mol
# GULP energy per Si atom -12394.957075 kJ/mol
# Density = 1.565002 g / cm^3
# Si number density = 15.685717 Si / 1000 Ang^3
#
#
#
# Elastic Constant Matrix: (Units=GPa)
#
#
# Indices 1 2 3 4 5 6 
#
# 1 63.4426 27.3296 35.6410 0.0000 -0.8011 0.0000
# 2 27.3296 71.9714 41.4833 0.0000 -0.6066 0.0000
# 3 35.6410 41.4833 88.9859 0.0000 -5.0685 0.0000
# 4 0.0000 0.0000 0.0000 28.6018 0.0000 -2.3620
# 5 -0.8011 -0.6066 -5.0685 0.0000 12.0198 0.0000
# 6 0.0000 0.0000 0.0000 -2.3620 0.0000 15.5030
#
#
#
# Elastic Compliance Matrix: (Units=1/GPa)
#
#
# Indices 1 2 3 4 5 6 
#
# 1 0.021312 -0.004285 -0.006629 0.000000 -0.001591 0.000000
# 2 -0.004285 0.019957 -0.007732 0.000000 -0.002539 0.000000
# 3 -0.006629 -0.007732 0.017879 0.000000 0.006707 0.000000
# 4 0.000000 0.000000 0.000000 0.035408 0.000000 0.005395
# 5 -0.001591 -0.002539 0.006707 0.000000 0.085790 0.000000
# 6 0.000000 0.000000 0.000000 0.005395 0.000000 0.065325
#
#
# Mechanical properties :
#
#
# Convention : Reuss Voigt Hill
#
# Bulk Modulus (GPa) = 45.75364 48.14531 46.94947
# Shear Modulus (GPa) = 17.22656 19.22132 18.22394
#
# Velocity S-wave (km/s) = 3.31755 3.50437 3.41224
# Velocity P-wave (km/s) = 6.62625 6.86546 6.74691
#
# Compressibility (1/GPa) = 0.02185619
#
# Stress axis : x y z
#
# Youngs Moduli (GPa) = 46.92125 50.10858 55.93128
#
# Poissons Ratio (x) = 0.21474 0.37076
# Poissons Ratio (y) = 0.20108 0.43243
# Poissons Ratio (z) = 0.31104 0.38742
#
# Static dielectric constant tensor:
#      x y z
#    x 2.618270 0.000000 0.013860 
#    y 0.000000 3.076310 0.000000 
#    z 0.013860 0.000000 3.326880 
# 
# 
# High freq. dielectric constant tensor:
#      x y z
#    x 1.537430 0.000000 -0.005520 
#    y 0.000000 1.615350 0.000000 
#    z -0.005520 0.000000 1.608120 
# 
# From -- ./inp_files/287733.got.cif
#   From: 2010.06.25/outbox.cif.g09.slc.cpg/sg12_144_cif.got.tgz:287733.got - 2010.06.28 00:19:55.
