data_PCOD8080211
_publ_section_title
;
Structure prediction by ZEFSAII (Michael W. Deem and Ramdas Pophale) SiO2 
 PCOD8080211
Probable space group: C 2/M
;
_chemical_formula_sum "Si O2"
_cell_formula_units_Z 64
_cell_length_a 32.050592
_cell_length_b 9.063119
_cell_length_c 30.414641
_cell_angle_alpha 90.000000
_cell_angle_beta 150.846153
_cell_angle_gamma 90.000000
_cell_volume 4303.925989
_symmetry_space_group_name_H-M "C 2/M"
_symmetry_group_IT_number 12
_symmetry_cell_setting 'monoclinic'
loop_
_space_group_symop_operation_xyz
x,y,z
-x,y,-z
-x,-y,-z
x,-y,z
1/2+x,1/2+y,z
1/2-x,1/2+y,-z
1/2-x,1/2-y,-z
1/2+x,1/2-y,z
loop_
_atom_site_type_symbol
_atom_site_label
_atom_site_fract_x
_atom_site_fract_y
_atom_site_fract_z
Si Si1 0.335093 0.173312 0.172407
Si Si2 0.546395 0.832593 0.801537
Si Si3 0.783312 0.826678 0.466546
Si Si4 0.086740 0.172443 0.671734
Si Si5 0.371270 0.672973 0.637303
Si Si6 0.207208 0.329592 0.001151
Si Si7 0.112237 0.171432 0.521990
Si Si8 0.601302 0.166310 0.598224
O O1 0.400276 0.210531 0.192887
O O2 0.370907 0.241552 0.249565
O O3 0.242206 0.248091 0.077069
O O4 0.321537 0.000000 0.165746
O O5 0.467374 0.724014 0.734370
O O6 0.512948 0.000000 0.766321
O O7 0.604857 0.816133 0.899350
O O8 0.691819 0.747171 0.385366
O O9 0.843456 0.779672 0.562637
O O10 0.829712 0.774314 0.464939
O O11 0.767097 0.000000 0.451665
O O12 0.127342 0.236217 0.664240
O O13 0.985714 0.203104 0.580740
O O14 0.107941 0.000000 0.694394
O O15 0.366311 0.500000 0.639607
O O16 0.235383 0.500000 0.028185
O O17 0.250000 0.250000 0.000000
O O18 0.142250 0.262260 0.592292
O O19 0.125557 0.000000 0.544761
O O20 0.500000 0.167496 0.500000
O O21 0.636090 0.000000 0.635943
#
# Coordination Sequence:
#
# PCOD8080211 Si02
#       8
#     8   8   8   8   8   8   8   8
#     4  10  19  29  42  62  86 112 142 174 209 248
#     4   9  18  30  43  59  82 112 141 171 209 249
#     4   9  18  31  43  58  83 111 140 176 214 248
#     4  10  18  28  43  62  85 112 142 174 207 248
#     4  10  19  29  43  62  82 108 143 178 210 245
#     4   9  17  29  43  60  82 109 140 172 208 248
#     4   9  17  29  44  60  80 111 146 175 209 251
#     4   9  17  28  41  59  83 109 138 173 210 247
#
# _framework density 14.870144
#
# number of rings (size 3 to 8) (size 9 to 14) (size 15 to 20)
#    0.000    2.625    0.000    3.375    0.000    7.000 
#    0.000    0.000    0.000    0.000    0.000    0.000 
#    0.000    1.000    0.000   10.500    0.000    5.000 
#
# Total GULP energy -396743.363006 kJ/mol
# GULP energy per Si atom -12398.230094 kJ/mol
# Density = 1.483630 g / cm^3
# Si number density = 14.870144 Si / 1000 Ang^3
#
#
#
# Elastic Constant Matrix: (Units=GPa)
#
#
# Indices 1 2 3 4 5 6 
#
# 1 99.7295 48.1085 41.6387 0.0000 -7.4865 0.0000
# 2 48.1085 87.4692 46.9609 -0.0001 -7.3703 -0.0002
# 3 41.6387 46.9609 75.8365 0.0000 -6.8792 0.0000
# 4 0.0000 -0.0001 0.0000 27.0676 0.0000 -3.5509
# 5 -7.4865 -7.3703 -6.8792 0.0000 17.2304 0.0000
# 6 0.0000 -0.0002 0.0000 -3.5509 0.0000 25.0033
#
#
#
# Elastic Compliance Matrix: (Units=1/GPa)
#
#
# Indices 1 2 3 4 5 6 
#
# 1 0.014718 -0.005507 -0.004466 0.000000 0.002256 0.000000
# 2 -0.005507 0.019360 -0.008747 0.000000 0.002396 0.000000
# 3 -0.004466 -0.008747 0.021311 0.000000 0.002826 0.000000
# 4 0.000000 0.000000 0.000000 0.037646 0.000000 0.005346
# 5 0.002256 0.002396 0.002826 0.000000 0.061170 0.000000
# 6 0.000000 0.000000 0.000000 0.005346 0.000000 0.040754
#
#
# Mechanical properties :
#
#
# Convention : Reuss Voigt Hill
#
# Bulk Modulus (GPa) = 55.71608 59.60572 57.66090
# Shear Modulus (GPa) = 20.97472 22.28208 21.62840
#
# Velocity S-wave (km/s) = 3.75977 3.87517 3.81791
# Velocity P-wave (km/s) = 7.50983 7.75847 7.63516
#
# Compressibility (1/GPa) = 0.01794814
#
# Stress axis : x y z
#
# Youngs Moduli (GPa) = 67.94581 51.65400 46.92317
#
# Poissons Ratio (x) = 0.28445 0.20956
# Poissons Ratio (y) = 0.37417 0.41045
# Poissons Ratio (z) = 0.30345 0.45183
#
# Static dielectric constant tensor:
#      x y z
#    x 2.788970 0.000000 -0.124910 
#    y 0.000000 3.046960 0.000000 
#    z -0.124910 0.000000 2.854290 
# 
# 
# High freq. dielectric constant tensor:
#      x y z
#    x 1.542590 0.000000 -0.013870 
#    y 0.000000 1.585170 0.000000 
#    z -0.013870 0.000000 1.548590 
# 
# From -- ./inp_files/248498.got.cif
#   From: 2010.06.25/outbox.cif.g09.slc.cpg/sg12_125_cif.got.tgz:248498.got - 2010.06.28 00:19:55.
