data_PCOD8080485
_publ_section_title
;
Structure prediction by ZEFSAII (Michael W. Deem and Ramdas Pophale) SiO2 
 PCOD8080485
Probable space group: C 2/M
;
_chemical_formula_sum "Si O2"
_cell_formula_units_Z 56
_cell_length_a 25.510219
_cell_length_b 14.325356
_cell_length_c 10.211438
_cell_angle_alpha 90.000000
_cell_angle_beta 124.105554
_cell_angle_gamma 90.000000
_cell_volume 3089.868459
_symmetry_space_group_name_H-M "C 2/M"
_symmetry_group_IT_number 12
_symmetry_cell_setting 'monoclinic'
loop_
_space_group_symop_operation_xyz
x,y,z
-x,y,-z
-x,-y,-z
x,-y,z
1/2+x,1/2+y,z
1/2-x,1/2+y,-z
1/2-x,1/2-y,-z
1/2+x,1/2-y,z
loop_
_atom_site_type_symbol
_atom_site_label
_atom_site_fract_x
_atom_site_fract_y
_atom_site_fract_z
Si Si1 0.964282 0.105481 0.076256
Si Si2 0.005597 0.393849 0.221571
Si Si3 0.730834 0.219691 0.329352
Si Si4 0.603242 0.105487 0.125165
Si Si5 0.349257 0.391991 0.502990
Si Si6 0.327772 0.398268 0.779637
Si Si7 0.474990 0.287819 0.608103
O O1 0.978685 0.164637 0.223642
O O2 0.989831 0.000000 0.132369
O O3 0.889395 0.107743 0.955062
O O4 0.000000 0.149387 0.000000
O O5 0.003661 0.500000 0.273071
O O6 0.060227 0.383600 0.191654
O O7 0.022593 0.323633 0.363287
O O8 0.937951 0.367743 0.060755
O O9 0.750000 0.250000 0.500000
O O10 0.663031 0.171230 0.226456
O O11 0.785108 0.151857 0.349371
O O12 0.722133 0.319318 0.242285
O O13 0.628012 0.000000 0.146866
O O14 0.354969 0.500000 0.467240
O O15 0.349412 0.383173 0.659836
O O16 0.405372 0.330486 0.523126
O O17 0.295270 0.500000 0.749217
O O18 0.500000 0.310439 0.500000
#
# Coordination Sequence:
#
# PCOD8080485 Si02
#       7
#     8   8   8   8   8   8   8
#     4  10  19  33  56  80 105 140 178 224 274 314
#     4   9  19  34  54  79 107 138 178 226 269 313
#     4  10  18  28  46  76 111 144 167 211 272 319
#     4   9  17  31  54  82 104 133 179 227 267 309
#     4  10  20  34  50  74 108 141 175 215 264 325
#     4   9  17  30  51  79 105 135 176 217 264 316
#     4  12  24  35  53  80 109 144 178 220 273 324
#
# _framework density 18.123749
#
# number of rings (size 3 to 8) (size 9 to 14) (size 15 to 20)
#    0.000    2.143    1.429    4.286    2.000    2.000 
#    0.000    0.714    0.000    3.429    0.000    4.000 
#    0.000    0.000    0.000    0.000    0.000    0.000 
#
# Total GULP energy -347044.626671 kJ/mol
# GULP energy per Si atom -12394.450953 kJ/mol
# Density = 1.808250 g / cm^3
# Si number density = 18.123749 Si / 1000 Ang^3
#
#
#
# Elastic Constant Matrix: (Units=GPa)
#
#
# Indices 1 2 3 4 5 6 
#
# 1 61.4402 55.6517 46.2374 0.0000 19.1259 0.0000
# 2 55.6517 142.1923 62.6358 0.0000 19.0850 0.0000
# 3 46.2374 62.6358 69.6815 0.0000 8.6945 0.0000
# 4 0.0000 0.0000 0.0000 23.2887 0.0000 11.1555
# 5 19.1259 19.0850 8.6945 0.0000 33.3988 0.0000
# 6 0.0000 0.0000 0.0000 11.1555 0.0000 22.5212
#
#
#
# Elastic Compliance Matrix: (Units=1/GPa)
#
#
# Indices 1 2 3 4 5 6 
#
# 1 0.041403 -0.004764 -0.021262 0.000000 -0.015452 0.000000
# 2 -0.004764 0.012749 -0.007990 0.000000 -0.002477 0.000000
# 3 -0.021262 -0.007990 0.034679 0.000000 0.007714 0.000000
# 4 0.000000 0.000000 0.000000 0.056297 0.000000 -0.027886
# 5 -0.015452 -0.002477 0.007714 0.000000 0.038197 0.000000
# 6 0.000000 0.000000 0.000000 -0.027886 0.000000 0.058215
#
#
# Mechanical properties :
#
#
# Convention : Reuss Voigt Hill
#
# Bulk Modulus (GPa) = 48.08081 66.92932 57.50506
# Shear Modulus (GPa) = 15.79748 23.09434 19.44591
#
# Velocity S-wave (km/s) = 2.95557 3.57355 3.27915
# Velocity P-wave (km/s) = 6.18336 7.35093 6.79228
#
# Compressibility (1/GPa) = 0.02079832
#
# Stress axis : x y z
#
# Youngs Moduli (GPa) = 24.15308 78.43513 28.83574
#
# Poissons Ratio (x) = 0.37369 0.61311
# Poissons Ratio (y) = 0.11507 0.23039
# Poissons Ratio (z) = 0.51355 0.62668
#
# Static dielectric constant tensor:
#      x y z
#    x 3.042770 0.000000 0.402560 
#    y 0.000000 3.991370 0.000000 
#    z 0.402560 0.000000 3.236960 
# 
# 
# High freq. dielectric constant tensor:
#      x y z
#    x 1.657600 0.000000 0.039280 
#    y 0.000000 1.731240 0.000000 
#    z 0.039280 0.000000 1.681310 
# 
# From -- ./inp_files/111730.got.cif
#   From: 2010.06.25/outbox.cif.g09.slc.cpg/sg12_56_cif.got.tgz:111730.got - 2010.06.28 00:19:55.
