data_PCOD8080255
_publ_section_title
;
Structure prediction by ZEFSAII (Michael W. Deem and Ramdas Pophale) SiO2 
 PCOD8080255
Probable space group: C 2/M
;
_chemical_formula_sum "Si O2"
_cell_formula_units_Z 64
_cell_length_a 23.612582
_cell_length_b 9.032475
_cell_length_c 21.386946
_cell_angle_alpha 90.000000
_cell_angle_beta 123.982496
_cell_angle_gamma 90.000000
_cell_volume 3782.358560
_symmetry_space_group_name_H-M "C 2/M"
_symmetry_group_IT_number 12
_symmetry_cell_setting 'monoclinic'
loop_
_space_group_symop_operation_xyz
x,y,z
-x,y,-z
-x,-y,-z
x,-y,z
1/2+x,1/2+y,z
1/2-x,1/2+y,-z
1/2-x,1/2-y,-z
1/2+x,1/2-y,z
loop_
_atom_site_type_symbol
_atom_site_label
_atom_site_fract_x
_atom_site_fract_y
_atom_site_fract_z
Si Si1 0.324346 0.829603 0.376716
Si Si2 0.853957 0.166246 0.073518
Si Si3 0.299105 0.828178 0.221599
Si Si4 0.281327 0.834472 0.928275
Si Si5 0.568463 0.825287 0.773605
Si Si6 0.949014 0.158744 0.415054
Si Si7 0.455504 0.326631 0.637291
Si Si8 0.191588 0.176262 0.504286
O O1 0.286097 0.797620 0.287336
O O2 0.402162 0.791169 0.409825
O O3 0.298470 0.729576 0.418066
O O4 0.317732 0.000000 0.392706
O O5 0.783312 0.161749 0.066619
O O6 0.908444 0.262040 0.145428
O O7 0.882019 0.000000 0.080877
O O8 0.841911 0.242060 0.998594
O O9 0.239435 0.740263 0.149887
O O10 0.375347 0.777453 0.245347
O O11 0.290889 0.000000 0.200049
O O12 0.307818 0.000000 0.931130
O O13 0.491443 0.761198 0.716230
O O14 0.563290 0.000000 0.774876
O O15 0.000000 0.115932 0.500000
O O16 0.992834 0.217298 0.385090
O O17 0.910784 0.000000 0.375904
O O18 0.453582 0.500000 0.651485
O O19 0.380064 0.271677 0.570962
O O20 0.250000 0.250000 0.500000
O O21 0.197666 0.000000 0.507363
#
# Coordination Sequence:
#
# PCOD8080255 Si02
#       8
#     8   8   8   8   8   8   8   8
#     4  11  21  33  50  74 100 128 162 204 247 292
#     4   9  16  26  39  57  87 128 165 196 235 281
#     4   9  18  29  41  64  97 128 159 197 239 284
#     4   9  16  25  39  59  85 124 167 200 232 276
#     4  10  18  28  43  67  97 126 162 202 238 282
#     4  10  18  31  48  70  97 127 158 196 245 295
#     4  10  20  33  50  70  97 127 160 200 248 296
#     4  11  24  42  57  72  93 126 166 207 251 300
#
# _framework density 16.920659000000001
#
# number of rings (size 3 to 8) (size 9 to 14) (size 15 to 20)
#    0.000    2.125    2.500    1.875    0.000    5.750 
#    0.000    0.000    0.000    0.000    0.000    0.000 
#    0.000    1.000    0.000   10.500    0.000    5.500 
#
# Total GULP energy -396533.813556 kJ/mol
# GULP energy per Si atom -12391.681674 kJ/mol
# Density = 1.688215 g / cm^3
# Si number density = 16.920659 Si / 1000 Ang^3
#
#
#
# Elastic Constant Matrix: (Units=GPa)
#
#
# Indices 1 2 3 4 5 6 
#
# 1 53.1472 32.9635 40.0286 0.0000 -4.4778 0.0000
# 2 32.9635 89.7060 62.6748 0.0000 -0.9769 0.0000
# 3 40.0286 62.6748 127.5147 0.0000 1.8611 0.0000
# 4 0.0000 0.0000 0.0000 34.1443 0.0000 0.0276
# 5 -4.4778 -0.9769 1.8611 0.0000 6.8872 0.0000
# 6 0.0000 0.0000 0.0000 0.0276 0.0000 19.7348
#
#
#
# Elastic Compliance Matrix: (Units=1/GPa)
#
#
# Indices 1 2 3 4 5 6 
#
# 1 0.029050 -0.005918 -0.006499 0.000000 0.019804 0.000000
# 2 -0.005918 0.018335 -0.007164 0.000000 0.000689 0.000000
# 3 -0.006499 -0.007164 0.013534 0.000000 -0.008899 0.000000
# 4 0.000000 0.000000 0.000000 0.029287 0.000000 -0.000041
# 5 0.019804 0.000689 -0.008899 0.000000 0.160575 0.000000
# 6 0.000000 0.000000 0.000000 -0.000041 0.000000 0.050672
#
#
# Mechanical properties :
#
#
# Convention : Reuss Voigt Hill
#
# Bulk Modulus (GPa) = 45.96587 60.18909 53.07748
# Shear Modulus (GPa) = 14.37327 21.13333 17.75330
#
# Velocity S-wave (km/s) = 2.91770 3.53791 3.24266
# Velocity P-wave (km/s) = 6.21089 7.23447 6.74213
#
# Compressibility (1/GPa) = 0.02175527
#
# Stress axis : x y z
#
# Youngs Moduli (GPa) = 34.42346 54.54016 73.89005
#
# Poissons Ratio (x) = 0.32278 0.48024
# Poissons Ratio (y) = 0.20372 0.52936
# Poissons Ratio (z) = 0.22373 0.39073
#
# Static dielectric constant tensor:
#      x y z
#    x 2.670250 0.000000 0.005280 
#    y 0.000000 3.304690 0.000000 
#    z 0.005280 0.000000 3.447420 
# 
# 
# High freq. dielectric constant tensor:
#      x y z
#    x 1.577460 0.000000 0.000780 
#    y 0.000000 1.667040 0.000000 
#    z 0.000780 0.000000 1.665370 
# 
# From -- ./inp_files/323747.got.cif
#   From: 2010.06.25/outbox.cif.g09.slc.cpg/sg12_162_cif.got.tgz:323747.got - 2010.06.28 00:19:55.
