data_PCOD8080825
_publ_section_title
;
Structure prediction by ZEFSAII (Michael W. Deem and Ramdas Pophale) SiO2 
 PCOD8080825
Probable space group: C 2/M
;
_chemical_formula_sum "Si O2"
_cell_formula_units_Z 64
_cell_length_a 24.508175
_cell_length_b 17.443020
_cell_length_c 9.399173
_cell_angle_alpha 90.000000
_cell_angle_beta 94.670619
_cell_angle_gamma 90.000000
_cell_volume 4004.771316
_symmetry_space_group_name_H-M "C 2/M"
_symmetry_group_IT_number 12
_symmetry_cell_setting 'monoclinic'
loop_
_space_group_symop_operation_xyz
x,y,z
-x,y,-z
-x,-y,-z
x,-y,z
1/2+x,1/2+y,z
1/2-x,1/2+y,-z
1/2-x,1/2-y,-z
1/2+x,1/2-y,z
loop_
_atom_site_type_symbol
_atom_site_label
_atom_site_fract_x
_atom_site_fract_y
_atom_site_fract_z
Si Si1 0.944994 0.411111 0.071268
Si Si2 0.947359 0.410796 0.403616
Si Si3 0.842254 0.324036 0.922439
Si Si4 0.735015 0.585722 0.437838
Si Si5 0.744753 0.413259 0.778179
Si Si6 0.798817 0.237782 0.175547
Si Si7 0.339502 0.173209 0.421229
Si Si8 0.313553 0.727976 0.685776
O O1 0.929866 0.500000 0.043864
O O2 0.954150 0.392990 0.238586
O O3 0.896181 0.359128 0.002110
O O4 0.000000 0.389043 0.000000
O O5 0.937715 0.500000 0.429203
O O6 0.896922 0.366711 0.463548
O O7 0.000000 0.381100 0.500000
O O8 0.806608 0.390660 0.839011
O O9 0.859167 0.257723 0.809471
O O10 0.802708 0.281680 0.027342
O O11 0.720517 0.500000 0.387119
O O12 0.739066 0.593022 0.607790
O O13 0.793452 0.608484 0.381097
O O14 0.686317 0.638922 0.361234
O O15 0.732820 0.500000 0.827299
O O16 0.699961 0.355344 0.840835
O O17 0.847083 0.271089 0.286042
O O18 0.743252 0.253631 0.248982
O O19 0.318217 0.222150 0.546939
#
# Coordination Sequence:
#
# PCOD8080825 Si02
#       8
#     8   8   8   8   8   8   8   8
#     4  10  22  38  51  70 100 131 168 210 249 288
#     4  10  22  36  51  73  99 130 168 211 248 282
#     4  11  20  33  50  69  97 135 167 199 244 291
#     4  10  18  29  46  71 100 129 164 200 234 284
#     4  10  18  29  46  71  99 130 166 195 236 290
#     4  10  18  33  47  68  99 130 163 204 241 284
#     4  11  17  33  50  69  99 133 170 195 241 295
#     4  10  19  31  48  71  96 131 169 198 240 289
#
# _framework density 15.980937000000001
#
# number of rings (size 3 to 8) (size 9 to 14) (size 15 to 20)
#    0.000    1.750    5.000    3.000    1.750    0.000 
#    0.000    3.750    0.000    0.000    0.000    0.000 
#    0.000    6.000    0.000    0.000    0.000    0.000 
#
# Total GULP energy -396511.560988 kJ/mol
# GULP energy per Si atom -12390.986281 kJ/mol
# Density = 1.594456 g / cm^3
# Si number density = 15.980937 Si / 1000 Ang^3
#
#
#
# Elastic Constant Matrix: (Units=GPa)
#
#
# Indices 1 2 3 4 5 6 
#
# 1 54.1044 41.7719 20.4736 0.0000 10.9540 0.0000
# 2 41.7719 125.5795 50.4659 0.0000 8.4947 0.0000
# 3 20.4736 50.4659 82.6168 0.0000 11.6351 0.0000
# 4 0.0000 0.0000 0.0000 22.9520 0.0000 3.8310
# 5 10.9540 8.4947 11.6351 0.0000 26.4421 0.0000
# 6 0.0000 0.0000 0.0000 3.8310 0.0000 17.8285
#
#
#
# Elastic Compliance Matrix: (Units=1/GPa)
#
#
# Indices 1 2 3 4 5 6 
#
# 1 0.026571 -0.008087 -0.000491 0.000000 -0.008193 0.000000
# 2 -0.008087 0.013024 -0.006219 0.000000 0.001903 0.000000
# 3 -0.000491 -0.006219 0.016753 0.000000 -0.005170 0.000000
# 4 0.000000 0.000000 0.000000 0.045190 0.000000 -0.009710
# 5 -0.008193 0.001903 -0.005170 0.000000 0.042877 0.000000
# 6 0.000000 0.000000 0.000000 -0.009710 0.000000 0.058176
#
#
# Mechanical properties :
#
#
# Convention : Reuss Voigt Hill
#
# Bulk Modulus (GPa) = 37.37862 54.19150 45.78506
# Shear Modulus (GPa) = 20.73804 23.41713 22.07758
#
# Velocity S-wave (km/s) = 3.60623 3.83210 3.72088
# Velocity P-wave (km/s) = 6.38593 7.31872 6.86818
#
# Compressibility (1/GPa) = 0.02675326
#
# Stress axis : x y z
#
# Youngs Moduli (GPa) = 37.63502 76.78320 59.69095
#
# Poissons Ratio (x) = 0.62094 0.02930
# Poissons Ratio (y) = 0.30435 0.37124
# Poissons Ratio (z) = 0.01848 0.47754
#
# Static dielectric constant tensor:
#      x y z
#    x 2.776800 0.000000 0.148330 
#    y 0.000000 3.426730 0.000000 
#    z 0.148330 0.000000 3.330620 
# 
# 
# High freq. dielectric constant tensor:
#      x y z
#    x 1.567590 0.000000 0.005180 
#    y 0.000000 1.611460 0.000000 
#    z 0.005180 0.000000 1.633750 
# 
# From -- ./inp_files/97742.got.cif
#   From: 2010.06.25/outbox.cif.g09.slc.cpg/sg12_49_cif.got.tgz:97742.got - 2010.06.28 00:19:55.
