data_PCOD8080722
_publ_section_title
;
Structure prediction by ZEFSAII (Michael W. Deem and Ramdas Pophale) SiO2 
 PCOD8080722
Probable space group: C 2/M
;
_chemical_formula_sum "Si O2"
_cell_formula_units_Z 56
_cell_length_a 21.632657
_cell_length_b 17.188328
_cell_length_c 13.803257
_cell_angle_alpha 90.000000
_cell_angle_beta 140.278602
_cell_angle_gamma 90.000000
_cell_volume 3279.921033
_symmetry_space_group_name_H-M "C 2/M"
_symmetry_group_IT_number 12
_symmetry_cell_setting 'monoclinic'
loop_
_space_group_symop_operation_xyz
x,y,z
-x,y,-z
-x,-y,-z
x,-y,z
1/2+x,1/2+y,z
1/2-x,1/2+y,-z
1/2-x,1/2-y,-z
1/2+x,1/2-y,z
loop_
_atom_site_type_symbol
_atom_site_label
_atom_site_fract_x
_atom_site_fract_y
_atom_site_fract_z
Si Si1 0.915481 0.585409 0.973684
Si Si2 0.059079 0.343006 0.278196
Si Si3 0.459049 0.414242 0.058841
Si Si4 0.938233 0.410303 0.516509
Si Si5 0.130628 0.828347 0.341319
Si Si6 0.721357 0.088987 0.356395
Si Si7 0.717668 0.590100 0.262277
O O1 0.893852 0.500000 0.994973
O O2 0.820700 0.615517 0.799982
O O3 0.000000 0.573249 0.000000
O O4 0.954365 0.648589 0.098497
O O5 0.035051 0.355533 0.361356
O O6 0.116876 0.263692 0.326594
O O7 0.135221 0.407559 0.332559
O O8 0.463920 0.500000 0.109837
O O9 0.521185 0.361024 0.205600
O O10 0.500000 0.411946 0.000000
O O11 0.347851 0.386667 0.910465
O O12 0.962817 0.500000 0.570377
O O13 0.825960 0.398965 0.356532
O O14 0.000000 0.380676 0.500000
O O15 0.186680 0.857361 0.505059
O O16 0.194058 0.855116 0.325494
O O17 0.756589 0.000000 0.395101
O O18 0.695993 0.500000 0.266568
#
# Coordination Sequence:
#
# PCOD8080722 Si02
#       7
#     8   8   8   8   8   8   8
#     4   8  16  29  44  62  92 133 162 187 232 289
#     4  11  20  30  44  73 104 127 160 201 253 295
#     4   8  15  27  43  66  98 133 161 188 232 294
#     4  10  20  34  53  71  91 130 174 209 244 283
#     4  11  19  27  44  75 103 132 156 190 254 306
#     4  10  18  29  45  67 100 135 162 187 231 298
#     4   9  17  30  48  71 102 133 162 201 243 294
#
# _framework density 17.073581999999998
#
# number of rings (size 3 to 8) (size 9 to 14) (size 15 to 20)
#    0.000    2.429    1.429    4.714    0.000    5.143 
#    0.000    0.000    0.000    0.857    0.000    0.000 
#    0.000    4.000    0.000    0.000    0.000    0.000 
#
# Total GULP energy -346933.478230 kJ/mol
# GULP energy per Si atom -12390.481365 kJ/mol
# Density = 1.703472 g / cm^3
# Si number density = 17.073582 Si / 1000 Ang^3
#
#
#
# Elastic Constant Matrix: (Units=GPa)
#
#
# Indices 1 2 3 4 5 6 
#
# 1 65.5756 28.9701 38.8937 0.0000 -0.1893 0.0000
# 2 28.9701 71.3787 49.6082 0.0000 3.6171 0.0000
# 3 38.8937 49.6082 150.5114 0.0000 17.9374 0.0000
# 4 0.0000 0.0000 0.0000 20.3055 0.0000 -0.2901
# 5 -0.1893 3.6171 17.9374 0.0000 16.4690 0.0000
# 6 0.0000 0.0000 0.0000 -0.2901 0.0000 12.3465
#
#
#
# Elastic Compliance Matrix: (Units=1/GPa)
#
#
# Indices 1 2 3 4 5 6 
#
# 1 0.020172 -0.005675 -0.004043 0.000000 0.005882 0.000000
# 2 -0.005675 0.019891 -0.005242 0.000000 0.001275 0.000000
# 3 -0.004043 -0.005242 0.010670 0.000000 -0.010516 0.000000
# 4 0.000000 0.000000 0.000000 0.049264 0.000000 0.001158
# 5 0.005882 0.001275 -0.010516 0.000000 0.071962 0.000000
# 6 0.000000 0.000000 0.000000 0.001158 0.000000 0.081022
#
#
# Mechanical properties :
#
#
# Convention : Reuss Voigt Hill
#
# Bulk Modulus (GPa) = 48.04628 58.04554 53.04591
# Shear Modulus (GPa) = 17.25100 21.15710 19.20405
#
# Velocity S-wave (km/s) = 3.18211 3.52401 3.35741
# Velocity P-wave (km/s) = 6.45778 7.11542 6.79456
#
# Compressibility (1/GPa) = 0.02081327
#
# Stress axis : x y z
#
# Youngs Moduli (GPa) = 49.57442 50.27288 93.72340
#
# Poissons Ratio (x) = 0.28531 0.37893
# Poissons Ratio (y) = 0.28134 0.49126
# Poissons Ratio (z) = 0.20043 0.26351
#
# Static dielectric constant tensor:
#      x y z
#    x 2.669320 0.000000 0.325100 
#    y 0.000000 3.087360 0.000000 
#    z 0.325100 0.000000 3.823640 
# 
# 
# High freq. dielectric constant tensor:
#      x y z
#    x 1.578230 0.000000 0.024900 
#    y 0.000000 1.648890 0.000000 
#    z 0.024900 0.000000 1.681700 
# 
# From -- ./inp_files/168529.got.cif
#   From: 2010.06.25/outbox.cif.g09.slc.cpg/sg12_85_cif.got.tgz:168529.got - 2010.06.28 00:19:55.
