data_PCOD8080532
_publ_section_title
;
Structure prediction by ZEFSAII (Michael W. Deem and Ramdas Pophale) SiO2 
 PCOD8080532
Probable space group: C 2/M
;
_chemical_formula_sum "Si O2"
_cell_formula_units_Z 56
_cell_length_a 23.482289
_cell_length_b 8.712409
_cell_length_c 19.151302
_cell_angle_alpha 90.000000
_cell_angle_beta 128.449760
_cell_angle_gamma 90.000000
_cell_volume 3068.484954
_symmetry_space_group_name_H-M "C 2/M"
_symmetry_group_IT_number 12
_symmetry_cell_setting 'monoclinic'
loop_
_space_group_symop_operation_xyz
x,y,z
-x,y,-z
-x,-y,-z
x,-y,z
1/2+x,1/2+y,z
1/2-x,1/2+y,-z
1/2-x,1/2-y,-z
1/2+x,1/2-y,z
loop_
_atom_site_type_symbol
_atom_site_label
_atom_site_fract_x
_atom_site_fract_y
_atom_site_fract_z
Si Si1 0.469820 0.680318 0.902627
Si Si2 0.305626 0.680740 0.744965
Si Si3 0.162169 0.818577 0.667770
Si Si4 0.888000 0.817764 0.518453
Si Si5 0.653504 0.319023 0.369265
Si Si6 0.502000 0.180248 0.213774
Si Si7 0.046588 0.181582 0.691554
O O1 0.480491 0.500000 0.899003
O O2 0.384794 0.726949 0.834010
O O3 0.517332 0.770077 0.880223
O O4 0.500000 0.734156 0.000000
O O5 0.293654 0.500000 0.741335
O O6 0.244690 0.764789 0.744731
O O7 0.296175 0.740807 0.656334
O O8 0.135980 0.745955 0.573631
O O9 0.110881 0.758107 0.690418
O O10 0.157894 0.000000 0.661372
O O11 0.834410 0.757521 0.541674
O O12 0.970774 0.768792 0.597544
O O13 0.883164 0.000000 0.510688
O O14 0.658770 0.500000 0.374018
O O15 0.571953 0.277999 0.287055
O O16 0.441935 0.232385 0.225214
O O17 0.516064 0.000000 0.228774
O O18 0.050677 0.000000 0.706455
#
# Coordination Sequence:
#
# PCOD8080532 Si02
#       7
#     8   8   8   8   8   8   8
#     4   9  18  35  58  77  93 119 152 182 222 285
#     4   9  18  31  46  68  97 124 149 184 235 287
#     4  10  19  29  45  68  93 127 166 201 235 270
#     4   8  14  27  47  67  86 118 170 214 232 256
#     4   8  15  30  48  63  88 128 165 194 229 278
#     4  10  18  28  47  75 100 119 146 192 242 276
#     4   9  17  31  48  64  90 130 171 201 225 266
#
# _framework density 18.250048
#
# number of rings (size 3 to 8) (size 9 to 14) (size 15 to 20)
#    0.000    3.000    0.000    3.429    0.000    5.429 
#    0.000    2.857    0.000    5.143    0.000    0.000 
#    0.000    0.000    0.000    0.000    0.000    0.000 
#
# Total GULP energy -346871.702251 kJ/mol
# GULP energy per Si atom -12388.275080 kJ/mol
# Density = 1.820851 g / cm^3
# Si number density = 18.250048 Si / 1000 Ang^3
#
#
#
# Elastic Constant Matrix: (Units=GPa)
#
#
# Indices 1 2 3 4 5 6 
#
# 1 94.4646 -14.8049 27.8515 0.0000 -12.6256 0.0000
# 2 -14.8049 -78.2812 -15.5416 0.0000 13.8227 0.0000
# 3 27.8515 -15.5416 80.6852 0.0000 -15.8970 0.0000
# 4 0.0000 0.0000 0.0000 10.3432 0.0000 -2.0798
# 5 -12.6256 13.8227 -15.8970 0.0000 19.3117 0.0000
# 6 0.0000 0.0000 0.0000 -2.0798 0.0000 25.6238
#
#
#
# Elastic Compliance Matrix: (Units=1/GPa)
#
#
# Indices 1 2 3 4 5 6 
#
# 1 0.012202 -0.000648 -0.003191 0.000000 0.005814 0.000000
# 2 -0.000648 -0.011274 -0.000527 0.000000 0.007212 0.000000
# 3 -0.003191 -0.000527 0.015585 0.000000 0.011120 0.000000
# 4 0.000000 0.000000 0.000000 0.098286 0.000000 0.007978
# 5 0.005814 0.007212 0.011120 0.000000 0.059575 0.000000
# 6 0.000000 0.000000 0.000000 0.007978 0.000000 0.039674
#
#
# Mechanical properties :
#
#
# Convention : Reuss Voigt Hill
#
# Bulk Modulus (GPa) = 128.50887 10.20874 69.35880
# Shear Modulus (GPa) = 22.18536 17.67999 19.93267
#
# Velocity S-wave (km/s) = 3.49038 3.11587 3.30843
# Velocity P-wave (km/s) = 9.31730 4.30707 7.25820
#
# Compressibility (1/GPa) = 0.00778156
#
# Stress axis : x y z
#
# Youngs Moduli (GPa) = 81.95044 -88.70094 64.16499
#
# Poissons Ratio (x) = -0.05744 0.20477
# Poissons Ratio (y) = 0.05307 0.03382
# Poissons Ratio (z) = 0.26153 -0.04675
#
# Static dielectric constant tensor:
#      x y z
#    x 3.690500 0.000000 -0.502630 
#    y 0.000000 2.991340 0.000000 
#    z -0.502630 0.000000 3.470310 
# 
# 
# High freq. dielectric constant tensor:
#      x y z
#    x 1.707800 0.000000 -0.028230 
#    y 0.000000 1.680280 0.000000 
#    z -0.028230 0.000000 1.681250 
# 
# From -- ./inp_files/287855.got.cif
#   From: 2010.06.25/outbox.cif.g09.slc.cpg/sg12_144_cif.got.tgz:287855.got - 2010.06.28 00:19:55.
