data_PCOD8080350
_publ_section_title
;
Structure prediction by ZEFSAII (Michael W. Deem and Ramdas Pophale) SiO2 
 PCOD8080350
Probable space group: C 2/M
;
_chemical_formula_sum "Si O2"
_cell_formula_units_Z 56
_cell_length_a 23.578753
_cell_length_b 9.057912
_cell_length_c 15.069200
_cell_angle_alpha 90.000000
_cell_angle_beta 90.034199
_cell_angle_gamma 90.000000
_cell_volume 3218.392812
_symmetry_space_group_name_H-M "C 2/M"
_symmetry_group_IT_number 12
_symmetry_cell_setting 'monoclinic'
loop_
_space_group_symop_operation_xyz
x,y,z
-x,y,-z
-x,-y,-z
x,-y,z
1/2+x,1/2+y,z
1/2-x,1/2+y,-z
1/2-x,1/2-y,-z
1/2+x,1/2-y,z
loop_
_atom_site_type_symbol
_atom_site_label
_atom_site_fract_x
_atom_site_fract_y
_atom_site_fract_z
Si Si1 0.110670 0.168463 0.714184
Si Si2 0.668986 0.672570 0.162222
Si Si3 0.451070 0.674359 0.769306
Si Si4 0.862192 0.174043 0.032220
Si Si5 0.280976 0.332191 0.193999
Si Si6 0.046111 0.325989 0.864448
Si Si7 0.513534 0.329742 0.594589
O O1 0.178790 0.190680 0.718296
O O2 0.083099 0.287814 0.778387
O O3 0.080909 0.190753 0.617986
O O4 0.097209 0.000000 0.747936
O O5 0.678062 0.500000 0.159420
O O6 0.615013 0.715561 0.222463
O O7 0.724659 0.738673 0.207486
O O8 0.661072 0.731809 0.061991
O O9 0.461275 0.500000 0.779497
O O10 0.484107 0.754329 0.850083
O O11 0.474476 0.733934 0.674361
O O12 0.815899 0.216923 0.106677
O O13 0.921834 0.256523 0.050624
O O14 0.874334 0.000000 0.030944
O O15 0.261564 0.500000 0.184217
O O16 0.040103 0.500000 0.877626
O O17 0.500000 0.250598 0.500000
O O18 0.497220 0.500000 0.585128
#
# Coordination Sequence:
#
# PCOD8080350 Si02
#       7
#     8   8   8   8   8   8   8
#     4   8  15  29  47  68  93 118 145 179 222 266
#     4  10  20  31  45  63  86 121 157 188 221 260
#     4   9  18  32  46  64  92 120 146 179 225 273
#     4   9  18  32  46  62  86 118 155 190 226 260
#     4   9  17  29  45  63  87 118 150 188 224 256
#     4  10  18  28  45  67  89 116 150 187 224 262
#     4   8  13  25  50  76  90 106 141 185 219 258
#
# _framework density 17.399989000000001
#
# number of rings (size 3 to 8) (size 9 to 14) (size 15 to 20)
#    0.000    3.000    0.000    3.429    0.000    4.000 
#    0.000    2.857    0.000    7.714    0.000    0.000 
#    0.000    0.000    0.000    0.000    0.000    1.143 
#
# Total GULP energy -346930.353557 kJ/mol
# GULP energy per Si atom -12390.369770 kJ/mol
# Density = 1.736039 g / cm^3
# Si number density = 17.399989 Si / 1000 Ang^3
#
#
#
# Elastic Constant Matrix: (Units=GPa)
#
#
# Indices 1 2 3 4 5 6 
#
# 1 137.2050 37.7560 67.4891 0.0000 22.6839 0.0000
# 2 37.7560 43.9462 18.9604 0.0000 6.0998 0.0000
# 3 67.4891 18.9604 83.6244 0.0000 25.3753 0.0000
# 4 0.0000 0.0000 0.0000 9.8699 0.0000 5.8422
# 5 22.6839 6.0998 25.3753 0.0000 23.1067 0.0000
# 6 0.0000 0.0000 0.0000 5.8422 0.0000 28.0284
#
#
#
# Elastic Compliance Matrix: (Units=1/GPa)
#
#
# Indices 1 2 3 4 5 6 
#
# 1 0.014335 -0.008102 -0.009165 0.000000 -0.001869 0.000000
# 2 -0.008102 0.029807 -0.000368 0.000000 0.000489 0.000000
# 3 -0.009165 -0.000368 0.025014 0.000000 -0.018376 0.000000
# 4 0.000000 0.000000 0.000000 0.115578 0.000000 -0.024091
# 5 -0.001869 0.000489 -0.018376 0.000000 0.065163 0.000000
# 6 0.000000 0.000000 0.000000 -0.024091 0.000000 0.040700
#
#
# Mechanical properties :
#
#
# Convention : Reuss Voigt Hill
#
# Bulk Modulus (GPa) = 29.51042 57.02072 43.26557
# Shear Modulus (GPa) = 14.82968 21.57234 18.20101
#
# Velocity S-wave (km/s) = 2.92255 3.52489 3.23776
# Velocity P-wave (km/s) = 5.32778 7.02909 6.23672
#
# Compressibility (1/GPa) = 0.03388634
#
# Stress axis : x y z
#
# Youngs Moduli (GPa) = 69.75926 33.54937 39.97743
#
# Poissons Ratio (x) = 0.27182 0.36639
# Poissons Ratio (y) = 0.56521 0.01470
# Poissons Ratio (z) = 0.63933 0.01234
#
# Static dielectric constant tensor:
#      x y z
#    x 3.309800 0.000000 0.291090 
#    y 0.000000 2.936330 0.000000 
#    z 0.291090 0.000000 3.319030 
# 
# 
# High freq. dielectric constant tensor:
#      x y z
#    x 1.667940 0.000000 0.027850 
#    y 0.000000 1.646150 0.000000 
#    z 0.027850 0.000000 1.644590 
# 
# From -- ./inp_files/280151.got.cif
#   From: 2010.06.25/outbox.cif.g09.slc.cpg/sg12_141_cif.got.tgz:280151.got - 2010.06.28 00:19:55.
