data_PCOD8080023
_publ_section_title
;
Structure prediction by ZEFSAII (Michael W. Deem and Ramdas Pophale) SiO2 
 PCOD8080023
Probable space group: C 2/M
;
_chemical_formula_sum "Si O2"
_cell_formula_units_Z 48
_cell_length_a 23.051250
_cell_length_b 13.866122
_cell_length_c 22.618156
_cell_angle_alpha 90.000000
_cell_angle_beta 25.983524
_cell_angle_gamma 90.000000
_cell_volume 3167.324112
_symmetry_space_group_name_H-M "C 2/M"
_symmetry_group_IT_number 12
_symmetry_cell_setting 'monoclinic'
loop_
_space_group_symop_operation_xyz
x,y,z
-x,y,-z
-x,-y,-z
x,-y,z
1/2+x,1/2+y,z
1/2-x,1/2+y,-z
1/2-x,1/2-y,-z
1/2+x,1/2-y,z
loop_
_atom_site_type_symbol
_atom_site_label
_atom_site_fract_x
_atom_site_fract_y
_atom_site_fract_z
Si Si1 0.877200 0.888993 0.154078
Si Si2 0.151289 0.791879 0.697584
Si Si3 0.113734 0.606166 0.667969
Si Si4 0.545656 0.207875 0.615918
Si Si5 0.916921 0.893751 0.354341
Si Si6 0.904850 0.611969 0.640429
O O1 0.889984 0.821871 0.199315
O O2 0.745168 0.864702 0.238992
O O3 0.875478 0.000000 0.176549
O O4 0.000000 0.865535 0.000000
O O5 0.103099 0.681485 0.731826
O O6 0.308676 0.802803 0.545464
O O7 0.072687 0.858737 0.722929
O O8 0.064500 0.500000 0.733343
O O9 0.029476 0.641260 0.688706
O O10 0.263890 0.602614 0.509996
O O11 0.514059 0.318290 0.664100
O O12 0.437390 0.175712 0.667757
O O13 0.982214 0.000000 0.301238
O O14 0.927227 0.500000 0.635556
O O15 0.000000 0.643419 0.500000
#
# Coordination Sequence:
#
# PCOD8080023 Si02
#       6
#     8   8   8   8   8   8
#     4  10  20  31  43  62  88 116 144 173 209 257
#     4   9  15  25  42  63  87 114 142 173 212 253
#     4   8  14  23  39  64  89 111 138 177 216 250
#     4   9  15  24  41  66  90 109 137 177 216 253
#     4   8  14  23  39  63  89 114 138 172 216 255
#     4  10  18  27  43  64  86 114 141 173 215 252
#
# _framework density 15.154749000000001
#
# number of rings (size 3 to 8) (size 9 to 14) (size 15 to 20)
#    0.000    3.000    1.667    3.000    0.000    1.333 
#    0.000    0.000    0.000    6.000    0.000    2.333 
#    0.000    0.000    0.000    0.000    0.000    0.000 
#
# Total GULP energy -297481.329178 kJ/mol
# GULP energy per Si atom -12395.055382 kJ/mol
# Density = 1.512026 g / cm^3
# Si number density = 15.154749 Si / 1000 Ang^3
#
#
#
# Elastic Constant Matrix: (Units=GPa)
#
#
# Indices 1 2 3 4 5 6 
#
# 1 123.0000 73.3686 39.0313 0.0014 5.6810 -0.0008
# 2 73.3686 132.1908 28.3577 0.0033 7.4816 -0.0018
# 3 39.0313 28.3577 56.5381 0.0023 0.0574 -0.0013
# 4 0.0014 0.0033 0.0023 8.4927 -0.0020 2.2196
# 5 5.6810 7.4816 0.0574 -0.0020 13.7110 0.0011
# 6 -0.0008 -0.0018 -0.0013 2.2196 0.0011 26.2936
#
#
#
# Elastic Compliance Matrix: (Units=1/GPa)
#
#
# Indices 1 2 3 4 5 6 
#
# 1 0.014056 -0.006259 -0.006562 0.000001 -0.002381 0.000000
# 2 -0.006259 0.011565 -0.001476 -0.000004 -0.003711 0.000001
# 3 -0.006562 -0.001476 0.022954 -0.000004 0.003428 0.000001
# 4 0.000001 -0.000004 -0.000004 0.120405 0.000020 -0.010164
# 5 -0.002381 -0.003711 0.003428 0.000020 0.075931 -0.000005
# 6 0.000000 0.000001 0.000001 -0.010164 -0.000005 0.038890
#
#
# Mechanical properties :
#
#
# Convention : Reuss Voigt Hill
#
# Bulk Modulus (GPa) = 50.04633 65.91600 57.98117
# Shear Modulus (GPa) = 15.67125 21.09754 18.38439
#
# Velocity S-wave (km/s) = 3.21920 3.73519 3.48675
# Velocity P-wave (km/s) = 6.84930 7.88618 7.38596
#
# Compressibility (1/GPa) = 0.01998149
#
# Stress axis : x y z
#
# Youngs Moduli (GPa) = 71.14619 86.46563 43.56523
#
# Poissons Ratio (x) = 0.54117 0.28586
# Poissons Ratio (y) = 0.44528 0.06431
# Poissons Ratio (z) = 0.46684 0.12765
#
# Static dielectric constant tensor:
#      x y z
#    x 2.824530 0.000000 0.012900 
#    y 0.000000 3.345260 0.000000 
#    z 0.012900 0.000000 2.476300 
# 
# 
# High freq. dielectric constant tensor:
#      x y z
#    x 1.576990 0.000000 0.003360 
#    y 0.000000 1.580450 0.000000 
#    z 0.003360 0.000000 1.530430 
# 
# From -- ./inp_files/85148.got.cif
#   From: 2010.06.25/outbox.cif.g09.slc.cpg/sg12_43_cif.got.tgz:85148.got - 2010.06.28 00:19:55.
