data_PCOD8080273
_publ_section_title
;
Structure prediction by ZEFSAII (Michael W. Deem and Ramdas Pophale) SiO2 
 PCOD8080273
Probable space group: C 2/M
;
_chemical_formula_sum "Si O2"
_cell_formula_units_Z 56
_cell_length_a 29.790285
_cell_length_b 8.880846
_cell_length_c 13.953158
_cell_angle_alpha 90.000000
_cell_angle_beta 96.778427
_cell_angle_gamma 90.000000
_cell_volume 3665.684977
_symmetry_space_group_name_H-M "C 2/M"
_symmetry_group_IT_number 12
_symmetry_cell_setting 'monoclinic'
loop_
_space_group_symop_operation_xyz
x,y,z
-x,y,-z
-x,-y,-z
x,-y,z
1/2+x,1/2+y,z
1/2-x,1/2+y,-z
1/2-x,1/2-y,-z
1/2+x,1/2-y,z
loop_
_atom_site_type_symbol
_atom_site_label
_atom_site_fract_x
_atom_site_fract_y
_atom_site_fract_z
Si Si1 0.297692 0.670314 0.011984
Si Si2 0.616018 0.821522 0.013129
Si Si3 0.035035 0.822984 0.090739
Si Si4 0.371742 0.329618 0.171211
Si Si5 0.585053 0.172468 0.650302
Si Si6 0.012505 0.327143 0.280594
Si Si7 0.950969 0.169940 0.534527
O O1 0.292119 0.500000 0.972892
O O2 0.318849 0.671372 0.125434
O O3 0.250000 0.750000 0.000000
O O4 0.333227 0.758897 0.952036
O O5 0.582369 0.761668 0.085744
O O6 0.616292 0.000000 0.011715
O O7 0.599848 0.758336 0.904602
O O8 0.015157 0.772461 0.186752
O O9 0.043954 0.000000 0.092787
O O10 0.000000 0.774298 0.000000
O O11 0.390500 0.500000 0.182930
O O12 0.376468 0.248252 0.274351
O O13 0.537675 0.190809 0.691871
O O14 0.584438 0.254401 0.547464
O O15 0.597768 0.000000 0.635973
O O16 0.024361 0.500000 0.261252
O O17 0.048335 0.264849 0.367232
O O18 0.000000 0.172096 0.500000
O O19 0.935315 0.000000 0.552664
#
# Coordination Sequence:
#
# PCOD8080273 Si02
#       7
#     8   8   8   8   8   8   8
#     4   9  18  31  48  68  92 120 150 185 228 276
#     4  10  19  31  46  64  89 119 152 188 226 267
#     4  11  22  33  45  62  88 122 159 194 227 267
#     4   9  18  29  43  64  90 116 146 181 221 270
#     4  10  18  28  44  64  87 115 149 189 230 271
#     4  10  20  31  43  61  85 115 154 193 228 267
#     4   9  17  29  44  60  81 112 148 187 230 271
#
# _framework density 15.276816
#
# number of rings (size 3 to 8) (size 9 to 14) (size 15 to 20)
#    0.857    1.429    0.000    4.286    0.000    6.857 
#    0.000    0.000    0.000    0.000    0.000    0.000 
#    0.000    1.143    0.000    4.286    0.000    6.571 
#
# Total GULP energy -347079.898923 kJ/mol
# GULP energy per Si atom -12395.710676 kJ/mol
# Density = 1.524205 g / cm^3
# Si number density = 15.276816 Si / 1000 Ang^3
#
#
#
# Elastic Constant Matrix: (Units=GPa)
#
#
# Indices 1 2 3 4 5 6 
#
# 1 54.1298 35.9185 15.3046 0.0000 2.4154 0.0000
# 2 35.9185 120.7036 29.0113 0.0000 5.2471 0.0000
# 3 15.3046 29.0113 71.8547 0.0000 10.4285 0.0000
# 4 0.0000 0.0000 0.0000 29.5233 0.0000 1.5321
# 5 2.4154 5.2471 10.4285 0.0000 14.2867 0.0000
# 6 0.0000 0.0000 0.0000 1.5321 0.0000 21.8594
#
#
#
# Elastic Compliance Matrix: (Units=1/GPa)
#
#
# Indices 1 2 3 4 5 6 
#
# 1 0.023389 -0.006384 -0.002428 0.000000 0.000163 0.000000
# 2 -0.006384 0.010924 -0.002936 0.000000 -0.000790 0.000000
# 3 -0.002428 -0.002936 0.017229 0.000000 -0.011087 0.000000
# 4 0.000000 0.000000 0.000000 0.033995 0.000000 -0.002383
# 5 0.000163 -0.000790 -0.011087 0.000000 0.078351 0.000000
# 6 0.000000 0.000000 0.000000 -0.002383 0.000000 0.045914
#
#
# Mechanical properties :
#
#
# Convention : Reuss Voigt Hill
#
# Bulk Modulus (GPa) = 35.65517 45.23966 40.44741
# Shear Modulus (GPa) = 20.60604 24.23079 22.41842
#
# Velocity S-wave (km/s) = 3.67665 3.98693 3.83493
# Velocity P-wave (km/s) = 6.43535 7.13244 6.79284
#
# Compressibility (1/GPa) = 0.02804643
#
# Stress axis : x y z
#
# Youngs Moduli (GPa) = 42.75465 91.53764 58.04223
#
# Poissons Ratio (x) = 0.58434 0.14093
# Poissons Ratio (y) = 0.27293 0.17044
# Poissons Ratio (z) = 0.10381 0.26880
#
# Static dielectric constant tensor:
#      x y z
#    x 2.568730 0.000000 0.147560 
#    y 0.000000 3.089580 0.000000 
#    z 0.147560 0.000000 2.858510 
# 
# 
# High freq. dielectric constant tensor:
#      x y z
#    x 1.538280 0.000000 0.017320 
#    y 0.000000 1.610170 0.000000 
#    z 0.017320 0.000000 1.569080 
# 
# From -- ./inp_files/247866.got.cif
#   From: 2010.06.25/outbox.cif.g09.slc.cpg/sg12_124_cif.got.tgz:247866.got - 2010.06.28 00:19:55.
