data_PCOD8080665
_publ_section_title
;
Structure prediction by ZEFSAII (Michael W. Deem and Ramdas Pophale) SiO2 
 PCOD8080665
Probable space group: C 2/M
;
_chemical_formula_sum "Si O2"
_cell_formula_units_Z 64
_cell_length_a 20.597673
_cell_length_b 9.015151
_cell_length_c 20.388685
_cell_angle_alpha 90.000000
_cell_angle_beta 98.989067
_cell_angle_gamma 90.000000
_cell_volume 3739.499032
_symmetry_space_group_name_H-M "C 2/M"
_symmetry_group_IT_number 12
_symmetry_cell_setting 'monoclinic'
loop_
_space_group_symop_operation_xyz
x,y,z
-x,y,-z
-x,-y,-z
x,-y,z
1/2+x,1/2+y,z
1/2-x,1/2+y,-z
1/2-x,1/2-y,-z
1/2+x,1/2-y,z
loop_
_atom_site_type_symbol
_atom_site_label
_atom_site_fract_x
_atom_site_fract_y
_atom_site_fract_z
Si Si1 0.289760 0.327459 0.675085
Si Si2 0.149641 0.166550 0.802193
Si Si3 0.820318 0.832430 0.937871
Si Si4 0.363442 0.828337 0.328884
Si Si5 0.688499 0.176489 0.455015
Si Si6 0.071141 0.323955 0.529440
Si Si7 0.805002 0.332186 0.807718
Si Si8 0.164620 0.667210 0.931735
O O1 0.307904 0.500000 0.672080
O O2 0.211838 0.302963 0.662987
O O3 0.319928 0.237331 0.619474
O O4 0.322584 0.261851 0.745927
O O5 0.116533 0.240066 0.733272
O O6 0.227501 0.168667 0.806511
O O7 0.129366 0.256170 0.864129
O O8 0.122966 0.000000 0.804973
O O9 0.840339 0.743783 0.875449
O O10 0.742423 0.831305 0.934467
O O11 0.846585 0.000000 0.936434
O O12 0.854788 0.754922 0.005462
O O13 0.407464 0.765751 0.395418
O O14 0.376914 0.000000 0.316601
O O15 0.750000 0.250000 0.500000
O O16 0.623320 0.226416 0.483277
O O17 0.698011 0.000000 0.456156
O O18 0.068520 0.500000 0.531760
O O19 0.000000 0.256757 0.500000
O O20 0.831101 0.500000 0.804240
O O21 0.138285 0.500000 0.933507
#
# Coordination Sequence:
#
# PCOD8080665 Si02
#       8
#     8   8   8   8   8   8   8   8
#     4  10  18  29  44  65  88 114 148 189 231 273
#     4   9  16  24  35  53  76 104 139 181 224 266
#     4   9  15  22  32  47  71 105 141 180 221 266
#     4   9  16  28  44  62  83 111 146 184 226 271
#     4  11  20  32  50  72  93 119 152 192 235 278
#     4   9  18  33  51  70  92 120 155 192 232 280
#     4   9  16  25  36  54  78 108 143 182 224 269
#     4   9  15  22  32  47  69 102 142 182 218 262
#
# _framework density 17.114591000000001
#
# number of rings (size 3 to 8) (size 9 to 14) (size 15 to 20)
#    0.000    2.625    1.250    2.250    0.000    6.500 
#    0.000    0.000    0.000    3.375    0.000    0.000 
#    0.000    0.000    0.000    1.125    0.000   23.750 
#
# Total GULP energy -396761.845820 kJ/mol
# GULP energy per Si atom -12398.807682 kJ/mol
# Density = 1.707564 g / cm^3
# Si number density = 17.114591 Si / 1000 Ang^3
#
#
#
# Elastic Constant Matrix: (Units=GPa)
#
#
# Indices 1 2 3 4 5 6 
#
# 1 43.0567 25.9008 37.8729 0.0000 -0.1858 0.0000
# 2 25.9008 122.5045 76.7749 0.0000 2.6421 0.0000
# 3 37.8729 76.7749 183.8419 0.0000 6.6946 0.0000
# 4 0.0000 0.0000 0.0000 38.9498 0.0000 -0.7976
# 5 -0.1858 2.6421 6.6946 0.0000 9.2971 0.0000
# 6 0.0000 0.0000 0.0000 -0.7976 0.0000 7.5426
#
#
#
# Elastic Compliance Matrix: (Units=1/GPa)
#
#
# Indices 1 2 3 4 5 6 
#
# 1 0.029529 -0.003284 -0.004896 0.000000 0.005049 0.000000
# 2 -0.003284 0.011422 -0.004080 0.000000 -0.000374 0.000000
# 3 -0.004896 -0.004080 0.008332 0.000000 -0.004938 0.000000
# 4 0.000000 0.000000 0.000000 0.025730 0.000000 0.002721
# 5 0.005049 -0.000374 -0.004938 0.000000 0.111324 0.000000
# 6 0.000000 0.000000 0.000000 0.002721 0.000000 0.132867
#
#
# Mechanical properties :
#
#
# Convention : Reuss Voigt Hill
#
# Bulk Modulus (GPa) = 40.38186 70.05559 55.21873
# Shear Modulus (GPa) = 14.20548 25.08154 19.64351
#
# Velocity S-wave (km/s) = 2.88414 3.83235 3.39154
# Velocity P-wave (km/s) = 5.89383 7.78490 6.90441
#
# Compressibility (1/GPa) = 0.02476359
#
# Stress axis : x y z
#
# Youngs Moduli (GPa) = 33.86549 87.54795 120.02435
#
# Poissons Ratio (x) = 0.28750 0.58758
# Poissons Ratio (y) = 0.11121 0.48970
# Poissons Ratio (z) = 0.16579 0.35719
#
# Static dielectric constant tensor:
#      x y z
#    x 2.604300 0.000000 0.040040 
#    y 0.000000 3.284240 0.000000 
#    z 0.040040 0.000000 3.509860 
# 
# 
# High freq. dielectric constant tensor:
#      x y z
#    x 1.572450 0.000000 0.002700 
#    y 0.000000 1.666200 0.000000 
#    z 0.002700 0.000000 1.684040 
# 
# From -- ./inp_files/319186.got.cif
#   From: 2010.06.25/outbox.cif.g09.slc.cpg/sg12_160_cif.got.tgz:319186.got - 2010.06.28 00:19:55.
