data_PCOD8080831
_publ_section_title
;
Structure prediction by ZEFSAII (Michael W. Deem and Ramdas Pophale) SiO2 
 PCOD8080831
Probable space group: C 2/M
;
_chemical_formula_sum "Si O2"
_cell_formula_units_Z 56
_cell_length_a 27.583529
_cell_length_b 19.869064
_cell_length_c 17.976620
_cell_angle_alpha 90.000000
_cell_angle_beta 18.596735
_cell_angle_gamma 90.000000
_cell_volume 3141.933672
_symmetry_space_group_name_H-M "C 2/M"
_symmetry_group_IT_number 12
_symmetry_cell_setting 'monoclinic'
loop_
_space_group_symop_operation_xyz
x,y,z
-x,y,-z
-x,-y,-z
x,-y,z
1/2+x,1/2+y,z
1/2-x,1/2+y,-z
1/2-x,1/2-y,-z
1/2+x,1/2-y,z
loop_
_atom_site_type_symbol
_atom_site_label
_atom_site_fract_x
_atom_site_fract_y
_atom_site_fract_z
Si Si1 0.449807 0.074228 0.880490
Si Si2 0.460259 0.758678 0.973226
Si Si3 0.902659 0.076309 0.571073
Si Si4 0.389406 0.196490 0.389613
Si Si5 0.213909 0.574113 0.609154
Si Si6 0.327750 0.676151 0.565046
Si Si7 0.085175 0.125561 0.808325
O O1 0.503285 0.132286 0.744318
O O2 0.547279 0.082331 0.815085
O O3 0.481473 0.000000 0.799782
O O4 0.274663 0.081812 0.153839
O O5 0.581627 0.791199 0.740209
O O6 0.461418 0.678087 0.955145
O O7 0.500000 0.776820 0.000000
O O8 0.293348 0.790168 0.201852
O O9 0.939489 0.127490 0.449726
O O10 0.000000 0.099889 0.500000
O O11 0.947617 0.000000 0.483075
O O12 0.424992 0.263504 0.385661
O O13 0.214301 0.175940 0.654787
O O14 0.227204 0.500000 0.627001
O O15 0.241413 0.631511 0.629096
O O16 0.343266 0.576191 0.356102
O O17 0.000000 0.085743 0.000000
#
# Coordination Sequence:
#
# PCOD8080831 Si02
#       7
#     8   8   8   8   8   8   8
#     4   9  19  34  52  73 103 134 163 205 253 302
#     4  11  18  28  46  76 104 138 167 200 248 303
#     4  10  22  39  55  72  99 134 169 208 262 315
#     4  11  19  30  49  75 105 134 174 212 243 300
#     4  10  21  32  47  78 111 136 170 210 250 303
#     4  12  21  31  55  78 103 134 170 216 255 298
#     4  10  18  29  46  71 107 147 172 192 247 302
#
# _framework density 17.823419999999999
#
# number of rings (size 3 to 8) (size 9 to 14) (size 15 to 20)
#    0.000    1.571    5.714    2.571    0.000    0.286 
#    0.000    2.857    0.000    0.000    0.000    0.000 
#    0.000    0.571    0.000    6.571    0.000    0.000 
#
# Total GULP energy -346894.679713 kJ/mol
# GULP energy per Si atom -12389.095704 kJ/mol
# Density = 1.778285 g / cm^3
# Si number density = 17.823420 Si / 1000 Ang^3
#
#
#
# Elastic Constant Matrix: (Units=GPa)
#
#
# Indices 1 2 3 4 5 6 
#
# 1 70.9259 41.2737 32.4746 0.0028 -2.5333 -0.0033
# 2 41.2737 128.8415 21.1993 -0.0019 -4.6183 -0.0014
# 3 32.4746 21.1993 59.9076 -0.0029 13.2608 -0.0047
# 4 0.0028 -0.0019 -0.0029 19.6634 -0.0020 3.1908
# 5 -2.5333 -4.6183 13.2608 -0.0020 15.9685 0.0045
# 6 -0.0033 -0.0014 -0.0047 3.1908 0.0045 22.9410
#
#
#
# Elastic Compliance Matrix: (Units=1/GPa)
#
#
# Indices 1 2 3 4 5 6 
#
# 1 0.024083 -0.004795 -0.014576 -0.000004 0.014538 -0.000002
# 2 -0.004795 0.009674 -0.001562 0.000002 0.003334 -0.000001
# 3 -0.014576 -0.001562 0.031559 0.000002 -0.028972 0.000010
# 4 -0.000004 0.000002 0.000002 0.052030 0.000006 -0.007237
# 5 0.014538 0.003334 -0.028972 0.000006 0.089953 -0.000022
# 6 -0.000002 -0.000001 0.000010 -0.007237 -0.000022 0.044597
#
#
# Mechanical properties :
#
#
# Convention : Reuss Voigt Hill
#
# Bulk Modulus (GPa) = 42.64386 49.95223 46.29804
# Shear Modulus (GPa) = 16.57935 22.69641 19.63788
#
# Velocity S-wave (km/s) = 3.05323 3.57235 3.32294
# Velocity P-wave (km/s) = 6.03384 6.71585 6.38396
#
# Compressibility (1/GPa) = 0.02345004
#
# Stress axis : x y z
#
# Youngs Moduli (GPa) = 41.52318 103.36799 31.68619
#
# Poissons Ratio (x) = 0.49570 0.46186
# Poissons Ratio (y) = 0.19912 0.04949
# Poissons Ratio (z) = 0.60524 0.16145
#
# Static dielectric constant tensor:
#      x y z
#    x 2.919500 0.000000 0.188640 
#    y 0.000000 3.775170 0.000010 
#    z 0.188640 0.000010 3.283170 
# 
# 
# High freq. dielectric constant tensor:
#      x y z
#    x 1.625640 0.000000 0.025820 
#    y 0.000000 1.713750 0.000000 
#    z 0.025820 0.000000 1.676470 
# 
# From -- ./inp_files/294060.got.cif
#   From: 2010.06.25/outbox.cif.g09.slc.cpg/sg12_148_cif.got.tgz:294060.got - 2010.06.28 00:19:55.
