data_PCOD8080566
_publ_section_title
;
Structure prediction by ZEFSAII (Michael W. Deem and Ramdas Pophale) SiO2 
 PCOD8080566
Probable space group: C 2/M
;
_chemical_formula_sum "Si O2"
_cell_formula_units_Z 64
_cell_length_a 21.868294
_cell_length_b 21.643314
_cell_length_c 8.421728
_cell_angle_alpha 90.000000
_cell_angle_beta 112.652001
_cell_angle_gamma 90.000000
_cell_volume 3678.546022
_symmetry_space_group_name_H-M "C 2/M"
_symmetry_group_IT_number 12
_symmetry_cell_setting 'monoclinic'
loop_
_space_group_symop_operation_xyz
x,y,z
-x,y,-z
-x,-y,-z
x,-y,z
1/2+x,1/2+y,z
1/2-x,1/2+y,-z
1/2-x,1/2-y,-z
1/2+x,1/2-y,z
loop_
_atom_site_type_symbol
_atom_site_label
_atom_site_fract_x
_atom_site_fract_y
_atom_site_fract_z
Si Si1 0.431010 0.381091 0.988003
Si Si2 0.186808 0.867285 0.541177
Si Si3 0.929431 0.717773 0.468049
Si Si4 0.205596 0.931048 0.252484
Si Si5 0.796482 0.323936 0.204260
Si Si6 0.288076 0.798986 0.838708
Si Si7 0.886722 0.229410 0.738516
Si Si8 0.569116 0.647305 0.643926
O O1 0.369698 0.424006 0.881743
O O2 0.428527 0.315871 0.892411
O O3 0.500000 0.412624 0.000000
O O4 0.427657 0.373069 0.172346
O O5 0.205410 0.923328 0.443163
O O6 0.251140 0.853136 0.708959
O O7 0.169463 0.808393 0.413179
O O8 0.126573 0.885446 0.598088
O O9 0.867099 0.673739 0.366393
O O10 0.933424 0.737008 0.657185
O O11 0.921533 0.778962 0.352277
O O12 0.000000 0.684972 0.500000
O O13 0.253483 0.882317 0.214884
O O14 0.230314 0.000000 0.236578
O O15 0.758673 0.260829 0.203956
O O16 0.808077 0.326629 0.028177
O O17 0.355024 0.782301 0.814852
O O18 0.500000 0.625898 0.500000
#
# Coordination Sequence:
#
# PCOD8080566 Si02
#       8
#     8   8   8   8   8   8   8   8
#     4  11  20  33  52  74 104 145 185 222 262 306
#     4  10  18  31  50  73 104 136 173 220 263 314
#     4  10  19  31  50  81 116 142 168 211 267 331
#     4  11  24  39  54  74 102 143 188 226 264 311
#     4  11  20  33  56  79 111 139 174 222 267 326
#     4  11  18  30  54  86 107 136 173 213 278 322
#     4  10  18  28  48  76 110 139 168 212 262 324
#     4  10  18  30  48  76 109 140 171 214 270 322
#
# _framework density 17.398178999999999
#
# number of rings (size 3 to 8) (size 9 to 14) (size 15 to 20)
#    0.000    1.500    5.000    5.625    0.000    0.250 
#    0.000    2.500    0.000    1.875    0.000    0.000 
#    0.000    2.000    0.000    0.000    0.000    0.000 
#
# Total GULP energy -396773.634478 kJ/mol
# GULP energy per Si atom -12399.176077 kJ/mol
# Density = 1.735858 g / cm^3
# Si number density = 17.398179 Si / 1000 Ang^3
#
#
#
# Elastic Constant Matrix: (Units=GPa)
#
#
# Indices 1 2 3 4 5 6 
#
# 1 94.4490 36.4247 28.7618 0.0000 -10.0911 0.0000
# 2 36.4247 55.5847 33.8139 0.0000 0.0947 0.0000
# 3 28.7618 33.8139 101.5923 0.0000 -18.5696 0.0000
# 4 0.0000 0.0000 0.0000 5.1558 0.0000 -0.6268
# 5 -10.0911 0.0947 -18.5696 0.0000 34.7256 0.0000
# 6 0.0000 0.0000 0.0000 -0.6268 0.0000 7.6800
#
#
#
# Elastic Compliance Matrix: (Units=1/GPa)
#
#
# Indices 1 2 3 4 5 6 
#
# 1 0.014795 -0.009555 -0.000241 0.000000 0.004196 0.000000
# 2 -0.009555 0.029388 -0.008422 0.000000 -0.007360 0.000000
# 3 -0.000241 -0.008422 0.014082 0.000000 0.007484 0.000000
# 4 0.000000 0.000000 0.000000 0.195901 0.000000 0.015988
# 5 0.004196 -0.007360 0.007484 0.000000 0.034039 0.000000
# 6 0.000000 0.000000 0.000000 0.015988 0.000000 0.131512
#
#
# Mechanical properties :
#
#
# Convention : Reuss Voigt Hill
#
# Bulk Modulus (GPa) = 45.81102 49.95855 47.88478
# Shear Modulus (GPa) = 10.78914 19.68733 15.23823
#
# Velocity S-wave (km/s) = 2.49294 3.36754 2.96269
# Velocity P-wave (km/s) = 5.88850 6.62552 6.26785
#
# Compressibility (1/GPa) = 0.02182881
#
# Stress axis : x y z
#
# Youngs Moduli (GPa) = 67.59242 34.02762 71.01052
#
# Poissons Ratio (x) = 0.32515 0.01712
# Poissons Ratio (y) = 0.64587 0.59802
# Poissons Ratio (z) = 0.01629 0.28657
#
# Static dielectric constant tensor:
#      x y z
#    x 3.451250 0.000000 -0.152620 
#    y 0.000000 2.723510 0.000000 
#    z -0.152620 0.000000 3.429300 
# 
# 
# High freq. dielectric constant tensor:
#      x y z
#    x 1.680440 0.000000 -0.014320 
#    y 0.000000 1.602640 0.000000 
#    z -0.014320 0.000000 1.685990 
# 
# From -- ./inp_files/98884.got.cif
#   From: 2010.06.25/outbox.cif.g09.slc.cpg/sg12_50_cif.got.tgz:98884.got - 2010.06.28 00:19:55.
