data_PCOD8080538
_publ_section_title
;
Structure prediction by ZEFSAII (Michael W. Deem and Ramdas Pophale) SiO2 
 PCOD8080538
Probable space group: C 2/M
;
_chemical_formula_sum "Si O2"
_cell_formula_units_Z 56
_cell_length_a 17.188894
_cell_length_b 13.573898
_cell_length_c 21.327697
_cell_angle_alpha 90.000000
_cell_angle_beta 142.182950
_cell_angle_gamma 90.000000
_cell_volume 3051.108531
_symmetry_space_group_name_H-M "C 2/M"
_symmetry_group_IT_number 12
_symmetry_cell_setting 'monoclinic'
loop_
_space_group_symop_operation_xyz
x,y,z
-x,y,-z
-x,-y,-z
x,-y,z
1/2+x,1/2+y,z
1/2-x,1/2+y,-z
1/2-x,1/2-y,-z
1/2+x,1/2-y,z
loop_
_atom_site_type_symbol
_atom_site_label
_atom_site_fract_x
_atom_site_fract_y
_atom_site_fract_z
Si Si1 0.358768 0.293922 0.919440
Si Si2 0.835132 0.116532 0.538795
Si Si3 0.368798 0.886202 0.154201
Si Si4 0.935640 0.105715 0.393619
Si Si5 0.174582 0.707432 0.228835
Si Si6 0.620050 0.226490 0.333090
Si Si7 0.917608 0.611878 0.042960
O O1 0.266780 0.365654 0.899526
O O2 0.309257 0.285275 0.816888
O O3 0.500000 0.338751 0.000000
O O4 0.361173 0.187700 0.956165
O O5 0.713990 0.141935 0.418627
O O6 0.840874 0.172123 0.608496
O O7 0.962452 0.157019 0.586675
O O8 0.835187 0.000000 0.550097
O O9 0.476875 0.814632 0.252256
O O10 0.354161 0.867702 0.070324
O O11 0.406789 0.000000 0.190341
O O12 0.812265 0.166716 0.326339
O O13 0.000000 0.087838 0.500000
O O14 0.898084 0.000000 0.340428
O O15 0.135427 0.754753 0.269982
O O16 0.069662 0.625529 0.144175
O O17 0.889708 0.500000 0.003014
#
# Coordination Sequence:
#
# PCOD8080538 Si02
#       7
#     8   8   8   8   8   8   8
#     4  10  21  35  53  78 107 135 172 220 266 310
#     4  10  20  34  53  77 107 140 176 216 261 306
#     4  10  20  36  57  76 101 139 180 214 255 311
#     4  10  18  28  47  76 106 132 167 213 259 306
#     4  10  19  32  51  77 109 141 173 212 259 307
#     4  10  20  35  54  76 104 140 179 217 254 309
#     4   9  19  34  55  80 106 137 172 214 264 316
#
# _framework density 18.353985000000002
#
# number of rings (size 3 to 8) (size 9 to 14) (size 15 to 20)
#    0.000    2.143    1.429    2.143    0.000    4.571 
#    0.000    1.429    0.000    5.143    0.000    5.000 
#    0.000    0.000    0.000    0.000    0.000    0.000 
#
# Total GULP energy -346971.408579 kJ/mol
# GULP energy per Si atom -12391.836021 kJ/mol
# Density = 1.831221 g / cm^3
# Si number density = 18.353985 Si / 1000 Ang^3
#
#
#
# Elastic Constant Matrix: (Units=GPa)
#
#
# Indices 1 2 3 4 5 6 
#
# 1 115.5386 30.4776 38.8754 0.0000 5.8017 0.0000
# 2 30.4776 63.2709 21.8031 0.0001 -4.8187 0.0000
# 3 38.8754 21.8031 66.3004 0.0003 -2.2630 0.0001
# 4 0.0000 0.0001 0.0003 17.1371 0.0001 1.5473
# 5 5.8017 -4.8187 -2.2630 0.0001 36.4555 0.0000
# 6 0.0000 0.0000 0.0001 1.5473 0.0000 19.6840
#
#
#
# Elastic Compliance Matrix: (Units=1/GPa)
#
#
# Indices 1 2 3 4 5 6 
#
# 1 0.011737 -0.003900 -0.005693 0.000000 -0.002737 0.000000
# 2 -0.003900 0.019267 -0.003949 0.000000 0.002922 0.000000
# 3 -0.005693 -0.003949 0.019775 0.000000 0.001611 0.000000
# 4 0.000000 0.000000 0.000000 0.058770 0.000000 -0.004620
# 5 -0.002737 0.002922 0.001611 0.000000 0.028353 0.000000
# 6 0.000000 0.000000 0.000000 -0.004620 0.000000 0.051166
#
#
# Mechanical properties :
#
#
# Convention : Reuss Voigt Hill
#
# Bulk Modulus (GPa) = 42.20502 47.49134 44.84818
# Shear Modulus (GPa) = 22.31644 24.91891 23.61767
#
# Velocity S-wave (km/s) = 3.49075 3.68867 3.59107
# Velocity P-wave (km/s) = 6.26833 6.63876 6.45620
#
# Compressibility (1/GPa) = 0.02369386
#
# Stress axis : x y z
#
# Youngs Moduli (GPa) = 85.20183 51.90114 50.57005
#
# Poissons Ratio (x) = 0.20243 0.28788
# Poissons Ratio (y) = 0.33232 0.19972
# Poissons Ratio (z) = 0.48503 0.20498
#
# Static dielectric constant tensor:
#      x y z
#    x 3.619130 0.000000 -0.006060 
#    y 0.000000 3.122990 0.000000 
#    z -0.006060 0.000000 3.329030 
# 
# 
# High freq. dielectric constant tensor:
#      x y z
#    x 1.726810 0.000000 0.001460 
#    y 0.000000 1.680340 0.000000 
#    z 0.001460 0.000000 1.713490 
# 
# From -- ./inp_files/183459.got.cif
#   From: 2010.06.25/outbox.cif.g09.slc.cpg/sg12_92_cif.got.tgz:183459.got - 2010.06.28 00:19:55.
