data_PCOD8080739
_publ_section_title
;
Structure prediction by ZEFSAII (Michael W. Deem and Ramdas Pophale) SiO2 
 PCOD8080739
Probable space group: C 2/M
;
_chemical_formula_sum "Si O2"
_cell_formula_units_Z 64
_cell_length_a 25.140739
_cell_length_b 9.033692
_cell_length_c 23.687377
_cell_angle_alpha 90.000000
_cell_angle_beta 46.651343
_cell_angle_gamma 90.000000
_cell_volume 3912.084596
_symmetry_space_group_name_H-M "C 2/M"
_symmetry_group_IT_number 12
_symmetry_cell_setting 'monoclinic'
loop_
_space_group_symop_operation_xyz
x,y,z
-x,y,-z
-x,-y,-z
x,-y,z
1/2+x,1/2+y,z
1/2-x,1/2+y,-z
1/2-x,1/2-y,-z
1/2+x,1/2-y,z
loop_
_atom_site_type_symbol
_atom_site_label
_atom_site_fract_x
_atom_site_fract_y
_atom_site_fract_z
Si Si1 0.159515 0.325278 0.425839
Si Si2 0.281619 0.326117 0.421971
Si Si3 0.699411 0.830774 0.993842
Si Si4 0.947818 0.174727 0.303121
Si Si5 0.078711 0.674297 0.160490
Si Si6 0.527667 0.829007 0.598253
Si Si7 0.184260 0.173697 0.174202
Si Si8 0.364227 0.170967 0.681342
O O1 0.150661 0.500000 0.428371
O O2 0.234575 0.277380 0.401779
O O3 0.090630 0.264462 0.511607
O O4 0.159366 0.263053 0.362304
O O5 0.275731 0.500000 0.436668
O O6 0.250000 0.250000 0.500000
O O7 0.364811 0.276338 0.350846
O O8 0.730799 0.797099 0.908148
O O9 0.711412 0.000000 0.999451
O O10 0.750000 0.750000 0.000000
O O11 0.615188 0.791189 0.071830
O O12 0.973658 0.231260 0.344937
O O13 0.999234 0.249503 0.218250
O O14 0.957364 0.000000 0.293491
O O15 0.070093 0.500000 0.178073
O O16 0.127388 0.740924 0.175645
O O17 0.451136 0.810316 0.622450
O O18 0.542634 0.000000 0.603700
O O19 0.179144 0.234073 0.241027
O O20 0.165016 0.000000 0.186755
O O21 0.341435 0.000000 0.705250
#
# Coordination Sequence:
#
# PCOD8080739 Si02
#       8
#     8   8   8   8   8   8   8   8
#     4   9  18  33  50  67  90 124 164 200 230 268
#     4  10  20  34  51  69  91 122 160 199 239 278
#     4   8  16  28  43  64  91 123 154 184 223 275
#     4  11  21  30  45  71  99 124 153 195 242 277
#     4  10  18  30  47  67  92 125 162 190 221 277
#     4  10  18  30  49  68  91 123 159 193 228 276
#     4  10  18  29  45  68  99 126 148 186 237 278
#     4  10  19  30  47  71  95 124 162 193 223 278
#
# _framework density 16.359565
#
# number of rings (size 3 to 8) (size 9 to 14) (size 15 to 20)
#    0.000    2.250    2.500    1.500    0.000    3.000 
#    0.000    1.250    0.000    1.500    0.000    0.875 
#    0.000    7.000    0.000    0.000    0.000    0.000 
#
# Total GULP energy -396580.730802 kJ/mol
# GULP energy per Si atom -12393.147838 kJ/mol
# Density = 1.632233 g / cm^3
# Si number density = 16.359565 Si / 1000 Ang^3
#
#
#
# Elastic Constant Matrix: (Units=GPa)
#
#
# Indices 1 2 3 4 5 6 
#
# 1 82.7549 25.8609 50.9052 0.0000 -9.6494 0.0003
# 2 25.8609 53.8463 45.6866 0.0018 -9.4880 -0.0006
# 3 50.9052 45.6866 148.4161 0.0010 -19.5897 -0.0007
# 4 0.0000 0.0018 0.0010 24.7800 -0.0011 -2.2523
# 5 -9.6494 -9.4880 -19.5897 -0.0011 17.3000 0.0004
# 6 0.0003 -0.0006 -0.0007 -2.2523 0.0004 13.8879
#
#
#
# Elastic Compliance Matrix: (Units=1/GPa)
#
#
# Indices 1 2 3 4 5 6 
#
# 1 0.016027 -0.003908 -0.003994 0.000001 0.002273 -0.000001
# 2 -0.003908 0.026614 -0.006129 -0.000001 0.005476 0.000000
# 3 -0.003994 -0.006129 0.010883 0.000000 0.006735 0.000000
# 4 0.000001 -0.000001 0.000000 0.040959 0.000002 0.006642
# 5 0.002273 0.005476 0.006735 0.000002 0.069701 -0.000001
# 6 -0.000001 0.000000 0.000000 0.006642 -0.000001 0.073082
#
#
# Mechanical properties :
#
#
# Convention : Reuss Voigt Hill
#
# Bulk Modulus (GPa) = 39.27500 58.88030 49.07765
# Shear Modulus (GPa) = 18.26048 22.03123 20.14585
#
# Velocity S-wave (km/s) = 3.34458 3.67371 3.51300
# Velocity P-wave (km/s) = 6.24295 7.35284 6.82051
#
# Compressibility (1/GPa) = 0.02546149
#
# Stress axis : x y z
#
# Youngs Moduli (GPa) = 62.39444 37.57485 91.88307
#
# Poissons Ratio (x) = 0.14684 0.36699
# Poissons Ratio (y) = 0.24383 0.56317
# Poissons Ratio (z) = 0.24921 0.23031
#
# Static dielectric constant tensor:
#      x y z
#    x 2.935370 0.000000 -0.120480 
#    y 0.000000 3.027900 0.000000 
#    z -0.120480 0.000000 3.741020 
# 
# 
# High freq. dielectric constant tensor:
#      x y z
#    x 1.587580 0.000000 -0.009750 
#    y 0.000000 1.625090 0.000000 
#    z -0.009750 0.000000 1.645480 
# 
# From -- ./inp_files/323773.got.cif
#   From: 2010.06.25/outbox.cif.g09.slc.cpg/sg12_162_cif.got.tgz:323773.got - 2010.06.28 00:19:55.
