data_PCOD8080038
_publ_section_title
;
Structure prediction by ZEFSAII (Michael W. Deem and Ramdas Pophale) SiO2 
 PCOD8080038
Probable space group: C 2/M
;
_chemical_formula_sum "Si O2"
_cell_formula_units_Z 56
_cell_length_a 21.864303
_cell_length_b 13.305164
_cell_length_c 11.201398
_cell_angle_alpha 90.000000
_cell_angle_beta 97.832459
_cell_angle_gamma 90.000000
_cell_volume 3228.177890
_symmetry_space_group_name_H-M "C 2/M"
_symmetry_group_IT_number 12
_symmetry_cell_setting 'monoclinic'
loop_
_space_group_symop_operation_xyz
x,y,z
-x,y,-z
-x,-y,-z
x,-y,z
1/2+x,1/2+y,z
1/2-x,1/2+y,-z
1/2-x,1/2-y,-z
1/2+x,1/2-y,z
loop_
_atom_site_type_symbol
_atom_site_label
_atom_site_fract_x
_atom_site_fract_y
_atom_site_fract_z
Si Si1 0.683276 0.701646 0.389927
Si Si2 0.356470 0.616195 0.974970
Si Si3 0.037048 0.115663 0.629765
Si Si4 0.739841 0.383774 0.628608
Si Si5 0.574578 0.386016 0.237696
Si Si6 0.262141 0.115124 0.209059
Si Si7 0.347972 0.705168 0.223956
O O1 0.688831 0.663684 0.526470
O O2 0.697568 0.820139 0.374845
O O3 0.613202 0.686589 0.333561
O O4 0.731603 0.633626 0.329322
O O5 0.358811 0.500000 0.009969
O O6 0.411978 0.642910 0.896652
O O7 0.289554 0.644954 0.902947
O O8 0.369270 0.678577 0.096841
O O9 0.095072 0.188460 0.669113
O O10 0.000000 0.148421 0.500000
O O11 0.995723 0.124631 0.739212
O O12 0.059712 0.000000 0.620627
O O13 0.754726 0.500000 0.611423
O O14 0.710071 0.365121 0.751455
O O15 0.598575 0.500000 0.263470
O O16 0.324761 0.179755 0.214586
O O17 0.282307 0.000000 0.201604
#
# Coordination Sequence:
#
# PCOD8080038 Si02
#       7
#     8   8   8   8   8   8   8
#     4   9  17  29  46  65  88 121 155 188 229 277
#     4   9  17  30  48  71  95 119 151 189 233 283
#     4  10  20  32  47  69  96 125 156 191 231 274
#     4  10  18  27  43  68  94 118 148 190 237 277
#     4   9  17  30  47  64  89 124 156 187 225 272
#     4   9  18  32  50  70  93 122 155 191 232 281
#     4  11  20  30  47  71  98 124 153 191 234 278
#
# _framework density 17.347248
#
# number of rings (size 3 to 8) (size 9 to 14) (size 15 to 20)
#    0.000    2.429    0.000    4.714    0.000    1.714 
#    0.000    2.143    0.000    1.286    0.000    1.000 
#    0.000    0.000    0.000    0.000    0.000    0.000 
#
# Total GULP energy -347066.147584 kJ/mol
# GULP energy per Si atom -12395.219557 kJ/mol
# Density = 1.730776 g / cm^3
# Si number density = 17.347248 Si / 1000 Ang^3
#
#
#
# Elastic Constant Matrix: (Units=GPa)
#
#
# Indices 1 2 3 4 5 6 
#
# 1 56.9491 36.6451 23.9005 0.0000 1.0493 0.0000
# 2 36.6451 89.8156 20.5528 0.0000 2.8846 0.0000
# 3 23.9005 20.5528 67.3103 0.0000 -4.7248 0.0000
# 4 0.0000 0.0000 0.0000 16.9184 0.0000 -2.8249
# 5 1.0493 2.8846 -4.7248 0.0000 23.7815 0.0000
# 6 0.0000 0.0000 0.0000 -2.8249 0.0000 16.5129
#
#
#
# Elastic Compliance Matrix: (Units=1/GPa)
#
#
# Indices 1 2 3 4 5 6 
#
# 1 0.026253 -0.009152 -0.006623 0.000000 -0.001364 0.000000
# 2 -0.009152 0.015276 -0.001538 0.000000 -0.001755 0.000000
# 3 -0.006623 -0.001538 0.017962 0.000000 0.004047 0.000000
# 4 0.000000 0.000000 0.000000 0.060845 0.000000 0.010409
# 5 -0.001364 -0.001755 0.004047 0.000000 0.043127 0.000000
# 6 0.000000 0.000000 0.000000 0.010409 0.000000 0.062339
#
#
# Mechanical properties :
#
#
# Convention : Reuss Voigt Hill
#
# Bulk Modulus (GPa) = 40.21692 41.80797 41.01245
# Shear Modulus (GPa) = 18.60685 20.30767 19.45726
#
# Velocity S-wave (km/s) = 3.27863 3.42520 3.35271
# Velocity P-wave (km/s) = 6.12914 6.30837 6.21940
#
# Compressibility (1/GPa) = 0.02486515
#
# Stress axis : x y z
#
# Youngs Moduli (GPa) = 38.09022 65.46081 55.67293
#
# Poissons Ratio (x) = 0.59910 0.36874
# Poissons Ratio (y) = 0.34860 0.08562
# Poissons Ratio (z) = 0.25228 0.10068
#
# Static dielectric constant tensor:
#      x y z
#    x 3.059660 0.000000 -0.104810 
#    y 0.000000 3.087720 0.000000 
#    z -0.104810 0.000000 3.342630 
# 
# 
# High freq. dielectric constant tensor:
#      x y z
#    x 1.648020 0.000000 -0.012110 
#    y 0.000000 1.639820 0.000000 
#    z -0.012110 0.000000 1.682700 
# 
# From -- ./inp_files/164930.got.cif
#   From: 2010.06.25/outbox.cif.g09.slc.cpg/sg12_83_cif.got.tgz:164930.got - 2010.06.28 00:19:55.
