data_PCOD8080556
_publ_section_title
;
Structure prediction by ZEFSAII (Michael W. Deem and Ramdas Pophale) SiO2 
 PCOD8080556
Probable space group: C 2/M
;
_chemical_formula_sum "Si O2"
_cell_formula_units_Z 64
_cell_length_a 30.225243
_cell_length_b 13.557860
_cell_length_c 9.710065
_cell_angle_alpha 90.000000
_cell_angle_beta 98.760029
_cell_angle_gamma 90.000000
_cell_volume 3932.667241
_symmetry_space_group_name_H-M "C 2/M"
_symmetry_group_IT_number 12
_symmetry_cell_setting 'monoclinic'
loop_
_space_group_symop_operation_xyz
x,y,z
-x,y,-z
-x,-y,-z
x,-y,z
1/2+x,1/2+y,z
1/2-x,1/2+y,-z
1/2-x,1/2-y,-z
1/2+x,1/2-y,z
loop_
_atom_site_type_symbol
_atom_site_label
_atom_site_fract_x
_atom_site_fract_y
_atom_site_fract_z
Si Si1 0.152605 0.610005 0.625186
Si Si2 0.584027 0.885548 0.834358
Si Si3 0.102762 0.612158 0.315476
Si Si4 0.200313 0.113842 0.117752
Si Si5 0.856822 0.293062 0.920217
Si Si6 0.236730 0.613817 0.111902
Si Si7 0.994263 0.617201 0.650493
Si Si8 0.241167 0.728694 0.655241
O O1 0.173010 0.500000 0.652768
O O2 0.117709 0.633862 0.726929
O O3 0.125610 0.617492 0.472849
O O4 0.191280 0.689812 0.650101
O O5 0.534887 0.848185 0.767210
O O6 0.582978 0.000000 0.877873
O O7 0.599849 0.819274 0.969325
O O8 0.102974 0.500000 0.258681
O O9 0.131516 0.682177 0.231308
O O10 0.052111 0.652954 0.303754
O O11 0.155053 0.177058 0.074008
O O12 0.223777 0.147833 0.270934
O O13 0.186756 0.000000 0.120080
O O14 0.233942 0.137203 0.008539
O O15 0.814064 0.356857 0.949176
O O16 0.239150 0.500000 0.153283
O O17 0.254277 0.671836 0.253738
O O18 0.994199 0.500000 0.636907
O O19 0.000000 0.662542 0.500000
O O20 0.250000 0.750000 0.500000
#
# Coordination Sequence:
#
# PCOD8080556 Si02
#       8
#     8   8   8   8   8   8   8   8
#     4  10  18  29  46  66  90 128 168 193 225 278
#     4  10  18  28  48  72  96 126 158 192 227 282
#     4  10  19  30  46  68 101 133 154 188 239 289
#     4  10  21  37  53  66  93 136 170 203 246 288
#     4  11  20  31  47  73  97 118 160 206 238 277
#     4  10  20  35  51  67  97 136 168 200 240 286
#     4   9  16  30  46  67 100 133 158 182 227 292
#     4  11  21  31  47  73 101 127 161 208 246 286
#
# _framework density 16.273942000000002
#
# number of rings (size 3 to 8) (size 9 to 14) (size 15 to 20)
#    0.000    1.875    1.250    6.000    0.000    4.500 
#    0.000    1.875    0.000    0.000    0.000    1.750 
#    0.000    1.000    0.000    0.000    0.000    0.000 
#
# Total GULP energy -396826.464225 kJ/mol
# GULP energy per Si atom -12400.827007 kJ/mol
# Density = 1.623690 g / cm^3
# Si number density = 16.273942 Si / 1000 Ang^3
#
#
#
# Elastic Constant Matrix: (Units=GPa)
#
#
# Indices 1 2 3 4 5 6 
#
# 1 73.1448 35.5193 11.8971 0.0000 12.8567 0.0000
# 2 35.5193 80.0435 27.6221 0.0000 -1.7652 0.0000
# 3 11.8971 27.6221 71.1836 0.0000 0.8716 0.0000
# 4 0.0000 0.0000 0.0000 13.4979 0.0000 -8.5279
# 5 12.8567 -1.7652 0.8716 0.0000 30.4909 0.0000
# 6 0.0000 0.0000 0.0000 -8.5279 0.0000 11.1034
#
#
#
# Elastic Compliance Matrix: (Units=1/GPa)
#
#
# Indices 1 2 3 4 5 6 
#
# 1 0.019510 -0.008962 0.000324 0.000000 -0.008755 0.000000
# 2 -0.008962 0.018572 -0.005770 0.000000 0.005019 0.000000
# 3 0.000324 -0.005770 0.016245 0.000000 -0.000935 0.000000
# 4 0.000000 0.000000 0.000000 0.143922 0.000000 0.110537
# 5 -0.008755 0.005019 -0.000935 0.000000 0.036805 0.000000
# 6 0.000000 0.000000 0.000000 0.110537 0.000000 0.174959
#
#
# Mechanical properties :
#
#
# Convention : Reuss Voigt Hill
#
# Bulk Modulus (GPa) = 39.20096 41.60544 40.40320
# Shear Modulus (GPa) = 11.17737 20.97402 16.07569
#
# Velocity S-wave (km/s) = 2.62358 3.59389 3.14637
# Velocity P-wave (km/s) = 5.77218 6.54543 6.17093
#
# Compressibility (1/GPa) = 0.02550958
#
# Stress axis : x y z
#
# Youngs Moduli (GPa) = 51.25643 53.84383 61.55908
#
# Poissons Ratio (x) = 0.48257 -0.01996
# Poissons Ratio (y) = 0.45938 0.35522
# Poissons Ratio (z) = -0.01662 0.31070
#
# Static dielectric constant tensor:
#      x y z
#    x 3.173140 0.000000 0.036620 
#    y 0.000000 2.894570 0.000000 
#    z 0.036620 0.000000 3.243140 
# 
# 
# High freq. dielectric constant tensor:
#      x y z
#    x 1.624870 0.000000 -0.000410 
#    y 0.000000 1.589270 0.000000 
#    z -0.000410 0.000000 1.639450 
# 
# From -- ./inp_files/111165.got.cif
#   From: 2010.06.25/outbox.cif.g09.slc.cpg/sg12_56_cif.got.tgz:111165.got - 2010.06.28 00:19:55.
