data_PCOD8080353
_publ_section_title
;
Structure prediction by ZEFSAII (Michael W. Deem and Ramdas Pophale) SiO2 
 PCOD8080353
Probable space group: C 2/M
;
_chemical_formula_sum "Si O2"
_cell_formula_units_Z 56
_cell_length_a 27.444644
_cell_length_b 9.077899
_cell_length_c 17.102292
_cell_angle_alpha 90.000000
_cell_angle_beta 53.710452
_cell_angle_gamma 90.000000
_cell_volume 3434.407685
_symmetry_space_group_name_H-M "C 2/M"
_symmetry_group_IT_number 12
_symmetry_cell_setting 'monoclinic'
loop_
_space_group_symop_operation_xyz
x,y,z
-x,y,-z
-x,-y,-z
x,-y,z
1/2+x,1/2+y,z
1/2-x,1/2+y,-z
1/2-x,1/2-y,-z
1/2+x,1/2-y,z
loop_
_atom_site_type_symbol
_atom_site_label
_atom_site_fract_x
_atom_site_fract_y
_atom_site_fract_z
Si Si1 0.954346 0.331531 0.702725
Si Si2 0.590865 0.667513 0.400730
Si Si3 0.770961 0.165554 0.717789
Si Si4 0.912486 0.669288 0.437296
Si Si5 0.339744 0.170531 0.907159
Si Si6 0.293249 0.674978 0.520690
Si Si7 0.769950 0.828339 0.099857
O O1 0.941455 0.500000 0.687908
O O2 0.946623 0.222527 0.637521
O O3 0.907556 0.288801 0.815721
O O4 0.023185 0.315872 0.669023
O O5 0.571797 0.500000 0.439447
O O6 0.661378 0.674245 0.313601
O O7 0.575795 0.773931 0.486576
O O8 0.769794 0.220743 0.629124
O O9 0.729448 0.266113 0.812416
O O10 0.745789 0.000000 0.746190
O O11 0.890887 0.500000 0.460458
O O12 0.861283 0.765401 0.442831
O O13 0.292841 0.213842 0.883093
O O14 0.332843 0.000000 0.934847
O O15 0.325899 0.261256 0.998619
O O16 0.294131 0.500000 0.509351
O O17 0.250000 0.750000 0.500000
O O18 0.780223 0.000000 0.096050
#
# Coordination Sequence:
#
# PCOD8080353 Si02
#       7
#     8   8   8   8   8   8   8
#     4  10  19  31  45  65  93 131 168 196 233 280
#     4  10  19  29  43  65  95 129 164 199 235 277
#     4   9  18  31  47  68  95 126 158 194 236 283
#     4  10  20  32  48  68  94 126 161 197 235 285
#     4   9  18  30  43  62  94 130 165 202 235 273
#     4  10  21  37  55  76  98 122 155 196 244 290
#     4  10  18  28  45  67  91 125 166 202 237 276
#
# _framework density 16.305578000000001
#
# number of rings (size 3 to 8) (size 9 to 14) (size 15 to 20)
#    0.000    2.286    1.429    3.000    0.000    6.857 
#    0.000    0.000    0.000    0.000    0.000    1.000 
#    0.000    8.000    0.000    0.000    0.000    0.000 
#
# Total GULP energy -347167.478699 kJ/mol
# GULP energy per Si atom -12398.838525 kJ/mol
# Density = 1.626847 g / cm^3
# Si number density = 16.305578 Si / 1000 Ang^3
#
#
#
# Elastic Constant Matrix: (Units=GPa)
#
#
# Indices 1 2 3 4 5 6 
#
# 1 84.2126 42.0821 51.4393 0.0000 -0.9987 0.0000
# 2 42.0821 82.3831 48.6786 0.0003 -2.3656 0.0001
# 3 51.4393 48.6786 102.0916 0.0000 -10.9421 0.0000
# 4 0.0000 0.0003 0.0000 26.5485 0.0000 1.8622
# 5 -0.9987 -2.3656 -10.9421 0.0000 15.8796 0.0000
# 6 0.0000 0.0001 0.0000 1.8622 0.0000 22.9590
#
#
#
# Elastic Compliance Matrix: (Units=1/GPa)
#
#
# Indices 1 2 3 4 5 6 
#
# 1 0.019171 -0.005455 -0.007576 0.000000 -0.004827 0.000000
# 2 -0.005455 0.018611 -0.006333 0.000000 -0.001934 0.000000
# 3 -0.007576 -0.006333 0.017794 0.000000 0.010841 0.000000
# 4 0.000000 0.000000 0.000000 0.037882 0.000000 -0.003073
# 5 -0.004827 -0.001934 0.010841 0.000000 0.069852 0.000000
# 6 0.000000 0.000000 0.000000 -0.003073 0.000000 0.043805
#
#
# Mechanical properties :
#
#
# Convention : Reuss Voigt Hill
#
# Bulk Modulus (GPa) = 59.35155 61.45414 60.40285
# Shear Modulus (GPa) = 19.88395 21.50992 20.69693
#
# Velocity S-wave (km/s) = 3.49586 3.63599 3.56661
# Velocity P-wave (km/s) = 7.26452 7.44299 7.35430
#
# Compressibility (1/GPa) = 0.01684876
#
# Stress axis : x y z
#
# Youngs Moduli (GPa) = 52.16276 53.73071 56.19947
#
# Poissons Ratio (x) = 0.29310 0.42575
# Poissons Ratio (y) = 0.28454 0.35591
# Poissons Ratio (z) = 0.39517 0.34028
#
# Static dielectric constant tensor:
#      x y z
#    x 2.777210 0.000000 -0.132430 
#    y 0.000000 3.154620 0.000000 
#    z -0.132430 0.000000 3.101050 
# 
# 
# High freq. dielectric constant tensor:
#      x y z
#    x 1.581510 0.000000 -0.011540 
#    y 0.000000 1.640500 0.000000 
#    z -0.011540 0.000000 1.622990 
# 
# From -- ./inp_files/291832.got.cif
#   From: 2010.06.25/outbox.cif.g09.slc.cpg/sg12_146_cif.got.tgz:291832.got - 2010.06.28 00:19:55.
