data_PCOD8080415
_publ_section_title
;
Structure prediction by ZEFSAII (Michael W. Deem and Ramdas Pophale) SiO2 
 PCOD8080415
Probable space group: C 2/M
;
_chemical_formula_sum "Si O2"
_cell_formula_units_Z 56
_cell_length_a 27.026113
_cell_length_b 9.204542
_cell_length_c 13.256264
_cell_angle_alpha 90.000000
_cell_angle_beta 60.631226
_cell_angle_gamma 90.000000
_cell_volume 2873.855651
_symmetry_space_group_name_H-M "C 2/M"
_symmetry_group_IT_number 12
_symmetry_cell_setting 'monoclinic'
loop_
_space_group_symop_operation_xyz
x,y,z
-x,y,-z
-x,-y,-z
x,-y,z
1/2+x,1/2+y,z
1/2-x,1/2+y,-z
1/2-x,1/2-y,-z
1/2+x,1/2-y,z
loop_
_atom_site_type_symbol
_atom_site_label
_atom_site_fract_x
_atom_site_fract_y
_atom_site_fract_z
Si Si1 0.130991 0.829826 0.551496
Si Si2 0.434107 0.168614 0.558817
Si Si3 0.363486 0.169491 0.824905
Si Si4 0.730669 0.669061 0.175665
Si Si5 0.863249 0.664004 0.043961
Si Si6 0.231702 0.671798 0.372642
Si Si7 0.638563 0.333705 0.763927
O O1 0.090047 0.760112 0.510089
O O2 0.193070 0.753988 0.493450
O O3 0.105745 0.806635 0.690669
O O4 0.138864 0.000000 0.521285
O O5 0.500000 0.204905 0.500000
O O6 0.407152 0.213674 0.693167
O O7 0.422682 0.000000 0.546748
O O8 0.306816 0.268815 0.878718
O O9 0.345800 0.000000 0.836982
O O10 0.392302 0.199877 0.906473
O O11 0.717205 0.500000 0.208017
O O12 0.796834 0.696079 0.092220
O O13 0.707718 0.767126 0.291005
O O14 0.874084 0.500000 0.065322
O O15 0.889162 0.753382 0.112114
O O16 0.222124 0.500000 0.389686
O O17 0.296812 0.718932 0.317862
O O18 0.638143 0.500000 0.795540
#
# Coordination Sequence:
#
# PCOD8080415 Si02
#       7
#     8   8   8   8   8   8   8
#     4  11  21  34  53  77 105 135 173 219 265 310
#     4  10  22  39  58  79 102 133 175 221 271 319
#     4  10  19  33  52  73 102 136 172 217 265 309
#     4  10  18  28  45  73 106 139 174 210 251 307
#     4   9  19  32  48  74 106 140 175 210 249 306
#     4  10  18  30  48  72 105 144 177 208 252 306
#     4   9  20  34  49  74 108 143 175 210 251 306
#
# _framework density 19.486015999999999
#
# number of rings (size 3 to 8) (size 9 to 14) (size 15 to 20)
#    0.000    2.143    1.429    2.143    0.000    3.143 
#    0.000    0.000    0.000    0.857    0.000    6.000 
#    0.000    0.000    0.000    0.000    0.000    0.000 
#
# Total GULP energy -347021.791243 kJ/mol
# GULP energy per Si atom -12393.635402 kJ/mol
# Density = 1.944167 g / cm^3
# Si number density = 19.486016 Si / 1000 Ang^3
#
#
#
# Elastic Constant Matrix: (Units=GPa)
#
#
# Indices 1 2 3 4 5 6 
#
# 1 44.3994 33.3436 43.7938 0.0000 11.9458 0.0000
# 2 33.3436 81.9910 54.0455 0.0000 17.4975 0.0000
# 3 43.7938 54.0455 131.2170 0.0000 34.3165 0.0000
# 4 0.0000 0.0000 0.0000 28.6124 0.0000 9.1056
# 5 11.9458 17.4975 34.3165 0.0000 24.7855 0.0000
# 6 0.0000 0.0000 0.0000 9.1056 0.0000 19.2591
#
#
#
# Elastic Compliance Matrix: (Units=1/GPa)
#
#
# Indices 1 2 3 4 5 6 
#
# 1 0.038681 -0.009963 -0.009045 0.000000 0.000914 0.000000
# 2 -0.009963 0.019511 -0.003707 0.000000 -0.003840 0.000000
# 3 -0.009045 -0.003707 0.016212 0.000000 -0.015471 0.000000
# 4 0.000000 0.000000 0.000000 0.041140 0.000000 -0.019451
# 5 0.000914 -0.003840 -0.015471 0.000000 0.064036 0.000000
# 6 0.000000 0.000000 0.000000 -0.019451 0.000000 0.061120
#
#
# Mechanical properties :
#
#
# Convention : Reuss Voigt Hill
#
# Bulk Modulus (GPa) = 34.51360 57.77481 46.14420
# Shear Modulus (GPa) = 16.90394 22.95970 19.93182
#
# Velocity S-wave (km/s) = 2.94852 3.43631 3.20172
# Velocity P-wave (km/s) = 5.41683 6.74226 6.11556
#
# Compressibility (1/GPa) = 0.02897408
#
# Stress axis : x y z
#
# Youngs Moduli (GPa) = 25.85238 51.25292 61.68103
#
# Poissons Ratio (x) = 0.51065 0.55792
# Poissons Ratio (y) = 0.25758 0.22863
# Poissons Ratio (z) = 0.23384 0.18998
#
# Static dielectric constant tensor:
#      x y z
#    x 3.155050 0.000000 0.230270 
#    y 0.000000 3.502070 0.000000 
#    z 0.230270 0.000000 3.862120 
# 
# 
# High freq. dielectric constant tensor:
#      x y z
#    x 1.711430 0.000000 0.027430 
#    y 0.000000 1.757920 0.000000 
#    z 0.027430 0.000000 1.768950 
# 
# From -- ./inp_files/186489.got.cif
#   From: 2010.06.25/outbox.cif.g09.slc.cpg/sg12_94_cif.got.tgz:186489.got - 2010.06.28 00:19:55.
