data_PCOD8080081
_publ_section_title
;
Structure prediction by ZEFSAII (Michael W. Deem and Ramdas Pophale) SiO2 
 PCOD8080081
Probable space group: C 2/M
;
_chemical_formula_sum "Si O2"
_cell_formula_units_Z 48
_cell_length_a 10.065145
_cell_length_b 16.965535
_cell_length_c 15.079669
_cell_angle_alpha 90.000000
_cell_angle_beta 111.123640
_cell_angle_gamma 90.000000
_cell_volume 2401.984680
_symmetry_space_group_name_H-M "C 2/M"
_symmetry_group_IT_number 12
_symmetry_cell_setting 'monoclinic'
loop_
_space_group_symop_operation_xyz
x,y,z
-x,y,-z
-x,-y,-z
x,-y,z
1/2+x,1/2+y,z
1/2-x,1/2+y,-z
1/2-x,1/2-y,-z
1/2+x,1/2-y,z
loop_
_atom_site_type_symbol
_atom_site_label
_atom_site_fract_x
_atom_site_fract_y
_atom_site_fract_z
Si Si1 0.363364 0.158529 0.194268
Si Si2 0.657438 0.356983 0.295723
Si Si3 0.342495 0.825504 0.996860
Si Si4 0.340961 0.344791 0.204010
Si Si5 0.153640 0.410263 0.504116
Si Si6 0.334243 0.828475 0.670513
O O1 0.235239 0.124222 0.221714
O O2 0.356294 0.124848 0.091782
O O3 0.356225 0.252448 0.191234
O O4 0.511637 0.133592 0.274172
O O5 0.495622 0.385359 0.241469
O O6 0.730575 0.407269 0.390160
O O7 0.666609 0.265719 0.325306
O O8 0.500000 0.800694 0.000000
O O9 0.250000 0.750000 0.000000
O O10 0.260370 0.875923 0.900832
O O11 0.272947 0.363814 0.282735
O O12 0.137939 0.500000 0.467666
O O13 0.212190 0.356374 0.438134
O O14 0.000000 0.377740 0.500000
#
# Coordination Sequence:
#
# PCOD8080081 Si02
#       6
#     8   8   8   8   8   8
#     4   9  17  29  50  74 111 145 175 215 259 320
#     4  10  20  35  53  80 109 142 182 220 267 319
#     4  10  18  27  44  76 115 147 174 214 268 320
#     4   9  19  29  49  77 109 141 175 217 268 312
#     4  11  23  38  57  80 105 140 184 227 273 326
#     4  10  18  35  54  78 108 143 178 219 265 318
#
# _framework density 19.983474000000001
#
# number of rings (size 3 to 8) (size 9 to 14) (size 15 to 20)
#    0.000    2.167    3.333    0.500    7.000    0.667 
#    0.000    1.667    0.000    0.000    0.000    7.000 
#    0.000    0.000    0.000    0.000    0.000    0.000 
#
# Total GULP energy -297504.749939 kJ/mol
# GULP energy per Si atom -12396.031247 kJ/mol
# Density = 1.993799 g / cm^3
# Si number density = 19.983474 Si / 1000 Ang^3
#
#
#
# Elastic Constant Matrix: (Units=GPa)
#
#
# Indices 1 2 3 4 5 6 
#
# 1 168.8182 13.0165 67.3028 0.0000 -3.7508 0.0000
# 2 13.0165 20.1264 11.6728 0.0000 -6.8625 0.0000
# 3 67.3028 11.6728 147.0951 0.0000 -10.6776 0.0000
# 4 0.0000 0.0000 0.0000 4.0894 0.0000 2.0268
# 5 -3.7508 -6.8625 -10.6776 0.0000 44.7746 0.0000
# 6 0.0000 0.0000 0.0000 2.0268 0.0000 9.3784
#
#
#
# Elastic Compliance Matrix: (Units=1/GPa)
#
#
# Indices 1 2 3 4 5 6 
#
# 1 0.007426 -0.003164 -0.003192 0.000000 -0.000624 0.000000
# 2 -0.003164 0.055762 -0.002418 0.000000 0.007705 0.000000
# 3 -0.003192 -0.002418 0.008552 0.000000 0.001402 0.000000
# 4 0.000000 0.000000 0.000000 0.273869 0.000000 -0.059188
# 5 -0.000624 0.007705 0.001402 0.000000 0.023797 0.000000
# 6 0.000000 0.000000 0.000000 -0.059188 0.000000 0.119420
#
#
# Mechanical properties :
#
#
# Convention : Reuss Voigt Hill
#
# Bulk Modulus (GPa) = 18.45286 57.78042 38.11664
# Shear Modulus (GPa) = 9.53401 27.91832 18.72617
#
# Velocity S-wave (km/s) = 2.18662 3.74180 3.06450
# Velocity P-wave (km/s) = 3.95338 6.90253 5.62468
#
# Compressibility (1/GPa) = 0.05419214
#
# Stress axis : x y z
#
# Youngs Moduli (GPa) = 134.65819 17.93337 116.92578
#
# Poissons Ratio (x) = 0.05675 0.37323
# Poissons Ratio (y) = 0.42610 0.28272
# Poissons Ratio (z) = 0.42983 0.04336
#
# Static dielectric constant tensor:
#      x y z
#    x 3.894370 0.000000 0.046480 
#    y 0.000000 2.857260 0.000000 
#    z 0.046480 0.000000 4.153150 
# 
# 
# High freq. dielectric constant tensor:
#      x y z
#    x 1.793780 0.000000 -0.003670 
#    y 0.000000 1.702300 0.000000 
#    z -0.003670 0.000000 1.800330 
# 
# From -- ./inp_files/196938.got.cif
#   From: 2010.06.25/outbox.cif.g09.slc.cpg/sg12_99_cif.got.tgz:196938.got - 2010.06.28 00:19:55.
