data_PCOD8080807
_publ_section_title
;
Structure prediction by ZEFSAII (Michael W. Deem and Ramdas Pophale) SiO2 
 PCOD8080807
Probable space group: C 2/M
;
_chemical_formula_sum "Si O2"
_cell_formula_units_Z 56
_cell_length_a 19.363030
_cell_length_b 9.202390
_cell_length_c 29.178468
_cell_angle_alpha 90.000000
_cell_angle_beta 141.986873
_cell_angle_gamma 90.000000
_cell_volume 3201.885099
_symmetry_space_group_name_H-M "C 2/M"
_symmetry_group_IT_number 12
_symmetry_cell_setting 'monoclinic'
loop_
_space_group_symop_operation_xyz
x,y,z
-x,y,-z
-x,-y,-z
x,-y,z
1/2+x,1/2+y,z
1/2-x,1/2+y,-z
1/2-x,1/2-y,-z
1/2+x,1/2-y,z
loop_
_atom_site_type_symbol
_atom_site_label
_atom_site_fract_x
_atom_site_fract_y
_atom_site_fract_z
Si Si1 0.455086 0.170315 0.754097
Si Si2 0.384072 0.331389 0.313629
Si Si3 0.371126 0.831154 0.805727
Si Si4 0.794751 0.668505 0.590477
Si Si5 0.407432 0.167902 0.551999
Si Si6 0.655003 0.832399 0.798003
Si Si7 0.592847 0.668714 0.083373
O O1 0.431911 0.235228 0.792441
O O2 0.367381 0.230884 0.670748
O O3 0.582922 0.205376 0.805718
O O4 0.434264 0.000000 0.746278
O O5 0.416326 0.500000 0.328863
O O6 0.261231 0.305175 0.270319
O O7 0.473138 0.247344 0.391934
O O8 0.389144 0.269675 0.265110
O O9 0.419370 0.748790 0.874803
O O10 0.397955 0.000000 0.827200
O O11 0.762966 0.500000 0.579928
O O12 0.680836 0.760718 0.529036
O O13 0.867703 0.691745 0.583155
O O14 0.420957 0.000000 0.546311
O O15 0.785826 0.803571 0.876321
O O16 0.634060 0.000000 0.772243
O O17 0.572040 0.500000 0.082187
O O18 0.500000 0.731002 0.000000
#
# Coordination Sequence:
#
# PCOD8080807 Si02
#       7
#     8   8   8   8   8   8   8
#     4   9  16  31  51  71  94 124 164 201 238 284
#     4  10  18  29  46  70  96 123 160 203 243 282
#     4   9  19  33  51  73  97 126 159 198 240 283
#     4   9  17  29  46  68  93 122 160 206 245 279
#     4  10  18  29  46  69  94 125 165 203 242 283
#     4   9  16  30  52  72  92 125 165 198 231 279
#     4   9  18  33  53  76 101 128 157 191 234 286
#
# _framework density 17.489698000000001
#
# number of rings (size 3 to 8) (size 9 to 14) (size 15 to 20)
#    0.000    2.714    1.429    0.857    0.000    1.429 
#    0.000    2.857    0.000    4.286    0.000    0.000 
#    0.000    0.000    0.000    0.000    0.000    0.000 
#
# Total GULP energy -347163.350582 kJ/mol
# GULP energy per Si atom -12398.691092 kJ/mol
# Density = 1.744989 g / cm^3
# Si number density = 17.489698 Si / 1000 Ang^3
#
#
#
# Elastic Constant Matrix: (Units=GPa)
#
#
# Indices 1 2 3 4 5 6 
#
# 1 118.6895 33.8879 59.4386 0.0000 -3.7642 -0.0001
# 2 33.8879 62.8027 44.5197 0.0001 3.0344 -0.0002
# 3 59.4386 44.5197 132.2676 0.0000 0.8472 0.0000
# 4 0.0000 0.0001 0.0000 26.0444 0.0000 -0.4387
# 5 -3.7642 3.0344 0.8472 0.0000 19.7474 0.0000
# 6 -0.0001 -0.0002 0.0000 -0.4387 0.0000 17.4975
#
#
#
# Elastic Compliance Matrix: (Units=1/GPa)
#
#
# Indices 1 2 3 4 5 6 
#
# 1 0.011534 -0.003516 -0.004018 0.000000 0.002911 0.000000
# 2 -0.003516 0.022153 -0.005852 0.000000 -0.003823 0.000000
# 3 -0.004018 -0.005852 0.011338 0.000000 -0.000353 0.000000
# 4 0.000000 0.000000 0.000000 0.038412 0.000000 0.000963
# 5 0.002911 -0.003823 -0.000353 0.000000 0.051797 0.000000
# 6 0.000000 0.000000 0.000000 0.000963 0.000000 0.057175
#
#
# Mechanical properties :
#
#
# Convention : Reuss Voigt Hill
#
# Bulk Modulus (GPa) = 54.78606 65.49468 60.14037
# Shear Modulus (GPa) = 22.19596 24.38543 23.29069
#
# Velocity S-wave (km/s) = 3.56629 3.73805 3.65318
# Velocity P-wave (km/s) = 6.95346 7.49397 7.22877
#
# Compressibility (1/GPa) = 0.01825282
#
# Stress axis : x y z
#
# Youngs Moduli (GPa) = 86.70139 45.14042 88.19711
#
# Poissons Ratio (x) = 0.15870 0.35441
# Poissons Ratio (y) = 0.30481 0.51614
# Poissons Ratio (z) = 0.34840 0.26417
#
# Static dielectric constant tensor:
#      x y z
#    x 3.253580 0.000000 0.110040 
#    y 0.000000 3.161560 0.000000 
#    z 0.110040 0.000000 3.292890 
# 
# 
# High freq. dielectric constant tensor:
#      x y z
#    x 1.659180 0.000000 0.013260 
#    y 0.000000 1.663010 0.000000 
#    z 0.013260 0.000000 1.670660 
# 
# From -- ./inp_files/280219.got.cif
#   From: 2010.06.25/outbox.cif.g09.slc.cpg/sg12_141_cif.got.tgz:280219.got - 2010.06.28 00:19:55.
