data_PCOD8080524
_publ_section_title
;
Structure prediction by ZEFSAII (Michael W. Deem and Ramdas Pophale) SiO2 
 PCOD8080524
Probable space group: C 2/M
;
_chemical_formula_sum "Si O2"
_cell_formula_units_Z 40
_cell_length_a 33.331773
_cell_length_b 8.683695
_cell_length_c 7.341737
_cell_angle_alpha 90.000000
_cell_angle_beta 89.823022
_cell_angle_gamma 90.000000
_cell_volume 2125.003882
_symmetry_space_group_name_H-M "C 2/M"
_symmetry_group_IT_number 12
_symmetry_cell_setting 'monoclinic'
loop_
_space_group_symop_operation_xyz
x,y,z
-x,y,-z
-x,-y,-z
x,-y,z
1/2+x,1/2+y,z
1/2-x,1/2+y,-z
1/2-x,1/2-y,-z
1/2+x,1/2-y,z
loop_
_atom_site_type_symbol
_atom_site_label
_atom_site_fract_x
_atom_site_fract_y
_atom_site_fract_z
Si Si1 0.952775 0.817379 0.684493
Si Si2 0.959229 0.816917 0.281141
Si Si3 0.246575 0.818662 0.297989
Si Si4 0.691137 0.180794 0.009365
Si Si5 0.895320 0.817003 0.993892
O O1 0.946982 0.754807 0.480700
O O2 0.995534 0.758952 0.766192
O O3 0.955014 0.000000 0.682911
O O4 0.914632 0.764312 0.802086
O O5 0.926488 0.752803 0.142553
O O6 0.958222 0.000000 0.273732
O O7 0.250000 0.750000 0.500000
O O8 0.206765 0.761019 0.194202
O O9 0.243997 0.000000 0.320146
O O10 0.284081 0.767594 0.170765
O O11 0.694722 0.000000 0.039230
O O12 0.645909 0.230104 0.974815
O O13 0.888441 0.000000 0.006062
#
# Coordination Sequence:
#
# PCOD8080524 Si02
#       5
#     8   8   8   8   8
#     4   8  14  25  42  67  97 129 168 213 258 299
#     4   8  14  25  42  66  97 130 167 213 258 298
#     4  10  21  39  62  82 103 135 172 212 259 311
#     4  10  22  38  54  78 110 140 172 210 256 314
#     4  10  18  28  47  74 100 129 168 214 259 300
#
# _framework density 18.823495999999999
#
# number of rings (size 3 to 8) (size 9 to 14) (size 15 to 20)
#    0.000    2.800    0.000    3.000    0.000    6.400 
#    0.000    2.000    0.000    2.400    0.000    2.800 
#    0.000    0.000    0.000    0.000    0.000    0.000 
#
# Total GULP energy -247878.829786 kJ/mol
# GULP energy per Si atom -12393.941489 kJ/mol
# Density = 1.878065 g / cm^3
# Si number density = 18.823496 Si / 1000 Ang^3
#
#
#
# Elastic Constant Matrix: (Units=GPa)
#
#
# Indices 1 2 3 4 5 6 
#
# 1 101.0162 18.3568 31.3307 0.0000 -6.9710 0.0000
# 2 18.3568 38.0542 27.7951 0.0000 -1.5542 0.0000
# 3 31.3307 27.7951 100.5913 0.0000 -7.6216 0.0000
# 4 0.0000 0.0000 0.0000 19.3854 0.0000 1.4865
# 5 -6.9710 -1.5542 -7.6216 0.0000 20.7707 0.0000
# 6 0.0000 0.0000 0.0000 1.4865 0.0000 24.9027
#
#
#
# Elastic Compliance Matrix: (Units=1/GPa)
#
#
# Indices 1 2 3 4 5 6 
#
# 1 0.011490 -0.003719 -0.002345 0.000000 0.002717 0.000000
# 2 -0.003719 0.034143 -0.008411 0.000000 -0.001779 0.000000
# 3 -0.002345 -0.008411 0.013257 0.000000 0.003448 0.000000
# 4 0.000000 0.000000 0.000000 0.051823 0.000000 -0.003093
# 5 0.002717 -0.001779 0.003448 0.000000 0.050189 0.000000
# 6 0.000000 0.000000 0.000000 -0.003093 0.000000 0.040341
#
#
# Mechanical properties :
#
#
# Convention : Reuss Voigt Hill
#
# Bulk Modulus (GPa) = 33.39982 43.84744 38.62363
# Shear Modulus (GPa) = 20.81842 23.82368 22.32105
#
# Velocity S-wave (km/s) = 3.32924 3.56144 3.44729
# Velocity P-wave (km/s) = 5.70619 6.34479 6.03394
#
# Compressibility (1/GPa) = 0.02994028
#
# Stress axis : x y z
#
# Youngs Moduli (GPa) = 87.03139 29.28879 75.43171
#
# Poissons Ratio (x) = 0.10891 0.17692
# Poissons Ratio (y) = 0.32363 0.63444
# Poissons Ratio (z) = 0.20412 0.24634
#
# Static dielectric constant tensor:
#      x y z
#    x 3.569530 0.000000 -0.085480 
#    y 0.000000 3.021780 0.000000 
#    z -0.085480 0.000000 3.818950 
# 
# 
# High freq. dielectric constant tensor:
#      x y z
#    x 1.734630 0.000000 -0.001200 
#    y 0.000000 1.687570 0.000000 
#    z -0.001200 0.000000 1.740850 
# 
# From -- ./inp_files/107514.got.cif
#   From: 2010.06.25/outbox.cif.g09.slc.cpg/sg12_54_cif.got.tgz:107514.got - 2010.06.28 00:19:55.
