data_PCOD8080727
_publ_section_title
;
Structure prediction by ZEFSAII (Michael W. Deem and Ramdas Pophale) SiO2 
 PCOD8080727
Probable space group: C 2/M
;
_chemical_formula_sum "Si O2"
_cell_formula_units_Z 48
_cell_length_a 26.043992
_cell_length_b 20.432186
_cell_length_c 5.175662
_cell_angle_alpha 90.000000
_cell_angle_beta 70.414283
_cell_angle_gamma 90.000000
_cell_volume 2594.801968
_symmetry_space_group_name_H-M "C 2/M"
_symmetry_group_IT_number 12
_symmetry_cell_setting 'monoclinic'
loop_
_space_group_symop_operation_xyz
x,y,z
-x,y,-z
-x,-y,-z
x,-y,z
1/2+x,1/2+y,z
1/2-x,1/2+y,-z
1/2-x,1/2-y,-z
1/2+x,1/2-y,z
loop_
_atom_site_type_symbol
_atom_site_label
_atom_site_fract_x
_atom_site_fract_y
_atom_site_fract_z
Si Si1 0.351860 0.735651 0.479579
Si Si2 0.194337 0.624480 0.373369
Si Si3 0.527399 0.134922 0.201675
Si Si4 0.479548 0.720432 0.282287
Si Si5 0.857565 0.573764 0.030039
Si Si6 0.707516 0.301071 0.950462
O O1 0.338150 0.807881 0.600809
O O2 0.416174 0.731554 0.362303
O O3 0.331843 0.684124 0.736924
O O4 0.325575 0.725822 0.241320
O O5 0.184074 0.594442 0.673099
O O6 0.173903 0.575294 0.187988
O O7 0.258961 0.636375 0.212952
O O8 0.500000 0.101717 0.500000
O O9 0.514992 0.212233 0.225155
O O10 0.500000 0.100929 0.000000
O O11 0.591812 0.123382 0.073194
O O12 0.500000 0.680982 0.500000
O O13 0.500000 0.679401 0.000000
O O14 0.878286 0.500000 0.043232
O O15 0.750000 0.250000 0.000000
#
# Coordination Sequence:
#
# PCOD8080727 Si02
#       6
#     8   8   8   8   8   8
#     4  11  19  32  52  74  97 123 166 210 255 313
#     4  11  20  36  52  68  96 123 160 216 266 299
#     4  10  20  33  47  65  88 124 169 213 255 282
#     4  10  18  29  45  67  94 129 163 195 240 292
#     4  12  24  36  51  70  95 134 180 219 254 288
#     4  10  20  32  51  76  94 119 158 211 268 316
#
# _framework density 18.498524
#
# number of rings (size 3 to 8) (size 9 to 14) (size 15 to 20)
#    0.000    1.333    0.000   11.500    0.000    0.667 
#    0.000    0.000    0.000    0.000    0.000    0.000 
#    0.000    0.000    0.000    0.000    0.000  210.000 
#
# Total GULP energy -297356.625151 kJ/mol
# GULP energy per Si atom -12389.859381 kJ/mol
# Density = 1.845642 g / cm^3
# Si number density = 18.498524 Si / 1000 Ang^3
#
#
#
# Elastic Constant Matrix: (Units=GPa)
#
#
# Indices 1 2 3 4 5 6 
#
# 1 98.8286 16.8013 48.4827 0.0000 14.5595 0.0000
# 2 16.8013 20.5284 16.1272 0.0000 -3.0964 0.0000
# 3 48.4827 16.1272 159.8253 0.0000 21.2748 0.0000
# 4 0.0000 0.0000 0.0000 14.9708 0.0000 2.3207
# 5 14.5595 -3.0964 21.2748 0.0000 41.7206 0.0000
# 6 0.0000 0.0000 0.0000 2.3207 0.0000 12.4221
#
#
#
# Elastic Compliance Matrix: (Units=1/GPa)
#
#
# Indices 1 2 3 4 5 6 
#
# 1 0.013672 -0.009771 -0.002607 0.000000 -0.004167 0.000000
# 2 -0.009771 0.061945 -0.004669 0.000000 0.010388 0.000000
# 3 -0.002607 -0.004669 0.007986 0.000000 -0.003509 0.000000
# 4 0.000000 0.000000 0.000000 0.068789 0.000000 -0.012851
# 5 -0.004167 0.010388 -0.003509 0.000000 0.027984 0.000000
# 6 0.000000 0.000000 0.000000 -0.012851 0.000000 0.082902
#
#
# Mechanical properties :
#
#
# Convention : Reuss Voigt Hill
#
# Bulk Modulus (GPa) = 20.19825 49.11163 34.65494
# Shear Modulus (GPa) = 15.92992 27.00745 21.46869
#
# Velocity S-wave (km/s) = 2.93771 3.82511 3.41040
# Velocity P-wave (km/s) = 4.73808 6.79082 5.85511
#
# Compressibility (1/GPa) = 0.04950923
#
# Stress axis : x y z
#
# Youngs Moduli (GPa) = 73.14041 16.14341 125.22063
#
# Poissons Ratio (x) = 0.15773 0.32644
# Poissons Ratio (y) = 0.71462 0.58471
# Poissons Ratio (z) = 0.19067 0.07538
#
# Static dielectric constant tensor:
#      x y z
#    x 3.809340 0.000000 0.690520 
#    y 0.000000 2.862850 0.000000 
#    z 0.690520 0.000000 5.554150 
# 
# 
# High freq. dielectric constant tensor:
#      x y z
#    x 1.724610 0.000000 0.012920 
#    y 0.000000 1.625760 0.000000 
#    z 0.012920 0.000000 1.760220 
# 
# From -- ./inp_files/25208.got.cif
#   From: 2010.06.25/outbox.cif.g09.slc.cpg/sg12_13_cif.got.tgz:25208.got - 2010.06.28 00:19:55.
