data_PCOD8080931
_publ_section_title
;
Structure prediction by ZEFSAII (Michael W. Deem and Ramdas Pophale) SiO2 
 PCOD8080931
Probable space group: C 2/M
;
_chemical_formula_sum "Si O2"
_cell_formula_units_Z 64
_cell_length_a 15.068353
_cell_length_b 20.016257
_cell_length_c 12.349223
_cell_angle_alpha 90.000000
_cell_angle_beta 104.856272
_cell_angle_gamma 90.000000
_cell_volume 3600.165916
_symmetry_space_group_name_H-M "C 2/M"
_symmetry_group_IT_number 12
_symmetry_cell_setting 'monoclinic'
loop_
_space_group_symop_operation_xyz
x,y,z
-x,y,-z
-x,-y,-z
x,-y,z
1/2+x,1/2+y,z
1/2-x,1/2+y,-z
1/2-x,1/2-y,-z
1/2+x,1/2-y,z
loop_
_atom_site_type_symbol
_atom_site_label
_atom_site_fract_x
_atom_site_fract_y
_atom_site_fract_z
Si Si1 0.550327 0.376163 0.120280
Si Si2 0.969091 0.278392 0.877035
Si Si3 0.662288 0.189300 0.867067
Si Si4 0.250406 0.077440 0.241168
Si Si5 0.001930 0.924223 0.322203
Si Si6 0.700391 0.423845 0.690741
Si Si7 0.281157 0.183380 0.866347
Si Si8 0.307099 0.421211 0.543430
O O1 0.560827 0.297389 0.111320
O O2 0.648817 0.410848 0.163004
O O3 0.485115 0.388409 0.202292
O O4 0.500000 0.406854 0.000000
O O5 0.872178 0.313249 0.818100
O O6 0.053797 0.291365 0.821891
O O7 0.000000 0.310117 0.000000
O O8 0.677117 0.123315 0.799662
O O9 0.719612 0.250397 0.834477
O O10 0.694489 0.173698 0.999611
O O11 0.254115 0.096975 0.370497
O O12 0.277590 0.000000 0.232887
O O13 0.909570 0.919671 0.362172
O O14 0.089879 0.890837 0.409143
O O15 0.028847 0.000000 0.303451
O O16 0.731441 0.500000 0.724724
O O17 0.728256 0.380341 0.802797
O O18 0.737396 0.396286 0.585144
O O19 0.315797 0.500000 0.532814
#
# Coordination Sequence:
#
# PCOD8080931 Si02
#       8
#     8   8   8   8   8   8   8   8
#     4  10  18  29  47  74 104 138 169 213 263 314
#     4   9  18  33  52  70 100 142 177 205 253 320
#     4  10  20  35  54  76 107 142 175 208 261 331
#     4  10  20  33  52  77 107 140 174 215 263 319
#     4   9  17  27  44  72 104 137 167 202 261 323
#     4  10  19  31  51  76 102 133 178 226 257 301
#     4  10  20  34  53  79 101 137 177 217 263 306
#     4   8  16  32  49  70 103 141 173 206 264 323
#
# _framework density 17.776959000000002
#
# number of rings (size 3 to 8) (size 9 to 14) (size 15 to 20)
#    0.000    2.500    1.250    2.250    3.500    3.000 
#    0.000    1.250    0.000    3.000    0.000    2.625 
#    0.000    0.000    0.000    0.000    0.000    0.000 
#
# Total GULP energy -396439.545161 kJ/mol
# GULP energy per Si atom -12388.735786 kJ/mol
# Density = 1.773650 g / cm^3
# Si number density = 17.776959 Si / 1000 Ang^3
#
#
#
# Elastic Constant Matrix: (Units=GPa)
#
#
# Indices 1 2 3 4 5 6 
#
# 1 97.2144 34.2089 19.2348 0.0000 -7.2312 0.0000
# 2 34.2089 73.7710 31.9709 0.0000 -3.1305 0.0000
# 3 19.2348 31.9709 80.2667 0.0000 -10.1114 0.0000
# 4 0.0000 0.0000 0.0000 9.2735 0.0000 -4.9668
# 5 -7.2312 -3.1305 -10.1114 0.0000 15.2081 0.0000
# 6 0.0000 0.0000 0.0000 -4.9668 0.0000 27.3622
#
#
#
# Elastic Compliance Matrix: (Units=1/GPa)
#
#
# Indices 1 2 3 4 5 6 
#
# 1 0.012639 -0.005567 -0.000217 0.000000 0.004720 0.000000
# 2 -0.005567 0.018851 -0.006569 0.000000 -0.003134 0.000000
# 3 -0.000217 -0.006569 0.016310 0.000000 0.009388 0.000000
# 4 0.000000 0.000000 0.000000 0.119446 0.000000 0.021682
# 5 0.004720 -0.003134 0.009388 0.000000 0.073595 0.000000
# 6 0.000000 0.000000 0.000000 0.021682 0.000000 0.040482
#
#
# Mechanical properties :
#
#
# Convention : Reuss Voigt Hill
#
# Bulk Modulus (GPa) = 43.30154 46.89792 45.09973
# Shear Modulus (GPa) = 15.93736 21.42462 18.68099
#
# Velocity S-wave (km/s) = 2.99744 3.47535 3.24520
# Velocity P-wave (km/s) = 6.03247 6.52247 6.28225
#
# Compressibility (1/GPa) = 0.02309387
#
# Stress axis : x y z
#
# Youngs Moduli (GPa) = 79.11725 53.04789 61.31304
#
# Poissons Ratio (x) = 0.29531 0.01331
# Poissons Ratio (y) = 0.44043 0.40278
# Poissons Ratio (z) = 0.01717 0.34849
#
# Static dielectric constant tensor:
#      x y z
#    x 3.299950 0.000000 -0.124280 
#    y 0.000000 3.063280 0.000000 
#    z -0.124280 0.000000 3.357320 
# 
# 
# High freq. dielectric constant tensor:
#      x y z
#    x 1.676290 0.000000 -0.013850 
#    y 0.000000 1.662790 0.000000 
#    z -0.013850 0.000000 1.676070 
# 
# From -- ./inp_files/147660.got.cif
#   From: 2010.06.25/outbox.cif.g09.slc.cpg/sg12_74_cif.got.tgz:147660.got - 2010.06.28 00:19:55.
