data_PCOD8080308
_publ_section_title
;
Structure prediction by ZEFSAII (Michael W. Deem and Ramdas Pophale) SiO2 
 PCOD8080308
Probable space group: C 2/M
;
_chemical_formula_sum "Si O2"
_cell_formula_units_Z 48
_cell_length_a 28.158234
_cell_length_b 9.131083
_cell_length_c 12.190656
_cell_angle_alpha 90.000000
_cell_angle_beta 110.636088
_cell_angle_gamma 90.000000
_cell_volume 2933.292260
_symmetry_space_group_name_H-M "C 2/M"
_symmetry_group_IT_number 12
_symmetry_cell_setting 'monoclinic'
loop_
_space_group_symop_operation_xyz
x,y,z
-x,y,-z
-x,-y,-z
x,-y,z
1/2+x,1/2+y,z
1/2-x,1/2+y,-z
1/2-x,1/2-y,-z
1/2+x,1/2-y,z
loop_
_atom_site_type_symbol
_atom_site_label
_atom_site_fract_x
_atom_site_fract_y
_atom_site_fract_z
Si Si1 0.776584 0.830004 0.422688
Si Si2 0.019798 0.338474 0.392800
Si Si3 0.911068 0.326848 0.251047
Si Si4 0.759239 0.669666 0.843297
Si Si5 0.829186 0.169718 0.057207
Si Si6 0.610296 0.670784 0.540126
O O1 0.750000 0.750000 0.500000
O O2 0.752627 0.775452 0.288711
O O3 0.836451 0.796909 0.474953
O O4 0.765913 0.000000 0.427632
O O5 0.039482 0.500000 0.374440
O O6 0.066009 0.223780 0.420527
O O7 0.000000 0.343424 0.500000
O O8 0.970996 0.292558 0.279970
O O9 0.901127 0.500000 0.248089
O O10 0.881094 0.255270 0.125489
O O11 0.891477 0.257931 0.348118
O O12 0.774977 0.500000 0.860294
O O13 0.708915 0.696325 0.873325
O O14 0.805623 0.765658 0.926556
O O15 0.841418 0.000000 0.049143
O O16 0.603336 0.500000 0.561173
#
# Coordination Sequence:
#
# PCOD8080308 Si02
#       6
#     8   8   8   8   8   8
#     4  10  21  35  49  68  94 125 162 199 231 273
#     4   8  16  28  41  63  92 122 155 186 225 283
#     4  10  18  28  44  67  96 127 155 185 230 284
#     4   9  18  33  46  64  95 124 155 194 234 276
#     4  10  18  29  47  70  95 122 156 192 232 282
#     4  10  18  30  45  65  93 122 156 198 235 271
#
# _framework density 16.363866000000002
#
# number of rings (size 3 to 8) (size 9 to 14) (size 15 to 20)
#    0.000    2.500    1.667    2.500    0.000    6.333 
#    0.000    0.000    0.000    0.000    0.000    1.167 
#    0.000    9.333    0.000    0.000    0.000    0.000 
#
# Total GULP energy -297548.667036 kJ/mol
# GULP energy per Si atom -12397.861126 kJ/mol
# Density = 1.632662 g / cm^3
# Si number density = 16.363866 Si / 1000 Ang^3
#
#
#
# Elastic Constant Matrix: (Units=GPa)
#
#
# Indices 1 2 3 4 5 6 
#
# 1 81.9496 57.7365 60.8005 0.0000 24.0002 0.0000
# 2 57.7365 97.5747 55.8297 0.0000 22.3270 0.0000
# 3 60.8005 55.8297 102.0196 0.0000 23.7569 0.0000
# 4 0.0000 0.0000 0.0000 28.7693 0.0000 6.4699
# 5 24.0002 22.3270 23.7569 0.0000 32.9935 0.0000
# 6 0.0000 0.0000 0.0000 6.4699 0.0000 27.4476
#
#
#
# Elastic Compliance Matrix: (Units=1/GPa)
#
#
# Indices 1 2 3 4 5 6 
#
# 1 0.028408 -0.009397 -0.010160 0.000000 -0.006990 0.000000
# 2 -0.009397 0.018769 -0.003971 0.000000 -0.003006 0.000000
# 3 -0.010160 -0.003971 0.018843 0.000000 -0.003490 0.000000
# 4 0.000000 0.000000 0.000000 0.036705 0.000000 -0.008652
# 5 -0.006990 -0.003006 -0.003490 0.000000 0.039941 0.000000
# 6 0.000000 0.000000 0.000000 -0.008652 0.000000 0.038472
#
#
# Mechanical properties :
#
#
# Convention : Reuss Voigt Hill
#
# Bulk Modulus (GPa) = 52.73124 70.03082 61.38103
# Shear Modulus (GPa) = 21.32051 24.98723 23.15387
#
# Velocity S-wave (km/s) = 3.61349 3.91189 3.76565
# Velocity P-wave (km/s) = 7.05010 7.95568 7.51654
#
# Compressibility (1/GPa) = 0.01896409
#
# Stress axis : x y z
#
# Youngs Moduli (GPa) = 35.20084 53.28037 53.06996
#
# Poissons Ratio (x) = 0.50066 0.53922
# Poissons Ratio (y) = 0.33077 0.21073
# Poissons Ratio (z) = 0.35766 0.21157
#
# Static dielectric constant tensor:
#      x y z
#    x 3.063420 0.000000 0.493710 
#    y 0.000000 3.175760 0.000000 
#    z 0.493710 0.000000 3.106540 
# 
# 
# High freq. dielectric constant tensor:
#      x y z
#    x 1.603830 0.000000 0.041710 
#    y 0.000000 1.639570 0.000000 
#    z 0.041710 0.000000 1.608470 
# 
# From -- ./inp_files/172133.got.cif
#   From: 2010.06.25/outbox.cif.g09.slc.cpg/sg12_87_cif.got.tgz:172133.got - 2010.06.28 00:19:55.
