data_PCOD8080348
_publ_section_title
;
Structure prediction by ZEFSAII (Michael W. Deem and Ramdas Pophale) SiO2 
 PCOD8080348
Probable space group: C 2/M
;
_chemical_formula_sum "Si O2"
_cell_formula_units_Z 48
_cell_length_a 21.086876
_cell_length_b 13.143901
_cell_length_c 16.932272
_cell_angle_alpha 90.000000
_cell_angle_beta 142.174318
_cell_angle_gamma 90.000000
_cell_volume 2878.042649
_symmetry_space_group_name_H-M "C 2/M"
_symmetry_group_IT_number 12
_symmetry_cell_setting 'monoclinic'
loop_
_space_group_symop_operation_xyz
x,y,z
-x,y,-z
-x,-y,-z
x,-y,z
1/2+x,1/2+y,z
1/2-x,1/2+y,-z
1/2-x,1/2-y,-z
1/2+x,1/2-y,z
loop_
_atom_site_type_symbol
_atom_site_label
_atom_site_fract_x
_atom_site_fract_y
_atom_site_fract_z
Si Si1 0.577947 0.253407 0.289381
Si Si2 0.738429 0.620349 0.808179
Si Si3 0.760940 0.615312 0.497634
Si Si4 0.337882 0.615799 0.430159
Si Si5 0.458729 0.620297 0.287706
Si Si6 0.966087 0.384143 0.056440
O O1 0.668167 0.334895 0.354974
O O2 0.631018 0.176103 0.405955
O O3 0.480454 0.313573 0.230488
O O4 0.540478 0.190634 0.177346
O O5 0.747369 0.500000 0.808110
O O6 0.710016 0.670586 0.694693
O O7 0.652655 0.650803 0.788269
O O8 0.849326 0.659324 0.947805
O O9 0.774936 0.500000 0.483680
O O10 0.734706 0.626531 0.564979
O O11 0.348780 0.500000 0.415373
O O12 0.453798 0.653870 0.563091
O O13 0.467498 0.500000 0.276284
O O14 0.975876 0.500000 0.099245
O O15 0.000000 0.382521 0.000000
#
# Coordination Sequence:
#
# PCOD8080348 Si02
#       6
#     8   8   8   8   8   8
#     4  10  18  28  45  66  91 119 148 180 222 267
#     4   9  16  26  42  64  92 124 148 173 218 265
#     4   9  17  29  46  68  92 116 145 185 226 261
#     4   8  13  24  43  65  89 115 143 177 218 260
#     4   9  17  28  43  66  94 121 150 184 217 253
#     4  10  20  32  46  66  92 117 143 182 228 271
#
# _framework density 16.678003
#
# number of rings (size 3 to 8) (size 9 to 14) (size 15 to 20)
#    0.000    2.833    0.000    3.500    0.000    5.333 
#    0.000    0.000    0.000    2.000    0.000    0.000 
#    0.000   85.333    0.000    0.000    0.000    0.000 
#
# Total GULP energy -297350.001604 kJ/mol
# GULP energy per Si atom -12389.583400 kJ/mol
# Density = 1.664004 g / cm^3
# Si number density = 16.678003 Si / 1000 Ang^3
#
#
#
# Elastic Constant Matrix: (Units=GPa)
#
#
# Indices 1 2 3 4 5 6 
#
# 1 58.6052 19.4953 27.5626 0.0000 15.0377 0.0000
# 2 19.4953 76.6496 31.2931 0.0000 1.0397 0.0000
# 3 27.5626 31.2931 76.2695 0.0000 6.0500 0.0000
# 4 0.0000 0.0000 0.0000 26.1249 0.0000 1.8241
# 5 15.0377 1.0397 6.0500 0.0000 24.4114 0.0000
# 6 0.0000 0.0000 0.0000 1.8241 0.0000 15.0834
#
#
#
# Elastic Compliance Matrix: (Units=1/GPa)
#
#
# Indices 1 2 3 4 5 6 
#
# 1 0.024702 -0.003474 -0.006433 0.000000 -0.013474 0.000000
# 2 -0.003474 0.016181 -0.005609 0.000000 0.002841 0.000000
# 3 -0.006433 -0.005609 0.017753 0.000000 -0.000198 0.000000
# 4 0.000000 0.000000 0.000000 0.038604 0.000000 -0.004669
# 5 -0.013474 0.002841 -0.000198 0.000000 0.049193 0.000000
# 6 0.000000 0.000000 0.000000 -0.004669 0.000000 0.066863
#
#
# Mechanical properties :
#
#
# Convention : Reuss Voigt Hill
#
# Bulk Modulus (GPa) = 36.22514 40.91403 38.56959
# Shear Modulus (GPa) = 19.72166 22.00216 20.86191
#
# Velocity S-wave (km/s) = 3.44247 3.63606 3.54059
# Velocity P-wave (km/s) = 6.12930 6.49715 6.31590
#
# Compressibility (1/GPa) = 0.02760513
#
# Stress axis : x y z
#
# Youngs Moduli (GPa) = 40.48311 61.79951 56.32780
#
# Poissons Ratio (x) = 0.21467 0.36234
# Poissons Ratio (y) = 0.14063 0.31595
# Poissons Ratio (z) = 0.26042 0.34664
#
# Static dielectric constant tensor:
#      x y z
#    x 3.085240 0.000000 0.254940 
#    y 0.000000 3.026220 0.000000 
#    z 0.254940 0.000000 3.230340 
# 
# 
# High freq. dielectric constant tensor:
#      x y z
#    x 1.624250 0.000000 0.023620 
#    y 0.000000 1.610520 0.000000 
#    z 0.023620 0.000000 1.638230 
# 
# From -- ./inp_files/166153.got.cif
#   From: 2010.06.25/outbox.cif.g09.slc.cpg/sg12_84_cif.got.tgz:166153.got - 2010.06.28 00:19:55.
