data_PCOD8080915
_publ_section_title
;
Structure prediction by ZEFSAII (Michael W. Deem and Ramdas Pophale) SiO2 
 PCOD8080915
Probable space group: C 2/M
;
_chemical_formula_sum "Si O2"
_cell_formula_units_Z 64
_cell_length_a 28.342447
_cell_length_b 9.183622
_cell_length_c 30.980560
_cell_angle_alpha 90.000000
_cell_angle_beta 152.428468
_cell_angle_gamma 90.000000
_cell_volume 3732.382841
_symmetry_space_group_name_H-M "C 2/M"
_symmetry_group_IT_number 12
_symmetry_cell_setting 'monoclinic'
loop_
_space_group_symop_operation_xyz
x,y,z
-x,y,-z
-x,-y,-z
x,-y,z
1/2+x,1/2+y,z
1/2-x,1/2+y,-z
1/2-x,1/2-y,-z
1/2+x,1/2-y,z
loop_
_atom_site_type_symbol
_atom_site_label
_atom_site_fract_x
_atom_site_fract_y
_atom_site_fract_z
Si Si1 0.325921 0.833149 0.170241
Si Si2 0.617245 0.166073 0.691327
Si Si3 0.885226 0.827783 0.396298
Si Si4 0.253975 0.829177 0.360837
Si Si5 0.474390 0.327934 0.693879
Si Si6 0.957417 0.827708 0.776671
Si Si7 0.320239 0.330493 0.022737
Si Si8 0.400102 0.833315 0.555494
O O1 0.309218 0.803420 0.207809
O O2 0.411409 0.728054 0.220708
O O3 0.221339 0.804911 0.059537
O O4 0.363624 0.000000 0.194964
O O5 0.648634 0.272251 0.678185
O O6 0.501948 0.201643 0.611385
O O7 0.627471 0.000000 0.683481
O O8 0.806676 0.762783 0.366546
O O9 0.000000 0.774677 0.500000
O O10 0.877118 0.000000 0.391086
O O11 0.136614 0.776116 0.269668
O O12 0.304863 0.794830 0.448253
O O13 0.264314 0.000000 0.358137
O O14 0.474601 0.500000 0.689262
O O15 0.439810 0.275865 0.713237
O O16 0.395746 0.263185 0.595165
O O17 0.960125 0.000000 0.779559
O O18 0.064717 0.766946 0.882154
O O19 0.319099 0.500000 0.034344
O O20 0.250000 0.250000 0.000000
O O21 0.398420 0.000000 0.569043
#
# Coordination Sequence:
#
# PCOD8080915 Si02
#       8
#     8   8   8   8   8   8   8   8
#     4   9  18  31  50  76 103 132 168 208 245 293
#     4   9  17  31  50  74  98 128 169 204 245 299
#     4  11  22  34  51  77 103 125 160 212 262 302
#     4  10  20  36  54  70  98 139 176 207 246 300
#     4  10  18  29  47  72 104 136 168 206 249 294
#     4   9  19  33  50  75 103 135 173 211 249 293
#     4  10  18  32  53  77 105 134 169 211 252 292
#     4   9  18  31  48  71  99 134 174 206 239 293
#
# _framework density 17.147221999999999
#
# number of rings (size 3 to 8) (size 9 to 14) (size 15 to 20)
#    0.000    2.375    2.500    1.500    0.000    3.500 
#    0.000    1.875    0.000    0.750    0.000    5.250 
#    0.000    0.000    0.000    0.000    0.000    0.000 
#
# Total GULP energy -396732.615375 kJ/mol
# GULP energy per Si atom -12397.894230 kJ/mol
# Density = 1.710819 g / cm^3
# Si number density = 17.147222 Si / 1000 Ang^3
#
#
#
# Elastic Constant Matrix: (Units=GPa)
#
#
# Indices 1 2 3 4 5 6 
#
# 1 111.5188 45.7745 63.3224 0.0000 0.2446 0.0001
# 2 45.7745 55.5273 33.4744 0.0009 -2.4343 -0.0018
# 3 63.3224 33.4744 115.2917 -0.0001 0.9339 0.0001
# 4 0.0000 0.0009 -0.0001 18.0684 0.0001 -4.2073
# 5 0.2446 -2.4343 0.9339 0.0001 21.8468 -0.0001
# 6 0.0001 -0.0018 0.0001 -4.2073 -0.0001 27.5941
#
#
#
# Elastic Compliance Matrix: (Units=1/GPa)
#
#
# Indices 1 2 3 4 5 6 
#
# 1 0.016589 -0.009980 -0.006205 0.000000 -0.001032 -0.000001
# 2 -0.009980 0.027995 -0.002674 -0.000001 0.003345 0.000002
# 3 -0.006205 -0.002674 0.012865 0.000000 -0.000778 0.000000
# 4 0.000000 -0.000001 0.000000 0.057383 0.000000 0.008749
# 5 -0.001032 0.003345 -0.000778 0.000000 0.046191 0.000000
# 6 -0.000001 0.000002 0.000000 0.008749 0.000000 0.037574
#
#
# Mechanical properties :
#
#
# Convention : Reuss Voigt Hill
#
# Bulk Modulus (GPa) = 50.68398 63.05339 56.86868
# Shear Modulus (GPa) = 20.58534 22.81962 21.70248
#
# Velocity S-wave (km/s) = 3.46859 3.65198 3.56147
# Velocity P-wave (km/s) = 6.75750 7.39150 7.08160
#
# Compressibility (1/GPa) = 0.01973010
#
# Stress axis : x y z
#
# Youngs Moduli (GPa) = 60.27963 35.72091 77.73263
#
# Poissons Ratio (x) = 0.35649 0.48237
# Poissons Ratio (y) = 0.60158 0.20785
# Poissons Ratio (z) = 0.37407 0.09552
#
# Static dielectric constant tensor:
#      x y z
#    x 3.177490 0.000000 -0.170450 
#    y 0.000000 3.079440 0.000000 
#    z -0.170450 0.000000 3.477770 
# 
# 
# High freq. dielectric constant tensor:
#      x y z
#    x 1.650690 0.000000 -0.017190 
#    y 0.000000 1.649970 0.000000 
#    z -0.017190 0.000000 1.654000 
# 
# From -- ./inp_files/382434.got.cif
#   From: 2010.06.25/outbox.cif.g09.slc.cpg/sg12_192_cif.got.tgz:382434.got - 2010.06.28 00:19:55.
