data_PCOD8080634
_publ_section_title
;
Structure prediction by ZEFSAII (Michael W. Deem and Ramdas Pophale) SiO2 
 PCOD8080634
Probable space group: C 2/M
;
_chemical_formula_sum "Si O2"
_cell_formula_units_Z 56
_cell_length_a 24.798430
_cell_length_b 8.666689
_cell_length_c 16.620034
_cell_angle_alpha 90.000000
_cell_angle_beta 105.348907
_cell_angle_gamma 90.000000
_cell_volume 3444.576288
_symmetry_space_group_name_H-M "C 2/M"
_symmetry_group_IT_number 12
_symmetry_cell_setting 'monoclinic'
loop_
_space_group_symop_operation_xyz
x,y,z
-x,y,-z
-x,-y,-z
x,-y,z
1/2+x,1/2+y,z
1/2-x,1/2+y,-z
1/2-x,1/2-y,-z
1/2+x,1/2-y,z
loop_
_atom_site_type_symbol
_atom_site_label
_atom_site_fract_x
_atom_site_fract_y
_atom_site_fract_z
Si Si1 0.472858 0.682510 0.865512
Si Si2 0.211855 0.179960 0.227791
Si Si3 0.272465 0.323272 0.384139
Si Si4 0.794101 0.818192 0.956686
Si Si5 0.582090 0.682603 0.991878
Si Si6 0.327684 0.319601 0.560406
Si Si7 0.390761 0.819045 0.716453
O O1 0.466718 0.500000 0.851225
O O2 0.537829 0.731057 0.905178
O O3 0.449951 0.768231 0.777595
O O4 0.437737 0.742079 0.928691
O O5 0.268187 0.219938 0.301465
O O6 0.221851 0.232020 0.140180
O O7 0.159181 0.270043 0.243487
O O8 0.197967 0.000000 0.227366
O O9 0.271453 0.500000 0.355957
O O10 0.326861 0.290210 0.462846
O O11 0.218991 0.288460 0.418102
O O12 0.792903 0.000000 0.965201
O O13 0.750000 0.750000 0.000000
O O14 0.856025 0.752999 0.002908
O O15 0.583556 0.500000 0.998576
O O16 0.315479 0.500000 0.573125
O O17 0.384923 0.266199 0.626775
O O18 0.390141 0.000000 0.702281
#
# Coordination Sequence:
#
# PCOD8080634 Si02
#       7
#     8   8   8   8   8   8   8
#     4   9  15  28  48  63  81 112 146 181 213 256
#     4  10  18  29  44  58  80 114 150 179 211 261
#     4   9  16  25  38  57  80 106 141 180 214 248
#     4  10  20  33  47  65  86 113 149 184 218 256
#     4   8  15  29  48  64  80 109 149 181 213 258
#     4   9  16  25  37  54  80 114 144 170 205 255
#     4  11  19  25  38  62  90 114 141 178 215 255
#
# _framework density 16.257442999999999
#
# number of rings (size 3 to 8) (size 9 to 14) (size 15 to 20)
#    0.000    2.571    1.429    5.143    0.000    2.857 
#    0.000    2.143    0.000    0.000    0.000    0.000 
#    0.000    1.143    0.000   12.857    0.000    6.429 
#
# Total GULP energy -346900.139400 kJ/mol
# GULP energy per Si atom -12389.290693 kJ/mol
# Density = 1.622044 g / cm^3
# Si number density = 16.257443 Si / 1000 Ang^3
#
#
#
# Elastic Constant Matrix: (Units=GPa)
#
#
# Indices 1 2 3 4 5 6 
#
# 1 74.8097 17.7569 55.9521 0.0000 13.9596 0.0000
# 2 17.7569 49.8410 34.0513 0.0000 8.3280 0.0000
# 3 55.9521 34.0513 139.1599 0.0000 33.8151 0.0000
# 4 0.0000 0.0000 0.0000 25.4968 0.0000 3.2952
# 5 13.9596 8.3280 33.8151 0.0000 24.5189 0.0000
# 6 0.0000 0.0000 0.0000 3.2952 0.0000 15.5410
#
#
#
# Elastic Compliance Matrix: (Units=1/GPa)
#
#
# Indices 1 2 3 4 5 6 
#
# 1 0.019265 -0.001887 -0.007181 0.000000 -0.000423 0.000000
# 2 -0.001887 0.024276 -0.005172 0.000000 -0.000038 0.000000
# 3 -0.007181 -0.005172 0.014918 0.000000 -0.014729 0.000000
# 4 0.000000 0.000000 0.000000 0.040326 0.000000 -0.008550
# 5 -0.000423 -0.000038 -0.014729 0.000000 0.061352 0.000000
# 6 0.000000 0.000000 0.000000 -0.008550 0.000000 0.066159
#
#
# Mechanical properties :
#
#
# Convention : Reuss Voigt Hill
#
# Bulk Modulus (GPa) = 33.35724 53.25902 43.30813
# Shear Modulus (GPa) = 18.88434 23.51468 21.19951
#
# Velocity S-wave (km/s) = 3.41190 3.80728 3.61499
# Velocity P-wave (km/s) = 6.00700 7.22205 6.64237
#
# Compressibility (1/GPa) = 0.02997850
#
# Stress axis : x y z
#
# Youngs Moduli (GPa) = 51.90693 41.19285 67.03278
#
# Poissons Ratio (x) = 0.07771 0.48139
# Poissons Ratio (y) = 0.09792 0.34672
# Poissons Ratio (z) = 0.37277 0.21307
#
# Static dielectric constant tensor:
#      x y z
#    x 2.917550 0.000000 0.506340 
#    y 0.000000 2.946540 0.000000 
#    z 0.506340 0.000000 3.701060 
# 
# 
# High freq. dielectric constant tensor:
#      x y z
#    x 1.557760 0.000000 0.042610 
#    y 0.000000 1.620300 0.000000 
#    z 0.042610 0.000000 1.637620 
# 
# From -- ./inp_files/280359.got.cif
#   From: 2010.06.25/outbox.cif.g09.slc.cpg/sg12_141_cif.got.tgz:280359.got - 2010.06.28 00:19:55.
