data_PCOD8080380
_publ_section_title
;
Structure prediction by ZEFSAII (Michael W. Deem and Ramdas Pophale) SiO2 
 PCOD8080380
Probable space group: C 2/M
;
_chemical_formula_sum "Si O2"
_cell_formula_units_Z 48
_cell_length_a 24.390425
_cell_length_b 8.651722
_cell_length_c 21.799512
_cell_angle_alpha 90.000000
_cell_angle_beta 37.667905
_cell_angle_gamma 90.000000
_cell_volume 2811.055475
_symmetry_space_group_name_H-M "C 2/M"
_symmetry_group_IT_number 12
_symmetry_cell_setting 'monoclinic'
loop_
_space_group_symop_operation_xyz
x,y,z
-x,y,-z
-x,-y,-z
x,-y,z
1/2+x,1/2+y,z
1/2-x,1/2+y,-z
1/2-x,1/2-y,-z
1/2+x,1/2-y,z
loop_
_atom_site_type_symbol
_atom_site_label
_atom_site_fract_x
_atom_site_fract_y
_atom_site_fract_z
Si Si1 0.952871 0.319330 0.337416
Si Si2 0.867417 0.822539 0.838727
Si Si3 0.617626 0.681387 0.725730
Si Si4 0.831563 0.322667 0.997478
Si Si5 0.995973 0.320893 0.933732
Si Si6 0.714438 0.316976 0.467905
O O1 0.936235 0.500000 0.355420
O O2 0.932791 0.262041 0.286320
O O3 0.888928 0.238425 0.445192
O O4 0.055915 0.278955 0.262112
O O5 0.771292 0.785013 0.892607
O O6 0.894520 0.000000 0.806649
O O7 0.862927 0.787174 0.914985
O O8 0.619487 0.500000 0.711861
O O9 0.566148 0.719232 0.833716
O O10 0.719918 0.745515 0.641982
O O11 0.838566 0.500000 0.968221
O O12 0.894615 0.292704 0.999990
O O13 0.023427 0.500000 0.903131
O O14 0.000000 0.264419 0.000000
O O15 0.720029 0.500000 0.460919
O O16 0.750000 0.250000 0.500000
#
# Coordination Sequence:
#
# PCOD8080380 Si02
#       6
#     8   8   8   8   8   8
#     4  11  19  29  45  68  97 127 157 191 237 288
#     4  10  18  28  45  69  95 126 158 193 236 285
#     4  11  20  31  46  67  95 126 159 197 238 281
#     4   9  18  31  46  66  94 126 160 196 236 282
#     4  10  20  34  51  70  94 128 166 201 236 277
#     4  10  18  29  45  66  93 124 156 191 234 286
#
# _framework density 17.075436
#
# number of rings (size 3 to 8) (size 9 to 14) (size 15 to 20)
#    0.000    1.833    1.667    7.000    0.000    1.000 
#    0.000    0.000    0.000    0.000    0.000    1.167 
#    0.000    9.333    0.000    0.000    0.000    0.000 
#
# Total GULP energy -297563.025807 kJ/mol
# GULP energy per Si atom -12398.459409 kJ/mol
# Density = 1.703657 g / cm^3
# Si number density = 17.075436 Si / 1000 Ang^3
#
#
#
# Elastic Constant Matrix: (Units=GPa)
#
#
# Indices 1 2 3 4 5 6 
#
# 1 71.0756 20.9058 46.7784 0.0003 -10.9691 -0.0014
# 2 20.9058 102.9274 41.5589 -0.0026 -9.6085 0.0068
# 3 46.7784 41.5589 120.1577 0.0025 -27.9684 -0.0029
# 4 0.0003 -0.0026 0.0025 32.3184 -0.0008 -5.6776
# 5 -10.9691 -9.6085 -27.9684 -0.0008 25.2860 0.0005
# 6 -0.0014 0.0068 -0.0029 -5.6776 0.0005 14.9351
#
#
#
# Elastic Compliance Matrix: (Units=1/GPa)
#
#
# Indices 1 2 3 4 5 6 
#
# 1 0.019007 -0.001015 -0.007029 0.000000 0.000085 0.000001
# 2 -0.001015 0.011347 -0.003540 0.000000 -0.000044 -0.000006
# 3 -0.007029 -0.003540 0.015164 -0.000001 0.012379 0.000003
# 4 0.000000 0.000000 -0.000001 0.033156 0.000001 0.012605
# 5 0.000085 -0.000044 0.012379 0.000001 0.053260 0.000001
# 6 0.000001 -0.000006 0.000003 0.012605 0.000001 0.071748
#
#
# Mechanical properties :
#
#
# Convention : Reuss Voigt Hill
#
# Bulk Modulus (GPa) = 44.73853 56.96077 50.84965
# Shear Modulus (GPa) = 21.34019 26.83577 24.08798
#
# Velocity S-wave (km/s) = 3.53903 3.96864 3.75998
# Velocity P-wave (km/s) = 6.55416 7.37773 6.97811
#
# Compressibility (1/GPa) = 0.02235210
#
# Stress axis : x y z
#
# Youngs Moduli (GPa) = 52.61173 88.13058 65.94372
#
# Poissons Ratio (x) = 0.08941 0.46351
# Poissons Ratio (y) = 0.05338 0.23342
# Poissons Ratio (z) = 0.36980 0.31195
#
# Static dielectric constant tensor:
#      x y z
#    x 2.938470 -0.000010 -0.509150 
#    y -0.000010 3.252500 0.000010 
#    z -0.509150 0.000010 3.718350 
# 
# 
# High freq. dielectric constant tensor:
#      x y z
#    x 1.603170 0.000000 -0.041430 
#    y 0.000000 1.672480 0.000000 
#    z -0.041430 0.000000 1.662870 
# 
# From -- ./inp_files/323490.got.cif
#   From: 2010.06.25/outbox.cif.g09.slc.cpg/sg12_162_cif.got.tgz:323490.got - 2010.06.28 00:19:55.
