data_PCOD8080714
_publ_section_title
;
Structure prediction by ZEFSAII (Michael W. Deem and Ramdas Pophale) SiO2 
 PCOD8080714
Probable space group: C 2/M
;
_chemical_formula_sum "Si O2"
_cell_formula_units_Z 48
_cell_length_a 12.827989
_cell_length_b 13.368342
_cell_length_c 25.653212
_cell_angle_alpha 90.000000
_cell_angle_beta 42.895953
_cell_angle_gamma 90.000000
_cell_volume 2994.428367
_symmetry_space_group_name_H-M "C 2/M"
_symmetry_group_IT_number 12
_symmetry_cell_setting 'monoclinic'
loop_
_space_group_symop_operation_xyz
x,y,z
-x,y,-z
-x,-y,-z
x,-y,z
1/2+x,1/2+y,z
1/2-x,1/2+y,-z
1/2-x,1/2-y,-z
1/2+x,1/2-y,z
loop_
_atom_site_type_symbol
_atom_site_label
_atom_site_fract_x
_atom_site_fract_y
_atom_site_fract_z
Si Si1 0.653559 0.738593 0.927208
Si Si2 0.212212 0.884806 0.670591
Si Si3 0.679480 0.615490 0.563722
Si Si4 0.091641 0.114120 0.160077
Si Si5 0.930852 0.884384 0.952188
Si Si6 0.984661 0.731623 0.445568
O O1 0.693570 0.669976 0.963925
O O2 0.787986 0.810089 0.857447
O O3 0.500000 0.802709 0.000000
O O4 0.600650 0.663081 0.900192
O O5 0.148458 0.864063 0.635988
O O6 0.078619 0.856706 0.759920
O O7 0.357196 0.816821 0.631712
O O8 0.263231 0.000000 0.657057
O O9 0.664442 0.500000 0.554685
O O10 0.551877 0.672682 0.576610
O O11 0.851001 0.650201 0.487046
O O12 0.127274 0.000000 0.163870
O O13 0.115064 0.130636 0.090497
O O14 0.937274 0.000000 0.964472
O O15 0.000000 0.765591 0.500000
#
# Coordination Sequence:
#
# PCOD8080714 Si02
#       6
#     8   8   8   8   8   8
#     4   8  17  28  47  64  85 110 147 183 218 260
#     4   9  18  30  45  65  90 119 146 177 215 260
#     4   9  17  30  48  67  91 116 144 180 216 253
#     4  10  18  29  45  66  90 115 145 180 221 259
#     4   8  16  30  47  63  83 113 148 183 215 259
#     4   9  17  30  48  69  87 115 151 178 210 255
#
# _framework density 16.029769999999999
#
# number of rings (size 3 to 8) (size 9 to 14) (size 15 to 20)
#    1.000    2.000    0.000    2.000    0.000    4.000 
#    0.000    0.000    0.000    2.000    0.000    0.000 
#    0.000    0.000    0.000    0.000    0.000    0.000 
#
# Total GULP energy -297318.265843 kJ/mol
# GULP energy per Si atom -12388.261077 kJ/mol
# Density = 1.599329 g / cm^3
# Si number density = 16.029770 Si / 1000 Ang^3
#
#
#
# Elastic Constant Matrix: (Units=GPa)
#
#
# Indices 1 2 3 4 5 6 
#
# 1 50.6298 39.6049 14.6173 0.0000 -12.8291 0.0000
# 2 39.6049 100.1657 44.5199 0.0000 -14.7707 0.0000
# 3 14.6173 44.5199 64.6247 0.0000 -14.6430 0.0000
# 4 0.0000 0.0000 0.0000 23.9983 0.0000 -6.4320
# 5 -12.8291 -14.7707 -14.6430 0.0000 16.5165 0.0000
# 6 0.0000 0.0000 0.0000 -6.4320 0.0000 26.7531
#
#
#
# Elastic Compliance Matrix: (Units=1/GPa)
#
#
# Indices 1 2 3 4 5 6 
#
# 1 0.032923 -0.012696 0.005658 0.000000 0.019235 0.000000
# 2 -0.012696 0.019637 -0.011152 0.000000 -0.002187 0.000000
# 3 0.005658 -0.011152 0.025795 0.000000 0.017290 0.000000
# 4 0.000000 0.000000 0.000000 0.044540 0.000000 0.010708
# 5 0.019235 -0.002187 0.017290 0.000000 0.088860 0.000000
# 6 0.000000 0.000000 0.000000 0.010708 0.000000 0.039953
#
#
# Mechanical properties :
#
#
# Convention : Reuss Voigt Hill
#
# Bulk Modulus (GPa) = 23.82389 45.87828 34.85109
# Shear Modulus (GPa) = 16.55193 21.23211 18.89202
#
# Velocity S-wave (km/s) = 3.21686 3.64337 3.43674
# Velocity P-wave (km/s) = 5.35650 6.81041 6.12674
#
# Compressibility (1/GPa) = 0.04197468
#
# Stress axis : x y z
#
# Youngs Moduli (GPa) = 30.37398 50.92300 38.76783
#
# Poissons Ratio (x) = 0.64650 -0.21933
# Poissons Ratio (y) = 0.38562 0.43234
# Poissons Ratio (z) = -0.17185 0.56790
#
# Static dielectric constant tensor:
#      x y z
#    x 2.972420 0.000000 0.030530 
#    y 0.000000 2.949390 0.000000 
#    z 0.030530 0.000000 2.820450 
# 
# 
# High freq. dielectric constant tensor:
#      x y z
#    x 1.611210 0.000000 0.002820 
#    y 0.000000 1.610070 0.000000 
#    z 0.002820 0.000000 1.594980 
# 
# From -- ./inp_files/374023.got.cif
#   From: 2010.06.25/outbox.cif.g09.slc.cpg/sg12_188_cif.got.tgz:374023.got - 2010.06.28 00:19:55.
