data_PCOD8080530
_publ_section_title
;
Structure prediction by ZEFSAII (Michael W. Deem and Ramdas Pophale) SiO2 
 PCOD8080530
Probable space group: C 2/M
;
_chemical_formula_sum "Si O2"
_cell_formula_units_Z 48
_cell_length_a 22.258517
_cell_length_b 9.054652
_cell_length_c 15.921803
_cell_angle_alpha 90.000000
_cell_angle_beta 119.831526
_cell_angle_gamma 90.000000
_cell_volume 2783.720637
_symmetry_space_group_name_H-M "C 2/M"
_symmetry_group_IT_number 12
_symmetry_cell_setting 'monoclinic'
loop_
_space_group_symop_operation_xyz
x,y,z
-x,y,-z
-x,-y,-z
x,-y,z
1/2+x,1/2+y,z
1/2-x,1/2+y,-z
1/2-x,1/2-y,-z
1/2+x,1/2-y,z
loop_
_atom_site_type_symbol
_atom_site_label
_atom_site_fract_x
_atom_site_fract_y
_atom_site_fract_z
Si Si1 0.130953 0.672362 0.779055
Si Si2 0.683991 0.168828 0.986221
Si Si3 0.352665 0.672223 0.535735
Si Si4 0.268379 0.826281 0.808803
Si Si5 0.266297 0.327899 0.639383
Si Si6 0.991308 0.327691 0.591224
O O1 0.145553 0.500000 0.770135
O O2 0.192958 0.766891 0.782881
O O3 0.060040 0.723627 0.687386
O O4 0.123210 0.700352 0.875582
O O5 0.673792 0.210383 0.077800
O O6 0.705051 0.000000 0.998254
O O7 0.750000 0.250000 0.000000
O O8 0.351687 0.500000 0.513410
O O9 0.322482 0.704347 0.606893
O O10 0.307368 0.755655 0.434448
O O11 0.429892 0.733278 0.588151
O O12 0.295280 0.744526 0.744492
O O13 0.262854 0.000000 0.786949
O O14 0.253323 0.500000 0.644233
O O15 0.975536 0.500000 0.593989
O O16 0.000000 0.288919 0.500000
#
# Coordination Sequence:
#
# PCOD8080530 Si02
#       6
#     8   8   8   8   8   8
#     4   9  17  30  47  68  99 134 160 189 234 283
#     4   8  15  27  43  66  95 125 158 194 232 275
#     4  10  21  35  51  71  94 122 156 194 234 276
#     4  10  18  28  47  74  98 122 158 200 237 274
#     4  10  20  34  51  70  94 123 155 192 236 284
#     4  10  20  32  48  71  98 128 158 187 227 282
#
# _framework density 17.243109
#
# number of rings (size 3 to 8) (size 9 to 14) (size 15 to 20)
#    0.000    2.500    0.000    2.500    0.000    5.000 
#    0.000    0.000    0.000    1.000    0.000    7.000 
#    0.000    0.000    0.000    0.000    0.000    0.000 
#
# Total GULP energy -297427.364978 kJ/mol
# GULP energy per Si atom -12392.806874 kJ/mol
# Density = 1.720386 g / cm^3
# Si number density = 17.243109 Si / 1000 Ang^3
#
#
#
# Elastic Constant Matrix: (Units=GPa)
#
#
# Indices 1 2 3 4 5 6 
#
# 1 61.1866 31.4753 43.8622 0.0000 1.6354 0.0000
# 2 31.4753 71.3174 49.9717 0.0000 -6.6320 0.0000
# 3 43.8622 49.9717 164.1064 0.0000 -4.1694 0.0000
# 4 0.0000 0.0000 0.0000 25.3009 0.0000 -3.5959
# 5 1.6354 -6.6320 -4.1694 0.0000 22.0285 0.0000
# 6 0.0000 0.0000 0.0000 -3.5959 0.0000 27.8578
#
#
#
# Elastic Compliance Matrix: (Units=1/GPa)
#
#
# Indices 1 2 3 4 5 6 
#
# 1 0.023434 -0.008037 -0.003941 0.000000 -0.004905 0.000000
# 2 -0.008037 0.021009 -0.004093 0.000000 0.006147 0.000000
# 3 -0.003941 -0.004093 0.008410 0.000000 0.000652 0.000000
# 4 0.000000 0.000000 0.000000 0.040263 0.000000 0.005197
# 5 -0.004905 0.006147 0.000652 0.000000 0.047734 0.000000
# 6 0.000000 0.000000 0.000000 0.005197 0.000000 0.036567
#
#
# Mechanical properties :
#
#
# Convention : Reuss Voigt Hill
#
# Bulk Modulus (GPa) = 48.28464 60.80323 54.54393
# Shear Modulus (GPa) = 23.09878 26.45752 24.77815
#
# Velocity S-wave (km/s) = 3.66402 3.92137 3.79488
# Velocity P-wave (km/s) = 6.77961 7.47273 7.13459
#
# Compressibility (1/GPa) = 0.02071052
#
# Stress axis : x y z
#
# Youngs Moduli (GPa) = 42.67311 47.59968 118.90997
#
# Poissons Ratio (x) = 0.38258 0.46857
# Poissons Ratio (y) = 0.34298 0.48668
# Poissons Ratio (z) = 0.16816 0.19482
#
# Static dielectric constant tensor:
#      x y z
#    x 2.834400 0.000000 -0.078310 
#    y 0.000000 3.243600 0.000000 
#    z -0.078310 0.000000 3.960070 
# 
# 
# High freq. dielectric constant tensor:
#      x y z
#    x 1.621940 0.000000 -0.010590 
#    y 0.000000 1.674720 0.000000 
#    z -0.010590 0.000000 1.687200 
# 
# From -- ./inp_files/230333.got.cif
#   From: 2010.06.25/outbox.cif.g09.slc.cpg/sg12_116_cif.got.tgz:230333.got - 2010.06.28 00:19:55.
