data_PCOD8080498
_publ_section_title
;
Structure prediction by ZEFSAII (Michael W. Deem and Ramdas Pophale) SiO2 
 PCOD8080498
Probable space group: C 2/M
;
_chemical_formula_sum "Si O2"
_cell_formula_units_Z 56
_cell_length_a 27.279512
_cell_length_b 9.270284
_cell_length_c 14.184840
_cell_angle_alpha 90.000000
_cell_angle_beta 105.404613
_cell_angle_gamma 90.000000
_cell_volume 3458.314277
_symmetry_space_group_name_H-M "C 2/M"
_symmetry_group_IT_number 12
_symmetry_cell_setting 'monoclinic'
loop_
_space_group_symop_operation_xyz
x,y,z
-x,y,-z
-x,-y,-z
x,-y,z
1/2+x,1/2+y,z
1/2-x,1/2+y,-z
1/2-x,1/2-y,-z
1/2+x,1/2-y,z
loop_
_atom_site_type_symbol
_atom_site_label
_atom_site_fract_x
_atom_site_fract_y
_atom_site_fract_z
Si Si1 0.679208 0.832839 0.398458
Si Si2 0.372519 0.835433 0.086178
Si Si3 0.442109 0.332548 0.982969
Si Si4 0.638400 0.667722 0.212980
Si Si5 0.705030 0.333529 0.590589
Si Si6 0.180007 0.165295 0.789061
Si Si7 0.706875 0.837876 0.113400
O O1 0.637732 0.754719 0.310831
O O2 0.675702 0.764580 0.500421
O O3 0.734691 0.805572 0.382365
O O4 0.665364 0.000000 0.398964
O O5 0.418593 0.758219 0.056119
O O6 0.362795 0.761585 0.182301
O O7 0.388431 0.000000 0.111182
O O8 0.320541 0.821908 0.000659
O O9 0.437250 0.500000 0.007727
O O10 0.500000 0.283918 0.000000
O O11 0.413661 0.300753 0.869810
O O12 0.645882 0.500000 0.238776
O O13 0.685544 0.720688 0.174559
O O14 0.693375 0.500000 0.562103
O O15 0.684833 0.288059 0.682743
O O16 0.233507 0.189462 0.869617
O O17 0.162750 0.000000 0.788210
O O18 0.697924 0.000000 0.150557
#
# Coordination Sequence:
#
# PCOD8080498 Si02
#       7
#     8   8   8   8   8   8   8
#     4  10  18  30  45  64  93 126 159 196 234 272
#     4  10  20  30  45  69  95 121 154 193 233 279
#     4   9  19  36  54  71  92 120 155 194 236 282
#     4  10  18  28  47  71  93 120 156 195 233 278
#     4   9  18  30  44  63  90 127 166 198 225 261
#     4  10  18  30  45  62  92 130 162 190 224 267
#     4   9  17  30  43  61  92 127 159 191 225 266
#
# _framework density 16.19286
#
# number of rings (size 3 to 8) (size 9 to 14) (size 15 to 20)
#    0.000    2.429    1.429    1.714    0.000    3.143 
#    0.000    0.000    0.000    0.000    0.000    1.000 
#    0.000    8.000    0.000    0.000    0.000    0.000 
#
# Total GULP energy -347219.790629 kJ/mol
# GULP energy per Si atom -12400.706808 kJ/mol
# Density = 1.615600 g / cm^3
# Si number density = 16.192860 Si / 1000 Ang^3
#
#
#
# Elastic Constant Matrix: (Units=GPa)
#
#
# Indices 1 2 3 4 5 6 
#
# 1 84.7827 55.6505 52.1587 0.0000 -11.6957 0.0000
# 2 55.6505 100.5653 60.3109 0.0000 -11.7110 0.0000
# 3 52.1587 60.3109 89.1783 0.0000 -16.6657 0.0000
# 4 0.0000 0.0000 0.0000 28.6141 0.0000 -5.2834
# 5 -11.6957 -11.7110 -16.6657 0.0000 19.4655 0.0000
# 6 0.0000 0.0000 0.0000 -5.2834 0.0000 21.4552
#
#
#
# Elastic Compliance Matrix: (Units=1/GPa)
#
#
# Indices 1 2 3 4 5 6 
#
# 1 0.021217 -0.007215 -0.007094 0.000000 0.002334 0.000000
# 2 -0.007215 0.019185 -0.008819 0.000000 -0.000343 0.000000
# 3 -0.007094 -0.008819 0.023261 0.000000 0.010347 0.000000
# 4 0.000000 0.000000 0.000000 0.036612 0.000000 0.009016
# 5 0.002334 -0.000343 0.010347 0.000000 0.061427 0.000000
# 6 0.000000 0.000000 0.000000 0.009016 0.000000 0.048829
#
#
# Mechanical properties :
#
#
# Convention : Reuss Voigt Hill
#
# Bulk Modulus (GPa) = 57.44868 67.86295 62.65582
# Shear Modulus (GPa) = 19.04116 21.00073 20.02094
#
# Velocity S-wave (km/s) = 3.43286 3.60517 3.52007
# Velocity P-wave (km/s) = 7.16013 7.70259 7.43631
#
# Compressibility (1/GPa) = 0.01740684
#
# Stress axis : x y z
#
# Youngs Moduli (GPa) = 47.13299 52.12284 42.99117
#
# Poissons Ratio (x) = 0.37605 0.30497
# Poissons Ratio (y) = 0.34005 0.37916
# Poissons Ratio (z) = 0.33435 0.45969
#
# Static dielectric constant tensor:
#      x y z
#    x 2.694690 0.000000 -0.041120 
#    y 0.000000 3.147920 0.000000 
#    z -0.041120 0.000000 3.058330 
# 
# 
# High freq. dielectric constant tensor:
#      x y z
#    x 1.578700 0.000000 -0.014370 
#    y 0.000000 1.633300 0.000000 
#    z -0.014370 0.000000 1.616640 
# 
# From -- ./inp_files/243226.got.cif
#   From: 2010.06.25/outbox.cif.g09.slc.cpg/sg12_122_cif.got.tgz:243226.got - 2010.06.28 00:19:55.
