data_PCOD8080519
_publ_section_title
;
Structure prediction by ZEFSAII (Michael W. Deem and Ramdas Pophale) SiO2 
 PCOD8080519
Probable space group: C 2/M
;
_chemical_formula_sum "Si O2"
_cell_formula_units_Z 48
_cell_length_a 23.038240
_cell_length_b 8.979907
_cell_length_c 29.408984
_cell_angle_alpha 90.000000
_cell_angle_beta 152.658705
_cell_angle_gamma 90.000000
_cell_volume 2794.396609
_symmetry_space_group_name_H-M "C 2/M"
_symmetry_group_IT_number 12
_symmetry_cell_setting 'monoclinic'
loop_
_space_group_symop_operation_xyz
x,y,z
-x,y,-z
-x,-y,-z
x,-y,z
1/2+x,1/2+y,z
1/2-x,1/2+y,-z
1/2-x,1/2-y,-z
1/2+x,1/2-y,z
loop_
_atom_site_type_symbol
_atom_site_label
_atom_site_fract_x
_atom_site_fract_y
_atom_site_fract_z
Si Si1 0.360533 0.323389 0.411338
Si Si2 0.202420 0.676327 0.809070
Si Si3 0.764210 0.173382 0.441026
Si Si4 0.700820 0.824591 0.214055
Si Si5 0.460819 0.663808 0.024802
Si Si6 0.945367 0.172722 0.649793
O O1 0.500000 0.255909 0.500000
O O2 0.369642 0.500000 0.419802
O O3 0.306523 0.264545 0.421540
O O4 0.268170 0.271143 0.306957
O O5 0.195039 0.500000 0.796890
O O6 0.226509 0.749107 0.776927
O O7 0.075037 0.737346 0.742206
O O8 0.314791 0.717845 0.923002
O O9 0.880241 0.200892 0.555915
O O10 0.642928 0.267626 0.371394
O O11 0.726435 0.000000 0.413669
O O12 0.553420 0.777434 0.115174
O O13 0.709490 0.000000 0.213197
O O14 0.473691 0.500000 0.056304
O O15 0.500000 0.653282 0.000000
O O16 0.973391 0.000000 0.677487
#
# Coordination Sequence:
#
# PCOD8080519 Si02
#       6
#     8   8   8   8   8   8
#     4   9  17  30  48  70  97 128 157 183 222 280
#     4  10  19  31  48  69  95 127 158 189 235 288
#     4   9  18  33  50  68  96 130 156 184 231 285
#     4  10  18  28  47  73  97 123 157 196 231 268
#     4   8  16  30  45  64  93 126 155 187 235 287
#     4  10  19  31  50  73  94 119 157 202 235 266
#
# _framework density 17.177233000000001
#
# number of rings (size 3 to 8) (size 9 to 14) (size 15 to 20)
#    0.000    2.667    0.000    3.500    0.000    7.000 
#    0.000    1.667    0.000    4.500    0.000    0.000 
#    0.000    0.000    0.000    0.000    0.000    0.000 
#
# Total GULP energy -297558.458972 kJ/mol
# GULP energy per Si atom -12398.269124 kJ/mol
# Density = 1.713814 g / cm^3
# Si number density = 17.177233 Si / 1000 Ang^3
#
#
#
# Elastic Constant Matrix: (Units=GPa)
#
#
# Indices 1 2 3 4 5 6 
#
# 1 103.5603 37.6710 68.7209 0.0014 4.3337 0.0005
# 2 37.6710 68.3261 54.0336 0.0019 7.1529 0.0007
# 3 68.7209 54.0336 139.4052 0.0030 15.3053 0.0004
# 4 0.0014 0.0019 0.0030 23.2675 0.0010 6.9511
# 5 4.3337 7.1529 15.3053 0.0010 25.5989 0.0001
# 6 0.0005 0.0007 0.0004 6.9511 0.0001 21.1156
#
#
#
# Elastic Compliance Matrix: (Units=1/GPa)
#
#
# Indices 1 2 3 4 5 6 
#
# 1 0.015014 -0.003553 -0.006265 0.000000 0.002197 0.000000
# 2 -0.003553 0.021973 -0.006590 -0.000001 -0.001598 0.000000
# 3 -0.006265 -0.006590 0.013376 -0.000001 -0.005095 0.000000
# 4 0.000000 -0.000001 -0.000001 0.047666 -0.000001 -0.015691
# 5 0.002197 -0.001598 -0.005095 -0.000001 0.042185 0.000000
# 6 0.000000 0.000000 0.000000 -0.015691 0.000000 0.052524
#
#
# Mechanical properties :
#
#
# Convention : Reuss Voigt Hill
#
# Bulk Modulus (GPa) = 56.99194 70.23808 63.61501
# Shear Modulus (GPa) = 21.60720 24.05414 22.83067
#
# Velocity S-wave (km/s) = 3.55053 3.74619 3.64967
# Velocity P-wave (km/s) = 7.07525 7.72599 7.40777
#
# Compressibility (1/GPa) = 0.01754634
#
# Stress axis : x y z
#
# Youngs Moduli (GPa) = 66.60250 45.50946 74.76315
#
# Poissons Ratio (x) = 0.16171 0.46843
# Poissons Ratio (y) = 0.23665 0.49268
# Poissons Ratio (z) = 0.41730 0.29990
#
# Static dielectric constant tensor:
#      x y z
#    x 3.058120 0.000000 0.158010 
#    y 0.000000 3.129960 0.000000 
#    z 0.158010 0.000000 3.530330 
# 
# 
# High freq. dielectric constant tensor:
#      x y z
#    x 1.636970 0.000000 0.015010 
#    y 0.000000 1.656180 0.000000 
#    z 0.015010 0.000000 1.669010 
# 
# From -- ./inp_files/172041.got.cif
#   From: 2010.06.25/outbox.cif.g09.slc.cpg/sg12_87_cif.got.tgz:172041.got - 2010.06.28 00:19:55.
