data_PCOD8080948
_publ_section_title
;
Structure prediction by ZEFSAII (Michael W. Deem and Ramdas Pophale) SiO2 
 PCOD8080948
Probable space group: C 2/M
;
_chemical_formula_sum "Si O2"
_cell_formula_units_Z 56
_cell_length_a 26.503586
_cell_length_b 8.928766
_cell_length_c 13.450826
_cell_angle_alpha 90.000000
_cell_angle_beta 61.853080
_cell_angle_gamma 90.000000
_cell_volume 2806.635402
_symmetry_space_group_name_H-M "C 2/M"
_symmetry_group_IT_number 12
_symmetry_cell_setting 'monoclinic'
loop_
_space_group_symop_operation_xyz
x,y,z
-x,y,-z
-x,-y,-z
x,-y,z
1/2+x,1/2+y,z
1/2-x,1/2+y,-z
1/2-x,1/2-y,-z
1/2+x,1/2-y,z
loop_
_atom_site_type_symbol
_atom_site_label
_atom_site_fract_x
_atom_site_fract_y
_atom_site_fract_z
Si Si1 0.810492 0.324921 0.035097
Si Si2 0.281260 0.177341 0.378530
Si Si3 0.119995 0.327305 0.220196
Si Si4 0.097882 0.829303 0.738573
Si Si5 0.479602 0.324698 0.779805
Si Si6 0.724598 0.825792 0.241972
Si Si7 0.908590 0.830074 0.033621
O O1 0.795819 0.500000 0.049726
O O2 0.753558 0.228928 0.111420
O O3 0.854440 0.281991 0.082480
O O4 0.839899 0.268581 0.906599
O O5 0.250000 0.250000 0.500000
O O6 0.347536 0.223554 0.321070
O O7 0.247989 0.229534 0.311051
O O8 0.277232 0.000000 0.388872
O O9 0.106647 0.500000 0.215809
O O10 0.058373 0.245589 0.274425
O O11 0.155913 0.301277 0.289063
O O12 0.068570 0.822857 0.875097
O O13 0.046571 0.775254 0.712412
O O14 0.116835 0.000000 0.697047
O O15 0.476109 0.500000 0.769120
O O16 0.455306 0.275032 0.910200
O O17 0.738408 0.000000 0.247653
O O18 0.888936 0.000000 0.026503
#
# Coordination Sequence:
#
# PCOD8080948 Si02
#       7
#     8   8   8   8   8   8   8
#     4  10  18  29  47  77 113 149 191 230 270 323
#     4  12  26  43  63  86 109 138 182 236 291 339
#     4   9  20  34  50  77 116 155 189 226 270 324
#     4  10  19  34  56  81 113 148 185 229 278 330
#     4   9  18  31  51  81 115 154 192 223 262 323
#     4  11  21  36  56  78 109 149 187 230 283 332
#     4   9  16  28  48  75 112 153 189 223 267 324
#
# _framework density 19.952715999999999
#
# number of rings (size 3 to 8) (size 9 to 14) (size 15 to 20)
#    0.000    2.000    1.429    3.000    0.000    4.000 
#    0.000    0.000    0.000    5.143    0.000    6.000 
#    0.000    0.000    0.000    0.000    0.000    0.000 
#
# Total GULP energy -346990.376121 kJ/mol
# GULP energy per Si atom -12392.513433 kJ/mol
# Density = 1.990730 g / cm^3
# Si number density = 19.952716 Si / 1000 Ang^3
#
#
#
# Elastic Constant Matrix: (Units=GPa)
#
#
# Indices 1 2 3 4 5 6 
#
# 1 161.3933 60.2053 32.5730 0.0000 -16.9202 0.0000
# 2 60.2053 96.1844 26.7886 0.0000 -7.5171 0.0000
# 3 32.5730 26.7886 43.8446 0.0000 -6.5273 0.0000
# 4 0.0000 0.0000 0.0000 24.4518 0.0000 -2.1600
# 5 -16.9202 -7.5171 -6.5273 0.0000 12.8015 0.0000
# 6 0.0000 0.0000 0.0000 -2.1600 0.0000 32.3783
#
#
#
# Elastic Compliance Matrix: (Units=1/GPa)
#
#
# Indices 1 2 3 4 5 6 
#
# 1 0.009279 -0.004324 -0.003034 0.000000 0.008178 0.000000
# 2 -0.004324 0.014711 -0.005780 0.000000 -0.000023 0.000000
# 3 -0.003034 -0.005780 0.029749 0.000000 0.007765 0.000000
# 4 0.000000 0.000000 0.000000 0.041139 0.000000 0.002744
# 5 0.008178 -0.000023 0.007765 0.000000 0.092870 0.000000
# 6 0.000000 0.000000 0.000000 0.002744 0.000000 0.031068
#
#
# Mechanical properties :
#
#
# Convention : Reuss Voigt Hill
#
# Bulk Modulus (GPa) = 36.41124 60.06179 48.23652
# Shear Modulus (GPa) = 19.66603 26.05000 22.85801
#
# Velocity S-wave (km/s) = 3.14288 3.61721 3.38836
# Velocity P-wave (km/s) = 5.60880 6.90022 6.28775
#
# Compressibility (1/GPa) = 0.02746404
#
# Stress axis : x y z
#
# Youngs Moduli (GPa) = 107.77448 67.97685 33.61445
#
# Poissons Ratio (x) = 0.29391 0.10199
# Poissons Ratio (y) = 0.46598 0.19428
# Poissons Ratio (z) = 0.32699 0.39288
#
# Static dielectric constant tensor:
#      x y z
#    x 3.893440 0.000000 -0.079760 
#    y 0.000000 3.521200 0.000000 
#    z -0.079760 0.000000 3.313640 
# 
# 
# High freq. dielectric constant tensor:
#      x y z
#    x 1.795780 0.000000 -0.006840 
#    y 0.000000 1.771010 0.000000 
#    z -0.006840 0.000000 1.726820 
# 
# From -- ./inp_files/248900.got.cif
#   From: 2010.06.25/outbox.cif.g09.slc.cpg/sg12_125_cif.got.tgz:248900.got - 2010.06.28 00:19:55.
