data_PCOD8080660
_publ_section_title
;
Structure prediction by ZEFSAII (Michael W. Deem and Ramdas Pophale) SiO2 
 PCOD8080660
Probable space group: C 2/M
;
_chemical_formula_sum "Si O2"
_cell_formula_units_Z 64
_cell_length_a 25.868329
_cell_length_b 9.027184
_cell_length_c 21.308719
_cell_angle_alpha 90.000000
_cell_angle_beta 52.683851
_cell_angle_gamma 90.000000
_cell_volume 3957.404489
_symmetry_space_group_name_H-M "C 2/M"
_symmetry_group_IT_number 12
_symmetry_cell_setting 'monoclinic'
loop_
_space_group_symop_operation_xyz
x,y,z
-x,y,-z
-x,-y,-z
x,-y,z
1/2+x,1/2+y,z
1/2-x,1/2+y,-z
1/2-x,1/2-y,-z
1/2+x,1/2-y,z
loop_
_atom_site_type_symbol
_atom_site_label
_atom_site_fract_x
_atom_site_fract_y
_atom_site_fract_z
Si Si1 0.014615 0.323930 0.087690
Si Si2 0.289326 0.174920 0.915538
Si Si3 0.439646 0.175055 0.812248
Si Si4 0.400172 0.824541 0.088643
Si Si5 0.866030 0.170766 0.652359
Si Si6 0.744275 0.826511 0.822921
Si Si7 0.560819 0.832736 0.501347
Si Si8 0.017678 0.825968 0.342164
O O1 0.017990 0.500000 0.087318
O O2 0.029564 0.262682 0.145831
O O3 0.943544 0.269183 0.115894
O O4 0.069201 0.264121 0.998978
O O5 0.364370 0.220693 0.866337
O O6 0.262606 0.231643 0.869456
O O7 0.279992 0.000000 0.926940
O O8 0.250000 0.250000 0.000000
O O9 0.479302 0.254438 0.728311
O O10 0.448193 0.000000 0.798166
O O11 0.325972 0.771499 0.149787
O O12 0.403276 0.000000 0.084787
O O13 0.793953 0.205324 0.729868
O O14 0.877551 0.263722 0.580432
O O15 0.916295 0.216534 0.669951
O O16 0.875971 0.000000 0.627504
O O17 0.744705 0.000000 0.841186
O O18 0.500000 0.824124 0.500000
O O19 0.544720 0.740120 0.575661
O O20 0.577535 0.000000 0.508423
O O21 0.008294 0.000000 0.342680
#
# Coordination Sequence:
#
# PCOD8080660 Si02
#       8
#     8   8   8   8   8   8   8   8
#     4   8  14  26  44  67  89 115 153 198 233 261
#     4  11  22  32  44  63  91 125 156 187 225 273
#     4  10  19  30  45  66  92 120 154 191 228 268
#     4   8  14  26  46  67  89 116 153 195 233 266
#     4   9  17  28  42  63  92 122 149 180 220 271
#     4  10  18  30  47  68  93 121 152 187 227 273
#     4   9  17  28  44  64  88 119 153 185 218 261
#     4  10  18  29  44  64  92 123 151 181 223 273
#
# _framework density 16.172215999999999
#
# number of rings (size 3 to 8) (size 9 to 14) (size 15 to 20)
#    0.000    2.625    1.250    2.625    0.000    5.000 
#    0.000    0.000    0.000    0.750    0.000    3.500 
#    0.000    0.000    0.000    0.000    0.000    0.000 
#
# Total GULP energy -396729.495488 kJ/mol
# GULP energy per Si atom -12397.796734 kJ/mol
# Density = 1.613541 g / cm^3
# Si number density = 16.172216 Si / 1000 Ang^3
#
#
#
# Elastic Constant Matrix: (Units=GPa)
#
#
# Indices 1 2 3 4 5 6 
#
# 1 100.5492 25.5392 66.2568 -0.0099 -2.0444 0.0098
# 2 25.5392 43.5843 42.7899 -0.0250 0.0567 0.0236
# 3 66.2568 42.7899 137.6969 -0.0046 3.1020 0.0026
# 4 -0.0099 -0.0250 -0.0046 29.5696 -0.0060 3.3628
# 5 -2.0444 0.0567 3.1020 -0.0060 17.0112 0.0032
# 6 0.0098 0.0236 0.0026 3.3628 0.0032 12.1638
#
#
#
# Elastic Compliance Matrix: (Units=1/GPa)
#
#
# Indices 1 2 3 4 5 6 
#
# 1 0.014885 -0.002343 -0.006502 0.000003 0.002982 -0.000008
# 2 -0.002343 0.033439 -0.009293 0.000034 0.001301 -0.000071
# 3 -0.006502 -0.009293 0.013350 -0.000011 -0.003185 0.000024
# 4 0.000003 0.000034 -0.000011 0.034916 0.000016 -0.009653
# 5 0.002982 0.001301 -0.003185 0.000016 0.059720 -0.000025
# 6 -0.000008 -0.000071 0.000024 -0.009653 -0.000025 0.084880
#
#
# Mechanical properties :
#
#
# Convention : Reuss Voigt Hill
#
# Bulk Modulus (GPa) = 39.37152 61.22246 50.29699
# Shear Modulus (GPa) = 17.48660 21.56522 19.52591
#
# Velocity S-wave (km/s) = 3.29184 3.65564 3.47850
# Velocity P-wave (km/s) = 6.23268 7.46706 6.87762
#
# Compressibility (1/GPa) = 0.02539907
#
# Stress axis : x y z
#
# Youngs Moduli (GPa) = 67.18007 29.90493 74.90424
#
# Poissons Ratio (x) = 0.07007 0.48699
# Poissons Ratio (y) = 0.15742 0.69610
# Poissons Ratio (z) = 0.43677 0.27791
#
# Static dielectric constant tensor:
#      x y z
#    x 3.085340 -0.000030 0.001430 
#    y -0.000030 2.864530 0.000050 
#    z 0.001430 0.000050 3.308540 
# 
# 
# High freq. dielectric constant tensor:
#      x y z
#    x 1.590170 0.000000 -0.000310 
#    y 0.000000 1.604440 0.000000 
#    z -0.000310 0.000000 1.628280 
# 
# From -- ./inp_files/326830.got.cif
#   From: 2010.06.25/outbox.cif.g09.slc.cpg/sg12_164_cif.got.tgz:326830.got - 2010.06.28 00:19:55.
