data_PCOD8080661
_publ_section_title
;
Structure prediction by ZEFSAII (Michael W. Deem and Ramdas Pophale) SiO2 
 PCOD8080661
Probable space group: C 2/M
;
_chemical_formula_sum "Si O2"
_cell_formula_units_Z 56
_cell_length_a 27.253636
_cell_length_b 8.993047
_cell_length_c 27.513413
_cell_angle_alpha 90.000000
_cell_angle_beta 149.247897
_cell_angle_gamma 90.000000
_cell_volume 3448.041578
_symmetry_space_group_name_H-M "C 2/M"
_symmetry_group_IT_number 12
_symmetry_cell_setting 'monoclinic'
loop_
_space_group_symop_operation_xyz
x,y,z
-x,y,-z
-x,-y,-z
x,-y,z
1/2+x,1/2+y,z
1/2-x,1/2+y,-z
1/2-x,1/2-y,-z
1/2+x,1/2-y,z
loop_
_atom_site_type_symbol
_atom_site_label
_atom_site_fract_x
_atom_site_fract_y
_atom_site_fract_z
Si Si1 0.538581 0.175204 0.427312
Si Si2 0.854062 0.170435 0.285010
Si Si3 0.856707 0.828516 0.400308
Si Si4 0.276635 0.172063 0.473303
Si Si5 0.816899 0.829624 0.703880
Si Si6 0.863025 0.677132 0.903492
Si Si7 0.527195 0.326784 0.090748
O O1 0.433840 0.237017 0.322872
O O2 0.565436 0.235608 0.503442
O O3 0.620068 0.228724 0.458547
O O4 0.534325 0.000000 0.426029
O O5 0.873493 0.198149 0.358085
O O6 0.746858 0.222539 0.179598
O O7 0.867546 0.000000 0.282179
O O8 0.749324 0.778370 0.321151
O O9 0.869477 0.000000 0.425178
O O10 0.250000 0.250000 0.500000
O O11 0.194212 0.206987 0.362839
O O12 0.282365 0.000000 0.490011
O O13 0.925791 0.806600 0.815623
O O14 0.783091 0.000000 0.684035
O O15 0.873458 0.500000 0.905013
O O16 0.899631 0.761304 0.886766
O O17 0.927449 0.734897 0.003666
O O18 0.508220 0.500000 0.063428
#
# Coordination Sequence:
#
# PCOD8080661 Si02
#       7
#     8   8   8   8   8   8   8
#     4  10  21  33  46  66  92 120 153 191 231 276
#     4  10  20  31  43  64  93 127 161 190 224 267
#     4  10  18  29  44  64  92 125 160 190 221 268
#     4   9  19  35  51  71  93 116 147 189 237 282
#     4   9  18  31  47  68  96 123 155 194 231 275
#     4  10  19  30  43  63  95 128 160 198 227 259
#     4  10  18  29  45  66  91 125 163 194 227 270
#
# _framework density 16.241102999999999
#
# number of rings (size 3 to 8) (size 9 to 14) (size 15 to 20)
#    0.000    2.286    1.429    3.857    0.000    7.429 
#    0.000    0.000    0.000    0.000    0.000    1.000 
#    0.000    0.000    0.000    0.000    0.000    0.000 
#
# Total GULP energy -347065.709961 kJ/mol
# GULP energy per Si atom -12395.203927 kJ/mol
# Density = 1.620414 g / cm^3
# Si number density = 16.241103 Si / 1000 Ang^3
#
#
#
# Elastic Constant Matrix: (Units=GPa)
#
#
# Indices 1 2 3 4 5 6 
#
# 1 66.7209 38.7250 55.3442 0.0000 6.7065 0.0000
# 2 38.7250 60.6203 45.3301 0.0000 4.6198 -0.0001
# 3 55.3442 45.3301 131.1475 0.0000 19.0825 0.0000
# 4 0.0000 0.0000 0.0000 28.6798 0.0000 2.6640
# 5 6.7065 4.6198 19.0825 0.0000 16.6193 0.0000
# 6 0.0000 -0.0001 0.0000 2.6640 0.0000 23.6414
#
#
#
# Elastic Compliance Matrix: (Units=1/GPa)
#
#
# Indices 1 2 3 4 5 6 
#
# 1 0.028730 -0.012480 -0.007958 0.000000 0.001013 0.000000
# 2 -0.012480 0.027807 -0.004746 0.000000 0.002756 0.000000
# 3 -0.007958 -0.004746 0.014364 0.000000 -0.011963 0.000000
# 4 0.000000 0.000000 0.000000 0.035237 0.000000 -0.003971
# 5 0.001013 0.002756 -0.011963 0.000000 0.072732 0.000000
# 6 0.000000 0.000000 0.000000 -0.003971 0.000000 0.042746
#
#
# Mechanical properties :
#
#
# Convention : Reuss Voigt Hill
#
# Bulk Modulus (GPa) = 48.69834 59.69859 54.19846
# Shear Modulus (GPa) = 17.93220 21.72740 19.82980
#
# Velocity S-wave (km/s) = 3.32644 3.66157 3.49802
# Velocity P-wave (km/s) = 6.69353 7.39687 7.05397
#
# Compressibility (1/GPa) = 0.02053458
#
# Stress axis : x y z
#
# Youngs Moduli (GPa) = 34.80638 35.96206 69.61724
#
# Poissons Ratio (x) = 0.44879 0.55402
# Poissons Ratio (y) = 0.43437 0.33039
# Poissons Ratio (z) = 0.27699 0.17067
#
# Static dielectric constant tensor:
#      x y z
#    x 2.746190 0.000000 0.123120 
#    y 0.000000 3.149250 0.000000 
#    z 0.123120 0.000000 3.392330 
# 
# 
# High freq. dielectric constant tensor:
#      x y z
#    x 1.572840 0.000000 0.011670 
#    y 0.000000 1.635710 0.000000 
#    z 0.011670 0.000000 1.631760 
# 
# From -- ./inp_files/384444.got.cif
#   From: 2010.06.25/outbox.cif.g09.slc.cpg/sg12_193_cif.got.tgz:384444.got - 2010.06.28 00:19:55.
