data_PCOD8080643
_publ_section_title
;
Structure prediction by ZEFSAII (Michael W. Deem and Ramdas Pophale) SiO2 
 PCOD8080643
Probable space group: C 2/M
;
_chemical_formula_sum "Si O2"
_cell_formula_units_Z 64
_cell_length_a 24.776986
_cell_length_b 9.036645
_cell_length_c 30.160996
_cell_angle_alpha 90.000000
_cell_angle_beta 146.740150
_cell_angle_gamma 90.000000
_cell_volume 3703.634456
_symmetry_space_group_name_H-M "C 2/M"
_symmetry_group_IT_number 12
_symmetry_cell_setting 'monoclinic'
loop_
_space_group_symop_operation_xyz
x,y,z
-x,y,-z
-x,-y,-z
x,-y,z
1/2+x,1/2+y,z
1/2-x,1/2+y,-z
1/2-x,1/2-y,-z
1/2+x,1/2-y,z
loop_
_atom_site_type_symbol
_atom_site_label
_atom_site_fract_x
_atom_site_fract_y
_atom_site_fract_z
Si Si1 0.864407 0.323509 0.291404
Si Si2 0.990641 0.174703 0.124411
Si Si3 0.951804 0.174722 0.738943
Si Si4 0.273999 0.325098 0.970414
Si Si5 0.528731 0.823830 0.471086
Si Si6 0.194846 0.176227 0.236178
Si Si7 0.244296 0.675060 0.626374
Si Si8 0.392078 0.824421 0.211235
O O1 0.866344 0.500000 0.292551
O O2 0.760764 0.264603 0.240593
O O3 0.874406 0.262582 0.248504
O O4 0.954245 0.260930 0.382914
O O5 0.001994 0.231170 0.182811
O O6 0.080913 0.233614 0.155540
O O7 0.000017 0.000000 0.132896
O O8 0.884924 0.222968 0.032211
O O9 0.836178 0.221645 0.658324
O O10 0.006087 0.257687 0.736413
O O11 0.965514 0.000000 0.742156
O O12 0.266988 0.500000 0.972359
O O13 0.199437 0.269446 0.881508
O O14 0.250000 0.250000 0.000000
O O15 0.500000 0.763614 0.500000
O O16 0.639630 0.768273 0.535405
O O17 0.522934 0.000000 0.467297
O O18 0.241290 0.236557 0.313903
O O19 0.197547 0.000000 0.237558
O O20 0.242847 0.500000 0.629000
O O21 0.400624 0.000000 0.216572
#
# Coordination Sequence:
#
# PCOD8080643 Si02
#       8
#     8   8   8   8   8   8   8   8
#     4   9  16  25  37  58  92 122 137 166 222 269
#     4   8  14  24  41  62  81 105 141 182 213 243
#     4   9  16  28  45  63  85 114 148 180 211 247
#     4  10  18  29  44  63  86 112 147 181 210 249
#     4   9  13  20  37  61  88 114 142 175 214 255
#     4   8  12  21  37  58  84 110 136 171 217 256
#     4   8  13  21  38  64  84 105 144 187 212 239
#     4  10  20  30  41  63  94 119 139 172 219 265
#
# _framework density 17.280322000000002
#
# number of rings (size 3 to 8) (size 9 to 14) (size 15 to 20)
#    0.000    3.125    2.500    1.500    0.000    0.000 
#    0.000    1.250    0.000    3.750    0.000    4.375 
#    0.000    3.000    0.000    0.000    0.000    0.000 
#
# Total GULP energy -396470.500497 kJ/mol
# GULP energy per Si atom -12389.703141 kJ/mol
# Density = 1.724099 g / cm^3
# Si number density = 17.280322 Si / 1000 Ang^3
#
#
#
# Elastic Constant Matrix: (Units=GPa)
#
#
# Indices 1 2 3 4 5 6 
#
# 1 168.2426 14.9822 90.2431 0.0001 15.8992 -0.0001
# 2 14.9822 6.5744 12.5417 0.0004 0.9880 -0.0009
# 3 90.2431 12.5417 130.8110 -0.0001 14.7210 -0.0001
# 4 0.0001 0.0004 -0.0001 9.0724 0.0000 1.7324
# 5 15.8992 0.9880 14.7210 0.0000 33.9861 0.0000
# 6 -0.0001 -0.0009 -0.0001 1.7324 0.0000 17.9152
#
#
#
# Elastic Compliance Matrix: (Units=1/GPa)
#
#
# Indices 1 2 3 4 5 6 
#
# 1 0.010275 -0.012264 -0.005689 0.000001 -0.001986 -0.000001
# 2 -0.012264 0.200982 -0.011350 -0.000011 0.004811 0.000011
# 3 -0.005689 -0.011350 0.012952 0.000001 -0.002619 -0.000001
# 4 0.000001 -0.000011 0.000001 0.112298 0.000000 -0.010859
# 5 -0.001986 0.004811 -0.002619 0.000000 0.031347 0.000000
# 6 -0.000001 0.000011 -0.000001 -0.010859 0.000000 0.056869
#
#
# Mechanical properties :
#
#
# Convention : Reuss Voigt Hill
#
# Bulk Modulus (GPa) = 6.03856 60.12911 33.08383
# Shear Modulus (GPa) = 9.28451 24.71882 17.00167
#
# Velocity S-wave (km/s) = 2.32046 3.78625 3.14008
# Velocity P-wave (km/s) = 3.26825 7.34752 5.68628
#
# Compressibility (1/GPa) = 0.16560247
#
# Stress axis : x y z
#
# Youngs Moduli (GPa) = 97.32093 4.97557 77.20565
#
# Poissons Ratio (x) = 0.06102 0.43924
# Poissons Ratio (y) = 1.19357 0.87629
# Poissons Ratio (z) = 0.55369 0.05647
#
# Static dielectric constant tensor:
#      x y z
#    x 3.518670 0.000000 0.407870 
#    y 0.000000 2.560520 0.000000 
#    z 0.407870 0.000000 3.658640 
# 
# 
# High freq. dielectric constant tensor:
#      x y z
#    x 1.667460 0.000000 0.026570 
#    y 0.000000 1.594700 0.000000 
#    z 0.026570 0.000000 1.666380 
# 
# From -- ./inp_files/282550.got.cif
#   From: 2010.06.25/outbox.cif.g09.slc.cpg/sg12_142_cif.got.tgz:282550.got - 2010.06.28 00:19:55.
