data_PCOD8080989
_publ_section_title
;
Structure prediction by ZEFSAII (Michael W. Deem and Ramdas Pophale) SiO2 
 PCOD8080989
Probable space group: C 2/M
;
_chemical_formula_sum "Si O2"
_cell_formula_units_Z 64
_cell_length_a 23.535515
_cell_length_b 17.240500
_cell_length_c 9.720225
_cell_angle_alpha 90.000000
_cell_angle_beta 81.784256
_cell_angle_gamma 90.000000
_cell_volume 3903.639351
_symmetry_space_group_name_H-M "C 2/M"
_symmetry_group_IT_number 12
_symmetry_cell_setting 'monoclinic'
loop_
_space_group_symop_operation_xyz
x,y,z
-x,y,-z
-x,-y,-z
x,-y,z
1/2+x,1/2+y,z
1/2-x,1/2+y,-z
1/2-x,1/2-y,-z
1/2+x,1/2-y,z
loop_
_atom_site_type_symbol
_atom_site_label
_atom_site_fract_x
_atom_site_fract_y
_atom_site_fract_z
Si Si1 0.545928 0.412380 0.093267
Si Si2 0.194439 0.736368 0.836744
Si Si3 0.745419 0.088247 0.776778
Si Si4 0.685039 0.773044 0.346462
Si Si5 0.031939 0.087373 0.619483
Si Si6 0.647608 0.323239 0.622169
Si Si7 0.258191 0.912683 0.550377
Si Si8 0.343251 0.682135 0.882028
O O1 0.565865 0.500000 0.046136
O O2 0.516194 0.412545 0.249304
O O3 0.599404 0.354385 0.076040
O O4 0.500000 0.380576 0.000000
O O5 0.194337 0.642592 0.858365
O O6 0.252674 0.747468 0.728961
O O7 0.143632 0.765610 0.754978
O O8 0.193921 0.781934 0.980567
O O9 0.744213 0.095486 0.612635
O O10 0.807218 0.115349 0.815840
O O11 0.734520 0.000000 0.827367
O O12 0.663887 0.722049 0.479930
O O13 0.690536 0.861542 0.397784
O O14 0.642998 0.752988 0.231324
O O15 0.085835 0.138995 0.637235
O O16 0.000000 0.123819 0.500000
O O17 0.053699 0.000000 0.581601
O O18 0.696316 0.388067 0.632846
O O19 0.271124 0.000000 0.591908
#
# Coordination Sequence:
#
# PCOD8080989 Si02
#       8
#     8   8   8   8   8   8   8   8
#     4  10  21  37  50  68  99 134 171 207 240 276
#     4  10  19  32  46  71  97 128 165 199 238 291
#     4  10  18  30  48  72  99 128 164 194 234 296
#     4  10  18  32  47  70  99 126 164 200 241 289
#     4  10  21  32  46  71  98 125 167 213 240 271
#     4  11  17  32  49  67  97 133 165 194 246 287
#     4  10  18  29  48  72  99 131 162 193 238 294
#     4  11  20  32  51  70  96 136 168 197 244 288
#
# _framework density 16.394956000000001
#
# number of rings (size 3 to 8) (size 9 to 14) (size 15 to 20)
#    0.000    1.750    3.750    4.500    0.000    0.000 
#    0.000    8.750    0.000    0.000    0.000    0.000 
#    0.000   20.000    0.000    0.000    0.000    0.000 
#
# Total GULP energy -396497.402567 kJ/mol
# GULP energy per Si atom -12390.543830 kJ/mol
# Density = 1.635764 g / cm^3
# Si number density = 16.394956 Si / 1000 Ang^3
#
#
#
# Elastic Constant Matrix: (Units=GPa)
#
#
# Indices 1 2 3 4 5 6 
#
# 1 72.7735 47.6546 13.2962 0.0000 16.0575 0.0000
# 2 47.6546 104.1230 18.6923 0.0000 4.2564 0.0000
# 3 13.2962 18.6923 61.3944 0.0000 9.9208 0.0000
# 4 0.0000 0.0000 0.0000 23.3559 0.0000 6.8994
# 5 16.0575 4.2564 9.9208 0.0000 24.4954 0.0000
# 6 0.0000 0.0000 0.0000 6.8994 0.0000 21.4316
#
#
#
# Elastic Compliance Matrix: (Units=1/GPa)
#
#
# Indices 1 2 3 4 5 6 
#
# 1 0.023380 -0.010186 0.000244 0.000000 -0.013655 0.000000
# 2 -0.010186 0.014604 -0.003113 0.000000 0.005400 0.000000
# 3 0.000244 -0.003113 0.018320 0.000000 -0.007039 0.000000
# 4 0.000000 0.000000 0.000000 0.047315 0.000000 -0.015232
# 5 -0.013655 0.005400 -0.007039 0.000000 0.051688 0.000000
# 6 0.000000 0.000000 0.000000 -0.015232 0.000000 0.051564
#
#
# Mechanical properties :
#
#
# Convention : Reuss Voigt Hill
#
# Bulk Modulus (GPa) = 33.11800 44.17522 38.64661
# Shear Modulus (GPa) = 20.57229 24.43311 22.50270
#
# Velocity S-wave (km/s) = 3.54615 3.86461 3.70880
# Velocity P-wave (km/s) = 6.08366 6.84956 6.47794
#
# Compressibility (1/GPa) = 0.03019506
#
# Stress axis : x y z
#
# Youngs Moduli (GPa) = 42.77191 68.47418 54.58372
#
# Poissons Ratio (x) = 0.69748 -0.01334
# Poissons Ratio (y) = 0.43568 0.16992
# Poissons Ratio (z) = -0.01046 0.21316
#
# Static dielectric constant tensor:
#      x y z
#    x 2.901810 0.000000 0.242660 
#    y 0.000000 3.461190 0.000000 
#    z 0.242660 0.000000 3.254150 
# 
# 
# High freq. dielectric constant tensor:
#      x y z
#    x 1.594610 0.000000 0.017710 
#    y 0.000000 1.623240 0.000000 
#    z 0.017710 0.000000 1.645650 
# 
# From -- ./inp_files/97724.got.cif
#   From: 2010.06.25/outbox.cif.g09.slc.cpg/sg12_49_cif.got.tgz:97724.got - 2010.06.28 00:19:55.
