data_PCOD8080648
_publ_section_title
;
Structure prediction by ZEFSAII (Michael W. Deem and Ramdas Pophale) SiO2 
 PCOD8080648
Probable space group: C 2/M
;
_chemical_formula_sum "Si O2"
_cell_formula_units_Z 56
_cell_length_a 34.643054
_cell_length_b 9.019517
_cell_length_c 14.428898
_cell_angle_alpha 90.000000
_cell_angle_beta 129.563727
_cell_angle_gamma 90.000000
_cell_volume 3475.681964
_symmetry_space_group_name_H-M "C 2/M"
_symmetry_group_IT_number 12
_symmetry_cell_setting 'monoclinic'
loop_
_space_group_symop_operation_xyz
x,y,z
-x,y,-z
-x,-y,-z
x,-y,z
1/2+x,1/2+y,z
1/2-x,1/2+y,-z
1/2-x,1/2-y,-z
1/2+x,1/2-y,z
loop_
_atom_site_type_symbol
_atom_site_label
_atom_site_fract_x
_atom_site_fract_y
_atom_site_fract_z
Si Si1 0.458314 0.330501 0.316978
Si Si2 0.118707 0.670923 0.675575
Si Si3 0.569909 0.825178 0.032780
Si Si4 0.459788 0.174722 0.817152
Si Si5 0.056377 0.671303 0.411057
Si Si6 0.378462 0.332911 0.042136
Si Si7 0.303636 0.323547 0.085256
O O1 0.458333 0.500000 0.353061
O O2 0.430832 0.226758 0.348607
O O3 0.514460 0.273894 0.392683
O O4 0.430524 0.319916 0.176433
O O5 0.128645 0.500000 0.716509
O O6 0.107653 0.689434 0.548412
O O7 0.167047 0.766364 0.778747
O O8 0.572886 0.769015 0.144636
O O9 0.575013 0.000000 0.032693
O O10 0.516925 0.767181 0.910505
O O11 0.616015 0.758218 0.044542
O O12 0.434309 0.223271 0.681110
O O13 0.462652 0.000000 0.830986
O O14 0.038167 0.500000 0.385014
O O15 0.366101 0.500000 0.995026
O O16 0.333725 0.272430 0.039199
O O17 0.299660 0.500000 0.085379
O O18 0.250000 0.250000 0.000000
#
# Coordination Sequence:
#
# PCOD8080648 Si02
#       7
#     8   8   8   8   8   8   8
#     4  10  19  29  41  61  92 127 159 193 228 266
#     4  10  20  31  46  67  90 121 156 188 228 277
#     4   9  15  26  45  64  87 123 162 194 225 262
#     4   8  15  26  41  64  91 122 161 198 224 255
#     4  10  18  29  44  63  91 126 161 192 224 268
#     4   9  18  30  44  66  94 120 149 187 231 273
#     4  10  21  37  54  72  94 117 146 189 235 281
#
# _framework density 16.111946
#
# number of rings (size 3 to 8) (size 9 to 14) (size 15 to 20)
#    0.000    2.571    1.429    3.429    0.000    5.714 
#    0.000    2.143    0.000    0.000    0.000    1.000 
#    0.000    0.000    0.000    0.000    0.000    0.000 
#
# Total GULP energy -347019.855019 kJ/mol
# GULP energy per Si atom -12393.566251 kJ/mol
# Density = 1.607527 g / cm^3
# Si number density = 16.111946 Si / 1000 Ang^3
#
#
#
# Elastic Constant Matrix: (Units=GPa)
#
#
# Indices 1 2 3 4 5 6 
#
# 1 85.5537 34.2533 62.4462 0.0000 -5.6730 0.0000
# 2 34.2533 59.8125 36.0195 0.0000 -1.3214 0.0000
# 3 62.4462 36.0195 96.3600 0.0000 -9.5000 0.0000
# 4 0.0000 0.0000 0.0000 17.7561 0.0000 2.9155
# 5 -5.6730 -1.3214 -9.5000 0.0000 24.5101 0.0000
# 6 0.0000 0.0000 0.0000 2.9155 0.0000 22.8936
#
#
#
# Elastic Compliance Matrix: (Units=1/GPa)
#
#
# Indices 1 2 3 4 5 6 
#
# 1 0.023520 -0.005539 -0.013168 0.000000 0.000042 0.000000
# 2 -0.005539 0.022979 -0.005203 0.000000 -0.002060 0.000000
# 3 -0.013168 -0.005203 0.021343 0.000000 0.004944 0.000000
# 4 0.000000 0.000000 0.000000 0.057521 0.000000 -0.007325
# 5 0.000042 -0.002060 0.004944 0.000000 0.042614 0.000000
# 6 0.000000 0.000000 0.000000 -0.007325 0.000000 0.044613
#
#
# Mechanical properties :
#
#
# Convention : Reuss Voigt Hill
#
# Bulk Modulus (GPa) = 49.94257 56.35159 53.14708
# Shear Modulus (GPa) = 18.72063 20.29912 19.50988
#
# Velocity S-wave (km/s) = 3.41238 3.55333 3.48357
# Velocity P-wave (km/s) = 6.82571 7.20318 7.01698
#
# Compressibility (1/GPa) = 0.02002300
#
# Stress axis : x y z
#
# Youngs Moduli (GPa) = 42.51677 43.51856 46.85269
#
# Poissons Ratio (x) = 0.24104 0.61694
# Poissons Ratio (y) = 0.23549 0.24378
# Poissons Ratio (z) = 0.55985 0.22643
#
# Static dielectric constant tensor:
#      x y z
#    x 3.005230 0.000000 -0.308050 
#    y 0.000000 2.979760 0.000000 
#    z -0.308050 0.000000 3.066550 
# 
# 
# High freq. dielectric constant tensor:
#      x y z
#    x 1.595970 0.000000 -0.025060 
#    y 0.000000 1.615130 0.000000 
#    z -0.025060 0.000000 1.599020 
# 
# From -- ./inp_files/247925.got.cif
#   From: 2010.06.25/outbox.cif.g09.slc.cpg/sg12_124_cif.got.tgz:247925.got - 2010.06.28 00:19:55.
