data_PCOD8080856
_publ_section_title
;
Structure prediction by ZEFSAII (Michael W. Deem and Ramdas Pophale) SiO2 
 PCOD8080856
Probable space group: C 2/M
;
_chemical_formula_sum "Si O2"
_cell_formula_units_Z 56
_cell_length_a 20.176116
_cell_length_b 9.461907
_cell_length_c 16.158692
_cell_angle_alpha 90.000000
_cell_angle_beta 76.171567
_cell_angle_gamma 90.000000
_cell_volume 2995.357998
_symmetry_space_group_name_H-M "C 2/M"
_symmetry_group_IT_number 12
_symmetry_cell_setting 'monoclinic'
loop_
_space_group_symop_operation_xyz
x,y,z
-x,y,-z
-x,-y,-z
x,-y,z
1/2+x,1/2+y,z
1/2-x,1/2+y,-z
1/2-x,1/2-y,-z
1/2+x,1/2-y,z
loop_
_atom_site_type_symbol
_atom_site_label
_atom_site_fract_x
_atom_site_fract_y
_atom_site_fract_z
Si Si1 0.356541 0.835072 0.570613
Si Si2 0.392784 0.339072 0.811413
Si Si3 0.534604 0.656410 0.378580
Si Si4 0.718799 0.163322 0.240438
Si Si5 0.501938 0.668548 0.906461
Si Si6 0.124114 0.160932 0.585840
Si Si7 0.868750 0.166965 0.231483
O O1 0.429522 0.776874 0.578670
O O2 0.301617 0.802012 0.658672
O O3 0.334068 0.754952 0.493121
O O4 0.363038 0.000000 0.549821
O O5 0.368505 0.500000 0.829461
O O6 0.448707 0.323379 0.722788
O O7 0.325151 0.249140 0.813287
O O8 0.431902 0.284394 0.881842
O O9 0.560032 0.500000 0.399693
O O10 0.454668 0.668397 0.416257
O O11 0.798103 0.204342 0.205966
O O12 0.705378 0.000000 0.225376
O O13 0.507047 0.500000 0.905113
O O14 0.568558 0.731670 0.839802
O O15 0.500000 0.729254 0.000000
O O16 0.133189 0.227729 0.674495
O O17 0.151926 0.000000 0.574471
O O18 0.878595 0.000000 0.236949
#
# Coordination Sequence:
#
# PCOD8080856 Si02
#       7
#     8   8   8   8   8   8   8
#     4  10  20  30  41  65  98 131 166 201 238 283
#     4   9  16  30  52  76 100 126 160 204 247 287
#     4   9  16  28  46  67  92 124 164 204 243 285
#     4   9  19  34  50  68  99 140 170 193 235 296
#     4   9  16  29  54  84 103 118 155 210 253 284
#     4  10  18  29  47  68  92 125 167 208 243 280
#     4   9  17  32  51  71  97 131 167 201 242 294
#
# _framework density 18.695595000000001
#
# number of rings (size 3 to 8) (size 9 to 14) (size 15 to 20)
#    0.000    2.714    1.429    0.857    0.000    3.429 
#    0.000    1.429    0.000    1.286    0.000    0.000 
#    0.000    0.000    0.000    0.000    0.000    0.000 
#
# Total GULP energy -347108.693729 kJ/mol
# GULP energy per Si atom -12396.739062 kJ/mol
# Density = 1.865304 g / cm^3
# Si number density = 18.695595 Si / 1000 Ang^3
#
#
#
# Elastic Constant Matrix: (Units=GPa)
#
#
# Indices 1 2 3 4 5 6 
#
# 1 99.7210 36.7024 56.4267 0.0000 5.6005 0.0000
# 2 36.7024 54.5907 36.1987 0.0000 6.6570 0.0000
# 3 56.4267 36.1987 114.3456 0.0000 24.7235 0.0000
# 4 0.0000 0.0000 0.0000 13.6602 0.0000 2.9138
# 5 5.6005 6.6570 24.7235 0.0000 13.7131 0.0000
# 6 0.0000 0.0000 0.0000 2.9138 0.0000 19.7457
#
#
#
# Elastic Compliance Matrix: (Units=1/GPa)
#
#
# Indices 1 2 3 4 5 6 
#
# 1 0.016892 -0.007044 -0.008774 0.000000 0.012339 0.000000
# 2 -0.007044 0.026210 -0.004413 0.000000 -0.001892 0.000000
# 3 -0.008774 -0.004413 0.021689 0.000000 -0.033378 0.000000
# 4 0.000000 0.000000 0.000000 0.075585 0.000000 -0.011154
# 5 0.012339 -0.001892 -0.033378 0.000000 0.128980 0.000000
# 6 0.000000 0.000000 0.000000 -0.011154 0.000000 0.052290
#
#
# Mechanical properties :
#
#
# Convention : Reuss Voigt Hill
#
# Bulk Modulus (GPa) = 41.09990 58.59030 49.84510
# Shear Modulus (GPa) = 13.50561 18.71242 16.10902
#
# Velocity S-wave (km/s) = 2.69066 3.16713 2.93857
# Velocity P-wave (km/s) = 5.62888 6.69189 6.18327
#
# Compressibility (1/GPa) = 0.02433096
#
# Stress axis : x y z
#
# Youngs Moduli (GPa) = 59.19914 38.15282 46.10643
#
# Poissons Ratio (x) = 0.26874 0.40454
# Poissons Ratio (y) = 0.41698 0.20345
# Poissons Ratio (z) = 0.51941 0.16835
#
# Static dielectric constant tensor:
#      x y z
#    x 3.339610 0.000000 0.040390 
#    y 0.000000 3.142610 0.000000 
#    z 0.040390 0.000000 3.520580 
# 
# 
# High freq. dielectric constant tensor:
#      x y z
#    x 1.722720 0.000000 0.007410 
#    y 0.000000 1.682980 0.000000 
#    z 0.007410 0.000000 1.717740 
# 
# From -- ./inp_files/280233.got.cif
#   From: 2010.06.25/outbox.cif.g09.slc.cpg/sg12_141_cif.got.tgz:280233.got - 2010.06.28 00:19:55.
