data_PCOD8080232
_publ_section_title
;
Structure prediction by ZEFSAII (Michael W. Deem and Ramdas Pophale) SiO2 
 PCOD8080232
Probable space group: C 2/M
;
_chemical_formula_sum "Si O2"
_cell_formula_units_Z 64
_cell_length_a 27.231111
_cell_length_b 8.819558
_cell_length_c 17.046560
_cell_angle_alpha 90.000000
_cell_angle_beta 102.385444
_cell_angle_gamma 90.000000
_cell_volume 3998.729595
_symmetry_space_group_name_H-M "C 2/M"
_symmetry_group_IT_number 12
_symmetry_cell_setting 'monoclinic'
loop_
_space_group_symop_operation_xyz
x,y,z
-x,y,-z
-x,-y,-z
x,-y,z
1/2+x,1/2+y,z
1/2-x,1/2+y,-z
1/2-x,1/2-y,-z
1/2+x,1/2-y,z
loop_
_atom_site_type_symbol
_atom_site_label
_atom_site_fract_x
_atom_site_fract_y
_atom_site_fract_z
Si Si1 0.539292 0.177886 0.908881
Si Si2 0.196680 0.826482 0.978120
Si Si3 0.606995 0.675875 0.053079
Si Si4 0.617521 0.676095 0.824047
Si Si5 0.038452 0.677068 0.342714
Si Si6 0.057242 0.826041 0.189617
Si Si7 0.923129 0.322435 0.333246
Si Si8 0.441151 0.670363 0.495467
O O1 0.577648 0.217077 0.853020
O O2 0.489637 0.274281 0.877941
O O3 0.526733 0.000000 0.902707
O O4 0.562297 0.224365 0.000419
O O5 0.171484 0.798985 0.884002
O O6 0.207450 0.000000 0.997138
O O7 0.250000 0.750000 0.000000
O O8 0.159982 0.766062 0.035270
O O9 0.598891 0.500000 0.025331
O O10 0.605196 0.693944 0.147181
O O11 0.601625 0.500000 0.823810
O O12 0.617411 0.732567 0.734042
O O13 0.045307 0.500000 0.357280
O O14 0.063642 0.726043 0.269543
O O15 0.069093 0.758556 0.422755
O O16 0.979455 0.720779 0.323698
O O17 0.050738 0.000000 0.213321
O O18 0.912949 0.500000 0.324229
O O19 0.913913 0.269171 0.419283
O O20 0.500000 0.673361 0.500000
O O21 0.419773 0.500000 0.486120
#
# Coordination Sequence:
#
# PCOD8080232 Si02
#       8
#     8   8   8   8   8   8   8   8
#     4  11  20  29  42  63  89 117 150 189 226 260
#     4   9  19  35  52  69  89 114 146 187 233 276
#     4   9  20  35  47  63  86 116 151 185 223 271
#     4  10  19  31  47  66  90 120 154 187 223 273
#     4  10  19  29  41  61  90 120 155 194 227 258
#     4  11  20  30  45  61  86 122 156 186 219 264
#     4  10  18  28  43  64  90 118 152 194 230 259
#     4   9  17  28  42  59  83 120 160 189 221 266
#
# _framework density 16.005082999999999
#
# number of rings (size 3 to 8) (size 9 to 14) (size 15 to 20)
#    0.000    2.125    1.250    4.125    0.000    7.500 
#    0.000    0.000    0.000    0.000    0.000    0.000 
#    0.000    1.000    0.000    3.000    0.000    4.625 
#
# Total GULP energy -396715.943332 kJ/mol
# GULP energy per Si atom -12397.373229 kJ/mol
# Density = 1.596865 g / cm^3
# Si number density = 16.005083 Si / 1000 Ang^3
#
#
#
# Elastic Constant Matrix: (Units=GPa)
#
#
# Indices 1 2 3 4 5 6 
#
# 1 41.2486 10.6668 35.1866 0.0000 -2.1109 0.0000
# 2 10.6668 58.7989 32.6607 0.0000 0.7416 0.0000
# 3 35.1866 32.6607 118.8144 0.0000 -9.3920 0.0000
# 4 0.0000 0.0000 0.0000 31.2097 0.0000 1.0910
# 5 -2.1109 0.7416 -9.3920 0.0000 13.7772 0.0000
# 6 0.0000 0.0000 0.0000 1.0910 0.0000 18.0044
#
#
#
# Elastic Compliance Matrix: (Units=1/GPa)
#
#
# Indices 1 2 3 4 5 6 
#
# 1 0.032489 -0.000546 -0.009592 0.000000 -0.001532 0.000000
# 2 -0.000546 0.020428 -0.005863 0.000000 -0.005180 0.000000
# 3 -0.009592 -0.005863 0.013506 0.000000 0.008053 0.000000
# 4 0.000000 0.000000 0.000000 0.032109 0.000000 -0.001946
# 5 -0.001532 -0.005180 0.008053 0.000000 0.078117 0.000000
# 6 0.000000 0.000000 0.000000 -0.001946 0.000000 0.055660
#
#
# Mechanical properties :
#
#
# Convention : Reuss Voigt Hill
#
# Bulk Modulus (GPa) = 29.05382 41.76556 35.40969
# Shear Modulus (GPa) = 18.12997 21.95477 20.04237
#
# Velocity S-wave (km/s) = 3.36931 3.70772 3.54255
# Velocity P-wave (km/s) = 5.77309 6.66944 6.23739
#
# Compressibility (1/GPa) = 0.03441888
#
# Stress axis : x y z
#
# Youngs Moduli (GPa) = 30.77977 48.95147 74.04358
#
# Poissons Ratio (x) = 0.02674 0.71026
# Poissons Ratio (y) = 0.01681 0.43414
# Poissons Ratio (z) = 0.29525 0.28701
#
# Static dielectric constant tensor:
#      x y z
#    x 2.696250 0.000000 -0.117920 
#    y 0.000000 3.091190 0.000000 
#    z -0.117920 0.000000 3.204610 
# 
# 
# High freq. dielectric constant tensor:
#      x y z
#    x 1.548560 0.000000 -0.012420 
#    y 0.000000 1.629020 0.000000 
#    z -0.012420 0.000000 1.621970 
# 
# From -- ./inp_files/287742.got.cif
#   From: 2010.06.25/outbox.cif.g09.slc.cpg/sg12_144_cif.got.tgz:287742.got - 2010.06.28 00:19:55.
