data_PCOD8080626
_publ_section_title
;
Structure prediction by ZEFSAII (Michael W. Deem and Ramdas Pophale) SiO2 
 PCOD8080626
Probable space group: C 2/M
;
_chemical_formula_sum "Si O2"
_cell_formula_units_Z 64
_cell_length_a 28.965381
_cell_length_b 9.280126
_cell_length_c 17.186293
_cell_angle_alpha 90.000000
_cell_angle_beta 63.382155
_cell_angle_gamma 90.000000
_cell_volume 4130.094680
_symmetry_space_group_name_H-M "C 2/M"
_symmetry_group_IT_number 12
_symmetry_cell_setting 'monoclinic'
loop_
_space_group_symop_operation_xyz
x,y,z
-x,y,-z
-x,-y,-z
x,-y,z
1/2+x,1/2+y,z
1/2-x,1/2+y,-z
1/2-x,1/2-y,-z
1/2+x,1/2-y,z
loop_
_atom_site_type_symbol
_atom_site_label
_atom_site_fract_x
_atom_site_fract_y
_atom_site_fract_z
Si Si1 0.777019 0.329737 0.592493
Si Si2 0.722453 0.160475 0.242009
Si Si3 0.376755 0.833404 0.970088
Si Si4 0.680434 0.833031 0.599763
Si Si5 0.208283 0.331621 0.083591
Si Si6 0.489639 0.830312 0.921229
Si Si7 0.158292 0.838231 0.861997
Si Si8 0.096451 0.667574 0.780837
O O1 0.766768 0.500000 0.606804
O O2 0.798861 0.271710 0.660034
O O3 0.722461 0.257722 0.614447
O O4 0.818393 0.293764 0.493129
O O5 0.707397 0.237861 0.171889
O O6 0.783401 0.160905 0.210441
O O7 0.700012 0.000000 0.251323
O O8 0.349548 0.813593 0.906779
O O9 0.435706 0.773754 0.925491
O O10 0.375066 0.000000 0.997245
O O11 0.342946 0.740795 0.054636
O O12 0.623413 0.798081 0.677311
O O13 0.694557 0.000000 0.601253
O O14 0.224997 0.500000 0.074171
O O15 0.250000 0.250000 0.000000
O O16 0.535973 0.787542 0.826891
O O17 0.485922 0.000000 0.932157
O O18 0.500000 0.764998 0.000000
O O19 0.123319 0.754355 0.828319
O O20 0.136847 0.000000 0.886865
O O21 0.102328 0.500000 0.797446
#
# Coordination Sequence:
#
# PCOD8080626 Si02
#       8
#     8   8   8   8   8   8   8   8
#     4   9  16  28  42  58  84 112 133 161 206 253
#     4   9  17  28  41  59  84 113 136 160 203 251
#     4  10  19  31  45  60  80 112 147 177 204 238
#     4   9  17  26  41  63  82 105 138 171 201 238
#     4  10  19  30  44  62  82 107 142 173 203 245
#     4   9  16  27  43  60  81 110 141 173 209 242
#     4  11  19  27  42  62  87 114 140 169 207 247
#     4  10  18  29  43  61  85 111 144 176 202 241
#
# _framework density 15.496012
#
# number of rings (size 3 to 8) (size 9 to 14) (size 15 to 20)
#    0.000    2.375    3.750    0.375    0.000    0.000 
#    0.000    1.875    0.000    0.000    0.000    0.875 
#    0.000    7.000    0.000    0.000    0.000   15.375 
#
# Total GULP energy -396448.895463 kJ/mol
# GULP energy per Si atom -12389.027983 kJ/mol
# Density = 1.546074 g / cm^3
# Si number density = 15.496012 Si / 1000 Ang^3
#
#
#
# Elastic Constant Matrix: (Units=GPa)
#
#
# Indices 1 2 3 4 5 6 
#
# 1 80.4401 13.5340 51.9149 0.0000 7.3677 0.0000
# 2 13.5340 31.6106 23.7007 0.0000 2.0694 0.0000
# 3 51.9149 23.7007 139.1635 0.0000 13.3822 0.0000
# 4 0.0000 0.0000 0.0000 14.5944 0.0000 0.1570
# 5 7.3677 2.0694 13.3822 0.0000 26.5233 0.0000
# 6 0.0000 0.0000 0.0000 0.1570 0.0000 12.0237
#
#
#
# Elastic Compliance Matrix: (Units=1/GPa)
#
#
# Indices 1 2 3 4 5 6 
#
# 1 0.016654 -0.002846 -0.005575 0.000000 -0.001591 0.000000
# 2 -0.002846 0.036755 -0.005253 0.000000 0.000573 0.000000
# 3 -0.005575 -0.005253 0.010480 0.000000 -0.003329 0.000000
# 4 0.000000 0.000000 0.000000 0.068529 0.000000 -0.000895
# 5 -0.001591 0.000573 -0.003329 0.000000 0.039780 0.000000
# 6 0.000000 0.000000 0.000000 -0.000895 0.000000 0.083181
#
#
# Mechanical properties :
#
#
# Convention : Reuss Voigt Hill
#
# Bulk Modulus (GPa) = 27.36680 47.72369 37.54525
# Shear Modulus (GPa) = 16.95445 21.43259 19.19352
#
# Velocity S-wave (km/s) = 3.31133 3.72304 3.52321
# Velocity P-wave (km/s) = 5.68496 7.02465 6.39001
#
# Compressibility (1/GPa) = 0.03654062
#
# Stress axis : x y z
#
# Youngs Moduli (GPa) = 60.04432 27.20748 95.41659
#
# Poissons Ratio (x) = 0.07744 0.53196
# Poissons Ratio (y) = 0.17090 0.50122
# Poissons Ratio (z) = 0.33475 0.14292
#
# Static dielectric constant tensor:
#      x y z
#    x 2.964870 0.000000 0.031460 
#    y 0.000000 2.875600 0.000000 
#    z 0.031460 0.000000 3.339840 
# 
# 
# High freq. dielectric constant tensor:
#      x y z
#    x 1.566300 0.000000 0.004290 
#    y 0.000000 1.574250 0.000000 
#    z 0.004290 0.000000 1.596550 
# 
# From -- ./inp_files/294562.got.cif
#   From: 2010.06.25/outbox.cif.g09.slc.cpg/sg12_148_cif.got.tgz:294562.got - 2010.06.28 00:19:55.
