data_PCOD8080104
_publ_section_title
;
Structure prediction by ZEFSAII (Michael W. Deem and Ramdas Pophale) SiO2 
 PCOD8080104
Probable space group: C 2/M
;
_chemical_formula_sum "Si O2"
_cell_formula_units_Z 56
_cell_length_a 16.364994
_cell_length_b 26.768747
_cell_length_c 8.448987
_cell_angle_alpha 90.000000
_cell_angle_beta 58.487768
_cell_angle_gamma 90.000000
_cell_volume 3155.422306
_symmetry_space_group_name_H-M "C 2/M"
_symmetry_group_IT_number 12
_symmetry_cell_setting 'monoclinic'
loop_
_space_group_symop_operation_xyz
x,y,z
-x,y,-z
-x,-y,-z
x,-y,z
1/2+x,1/2+y,z
1/2-x,1/2+y,-z
1/2-x,1/2-y,-z
1/2+x,1/2-y,z
loop_
_atom_site_type_symbol
_atom_site_label
_atom_site_fract_x
_atom_site_fract_y
_atom_site_fract_z
Si Si1 0.456925 0.597768 0.886211
Si Si2 0.171747 0.728426 0.701636
Si Si3 0.480423 0.212713 0.703552
Si Si4 0.218078 0.942767 0.121642
Si Si5 0.865078 0.797582 0.966821
Si Si6 0.186407 0.341252 0.970566
Si Si7 0.585800 0.552996 0.529561
O O1 0.367565 0.564643 0.917714
O O2 0.427492 0.654294 0.939828
O O3 0.550322 0.597314 0.677835
O O4 0.500000 0.573628 0.000000
O O5 0.250000 0.750000 0.500000
O O6 0.080255 0.714397 0.692153
O O7 0.147123 0.770823 0.853441
O O8 0.199737 0.678603 0.775422
O O9 0.500000 0.201110 0.500000
O O10 0.422482 0.264442 0.781050
O O11 0.418141 0.169216 0.850480
O O12 0.179435 0.931354 0.337036
O O13 0.256716 0.000000 0.065784
O O14 0.300510 0.901082 0.020936
O O15 0.762551 0.810987 0.998715
O O16 0.500000 0.541463 0.500000
O O17 0.606157 0.500000 0.598893
#
# Coordination Sequence:
#
# PCOD8080104 Si02
#       7
#     8   8   8   8   8   8   8
#     4  10  18  27  45  73 106 139 173 211 255 307
#     4  11  21  35  55  78 106 137 171 213 260 313
#     4  11  21  35  54  75 104 137 168 207 259 314
#     4   9  19  34  51  70  97 136 179 222 261 302
#     4  10  20  33  48  77 111 139 172 205 247 311
#     4  10  20  35  54  77 105 136 174 214 256 306
#     4   8  15  28  43  62  90 126 166 203 244 294
#
# _framework density 17.747228
#
# number of rings (size 3 to 8) (size 9 to 14) (size 15 to 20)
#    0.000    2.143    0.000    7.286    0.000    6.286 
#    0.000    0.000    0.000    2.143    0.000    0.000 
#    0.000    0.000    0.000    0.000    0.000    0.000 
#
# Total GULP energy -346867.660434 kJ/mol
# GULP energy per Si atom -12388.130730 kJ/mol
# Density = 1.770683 g / cm^3
# Si number density = 17.747228 Si / 1000 Ang^3
#
#
#
# Elastic Constant Matrix: (Units=GPa)
#
#
# Indices 1 2 3 4 5 6 
#
# 1 102.6110 47.6760 49.7686 0.0000 0.5948 0.0000
# 2 47.6760 111.2619 46.3608 0.0000 0.1133 0.0000
# 3 49.7686 46.3608 115.0451 0.0000 2.7730 0.0000
# 4 0.0000 0.0000 0.0000 24.9687 0.0000 -2.8155
# 5 0.5948 0.1133 2.7730 0.0000 27.0367 0.0000
# 6 0.0000 0.0000 0.0000 -2.8155 0.0000 7.8619
#
#
#
# Elastic Compliance Matrix: (Units=1/GPa)
#
#
# Indices 1 2 3 4 5 6 
#
# 1 0.013729 -0.004094 -0.004293 0.000000 0.000155 0.000000
# 2 -0.004094 0.012027 -0.003084 0.000000 0.000356 0.000000
# 3 -0.004293 -0.003084 0.011819 0.000000 -0.001105 0.000000
# 4 0.000000 0.000000 0.000000 0.041735 0.000000 0.014946
# 5 0.000155 0.000356 -0.001105 0.000000 0.037095 0.000000
# 6 0.000000 0.000000 0.000000 0.014946 0.000000 0.132548
#
#
# Mechanical properties :
#
#
# Convention : Reuss Voigt Hill
#
# Bulk Modulus (GPa) = 68.34236 68.50320 68.42278
# Shear Modulus (GPa) = 18.06530 24.31431 21.18981
#
# Velocity S-wave (km/s) = 3.19395 3.70541 3.45915
# Velocity P-wave (km/s) = 7.22455 7.54917 7.38864
#
# Compressibility (1/GPa) = 0.01463221
#
# Stress axis : x y z
#
# Youngs Moduli (GPa) = 72.83740 83.14698 84.61058
#
# Poissons Ratio (x) = 0.34043 0.36324
# Poissons Ratio (y) = 0.29822 0.26094
# Poissons Ratio (z) = 0.31270 0.25642
#
# Static dielectric constant tensor:
#      x y z
#    x 3.265420 0.000000 0.197090 
#    y 0.000000 3.271330 0.000000 
#    z 0.197090 0.000000 4.285540 
# 
# 
# High freq. dielectric constant tensor:
#      x y z
#    x 1.673890 0.000000 0.008400 
#    y 0.000000 1.679270 0.000000 
#    z 0.008400 0.000000 1.683270 
# 
# From -- ./inp_files/66843.got.cif
#   From: 2010.06.25/outbox.cif.g09.slc.cpg/sg12_34_cif.got.tgz:66843.got - 2010.06.28 00:19:55.
