data_PCOD8080551
_publ_section_title
;
Structure prediction by ZEFSAII (Michael W. Deem and Ramdas Pophale) SiO2 
 PCOD8080551
Probable space group: C 2/M
;
_chemical_formula_sum "Si O2"
_cell_formula_units_Z 56
_cell_length_a 8.993330
_cell_length_b 30.416322
_cell_length_c 15.130343
_cell_angle_alpha 90.000000
_cell_angle_beta 138.304978
_cell_angle_gamma 90.000000
_cell_volume 2752.996786
_symmetry_space_group_name_H-M "C 2/M"
_symmetry_group_IT_number 12
_symmetry_cell_setting 'monoclinic'
loop_
_space_group_symop_operation_xyz
x,y,z
-x,y,-z
-x,-y,-z
x,-y,z
1/2+x,1/2+y,z
1/2-x,1/2+y,-z
1/2-x,1/2-y,-z
1/2+x,1/2-y,z
loop_
_atom_site_type_symbol
_atom_site_label
_atom_site_fract_x
_atom_site_fract_y
_atom_site_fract_z
Si Si1 0.551380 0.396529 0.713374
Si Si2 0.275541 0.049617 0.956559
Si Si3 0.784879 0.951085 0.466402
Si Si4 0.777361 0.746348 0.318372
Si Si5 0.007535 0.401814 0.208308
Si Si6 0.031602 0.689379 0.735842
Si Si7 0.335987 0.308556 0.570839
O O1 0.602117 0.417646 0.831405
O O2 0.353613 0.425763 0.585033
O O3 0.772928 0.394037 0.752744
O O4 0.456680 0.347437 0.678240
O O5 0.177728 0.000000 0.922098
O O6 0.500000 0.047252 0.000000
O O7 0.325649 0.069273 0.075396
O O8 0.575515 0.927782 0.326682
O O9 0.000000 0.952389 0.500000
O O10 0.709091 0.000000 0.458423
O O11 0.553657 0.776066 0.227139
O O12 0.804777 0.719386 0.421539
O O13 0.767334 0.712464 0.230395
O O14 0.986860 0.778080 0.399388
O O15 0.891915 0.355320 0.182194
O O16 0.830767 0.675266 0.579868
#
# Coordination Sequence:
#
# PCOD8080551 Si02
#       7
#     8   8   8   8   8   8   8
#     4  10  18  28  48  72 104 134 169 211 250 306
#     4   9  18  32  48  72 104 141 172 203 257 313
#     4   9  16  26  42  70 100 127 160 213 263 295
#     4  10  21  30  50  75 108 139 172 211 254 303
#     4  10  18  28  48  72 104 134 169 211 250 306
#     4  11  18  31  48  77 106 138 171 210 254 302
#     4  11  18  31  48  77 106 138 171 210 254 302
#
# _framework density 20.341467999999999
#
# number of rings (size 3 to 8) (size 9 to 14) (size 15 to 20)
#    0.000    2.000    2.857    4.286    0.000    3.429 
#    0.000    0.000    0.000    6.000    0.000    6.000 
#    0.000    0.000    0.000    0.000    0.000    0.000 
#
# Total GULP energy -347082.011918 kJ/mol
# GULP energy per Si atom -12395.786140 kJ/mol
# Density = 2.029517 g / cm^3
# Si number density = 20.341468 Si / 1000 Ang^3
#
#
#
# Elastic Constant Matrix: (Units=GPa)
#
#
# Indices 1 2 3 4 5 6 
#
# 1 58.4856 33.6384 11.1907 0.0000 -11.9883 0.0000
# 2 33.6384 169.2416 63.3867 0.0000 -12.7261 0.0000
# 3 11.1907 63.3867 107.4140 0.0000 -16.5877 0.0000
# 4 0.0000 0.0000 0.0000 34.4974 0.0000 -11.6972
# 5 -11.9883 -12.7261 -16.5877 0.0000 12.1773 0.0000
# 6 0.0000 0.0000 0.0000 -11.6972 0.0000 18.5379
#
#
#
# Elastic Compliance Matrix: (Units=1/GPa)
#
#
# Indices 1 2 3 4 5 6 
#
# 1 0.023804 -0.004345 0.003801 0.000000 0.024072 0.000000
# 2 -0.004345 0.008430 -0.004840 0.000000 -0.002061 0.000000
# 3 0.003801 -0.004840 0.014648 0.000000 0.018638 0.000000
# 4 0.000000 0.000000 0.000000 0.036878 0.000000 0.023269
# 5 0.024072 -0.002061 0.018638 0.000000 0.129052 0.000000
# 6 0.000000 0.000000 0.000000 0.023269 0.000000 0.068626
#
#
# Mechanical properties :
#
#
# Convention : Reuss Voigt Hill
#
# Bulk Modulus (GPa) = 27.68940 61.28588 44.48764
# Shear Modulus (GPa) = 16.43412 28.17090 22.30251
#
# Velocity S-wave (km/s) = 2.84546 3.72546 3.31479
# Velocity P-wave (km/s) = 4.94342 6.97849 6.04718
#
# Compressibility (1/GPa) = 0.03611490
#
# Stress axis : x y z
#
# Youngs Moduli (GPa) = 42.00937 118.62051 68.26740
#
# Poissons Ratio (x) = 0.51541 -0.25952
# Poissons Ratio (y) = 0.18253 0.33044
# Poissons Ratio (z) = -0.15970 0.57417
#
# Static dielectric constant tensor:
#      x y z
#    x 3.438270 0.000000 -0.233280 
#    y 0.000000 3.985200 0.000000 
#    z -0.233280 0.000000 3.432250 
# 
# 
# High freq. dielectric constant tensor:
#      x y z
#    x 1.753950 0.000000 -0.018630 
#    y 0.000000 1.814650 0.000000 
#    z -0.018630 0.000000 1.760070 
# 
# From -- ./inp_files/200833.got.cif
#   From: 2010.06.25/outbox.cif.g09.slc.cpg/sg12_101_cif.got.tgz:200833.got - 2010.06.28 00:19:55.
