data_PCOD8080983
_publ_section_title
;
Structure prediction by ZEFSAII (Michael W. Deem and Ramdas Pophale) SiO2 
 PCOD8080983
Probable space group: C 2/M
;
_chemical_formula_sum "Si O2"
_cell_formula_units_Z 48
_cell_length_a 19.606070
_cell_length_b 8.843772
_cell_length_c 18.468741
_cell_angle_alpha 90.000000
_cell_angle_beta 58.283547
_cell_angle_gamma 90.000000
_cell_volume 2724.090184
_symmetry_space_group_name_H-M "C 2/M"
_symmetry_group_IT_number 12
_symmetry_cell_setting 'monoclinic'
loop_
_space_group_symop_operation_xyz
x,y,z
-x,y,-z
-x,-y,-z
x,-y,z
1/2+x,1/2+y,z
1/2-x,1/2+y,-z
1/2-x,1/2-y,-z
1/2+x,1/2-y,z
loop_
_atom_site_type_symbol
_atom_site_label
_atom_site_fract_x
_atom_site_fract_y
_atom_site_fract_z
Si Si1 0.084648 0.679042 0.421133
Si Si2 0.732986 0.172036 0.434669
Si Si3 0.811414 0.172529 0.250574
Si Si4 0.828472 0.823237 0.751410
Si Si5 0.084638 0.825371 0.932795
Si Si6 0.243594 0.179874 0.925097
O O1 0.088340 0.500000 0.408341
O O2 0.153869 0.734737 0.438143
O O3 0.096457 0.755672 0.335674
O O4 0.000000 0.733294 0.500000
O O5 0.750000 0.250000 0.500000
O O6 0.810750 0.193441 0.337998
O O7 0.718030 0.000000 0.462768
O O8 0.750558 0.292662 0.251469
O O9 0.897509 0.198160 0.163646
O O10 0.781658 0.000000 0.248910
O O11 0.817538 0.741826 0.835297
O O12 0.841690 0.000000 0.756729
O O13 0.159350 0.762043 0.937525
O O14 0.076370 0.000000 0.957428
O O15 0.000000 0.743930 0.000000
O O16 0.248708 0.000000 0.925895
O O17 0.250000 0.250000 0.000000
#
# Coordination Sequence:
#
# PCOD8080983 Si02
#       6
#     8   8   8   8   8   8
#     4   9  18  34  53  70  93 127 162 195 236 286
#     4   9  17  29  46  68  93 122 155 190 231 278
#     4   8  15  29  47  66  90 123 158 189 229 283
#     4  10  18  29  48  72  96 123 159 199 237 282
#     4   8  14  27  49  72  91 116 153 194 234 277
#     4  10  19  32  50  71  98 129 161 197 237 284
#
# _framework density 17.620560999999999
#
# number of rings (size 3 to 8) (size 9 to 14) (size 15 to 20)
#    0.000    3.000    0.000    4.000    0.000    3.000 
#    0.000    1.667    0.000   14.500    0.000    0.000 
#    0.000    0.000    0.000    0.000    0.000    0.000 
#
# Total GULP energy -297322.752541 kJ/mol
# GULP energy per Si atom -12388.448023 kJ/mol
# Density = 1.758046 g / cm^3
# Si number density = 17.620561 Si / 1000 Ang^3
#
#
#
# Elastic Constant Matrix: (Units=GPa)
#
#
# Indices 1 2 3 4 5 6 
#
# 1 60.3529 21.7011 71.7981 0.0000 -3.9194 -0.0001
# 2 21.7011 64.0929 51.9059 -0.0001 2.9735 0.0005
# 3 71.7981 51.9059 202.3788 0.0000 -4.6722 -0.0002
# 4 0.0000 -0.0001 0.0000 29.9073 0.0000 7.3968
# 5 -3.9194 2.9735 -4.6722 0.0000 35.0242 0.0000
# 6 -0.0001 0.0005 -0.0002 7.3968 0.0000 16.1318
#
#
#
# Elastic Compliance Matrix: (Units=1/GPa)
#
#
# Indices 1 2 3 4 5 6 
#
# 1 0.029000 -0.002051 -0.009713 0.000000 0.002124 0.000000
# 2 -0.002051 0.020033 -0.004469 0.000000 -0.002526 -0.000001
# 3 -0.009713 -0.004469 0.009546 0.000000 0.000566 0.000000
# 4 0.000000 0.000000 0.000000 0.037713 0.000000 -0.017292
# 5 0.002124 -0.002526 0.000566 0.000000 0.029079 0.000000
# 6 0.000000 -0.000001 0.000000 -0.017292 0.000000 0.069918
#
#
# Mechanical properties :
#
#
# Convention : Reuss Voigt Hill
#
# Bulk Modulus (GPa) = 38.29501 68.62609 53.46055
# Shear Modulus (GPa) = 21.14516 28.30731 24.72624
#
# Velocity S-wave (km/s) = 3.46790 4.01246 3.75008
# Velocity P-wave (km/s) = 6.14942 7.77802 7.01117
#
# Compressibility (1/GPa) = 0.02611306
#
# Stress axis : x y z
#
# Youngs Moduli (GPa) = 34.48299 49.91743 104.75214
#
# Poissons Ratio (x) = 0.10240 1.01747
# Poissons Ratio (y) = 0.07073 0.46810
# Poissons Ratio (z) = 0.33494 0.22306
#
# Static dielectric constant tensor:
#      x y z
#    x 3.033220 0.000000 -0.192580 
#    y 0.000000 3.037810 0.000000 
#    z -0.192580 0.000000 3.762170 
# 
# 
# High freq. dielectric constant tensor:
#      x y z
#    x 1.629430 0.000000 -0.005750 
#    y 0.000000 1.661650 0.000000 
#    z -0.005750 0.000000 1.708740 
# 
# From -- ./inp_files/280053.got.cif
#   From: 2010.06.25/outbox.cif.g09.slc.cpg/sg12_141_cif.got.tgz:280053.got - 2010.06.28 00:19:55.
