data_PCOD8080355
_publ_section_title
;
Structure prediction by ZEFSAII (Michael W. Deem and Ramdas Pophale) SiO2 
 PCOD8080355
Probable space group: C 2/M
;
_chemical_formula_sum "Si O2"
_cell_formula_units_Z 56
_cell_length_a 31.845970
_cell_length_b 8.994287
_cell_length_c 13.417669
_cell_angle_alpha 90.000000
_cell_angle_beta 114.578741
_cell_angle_gamma 90.000000
_cell_volume 3495.012325
_symmetry_space_group_name_H-M "C 2/M"
_symmetry_group_IT_number 12
_symmetry_cell_setting 'monoclinic'
loop_
_space_group_symop_operation_xyz
x,y,z
-x,y,-z
-x,-y,-z
x,-y,z
1/2+x,1/2+y,z
1/2-x,1/2+y,-z
1/2-x,1/2-y,-z
1/2+x,1/2-y,z
loop_
_atom_site_type_symbol
_atom_site_label
_atom_site_fract_x
_atom_site_fract_y
_atom_site_fract_z
Si Si1 0.774993 0.672728 0.376911
Si Si2 0.494733 0.163849 0.877020
Si Si3 0.183150 0.171187 0.402146
Si Si4 0.181318 0.827253 0.978057
Si Si5 0.096054 0.323907 0.978292
Si Si6 0.594354 0.673091 0.187589
Si Si7 0.263018 0.672816 0.163921
O O1 0.783067 0.500000 0.363603
O O2 0.811501 0.726663 0.495493
O O3 0.723139 0.707132 0.362070
O O4 0.784638 0.763685 0.286117
O O5 0.544807 0.217410 0.886178
O O6 0.453942 0.277592 0.808610
O O7 0.482339 0.000000 0.822544
O O8 0.500000 0.154018 0.000000
O O9 0.134385 0.210152 0.305141
O O10 0.186175 0.000000 0.438586
O O11 0.131898 0.748324 0.937021
O O12 0.199483 0.798835 0.884950
O O13 0.176269 0.000000 0.998337
O O14 0.215799 0.758159 0.093196
O O15 0.102713 0.500000 0.989304
O O16 0.104629 0.261685 0.097160
O O17 0.592176 0.500000 0.159202
O O18 0.251256 0.500000 0.163742
#
# Coordination Sequence:
#
# PCOD8080355 Si02
#       7
#     8   8   8   8   8   8   8
#     4  10  19  31  48  67  89 119 153 187 219 259
#     4   8  16  29  42  61  90 120 150 183 222 269
#     4   9  19  32  44  64  92 119 150 185 222 263
#     4  10  20  32  47  68  91 118 154 187 217 263
#     4  10  19  30  45  65  92 124 152 184 226 267
#     4  10  18  28  45  67  92 122 153 187 224 265
#     4  10  20  33  48  66  92 122 148 183 227 264
#
# _framework density 16.022832999999999
#
# number of rings (size 3 to 8) (size 9 to 14) (size 15 to 20)
#    0.000    2.429    0.000    3.857    0.000    7.714 
#    0.000    0.000    0.000    0.000    0.000    1.000 
#    0.000    8.000    0.000    0.000    0.000    0.000 
#
# Total GULP energy -347221.467269 kJ/mol
# GULP energy per Si atom -12400.766688 kJ/mol
# Density = 1.598636 g / cm^3
# Si number density = 16.022833 Si / 1000 Ang^3
#
#
#
# Elastic Constant Matrix: (Units=GPa)
#
#
# Indices 1 2 3 4 5 6 
#
# 1 106.3028 54.8605 40.8460 0.0000 13.9413 0.0000
# 2 54.8605 95.1504 47.5981 0.0000 5.0531 0.0000
# 3 40.8460 47.5981 77.3555 0.0000 4.8938 0.0000
# 4 0.0000 0.0000 0.0000 26.9166 0.0000 1.8606
# 5 13.9413 5.0531 4.8938 0.0000 21.0485 0.0000
# 6 0.0000 0.0000 0.0000 1.8606 0.0000 29.2461
#
#
#
# Elastic Compliance Matrix: (Units=1/GPa)
#
#
# Indices 1 2 3 4 5 6 
#
# 1 0.015140 -0.006597 -0.003452 0.000000 -0.007642 0.000000
# 2 -0.006597 0.018104 -0.007772 0.000000 0.001830 0.000000
# 3 -0.003452 -0.007772 0.019557 0.000000 -0.000395 0.000000
# 4 0.000000 0.000000 0.000000 0.037316 0.000000 -0.002374
# 5 -0.007642 0.001830 -0.000395 0.000000 0.052223 0.000000
# 6 0.000000 0.000000 0.000000 -0.002374 0.000000 0.034344
#
#
# Mechanical properties :
#
#
# Convention : Reuss Voigt Hill
#
# Bulk Modulus (GPa) = 58.27571 62.82421 60.54996
# Shear Modulus (GPa) = 22.93105 24.47586 23.70345
#
# Velocity S-wave (km/s) = 3.78716 3.91264 3.85041
# Velocity P-wave (km/s) = 7.45472 7.72697 7.59206
#
# Compressibility (1/GPa) = 0.01715981
#
# Stress axis : x y z
#
# Youngs Moduli (GPa) = 66.05021 55.23704 51.13170
#
# Poissons Ratio (x) = 0.36438 0.17650
# Poissons Ratio (y) = 0.43571 0.39740
# Poissons Ratio (z) = 0.22800 0.42931
#
# Static dielectric constant tensor:
#      x y z
#    x 3.268020 0.000000 0.120680 
#    y 0.000000 3.163120 0.000000 
#    z 0.120680 0.000000 2.768670 
# 
# 
# High freq. dielectric constant tensor:
#      x y z
#    x 1.610160 0.000000 0.009580 
#    y 0.000000 1.631860 0.000000 
#    z 0.009580 0.000000 1.583940 
# 
# From -- ./inp_files/186849.got.cif
#   From: 2010.06.25/outbox.cif.g09.slc.cpg/sg12_94_cif.got.tgz:186849.got - 2010.06.28 00:19:55.
