data_PCOD8080482
_publ_section_title
;
Structure prediction by ZEFSAII (Michael W. Deem and Ramdas Pophale) SiO2 
 PCOD8080482
Probable space group: C 2/M
;
_chemical_formula_sum "Si O2"
_cell_formula_units_Z 56
_cell_length_a 26.467688
_cell_length_b 8.970126
_cell_length_c 13.244859
_cell_angle_alpha 90.000000
_cell_angle_beta 61.331898
_cell_angle_gamma 90.000000
_cell_volume 2759.091748
_symmetry_space_group_name_H-M "C 2/M"
_symmetry_group_IT_number 12
_symmetry_cell_setting 'monoclinic'
loop_
_space_group_symop_operation_xyz
x,y,z
-x,y,-z
-x,-y,-z
x,-y,z
1/2+x,1/2+y,z
1/2-x,1/2+y,-z
1/2-x,1/2-y,-z
1/2+x,1/2-y,z
loop_
_atom_site_type_symbol
_atom_site_label
_atom_site_fract_x
_atom_site_fract_y
_atom_site_fract_z
Si Si1 0.836015 0.173214 0.768257
Si Si2 0.226403 0.330839 0.768701
Si Si3 0.127614 0.826445 0.765514
Si Si4 0.029611 0.323642 0.761658
Si Si5 0.837134 0.328240 0.963408
Si Si6 0.063606 0.826164 0.033040
Si Si7 0.968161 0.172717 0.634065
O O1 0.795061 0.204282 0.709148
O O2 0.809874 0.271962 0.884792
O O3 0.901529 0.218231 0.680698
O O4 0.830091 0.000000 0.804069
O O5 0.214320 0.500000 0.747118
O O6 0.193506 0.228383 0.718352
O O7 0.205070 0.300970 0.903094
O O8 0.095054 0.740735 0.705763
O O9 0.128741 0.000000 0.739495
O O10 0.092967 0.784913 0.899819
O O11 0.031567 0.500000 0.763072
O O12 0.996333 0.260216 0.892638
O O13 0.998501 0.270675 0.690209
O O14 0.855776 0.500000 0.937728
O O15 0.894236 0.226440 0.918239
O O16 0.050020 0.000000 0.055264
O O17 0.000000 0.207778 0.500000
O O18 0.973707 0.000000 0.660018
#
# Coordination Sequence:
#
# PCOD8080482 Si02
#       7
#     8   8   8   8   8   8   8
#     4  10  19  33  54  76 106 145 180 223 275 325
#     4   9  19  33  49  76 112 147 182 218 263 321
#     4  10  21  35  53  78 110 149 186 220 262 321
#     4  12  23  35  55  80 109 143 179 228 279 324
#     4  10  18  28  46  75 110 145 182 220 263 318
#     4  10  19  32  50  75 109 147 186 221 263 322
#     4  10  22  40  61  83 107 140 184 231 279 329
#
# _framework density 20.296534999999999
#
# number of rings (size 3 to 8) (size 9 to 14) (size 15 to 20)
#    0.000    1.857    1.429    3.429    0.000    4.857 
#    0.000    0.000    0.000    0.857    0.000    0.000 
#    0.000    0.000    0.000    0.000    0.000    0.000 
#
# Total GULP energy -347124.904808 kJ/mol
# GULP energy per Si atom -12397.318029 kJ/mol
# Density = 2.025034 g / cm^3
# Si number density = 20.296535 Si / 1000 Ang^3
#
#
#
# Elastic Constant Matrix: (Units=GPa)
#
#
# Indices 1 2 3 4 5 6 
#
# 1 169.2429 66.9015 20.2145 0.0000 -10.3763 0.0000
# 2 66.9015 106.8532 17.7310 0.0000 -2.2638 0.0000
# 3 20.2145 17.7310 31.9451 0.0000 -5.2622 0.0000
# 4 0.0000 0.0000 0.0000 14.4169 0.0000 1.6513
# 5 -10.3763 -2.2638 -5.2622 0.0000 11.5220 0.0000
# 6 0.0000 0.0000 0.0000 1.6513 0.0000 33.5543
#
#
#
# Elastic Compliance Matrix: (Units=1/GPa)
#
#
# Indices 1 2 3 4 5 6 
#
# 1 0.008381 -0.004850 -0.001649 0.000000 0.005841 0.000000
# 2 -0.004850 0.013119 -0.004874 0.000000 -0.004016 0.000000
# 3 -0.001649 -0.004874 0.037469 0.000000 0.014670 0.000000
# 4 0.000000 0.000000 0.000000 0.069756 0.000000 -0.003433
# 5 0.005841 -0.004016 0.014670 0.000000 0.097962 0.000000
# 6 0.000000 0.000000 0.000000 -0.003433 0.000000 0.029971
#
#
# Mechanical properties :
#
#
# Convention : Reuss Voigt Hill
#
# Bulk Modulus (GPa) = 27.60719 57.52611 42.56665
# Shear Modulus (GPa) = 17.15386 25.44491 21.29938
#
# Velocity S-wave (km/s) = 2.91032 3.54454 3.24297
# Velocity P-wave (km/s) = 4.99247 6.71983 5.91949
#
# Compressibility (1/GPa) = 0.03622245
#
# Stress axis : x y z
#
# Youngs Moduli (GPa) = 119.31797 76.22562 26.68859
#
# Poissons Ratio (x) = 0.36969 0.04401
# Poissons Ratio (y) = 0.57869 0.13009
# Poissons Ratio (z) = 0.19678 0.37154
#
# Static dielectric constant tensor:
#      x y z
#    x 4.089870 0.000000 -0.146600 
#    y 0.000000 3.569580 0.000000 
#    z -0.146600 0.000000 3.222800 
# 
# 
# High freq. dielectric constant tensor:
#      x y z
#    x 1.817700 0.000000 -0.004600 
#    y 0.000000 1.789040 0.000000 
#    z -0.004600 0.000000 1.735130 
# 
# From -- ./inp_files/243614.got.cif
#   From: 2010.06.25/outbox.cif.g09.slc.cpg/sg12_122_cif.got.tgz:243614.got - 2010.06.28 00:19:55.
