data_PCOD8080358
_publ_section_title
;
Structure prediction by ZEFSAII (Michael W. Deem and Ramdas Pophale) SiO2 
 PCOD8080358
Probable space group: C 2/M
;
_chemical_formula_sum "Si O2"
_cell_formula_units_Z 48
_cell_length_a 28.859797
_cell_length_b 8.571436
_cell_length_c 12.153682
_cell_angle_alpha 90.000000
_cell_angle_beta 110.029602
_cell_angle_gamma 90.000000
_cell_volume 2824.612073
_symmetry_space_group_name_H-M "C 2/M"
_symmetry_group_IT_number 12
_symmetry_cell_setting 'monoclinic'
loop_
_space_group_symop_operation_xyz
x,y,z
-x,y,-z
-x,-y,-z
x,-y,z
1/2+x,1/2+y,z
1/2-x,1/2+y,-z
1/2-x,1/2-y,-z
1/2+x,1/2-y,z
loop_
_atom_site_type_symbol
_atom_site_label
_atom_site_fract_x
_atom_site_fract_y
_atom_site_fract_z
Si Si1 0.234496 0.818550 0.601679
Si Si2 0.427630 0.819369 0.949160
Si Si3 0.500874 0.680762 0.837057
Si Si4 0.473072 0.181601 0.589191
Si Si5 0.661987 0.182704 0.261521
Si Si6 0.368924 0.317259 0.533202
O O1 0.250000 0.750000 0.500000
O O2 0.280092 0.778155 0.721591
O O3 0.178276 0.763167 0.582160
O O4 0.229940 0.000000 0.580471
O O5 0.460953 0.782952 0.869785
O O6 0.371073 0.776886 0.872191
O O7 0.433171 0.000000 0.983689
O O8 0.444949 0.719368 0.068935
O O9 0.488860 0.500000 0.844788
O O10 0.498792 0.721855 0.707442
O O11 0.500000 0.233203 0.500000
O O12 0.415409 0.219570 0.529957
O O13 0.480165 0.000000 0.619376
O O14 0.642843 0.282768 0.348832
O O15 0.656161 0.000000 0.287430
O O16 0.381013 0.500000 0.531098
#
# Coordination Sequence:
#
# PCOD8080358 Si02
#       6
#     8   8   8   8   8   8
#     4   8  15  26  40  64  93 123 153 183 225 274
#     4  10  18  29  48  70  97 130 159 187 226 279
#     4  11  21  32  47  68  95 123 156 198 239 279
#     4  11  23  37  51  66  89 124 164 200 237 285
#     4   9  16  27  45  67  96 129 157 183 221 278
#     4  10  18  28  45  67  95 123 153 195 235 275
#
# _framework density 16.993483000000001
#
# number of rings (size 3 to 8) (size 9 to 14) (size 15 to 20)
#    0.000    2.167    1.667    4.000    0.000    2.667 
#    0.000    0.000    0.000    0.000    0.000    1.167 
#    0.000    0.000    0.000    0.000    0.000    0.000 
#
# Total GULP energy -297336.088384 kJ/mol
# GULP energy per Si atom -12389.003683 kJ/mol
# Density = 1.695480 g / cm^3
# Si number density = 16.993483 Si / 1000 Ang^3
#
#
#
# Elastic Constant Matrix: (Units=GPa)
#
#
# Indices 1 2 3 4 5 6 
#
# 1 94.7379 14.6546 61.9224 0.0000 28.6099 0.0000
# 2 14.6546 33.6191 18.0698 0.0000 3.8783 0.0000
# 3 61.9224 18.0698 92.7799 0.0000 27.8929 0.0000
# 4 0.0000 0.0000 0.0000 20.6918 0.0000 5.3970
# 5 28.6099 3.8783 27.8929 0.0000 34.8926 0.0000
# 6 0.0000 0.0000 0.0000 5.3970 0.0000 16.6626
#
#
#
# Elastic Compliance Matrix: (Units=1/GPa)
#
#
# Indices 1 2 3 4 5 6 
#
# 1 0.020282 -0.002150 -0.010781 0.000000 -0.007773 0.000000
# 2 -0.002150 0.033552 -0.005935 0.000000 0.002778 0.000000
# 3 -0.010781 -0.005935 0.021422 0.000000 -0.007625 0.000000
# 4 0.000000 0.000000 0.000000 0.052788 0.000000 -0.017098
# 5 -0.007773 0.002778 -0.007625 0.000000 0.040819 0.000000
# 6 0.000000 0.000000 0.000000 -0.017098 0.000000 0.065553
#
#
# Mechanical properties :
#
#
# Convention : Reuss Voigt Hill
#
# Bulk Modulus (GPa) = 26.64937 45.60341 36.12639
# Shear Modulus (GPa) = 17.56518 22.88207 20.22362
#
# Velocity S-wave (km/s) = 3.21852 3.67348 3.45350
# Velocity P-wave (km/s) = 5.43396 6.69975 6.09978
#
# Compressibility (1/GPa) = 0.03752433
#
# Stress axis : x y z
#
# Youngs Moduli (GPa) = 49.30506 29.80488 46.68158
#
# Poissons Ratio (x) = 0.06407 0.50327
# Poissons Ratio (y) = 0.10599 0.27705
# Poissons Ratio (z) = 0.53155 0.17689
#
# Static dielectric constant tensor:
#      x y z
#    x 3.467980 0.000000 0.719410 
#    y 0.000000 3.290320 0.000000 
#    z 0.719410 0.000000 3.278170 
# 
# 
# High freq. dielectric constant tensor:
#      x y z
#    x 1.634620 0.000000 0.053780 
#    y 0.000000 1.664900 0.000000 
#    z 0.053780 0.000000 1.629000 
# 
# From -- ./inp_files/185951.got.cif
#   From: 2010.06.25/outbox.cif.g09.slc.cpg/sg12_93_cif.got.tgz:185951.got - 2010.06.28 00:19:55.
