data_PCOD8080913
_publ_section_title
;
Structure prediction by ZEFSAII (Michael W. Deem and Ramdas Pophale) SiO2 
 PCOD8080913
Probable space group: C 2/M
;
_chemical_formula_sum "Si O2"
_cell_formula_units_Z 48
_cell_length_a 27.939692
_cell_length_b 8.576926
_cell_length_c 21.440091
_cell_angle_alpha 90.000000
_cell_angle_beta 32.248382
_cell_angle_gamma 90.000000
_cell_volume 2741.499043
_symmetry_space_group_name_H-M "C 2/M"
_symmetry_group_IT_number 12
_symmetry_cell_setting 'monoclinic'
loop_
_space_group_symop_operation_xyz
x,y,z
-x,y,-z
-x,-y,-z
x,-y,z
1/2+x,1/2+y,z
1/2-x,1/2+y,-z
1/2-x,1/2-y,-z
1/2+x,1/2-y,z
loop_
_atom_site_type_symbol
_atom_site_label
_atom_site_fract_x
_atom_site_fract_y
_atom_site_fract_z
Si Si1 0.291310 0.180776 0.754869
Si Si2 0.137272 0.319815 0.461780
Si Si3 0.422531 0.317145 0.161851
Si Si4 0.035863 0.824157 0.390627
Si Si5 0.228342 0.682786 0.590832
Si Si6 0.106969 0.682285 0.939124
O O1 0.319810 0.213710 0.652616
O O2 0.366809 0.243628 0.719068
O O3 0.199310 0.270924 0.870932
O O4 0.276495 0.000000 0.783937
O O5 0.146103 0.500000 0.470680
O O6 0.188620 0.215484 0.455143
O O7 0.032745 0.271289 0.577350
O O8 0.413086 0.500000 0.159484
O O9 0.361752 0.267656 0.286772
O O10 0.387746 0.227057 0.139295
O O11 0.525569 0.273218 0.062407
O O12 0.000000 0.820682 0.500000
O O13 0.043638 0.000000 0.357001
O O14 0.210496 0.500000 0.606655
O O15 0.250000 0.750000 0.500000
O O16 0.089751 0.500000 0.964923
#
# Coordination Sequence:
#
# PCOD8080913 Si02
#       6
#     8   8   8   8   8   8
#     4  10  18  29  47  72 103 136 169 205 253 307
#     4  10  19  32  49  70 100 134 170 210 255 302
#     4  11  21  35  51  72 101 134 171 211 256 305
#     4   9  17  28  44  68  99 132 168 206 250 303
#     4  12  24  38  55  75 101 135 176 216 256 302
#     4  11  20  31  50  75 103 136 170 208 255 307
#
# _framework density 17.508669999999999
#
# number of rings (size 3 to 8) (size 9 to 14) (size 15 to 20)
#    0.000    1.500    1.667    7.000    0.000    3.333 
#    0.000    0.000    0.000    0.000    0.000    1.167 
#    0.000    0.000    0.000    0.000    0.000    0.000 
#
# Total GULP energy -297678.217525 kJ/mol
# GULP energy per Si atom -12403.259064 kJ/mol
# Density = 1.746882 g / cm^3
# Si number density = 17.508670 Si / 1000 Ang^3
#
#
#
# Elastic Constant Matrix: (Units=GPa)
#
#
# Indices 1 2 3 4 5 6 
#
# 1 50.1127 24.9019 44.9709 0.0109 -19.8565 -0.0058
# 2 24.9019 90.7531 24.2124 0.0009 -8.1674 -0.0063
# 3 44.9709 24.2124 102.4075 0.0055 -21.2517 -0.0117
# 4 0.0109 0.0009 0.0055 29.4692 -0.0114 -8.3594
# 5 -19.8565 -8.1674 -21.2517 -0.0114 33.6656 0.0077
# 6 -0.0058 -0.0063 -0.0117 -8.3594 0.0077 28.3217
#
#
#
# Elastic Compliance Matrix: (Units=1/GPa)
#
#
# Indices 1 2 3 4 5 6 
#
# 1 0.040750 -0.006322 -0.013499 -0.000008 0.013980 -0.000005
# 2 -0.006322 0.012788 -0.000434 0.000002 -0.000900 0.000002
# 3 -0.013499 -0.000434 0.016250 0.000004 0.002191 0.000004
# 4 -0.000008 0.000002 0.000004 0.037034 0.000008 0.010931
# 5 0.013980 -0.000900 0.002191 0.000008 0.039114 -0.000005
# 6 -0.000005 0.000002 0.000004 0.010931 -0.000005 0.038535
#
#
# Mechanical properties :
#
#
# Convention : Reuss Voigt Hill
#
# Bulk Modulus (GPa) = 34.15514 47.93818 41.04666
# Shear Modulus (GPa) = 21.30009 28.23717 24.76863
#
# Velocity S-wave (km/s) = 3.49168 4.02027 3.76526
# Velocity P-wave (km/s) = 5.98379 6.99923 6.51133
#
# Compressibility (1/GPa) = 0.02927817
#
# Stress axis : x y z
#
# Youngs Moduli (GPa) = 24.54014 78.19593 61.53821
#
# Poissons Ratio (x) = 0.49434 0.83069
# Poissons Ratio (y) = 0.15514 0.02673
# Poissons Ratio (z) = 0.33126 0.03396
#
# Static dielectric constant tensor:
#      x y z
#    x 3.091680 -0.000020 -0.389150 
#    y -0.000020 3.417290 0.000040 
#    z -0.389150 0.000040 3.258330 
# 
# 
# High freq. dielectric constant tensor:
#      x y z
#    x 1.644450 0.000000 -0.043570 
#    y 0.000000 1.699010 0.000000 
#    z -0.043570 0.000000 1.659100 
# 
# From -- ./inp_files/249376.got.cif
#   From: 2010.06.25/outbox.cif.g09.slc.cpg/sg12_125_cif.got.tgz:249376.got - 2010.06.28 00:19:55.
