data_PCOD8080354
_publ_section_title
;
Structure prediction by ZEFSAII (Michael W. Deem and Ramdas Pophale) SiO2 
 PCOD8080354
Probable space group: C 2/M
;
_chemical_formula_sum "Si O2"
_cell_formula_units_Z 56
_cell_length_a 31.764787
_cell_length_b 9.024556
_cell_length_c 13.352974
_cell_angle_alpha 90.000000
_cell_angle_beta 65.981541
_cell_angle_gamma 90.000000
_cell_volume 3496.372016
_symmetry_space_group_name_H-M "C 2/M"
_symmetry_group_IT_number 12
_symmetry_cell_setting 'monoclinic'
loop_
_space_group_symop_operation_xyz
x,y,z
-x,y,-z
-x,-y,-z
x,-y,z
1/2+x,1/2+y,z
1/2-x,1/2+y,-z
1/2-x,1/2-y,-z
1/2+x,1/2-y,z
loop_
_atom_site_type_symbol
_atom_site_label
_atom_site_fract_x
_atom_site_fract_y
_atom_site_fract_z
Si Si1 0.407221 0.826085 0.472677
Si Si2 0.231238 0.328225 0.865727
Si Si3 0.410664 0.171565 0.700869
Si Si4 0.234852 0.827879 0.664278
Si Si5 0.681700 0.327364 0.515187
Si Si6 0.501087 0.666826 0.617930
Si Si7 0.685870 0.171021 0.115415
O O1 0.399883 0.786973 0.596388
O O2 0.367739 0.747688 0.446953
O O3 0.455840 0.763256 0.385572
O O4 0.405662 0.000000 0.453935
O O5 0.234534 0.500000 0.835078
O O6 0.213412 0.238381 0.786600
O O7 0.281741 0.272820 0.848292
O O8 0.194839 0.298221 0.989671
O O9 0.453458 0.263506 0.704008
O O10 0.366691 0.212879 0.810542
O O11 0.423945 0.000000 0.695913
O O12 0.282914 0.746280 0.596334
O O13 0.198180 0.799043 0.612421
O O14 0.245934 0.000000 0.666917
O O15 0.678312 0.500000 0.492801
O O16 0.500000 0.670564 0.500000
O O17 0.505799 0.500000 0.654410
O O18 0.696205 0.000000 0.132684
#
# Coordination Sequence:
#
# PCOD8080354 Si02
#       7
#     8   8   8   8   8   8   8
#     4  10  18  28  45  67  92 121 148 178 220 267
#     4  10  19  30  46  67  91 120 153 188 223 263
#     4   9  17  29  44  63  89 119 149 180 218 264
#     4  10  20  33  47  64  90 121 150 185 226 265
#     4  10  20  32  47  67  89 116 152 188 222 264
#     4   9  17  28  42  62  89 118 148 182 217 257
#     4   9  18  31  46  66  92 121 152 186 225 266
#
# _framework density 16.016603
#
# number of rings (size 3 to 8) (size 9 to 14) (size 15 to 20)
#    0.000    2.429    0.000    3.000    0.000    6.286 
#    0.000    0.000    0.000    0.000    0.000    1.000 
#    0.000    8.000    0.000    0.000    0.000    0.000 
#
# Total GULP energy -347275.055091 kJ/mol
# GULP energy per Si atom -12402.680539 kJ/mol
# Density = 1.598015 g / cm^3
# Si number density = 16.016603 Si / 1000 Ang^3
#
#
#
# Elastic Constant Matrix: (Units=GPa)
#
#
# Indices 1 2 3 4 5 6 
#
# 1 111.8657 61.6100 45.9621 0.0000 -16.6098 0.0000
# 2 61.6100 104.3402 43.7797 0.0000 -3.5596 0.0000
# 3 45.9621 43.7797 78.2587 0.0000 -7.6543 0.0000
# 4 0.0000 0.0000 0.0000 23.5567 0.0000 -0.8373
# 5 -16.6098 -3.5596 -7.6543 0.0000 23.2559 0.0000
# 6 0.0000 0.0000 0.0000 -0.8373 0.0000 32.8376
#
#
#
# Elastic Compliance Matrix: (Units=1/GPa)
#
#
# Indices 1 2 3 4 5 6 
#
# 1 0.016166 -0.007349 -0.004509 0.000000 0.008937 0.000000
# 2 -0.007349 0.015868 -0.004997 0.000000 -0.004465 0.000000
# 3 -0.004509 -0.004997 0.018426 0.000000 0.002079 0.000000
# 4 0.000000 0.000000 0.000000 0.042489 0.000000 0.001083
# 5 0.008937 -0.004465 0.002079 0.000000 0.049384 0.000000
# 6 0.000000 0.000000 0.000000 0.001083 0.000000 0.030481
#
#
# Mechanical properties :
#
#
# Convention : Reuss Voigt Hill
#
# Bulk Modulus (GPa) = 59.70735 66.35202 63.02969
# Shear Modulus (GPa) = 23.57289 25.47090 24.52189
#
# Velocity S-wave (km/s) = 3.84054 3.99216 3.91708
# Velocity P-wave (km/s) = 7.55153 7.92255 7.73926
#
# Compressibility (1/GPa) = 0.01674836
#
# Stress axis : x y z
#
# Youngs Moduli (GPa) = 61.85635 63.02033 54.27221
#
# Poissons Ratio (x) = 0.46313 0.24474
# Poissons Ratio (y) = 0.45457 0.27123
# Poissons Ratio (z) = 0.27894 0.31494
#
# Static dielectric constant tensor:
#      x y z
#    x 2.958170 0.000000 -0.091860 
#    y 0.000000 3.182840 0.000000 
#    z -0.091860 0.000000 2.907090 
# 
# 
# High freq. dielectric constant tensor:
#      x y z
#    x 1.605140 0.000000 -0.010400 
#    y 0.000000 1.632020 0.000000 
#    z -0.010400 0.000000 1.587470 
# 
# From -- ./inp_files/186386.got.cif
#   From: 2010.06.25/outbox.cif.g09.slc.cpg/sg12_94_cif.got.tgz:186386.got - 2010.06.28 00:19:55.
