data_PCOD8080286
_publ_section_title
;
Structure prediction by ZEFSAII (Michael W. Deem and Ramdas Pophale) SiO2 
 PCOD8080286
Probable space group: C 2/M
;
_chemical_formula_sum "Si O2"
_cell_formula_units_Z 56
_cell_length_a 21.023750
_cell_length_b 14.172830
_cell_length_c 12.177646
_cell_angle_alpha 90.000000
_cell_angle_beta 66.976511
_cell_angle_gamma 90.000000
_cell_volume 3339.493259
_symmetry_space_group_name_H-M "C 2/M"
_symmetry_group_IT_number 12
_symmetry_cell_setting 'monoclinic'
loop_
_space_group_symop_operation_xyz
x,y,z
-x,y,-z
-x,-y,-z
x,-y,z
1/2+x,1/2+y,z
1/2-x,1/2+y,-z
1/2-x,1/2-y,-z
1/2+x,1/2-y,z
loop_
_atom_site_type_symbol
_atom_site_label
_atom_site_fract_x
_atom_site_fract_y
_atom_site_fract_z
Si Si1 0.407920 0.204877 0.288640
Si Si2 0.147896 0.897209 0.656417
Si Si3 0.923235 0.736220 0.032659
Si Si4 0.448268 0.887670 0.811321
Si Si5 0.822656 0.895722 0.107161
Si Si6 0.825246 0.388194 0.739869
Si Si7 0.801324 0.390011 0.514764
O O1 0.408675 0.315313 0.325780
O O2 0.394885 0.195542 0.166785
O O3 0.479257 0.156594 0.276463
O O4 0.343053 0.155750 0.387890
O O5 0.163503 0.904566 0.773822
O O6 0.220080 0.871127 0.547808
O O7 0.120351 0.000000 0.633835
O O8 0.875371 0.820599 0.017844
O O9 0.925382 0.650464 0.945461
O O10 0.000000 0.778189 0.000000
O O11 0.392701 0.853614 0.759153
O O12 0.454729 0.000000 0.814369
O O13 0.743876 0.858224 0.146161
O O14 0.832898 0.000000 0.046040
O O15 0.823628 0.500000 0.731896
O O16 0.825534 0.346247 0.616003
O O17 0.817613 0.500000 0.503112
#
# Coordination Sequence:
#
# PCOD8080286 Si02
#       7
#     8   8   8   8   8   8   8
#     4  10  18  28  44  66  90 116 146 173 211 262
#     4   8  15  28  45  66  91 113 137 176 222 260
#     4   9  19  30  42  65  90 116 147 173 210 260
#     4  10  20  32  43  59  89 122 148 177 209 250
#     4   8  14  28  48  66  86 111 140 180 221 254
#     4   8  16  30  46  65  87 112 144 179 218 255
#     4   9  16  27  46  70  91 110 137 179 221 256
#
# _framework density 16.769010999999999
#
# number of rings (size 3 to 8) (size 9 to 14) (size 15 to 20)
#    0.000    3.143    0.000    2.571    0.000    4.571 
#    0.000    4.286    0.000    0.000    0.000    4.000 
#    0.000    0.000    0.000    0.000    0.000    0.000 
#
# Total GULP energy -346995.100585 kJ/mol
# GULP energy per Si atom -12392.682164 kJ/mol
# Density = 1.673084 g / cm^3
# Si number density = 16.769011 Si / 1000 Ang^3
#
#
#
# Elastic Constant Matrix: (Units=GPa)
#
#
# Indices 1 2 3 4 5 6 
#
# 1 64.2371 54.4651 25.3152 0.0000 -11.0409 0.0000
# 2 54.4651 87.8322 37.2296 0.0000 -16.2630 0.0000
# 3 25.3152 37.2296 72.3441 0.0000 -14.5625 0.0000
# 4 0.0000 0.0000 0.0000 18.7402 0.0000 -10.2289
# 5 -11.0409 -16.2630 -14.5625 0.0000 17.7172 0.0000
# 6 0.0000 0.0000 0.0000 -10.2289 0.0000 25.0787
#
#
#
# Elastic Compliance Matrix: (Units=1/GPa)
#
#
# Indices 1 2 3 4 5 6 
#
# 1 0.032955 -0.019684 -0.001085 0.000000 0.001577 0.000000
# 2 -0.019684 0.027512 -0.005579 0.000000 0.008402 0.000000
# 3 -0.001085 -0.005579 0.019060 0.000000 0.009869 0.000000
# 4 0.000000 0.000000 0.000000 0.068643 0.000000 0.027998
# 5 0.001577 0.008402 0.009869 0.000000 0.073249 0.000000
# 6 0.000000 0.000000 0.000000 0.027998 0.000000 0.051294
#
#
# Mechanical properties :
#
#
# Convention : Reuss Voigt Hill
#
# Bulk Modulus (GPa) = 37.26910 50.93702 44.10306
# Shear Modulus (GPa) = 14.95424 19.46745 17.21084
#
# Velocity S-wave (km/s) = 2.98950 3.41092 3.20714
# Velocity P-wave (km/s) = 5.84717 6.77895 6.33023
#
# Compressibility (1/GPa) = 0.02683188
#
# Stress axis : x y z
#
# Youngs Moduli (GPa) = 30.34395 36.34797 52.46568
#
# Poissons Ratio (x) = 0.71547 0.05692
# Poissons Ratio (y) = 0.59729 0.29270
# Poissons Ratio (z) = 0.03292 0.20278
#
# Static dielectric constant tensor:
#      x y z
#    x 3.309720 0.000000 -0.145020 
#    y 0.000000 3.335750 0.000000 
#    z -0.145020 0.000000 3.067420 
# 
# 
# High freq. dielectric constant tensor:
#      x y z
#    x 1.630140 0.000000 -0.023380 
#    y 0.000000 1.638710 0.000000 
#    z -0.023380 0.000000 1.629080 
# 
# From -- ./inp_files/166640.got.cif
#   From: 2010.06.25/outbox.cif.g09.slc.cpg/sg12_84_cif.got.tgz:166640.got - 2010.06.28 00:19:55.
