data_PCOD8080537
_publ_section_title
;
Structure prediction by ZEFSAII (Michael W. Deem and Ramdas Pophale) SiO2 
 PCOD8080537
Probable space group: C 2/M
;
_chemical_formula_sum "Si O2"
_cell_formula_units_Z 64
_cell_length_a 20.361050
_cell_length_b 8.843941
_cell_length_c 20.372399
_cell_angle_alpha 90.000000
_cell_angle_beta 96.085321
_cell_angle_gamma 90.000000
_cell_volume 3647.825621
_symmetry_space_group_name_H-M "C 2/M"
_symmetry_group_IT_number 12
_symmetry_cell_setting 'monoclinic'
loop_
_space_group_symop_operation_xyz
x,y,z
-x,y,-z
-x,-y,-z
x,-y,z
1/2+x,1/2+y,z
1/2-x,1/2+y,-z
1/2-x,1/2-y,-z
1/2+x,1/2-y,z
loop_
_atom_site_type_symbol
_atom_site_label
_atom_site_fract_x
_atom_site_fract_y
_atom_site_fract_z
Si Si1 0.928647 0.176908 0.806873
Si Si2 0.703005 0.828003 0.046470
Si Si3 0.913463 0.320524 0.672294
Si Si4 0.693980 0.679563 0.537705
Si Si5 0.440292 0.678375 0.540120
Si Si6 0.707002 0.172970 0.190088
Si Si7 0.763734 0.675134 0.669451
Si Si8 0.445328 0.820895 0.941678
O O1 0.950965 0.253681 0.740497
O O2 0.851586 0.208387 0.809493
O O3 0.966009 0.246734 0.874241
O O4 0.943409 0.000000 0.804755
O O5 0.738946 0.808218 0.121584
O O6 0.627673 0.764512 0.042122
O O7 0.699159 0.000000 0.024007
O O8 0.750000 0.750000 0.000000
O O9 0.918299 0.500000 0.675377
O O10 0.948930 0.259768 0.610843
O O11 0.837470 0.260096 0.664127
O O12 0.695924 0.500000 0.532933
O O13 0.750000 0.750000 0.500000
O O14 0.624071 0.739626 0.504929
O O15 0.708577 0.740283 0.613762
O O16 0.500000 0.725795 0.500000
O O17 0.437857 0.500000 0.552479
O O18 0.757190 0.204844 0.256283
O O19 0.678986 0.000000 0.194062
O O20 0.768348 0.500000 0.654250
O O21 0.444171 0.000000 0.931804
O O22 0.500000 0.769378 0.000000
#
# Coordination Sequence:
#
# PCOD8080537 Si02
#       8
#     8   8   8   8   8   8   8   8
#     4  10  18  28  47  76 104 126 157 205 255 295
#     4   9  17  29  48  72  98 130 164 201 242 289
#     4  10  18  31  51  72  95 128 169 206 241 293
#     4  10  18  30  49  73  97 124 161 203 246 292
#     4  10  21  34  48  70 103 136 163 201 253 303
#     4   8  15  29  46  67  95 127 166 201 237 289
#     4   8  14  26  47  71  91 115 157 207 242 276
#     4   9  18  34  54  74  98 134 173 205 239 286
#
# _framework density 17.544699999999999
#
# number of rings (size 3 to 8) (size 9 to 14) (size 15 to 20)
#    0.000    2.750    1.250    3.000    0.000    2.500 
#    0.000    0.000    2.750    0.000    0.000    0.000 
#    0.000    0.000    0.000    0.000    0.000    0.000 
#
# Total GULP energy -396442.550872 kJ/mol
# GULP energy per Si atom -12388.829715 kJ/mol
# Density = 1.750477 g / cm^3
# Si number density = 17.544700 Si / 1000 Ang^3
#
#
#
# Elastic Constant Matrix: (Units=GPa)
#
#
# Indices 1 2 3 4 5 6 
#
# 1 75.6101 23.5091 67.7958 0.0000 0.9238 0.0000
# 2 23.5091 51.6609 47.7769 0.0000 -1.4436 0.0000
# 3 67.7958 47.7769 195.8421 0.0000 8.1541 0.0000
# 4 0.0000 0.0000 0.0000 29.0501 0.0000 -4.5692
# 5 0.9238 -1.4436 8.1541 0.0000 28.4604 0.0000
# 6 0.0000 0.0000 0.0000 -4.5692 0.0000 16.3871
#
#
#
# Elastic Compliance Matrix: (Units=1/GPa)
#
#
# Indices 1 2 3 4 5 6 
#
# 1 0.019660 -0.003346 -0.006028 0.000000 0.000919 0.000000
# 2 -0.003346 0.025831 -0.005265 0.000000 0.002927 0.000000
# 3 -0.006028 -0.005265 0.008583 0.000000 -0.002530 0.000000
# 4 0.000000 0.000000 0.000000 0.036002 0.000000 0.010039
# 5 0.000919 0.002927 -0.002530 0.000000 0.035980 0.000000
# 6 0.000000 0.000000 0.000000 0.010039 0.000000 0.063823
#
#
# Mechanical properties :
#
#
# Convention : Reuss Voigt Hill
#
# Bulk Modulus (GPa) = 40.33059 66.80851 53.56955
# Shear Modulus (GPa) = 21.98567 27.04829 24.51698
#
# Velocity S-wave (km/s) = 3.54379 3.93068 3.74224
# Velocity P-wave (km/s) = 6.30728 7.66564 7.01940
#
# Compressibility (1/GPa) = 0.02479508
#
# Stress axis : x y z
#
# Youngs Moduli (GPa) = 50.86577 38.71345 116.51529
#
# Poissons Ratio (x) = 0.12955 0.70231
# Poissons Ratio (y) = 0.17021 0.61346
# Poissons Ratio (z) = 0.30660 0.20383
#
# Static dielectric constant tensor:
#      x y z
#    x 3.402590 0.000000 0.783410 
#    y 0.000000 3.050140 0.000000 
#    z 0.783410 0.000000 4.454530 
# 
# 
# High freq. dielectric constant tensor:
#      x y z
#    x 1.624320 0.000000 0.011430 
#    y 0.000000 1.661200 0.000000 
#    z 0.011430 0.000000 1.705020 
# 
# From -- ./inp_files/319164.got.cif
#   From: 2010.06.25/outbox.cif.g09.slc.cpg/sg12_160_cif.got.tgz:319164.got - 2010.06.28 00:19:55.
