data_PCOD8080617
_publ_section_title
;
Structure prediction by ZEFSAII (Michael W. Deem and Ramdas Pophale) SiO2 
 PCOD8080617
Probable space group: C 2/M
;
_chemical_formula_sum "Si O2"
_cell_formula_units_Z 56
_cell_length_a 28.641294
_cell_length_b 9.224200
_cell_length_c 13.458695
_cell_angle_alpha 90.000000
_cell_angle_beta 76.581474
_cell_angle_gamma 90.000000
_cell_volume 3458.626084
_symmetry_space_group_name_H-M "C 2/M"
_symmetry_group_IT_number 12
_symmetry_cell_setting 'monoclinic'
loop_
_space_group_symop_operation_xyz
x,y,z
-x,y,-z
-x,-y,-z
x,-y,z
1/2+x,1/2+y,z
1/2-x,1/2+y,-z
1/2-x,1/2-y,-z
1/2+x,1/2-y,z
loop_
_atom_site_type_symbol
_atom_site_label
_atom_site_fract_x
_atom_site_fract_y
_atom_site_fract_z
Si Si1 0.699023 0.164101 0.920756
Si Si2 0.442505 0.330668 0.137604
Si Si3 0.635682 0.831821 0.132738
Si Si4 0.778853 0.332976 0.782431
Si Si5 0.551728 0.667894 0.092263
Si Si6 0.355641 0.166440 0.257135
Si Si7 0.270804 0.672772 0.394064
O O1 0.747617 0.253093 0.881447
O O2 0.666234 0.176666 0.840627
O O3 0.714275 0.000000 0.935501
O O4 0.668873 0.228084 0.027092
O O5 0.429389 0.500000 0.153689
O O6 0.496617 0.301007 0.147344
O O7 0.408468 0.236563 0.225887
O O8 0.437444 0.280006 0.025526
O O9 0.664735 0.803594 0.221624
O O10 0.585012 0.749649 0.155893
O O11 0.624304 0.000000 0.122861
O O12 0.766116 0.500000 0.802449
O O13 0.765480 0.284264 0.677667
O O14 0.563346 0.500000 0.095407
O O15 0.323351 0.260685 0.348339
O O16 0.358815 0.000000 0.292892
O O17 0.274603 0.500000 0.407325
O O18 0.250000 0.750000 0.500000
#
# Coordination Sequence:
#
# PCOD8080617 Si02
#       7
#     8   8   8   8   8   8   8
#     4   9  17  27  40  62  92 122 154 187 218 260
#     4   9  17  30  44  63  92 126 163 197 227 263
#     4  10  18  29  42  63  93 124 156 190 225 264
#     4   9  19  31  45  64  89 120 153 187 228 276
#     4   9  18  29  43  63  91 128 165 196 225 261
#     4  10  18  29  47  71  95 122 155 192 232 274
#     4  10  20  35  52  71  93 119 151 192 237 281
#
# _framework density 16.191400000000002
#
# number of rings (size 3 to 8) (size 9 to 14) (size 15 to 20)
#    0.000    2.571    1.429    2.143    0.000    2.857 
#    0.000    1.429    0.000    0.000    0.000    1.000 
#    0.000    8.000    0.000    0.000    0.000    0.000 
#
# Total GULP energy -347127.007120 kJ/mol
# GULP energy per Si atom -12397.393111 kJ/mol
# Density = 1.615455 g / cm^3
# Si number density = 16.191400 Si / 1000 Ang^3
#
#
#
# Elastic Constant Matrix: (Units=GPa)
#
#
# Indices 1 2 3 4 5 6 
#
# 1 108.7812 50.4005 36.4757 0.0000 -9.5752 0.0000
# 2 50.4005 71.2765 36.2589 0.0000 -9.8845 0.0000
# 3 36.4757 36.2589 69.7914 0.0000 -11.4707 0.0000
# 4 0.0000 0.0000 0.0000 22.3913 0.0000 -5.6901
# 5 -9.5752 -9.8845 -11.4707 0.0000 17.2367 0.0000
# 6 0.0000 0.0000 0.0000 -5.6901 0.0000 31.1418
#
#
#
# Elastic Compliance Matrix: (Units=1/GPa)
#
#
# Indices 1 2 3 4 5 6 
#
# 1 0.014133 -0.008390 -0.002838 0.000000 0.001151 0.000000
# 2 -0.008390 0.024423 -0.007599 0.000000 0.004288 0.000000
# 3 -0.002838 -0.007599 0.021091 0.000000 0.008102 0.000000
# 4 0.000000 0.000000 0.000000 0.046835 0.000000 0.008557
# 5 0.001151 0.004288 0.008102 0.000000 0.066505 0.000000
# 6 0.000000 0.000000 0.000000 0.008557 0.000000 0.033675
#
#
# Mechanical properties :
#
#
# Convention : Reuss Voigt Hill
#
# Bulk Modulus (GPa) = 45.46988 55.12435 50.29711
# Shear Modulus (GPa) = 19.86906 22.60157 21.23531
#
# Velocity S-wave (km/s) = 3.50685 3.74023 3.62542
# Velocity P-wave (km/s) = 6.67391 7.26442 6.97541
#
# Compressibility (1/GPa) = 0.02199258
#
# Stress axis : x y z
#
# Youngs Moduli (GPa) = 70.75554 40.94533 47.41317
#
# Poissons Ratio (x) = 0.34354 0.13458
# Poissons Ratio (y) = 0.59365 0.36028
# Poissons Ratio (z) = 0.20083 0.31113
#
# Static dielectric constant tensor:
#      x y z
#    x 3.111300 0.000000 0.008010 
#    y 0.000000 3.085110 0.000000 
#    z 0.008010 0.000000 2.782650 
# 
# 
# High freq. dielectric constant tensor:
#      x y z
#    x 1.621720 0.000000 -0.004670 
#    y 0.000000 1.626960 0.000000 
#    z -0.004670 0.000000 1.579180 
# 
# From -- ./inp_files/243003.got.cif
#   From: 2010.06.25/outbox.cif.g09.slc.cpg/sg12_122_cif.got.tgz:243003.got - 2010.06.28 00:19:55.
