data_PCOD8080887
_publ_section_title
;
Structure prediction by ZEFSAII (Michael W. Deem and Ramdas Pophale) SiO2 
 PCOD8080887
Probable space group: C 2/M
;
_chemical_formula_sum "Si O2"
_cell_formula_units_Z 64
_cell_length_a 13.417260
_cell_length_b 23.245358
_cell_length_c 11.626389
_cell_angle_alpha 90.000000
_cell_angle_beta 108.056269
_cell_angle_gamma 90.000000
_cell_volume 3447.564788
_symmetry_space_group_name_H-M "C 2/M"
_symmetry_group_IT_number 12
_symmetry_cell_setting 'monoclinic'
loop_
_space_group_symop_operation_xyz
x,y,z
-x,y,-z
-x,-y,-z
x,-y,z
1/2+x,1/2+y,z
1/2-x,1/2+y,-z
1/2-x,1/2-y,-z
1/2+x,1/2-y,z
loop_
_atom_site_type_symbol
_atom_site_label
_atom_site_fract_x
_atom_site_fract_y
_atom_site_fract_z
Si Si1 0.302495 0.934837 0.741339
Si Si2 0.580160 0.776401 0.935570
Si Si3 0.203644 0.824949 0.063860
Si Si4 0.526735 0.821932 0.682879
Si Si5 0.456576 0.063451 0.195382
Si Si6 0.710847 0.170006 0.418124
Si Si7 0.243512 0.435988 0.019410
Si Si8 0.733543 0.212808 0.663314
O O1 0.425904 0.925431 0.806414
O O2 0.259657 0.891008 0.628764
O O3 0.245844 0.921814 0.841601
O O4 0.279017 0.000000 0.691376
O O5 0.690139 0.810280 0.969025
O O6 0.521192 0.781218 0.793435
O O7 0.500000 0.803257 0.000000
O O8 0.605932 0.710394 0.977854
O O9 0.212830 0.812888 0.203359
O O10 0.185299 0.892353 0.030695
O O11 0.572859 0.886007 0.726015
O O12 0.411417 0.827204 0.590649
O O13 0.607370 0.792610 0.624127
O O14 0.447279 0.000000 0.250874
O O15 0.378939 0.067643 0.059494
O O16 0.772389 0.179385 0.561305
O O17 0.738991 0.219914 0.337305
O O18 0.286675 0.500000 0.009832
#
# Coordination Sequence:
#
# PCOD8080887 Si02
#       8
#     8   8   8   8   8   8   8   8
#     4   9  19  30  46  71  96 129 165 197 241 292
#     4  10  20  30  47  74  99 129 158 198 248 294
#     4  10  21  32  49  73 103 123 168 199 244 307
#     4  10  19  31  49  71  98 131 168 198 241 293
#     4   9  16  27  43  68  98 127 156 191 236 289
#     4  10  21  33  53  65 104 133 167 208 238 281
#     4  10  18  29  47  70  98 126 157 204 250 288
#     4  10  20  35  46  73  96 138 167 200 243 287
#
# _framework density 18.563828999999998
#
# number of rings (size 3 to 8) (size 9 to 14) (size 15 to 20)
#    0.000    2.250    2.500    1.500    8.750    1.500 
#    0.000    1.250    0.000    3.375    0.000    0.000 
#    0.000   10.000    0.000    0.000    0.000    0.000 
#
# Total GULP energy -396572.818757 kJ/mol
# GULP energy per Si atom -12392.900586 kJ/mol
# Density = 1.852158 g / cm^3
# Si number density = 18.563829 Si / 1000 Ang^3
#
#
#
# Elastic Constant Matrix: (Units=GPa)
#
#
# Indices 1 2 3 4 5 6 
#
# 1 21.6380 17.6848 7.1697 0.0000 -7.3529 0.0000
# 2 17.6848 143.1764 61.8979 0.0000 -7.3964 0.0000
# 3 7.1697 61.8979 95.6449 0.0000 -12.4100 0.0000
# 4 0.0000 0.0000 0.0000 23.7022 0.0000 -1.0828
# 5 -7.3529 -7.3964 -12.4100 0.0000 19.0083 0.0000
# 6 0.0000 0.0000 0.0000 -1.0828 0.0000 26.8908
#
#
#
# Elastic Compliance Matrix: (Units=1/GPa)
#
#
# Indices 1 2 3 4 5 6 
#
# 1 0.058757 -0.007568 0.003344 0.000000 0.021967 0.000000
# 2 -0.007568 0.010675 -0.006754 0.000000 -0.003183 0.000000
# 3 0.003344 -0.006754 0.015735 0.000000 0.008939 0.000000
# 4 0.000000 0.000000 0.000000 0.042268 0.000000 0.001702
# 5 0.021967 -0.003183 0.008939 0.000000 0.065703 0.000000
# 6 0.000000 0.000000 0.000000 0.001702 0.000000 0.037256
#
#
# Mechanical properties :
#
#
# Convention : Reuss Voigt Hill
#
# Bulk Modulus (GPa) = 15.82026 48.21822 32.01924
# Shear Modulus (GPa) = 18.28680 25.50073 21.89376
#
# Velocity S-wave (km/s) = 3.14200 3.71034 3.43793
# Velocity P-wave (km/s) = 4.65870 6.66229 5.74846
#
# Compressibility (1/GPa) = 0.06321009
#
# Stress axis : x y z
#
# Youngs Moduli (GPa) = 17.01915 93.68019 63.55096
#
# Poissons Ratio (x) = 0.70900 -0.21249
# Poissons Ratio (y) = 0.12881 0.42922
# Poissons Ratio (z) = -0.05690 0.63271
#
# Static dielectric constant tensor:
#      x y z
#    x 3.086180 0.000000 -0.054550 
#    y 0.000000 3.708890 0.000000 
#    z -0.054550 0.000000 3.266160 
# 
# 
# High freq. dielectric constant tensor:
#      x y z
#    x 1.676270 0.000000 -0.011030 
#    y 0.000000 1.723770 0.000000 
#    z -0.011030 0.000000 1.710970 
# 
# From -- ./inp_files/135419.got.cif
#   From: 2010.06.25/outbox.cif.g09.slc.cpg/sg12_68_cif.got.tgz:135419.got - 2010.06.28 00:19:55.
