data_PCOD8080225
_publ_section_title
;
Structure prediction by ZEFSAII (Michael W. Deem and Ramdas Pophale) SiO2 
 PCOD8080225
Probable space group: C 2/M
;
_chemical_formula_sum "Si O2"
_cell_formula_units_Z 64
_cell_length_a 25.848423
_cell_length_b 9.112715
_cell_length_c 20.710137
_cell_angle_alpha 90.000000
_cell_angle_beta 126.423633
_cell_angle_gamma 90.000000
_cell_volume 3925.285642
_symmetry_space_group_name_H-M "C 2/M"
_symmetry_group_IT_number 12
_symmetry_cell_setting 'monoclinic'
loop_
_space_group_symop_operation_xyz
x,y,z
-x,y,-z
-x,-y,-z
x,-y,z
1/2+x,1/2+y,z
1/2-x,1/2+y,-z
1/2-x,1/2-y,-z
1/2+x,1/2-y,z
loop_
_atom_site_type_symbol
_atom_site_label
_atom_site_fract_x
_atom_site_fract_y
_atom_site_fract_z
Si Si1 0.740151 0.835459 0.090561
Si Si2 0.030715 0.339082 0.458930
Si Si3 0.828216 0.339994 0.392084
Si Si4 0.439259 0.827519 0.220988
Si Si5 0.446633 0.330183 0.642798
Si Si6 0.347364 0.664910 0.061196
Si Si7 0.302877 0.672788 0.496351
Si Si8 0.166058 0.672020 0.751491
O O1 0.789733 0.841070 0.068901
O O2 0.772185 0.756062 0.175264
O O3 0.719773 0.000000 0.095537
O O4 0.676907 0.745862 0.021710
O O5 0.999704 0.500000 0.416831
O O6 0.104717 0.366915 0.524389
O O7 0.018160 0.214162 0.397491
O O8 0.000000 0.273931 0.500000
O O9 0.792733 0.500000 0.363542
O O10 0.793096 0.227190 0.414802
O O11 0.838934 0.278825 0.327355
O O12 0.512544 0.764618 0.275450
O O13 0.406244 0.755570 0.134346
O O14 0.398731 0.787654 0.256360
O O15 0.442324 0.000000 0.212255
O O16 0.456981 0.500000 0.665380
O O17 0.371453 0.288924 0.581019
O O18 0.369916 0.500000 0.060551
O O19 0.292026 0.500000 0.487649
O O20 0.250000 0.750000 0.500000
O O21 0.179365 0.500000 0.767802
#
# Coordination Sequence:
#
# PCOD8080225 Si02
#       8
#     8   8   8   8   8   8   8   8
#     4   9  16  25  38  57  82 116 155 189 219 252
#     4   9  16  27  42  59  82 114 147 174 204 247
#     4   9  17  29  45  64  86 112 143 178 216 258
#     4  10  18  28  43  63  89 121 154 184 214 253
#     4  10  20  31  43  63  87 110 140 178 219 261
#     4   9  16  26  39  56  82 117 154 189 221 252
#     4  10  21  36  52  67  84 108 140 180 225 270
#     4   9  17  28  42  62  89 121 153 183 215 253
#
# _framework density 16.304546999999999
#
# number of rings (size 3 to 8) (size 9 to 14) (size 15 to 20)
#    0.000    2.625    0.000    2.625    0.000    7.750 
#    0.000    2.500    0.000    0.000    0.000    0.000 
#    0.000    1.000    0.000   10.500    0.000    5.500 
#
# Total GULP energy -396471.880780 kJ/mol
# GULP energy per Si atom -12389.746274 kJ/mol
# Density = 1.626744 g / cm^3
# Si number density = 16.304547 Si / 1000 Ang^3
#
#
#
# Elastic Constant Matrix: (Units=GPa)
#
#
# Indices 1 2 3 4 5 6 
#
# 1 42.7318 30.8852 15.5458 0.0000 6.6702 0.0000
# 2 30.8852 99.1274 55.5609 0.0000 10.1531 0.0000
# 3 15.5458 55.5609 91.6071 0.0000 13.1801 0.0000
# 4 0.0000 0.0000 0.0000 43.0214 0.0000 -4.4954
# 5 6.6702 10.1531 13.1801 0.0000 13.6450 0.0000
# 6 0.0000 0.0000 0.0000 -4.4954 0.0000 19.3550
#
#
#
# Elastic Compliance Matrix: (Units=1/GPa)
#
#
# Indices 1 2 3 4 5 6 
#
# 1 0.031379 -0.009960 0.002156 0.000000 -0.010011 0.000000
# 2 -0.009960 0.018538 -0.009604 0.000000 0.000352 0.000000
# 3 0.002156 -0.009604 0.018000 0.000000 -0.011295 0.000000
# 4 0.000000 0.000000 0.000000 0.023822 0.000000 0.005533
# 5 -0.010011 0.000352 -0.011295 0.000000 0.088829 0.000000
# 6 0.000000 0.000000 0.000000 0.005533 0.000000 0.052951
#
#
# Mechanical properties :
#
#
# Convention : Reuss Voigt Hill
#
# Bulk Modulus (GPa) = 30.20990 48.60556 39.40773
# Shear Modulus (GPa) = 17.89741 23.96924 20.93332
#
# Velocity S-wave (km/s) = 3.31674 3.83834 3.58704
# Velocity P-wave (km/s) = 5.76510 7.03702 6.43257
#
# Compressibility (1/GPa) = 0.03310173
#
# Stress axis : x y z
#
# Youngs Moduli (GPa) = 31.86876 53.94230 55.55431
#
# Poissons Ratio (x) = 0.53726 -0.11978
# Poissons Ratio (y) = 0.31741 0.53355
# Poissons Ratio (z) = -0.06871 0.51807
#
# Static dielectric constant tensor:
#      x y z
#    x 2.431830 0.000000 0.178670 
#    y 0.000000 3.324720 0.000000 
#    z 0.178670 0.000000 3.137080 
# 
# 
# High freq. dielectric constant tensor:
#      x y z
#    x 1.563020 0.000000 0.009150 
#    y 0.000000 1.638630 0.000000 
#    z 0.009150 0.000000 1.628870 
# 
# From -- ./inp_files/326828.got.cif
#   From: 2010.06.25/outbox.cif.g09.slc.cpg/sg12_164_cif.got.tgz:326828.got - 2010.06.28 00:19:55.
