data_PCOD8080235
_publ_section_title
;
Structure prediction by ZEFSAII (Michael W. Deem and Ramdas Pophale) SiO2 
 PCOD8080235
Probable space group: C 2/M
;
_chemical_formula_sum "Si O2"
_cell_formula_units_Z 48
_cell_length_a 17.404435
_cell_length_b 13.730040
_cell_length_c 26.229902
_cell_angle_alpha 90.000000
_cell_angle_beta 154.514085
_cell_angle_gamma 90.000000
_cell_volume 2697.049064
_symmetry_space_group_name_H-M "C 2/M"
_symmetry_group_IT_number 12
_symmetry_cell_setting 'monoclinic'
loop_
_space_group_symop_operation_xyz
x,y,z
-x,y,-z
-x,-y,-z
x,-y,z
1/2+x,1/2+y,z
1/2-x,1/2+y,-z
1/2-x,1/2-y,-z
1/2+x,1/2-y,z
loop_
_atom_site_type_symbol
_atom_site_label
_atom_site_fract_x
_atom_site_fract_y
_atom_site_fract_z
Si Si1 0.669599 0.886392 0.752895
Si Si2 0.637257 0.887261 0.621903
Si Si3 0.019592 0.111813 0.813471
Si Si4 0.504017 0.751786 0.947463
Si Si5 0.594591 0.111898 0.913464
Si Si6 0.397207 0.797653 0.185939
O O1 0.567841 0.869213 0.638032
O O2 0.548621 0.845968 0.727338
O O3 0.852988 0.829493 0.856788
O O4 0.710915 0.000000 0.786340
O O5 0.500000 0.835031 0.500000
O O6 0.843163 0.853465 0.738262
O O7 0.638980 0.000000 0.609623
O O8 0.040342 0.184167 0.777320
O O9 0.011336 0.000000 0.789276
O O10 0.191243 0.129769 0.952648
O O11 0.484620 0.829902 0.890657
O O12 0.500000 0.807583 0.000000
O O13 0.686125 0.691743 0.052654
O O14 0.523059 0.145603 0.815230
O O15 0.545994 0.000000 0.891938
#
# Coordination Sequence:
#
# PCOD8080235 Si02
#       6
#     8   8   8   8   8   8
#     4  10  19  30  45  66  92 118 144 182 226 259
#     4   9  17  30  48  66  83 109 148 189 224 259
#     4   9  17  30  47  64  88 121 150 180 218 256
#     4   9  18  29  43  64  89 119 153 183 208 254
#     4  10  18  28  43  64  93 125 149 174 216 263
#     4  10  18  28  43  67  94 117 147 178 214 270
#
# _framework density 17.797229000000002
#
# number of rings (size 3 to 8) (size 9 to 14) (size 15 to 20)
#    0.000    2.500    0.000    4.500    0.000    5.333 
#    0.000    3.333    0.000    0.000    0.000    0.000 
#    0.000   17.333    0.000    0.000    0.000    0.000 
#
# Total GULP energy -297342.145351 kJ/mol
# GULP energy per Si atom -12389.256056 kJ/mol
# Density = 1.775672 g / cm^3
# Si number density = 17.797229 Si / 1000 Ang^3
#
#
#
# Elastic Constant Matrix: (Units=GPa)
#
#
# Indices 1 2 3 4 5 6 
#
# 1 147.6350 67.0813 35.6111 0.0009 -28.3414 -0.0003
# 2 67.0813 99.0629 29.9629 0.0034 -13.7539 0.0012
# 3 35.6111 29.9629 33.3318 0.0139 -13.8138 0.0003
# 4 0.0009 0.0034 0.0139 9.0026 0.0004 -1.3096
# 5 -28.3414 -13.7539 -13.8138 0.0004 19.6806 0.0003
# 6 -0.0003 0.0012 0.0003 -1.3096 0.0003 30.9834
#
#
#
# Elastic Compliance Matrix: (Units=1/GPa)
#
#
# Indices 1 2 3 4 5 6 
#
# 1 0.012418 -0.005824 -0.003254 0.000005 0.011528 0.000000
# 2 -0.005824 0.016620 -0.010408 0.000011 -0.004077 0.000000
# 3 -0.003254 -0.010408 0.053415 -0.000080 0.025533 -0.000004
# 4 0.000005 0.000011 -0.000080 0.111766 -0.000043 0.004724
# 5 0.011528 -0.004077 0.025533 -0.000043 0.082486 -0.000003
# 6 0.000000 0.000000 -0.000004 0.004724 -0.000003 0.032475
#
#
# Mechanical properties :
#
#
# Convention : Reuss Voigt Hill
#
# Bulk Modulus (GPa) = 22.99792 60.59336 41.79564
# Shear Modulus (GPa) = 13.78757 21.75827 17.77292
#
# Velocity S-wave (km/s) = 2.78637 3.50031 3.16355
# Velocity P-wave (km/s) = 4.82722 7.10329 6.07284
#
# Compressibility (1/GPa) = 0.04348219
#
# Stress axis : x y z
#
# Youngs Moduli (GPa) = 80.53052 60.16738 18.72119
#
# Poissons Ratio (x) = 0.35041 0.06091
# Poissons Ratio (y) = 0.46901 0.19485
# Poissons Ratio (z) = 0.26202 0.62622
#
# Static dielectric constant tensor:
#      x y z
#    x 3.676350 0.000000 -0.161310 
#    y 0.000000 3.237770 0.000000 
#    z -0.161310 0.000000 3.115690 
# 
# 
# High freq. dielectric constant tensor:
#      x y z
#    x 1.699530 0.000000 -0.013380 
#    y 0.000000 1.677170 0.000000 
#    z -0.013380 0.000000 1.635980 
# 
# From -- ./inp_files/143203.got.cif
#   From: 2010.06.25/outbox.cif.g09.slc.cpg/sg12_72_cif.got.tgz:143203.got - 2010.06.28 00:19:55.
