data_PCOD8080011
_publ_section_title
;
Structure prediction by ZEFSAII (Michael W. Deem and Ramdas Pophale) SiO2 
 PCOD8080011
Probable space group: C 2/M
;
_chemical_formula_sum "Si O2"
_cell_formula_units_Z 64
_cell_length_a 25.393235
_cell_length_b 8.941707
_cell_length_c 24.680701
_cell_angle_alpha 90.000000
_cell_angle_beta 49.335089
_cell_angle_gamma 90.000000
_cell_volume 4250.800789
_symmetry_space_group_name_H-M "C 2/M"
_symmetry_group_IT_number 12
_symmetry_cell_setting 'monoclinic'
loop_
_space_group_symop_operation_xyz
x,y,z
-x,y,-z
-x,-y,-z
x,-y,z
1/2+x,1/2+y,z
1/2-x,1/2+y,-z
1/2-x,1/2-y,-z
1/2+x,1/2-y,z
loop_
_atom_site_type_symbol
_atom_site_label
_atom_site_fract_x
_atom_site_fract_y
_atom_site_fract_z
Si Si1 0.318240 0.176361 0.681090
Si Si2 0.611335 0.668186 0.782299
Si Si3 0.356083 0.326188 0.354693
Si Si4 0.305118 0.825848 0.193049
Si Si5 0.719377 0.325790 0.405581
Si Si6 0.588390 0.672650 0.569024
Si Si7 0.563673 0.329361 0.924220
Si Si8 0.024211 0.676541 0.425648
O O1 0.271189 0.251868 0.760241
O O2 0.294533 0.229781 0.638161
O O3 0.397120 0.227084 0.638598
O O4 0.309728 0.000000 0.690298
O O5 0.642855 0.500000 0.766657
O O6 0.592472 0.697461 0.732224
O O7 0.670449 0.786893 0.761397
O O8 0.548373 0.681609 0.868875
O O9 0.335696 0.500000 0.375907
O O10 0.286924 0.231328 0.392008
O O11 0.396431 0.268006 0.380332
O O12 0.362797 0.754834 0.113289
O O13 0.300184 0.000000 0.185275
O O14 0.727198 0.500000 0.385238
O O15 0.655577 0.297179 0.488226
O O16 0.567577 0.500000 0.583773
O O17 0.522788 0.761899 0.590927
O O18 0.572149 0.500000 0.938042
O O19 0.500000 0.254126 0.000000
O O20 0.016750 0.500000 0.431586
O O21 0.000000 0.742777 0.500000
#
# Coordination Sequence:
#
# PCOD8080011 Si02
#       8
#     8   8   8   8   8   8   8   8
#     4  11  20  32  49  64  86 118 156 193 234 285
#     4   8  15  27  42  60  87 123 151 173 208 257
#     4  10  19  32  47  62  89 124 152 180 224 280
#     4  10  18  27  42  67  94 118 150 183 225 267
#     4  11  20  29  44  67  88 111 147 192 237 272
#     4  10  22  34  45  65  88 114 150 193 238 278
#     4   8  14  26  44  66  94 128 157 177 209 263
#     4  10  21  36  51  65  81 113 157 198 243 286
#
# _framework density 15.055987
#
# number of rings (size 3 to 8) (size 9 to 14) (size 15 to 20)
#    0.750    1.500    2.500    1.875    0.000    2.500 
#    0.000    0.000    0.000    0.000    0.000    0.000 
#    0.000    1.000    0.000    2.000    0.000    2.625 
#
# Total GULP energy -396419.655588 kJ/mol
# GULP energy per Si atom -12388.114237 kJ/mol
# Density = 1.502172 g / cm^3
# Si number density = 15.055987 Si / 1000 Ang^3
#
#
#
# Elastic Constant Matrix: (Units=GPa)
#
#
# Indices 1 2 3 4 5 6 
#
# 1 81.0392 20.5904 45.1006 0.0007 -14.4884 -0.0005
# 2 20.5904 53.5715 37.8209 0.0035 -14.1827 0.0021
# 3 45.1006 37.8209 113.3239 0.0006 -20.4368 -0.0002
# 4 0.0007 0.0035 0.0006 16.5994 -0.0002 -2.0082
# 5 -14.4884 -14.1827 -20.4368 -0.0002 14.3192 0.0001
# 6 -0.0005 0.0021 -0.0002 -2.0082 0.0001 21.4628
#
#
#
# Elastic Compliance Matrix: (Units=1/GPa)
#
#
# Indices 1 2 3 4 5 6 
#
# 1 0.016876 -0.000536 -0.004785 0.000000 0.009715 0.000000
# 2 -0.000536 0.027910 -0.005674 -0.000006 0.019003 -0.000003
# 3 -0.004785 -0.005674 0.014457 0.000001 0.010171 0.000001
# 4 0.000000 -0.000006 0.000001 0.060933 -0.000003 0.005701
# 5 0.009715 0.019003 0.010171 -0.000003 0.113004 -0.000002
# 6 0.000000 -0.000003 0.000001 0.005701 -0.000002 0.047126
#
#
# Mechanical properties :
#
#
# Convention : Reuss Voigt Hill
#
# Bulk Modulus (GPa) = 26.84513 50.55092 38.69802
# Shear Modulus (GPa) = 15.88749 20.10447 17.99598
#
# Velocity S-wave (km/s) = 3.25195 3.65816 3.46102
# Velocity P-wave (km/s) = 5.65413 7.17572 6.45988
#
# Compressibility (1/GPa) = 0.03725071
#
# Stress axis : x y z
#
# Youngs Moduli (GPa) = 59.25606 35.83006 69.17187
#
# Poissons Ratio (x) = 0.01920 0.33102
# Poissons Ratio (y) = 0.03176 0.39250
# Poissons Ratio (z) = 0.28357 0.20331
#
# Static dielectric constant tensor:
#      x y z
#    x 2.694440 0.000000 -0.054490 
#    y 0.000000 2.857280 0.000000 
#    z -0.054490 0.000000 3.078650 
# 
# 
# High freq. dielectric constant tensor:
#      x y z
#    x 1.536690 0.000000 -0.006310 
#    y 0.000000 1.579610 0.000000 
#    z -0.006310 0.000000 1.571400 
# 
# From -- ./inp_files/367030.got.cif
#   From: 2010.06.25/outbox.cif.g09.slc.cpg/sg12_184_cif.got.tgz:367030.got - 2010.06.28 00:19:55.
