data_PCOD8080392
_publ_section_title
;
Structure prediction by ZEFSAII (Michael W. Deem and Ramdas Pophale) SiO2 
 PCOD8080392
Probable space group: C 2/M
;
_chemical_formula_sum "Si O2"
_cell_formula_units_Z 64
_cell_length_a 19.286664
_cell_length_b 9.166466
_cell_length_c 26.626706
_cell_angle_alpha 90.000000
_cell_angle_beta 130.318219
_cell_angle_gamma 90.000000
_cell_volume 3589.178428
_symmetry_space_group_name_H-M "C 2/M"
_symmetry_group_IT_number 12
_symmetry_cell_setting 'monoclinic'
loop_
_space_group_symop_operation_xyz
x,y,z
-x,y,-z
-x,-y,-z
x,-y,z
1/2+x,1/2+y,z
1/2-x,1/2+y,-z
1/2-x,1/2-y,-z
1/2+x,1/2-y,z
loop_
_atom_site_type_symbol
_atom_site_label
_atom_site_fract_x
_atom_site_fract_y
_atom_site_fract_z
Si Si1 0.228518 0.327860 0.607416
Si Si2 0.755097 0.331587 0.186275
Si Si3 0.050169 0.829328 0.072773
Si Si4 0.761951 0.669742 0.722512
Si Si5 0.064230 0.669119 0.782230
Si Si6 0.168793 0.830481 0.489269
Si Si7 0.576658 0.334502 0.347602
Si Si8 0.028242 0.331197 0.162014
O O1 0.210405 0.500000 0.600289
O O2 0.215175 0.259260 0.655910
O O3 0.154158 0.251010 0.535716
O O4 0.328930 0.288305 0.634449
O O5 0.757186 0.500000 0.204729
O O6 0.656801 0.290851 0.117649
O O7 0.778735 0.230550 0.244706
O O8 0.829401 0.300855 0.177908
O O9 0.006183 0.755411 0.100996
O O10 0.033096 0.000000 0.070404
O O11 0.000000 0.767426 0.000000
O O12 0.737537 0.500000 0.706004
O O13 0.869583 0.697816 0.771658
O O14 0.039822 0.500000 0.769909
O O15 0.005558 0.737802 0.710287
O O16 0.037748 0.729819 0.824926
O O17 0.250000 0.750000 0.500000
O O18 0.082720 0.816499 0.411190
O O19 0.193221 0.000000 0.509662
O O20 0.554643 0.500000 0.322709
O O21 0.010960 0.500000 0.142306
#
# Coordination Sequence:
#
# PCOD8080392 Si02
#       8
#     8   8   8   8   8   8   8   8
#     4  10  18  28  45  70  97 128 166 208 253 298
#     4   9  19  34  51  72 100 132 165 201 244 295
#     4   9  18  34  55  76  99 131 167 200 237 286
#     4  10  18  30  49  72  98 128 165 209 250 294
#     4  10  19  32  50  72 100 132 164 203 248 295
#     4   9  17  28  41  64  96 129 165 207 253 298
#     4   9  18  29  44  68  98 130 163 202 249 296
#     4   9  18  31  49  75 100 127 163 201 244 289
#
# _framework density 17.831378999999998
#
# number of rings (size 3 to 8) (size 9 to 14) (size 15 to 20)
#    0.000    2.625    1.250    1.875    0.000    4.250 
#    0.000    0.625    0.000    0.750    0.000    5.250 
#    0.000    0.000    0.000    0.000    0.000    0.000 
#
# Total GULP energy -396733.622373 kJ/mol
# GULP energy per Si atom -12397.925699 kJ/mol
# Density = 1.779079 g / cm^3
# Si number density = 17.831379 Si / 1000 Ang^3
#
#
#
# Elastic Constant Matrix: (Units=GPa)
#
#
# Indices 1 2 3 4 5 6 
#
# 1 92.4436 35.1104 48.7341 0.0000 -14.1360 0.0000
# 2 35.1104 78.1997 53.3590 0.0000 -13.0134 0.0000
# 3 48.7341 53.3590 124.7324 0.0000 -25.3911 0.0000
# 4 0.0000 0.0000 0.0000 30.1502 0.0000 -7.1465
# 5 -14.1360 -13.0134 -25.3911 0.0000 22.4884 0.0000
# 6 0.0000 0.0000 0.0000 -7.1465 0.0000 22.1031
#
#
#
# Elastic Compliance Matrix: (Units=1/GPa)
#
#
# Indices 1 2 3 4 5 6 
#
# 1 0.014503 -0.003616 -0.003492 0.000000 0.003081 0.000000
# 2 -0.003616 0.019048 -0.006433 0.000000 0.001486 0.000000
# 3 -0.003492 -0.006433 0.014191 0.000000 0.010104 0.000000
# 4 0.000000 0.000000 0.000000 0.035920 0.000000 0.011614
# 5 0.003081 0.001486 0.010104 0.000000 0.058672 0.000000
# 6 0.000000 0.000000 0.000000 0.011614 0.000000 0.048998
#
#
# Mechanical properties :
#
#
# Convention : Reuss Voigt Hill
#
# Bulk Modulus (GPa) = 48.40620 63.30918 55.85769
# Shear Modulus (GPa) = 22.19249 25.49316 23.84282
#
# Velocity S-wave (km/s) = 3.53168 3.78521 3.66064
# Velocity P-wave (km/s) = 6.62087 7.39495 7.01859
#
# Compressibility (1/GPa) = 0.02065851
#
# Stress axis : x y z
#
# Youngs Moduli (GPa) = 68.95135 52.49814 70.46874
#
# Poissons Ratio (x) = 0.18983 0.24611
# Poissons Ratio (y) = 0.24932 0.45335
# Poissons Ratio (z) = 0.24081 0.33774
#
# Static dielectric constant tensor:
#      x y z
#    x 3.123570 0.000000 -0.192890 
#    y 0.000000 3.329600 0.000000 
#    z -0.192890 0.000000 3.570230 
# 
# 
# High freq. dielectric constant tensor:
#      x y z
#    x 1.660910 0.000000 -0.019710 
#    y 0.000000 1.693490 0.000000 
#    z -0.019710 0.000000 1.682450 
# 
# From -- ./inp_files/365234.got.cif
#   From: 2010.06.25/outbox.cif.g09.slc.cpg/sg12_183_cif.got.tgz:365234.got - 2010.06.28 00:19:55.
