data_PCOD8080967
_publ_section_title
;
Structure prediction by ZEFSAII (Michael W. Deem and Ramdas Pophale) SiO2 
 PCOD8080967
Probable space group: C 2/M
;
_chemical_formula_sum "Si O2"
_cell_formula_units_Z 64
_cell_length_a 23.454813
_cell_length_b 9.162398
_cell_length_c 21.091908
_cell_angle_alpha 90.000000
_cell_angle_beta 127.733209
_cell_angle_gamma 90.000000
_cell_volume 3584.771879
_symmetry_space_group_name_H-M "C 2/M"
_symmetry_group_IT_number 12
_symmetry_cell_setting 'monoclinic'
loop_
_space_group_symop_operation_xyz
x,y,z
-x,y,-z
-x,-y,-z
x,-y,z
1/2+x,1/2+y,z
1/2-x,1/2+y,-z
1/2-x,1/2-y,-z
1/2+x,1/2-y,z
loop_
_atom_site_type_symbol
_atom_site_label
_atom_site_fract_x
_atom_site_fract_y
_atom_site_fract_z
Si Si1 0.528278 0.163234 0.336170
Si Si2 0.369327 0.161658 0.171470
Si Si3 0.419366 0.172293 0.962780
Si Si4 0.830444 0.167850 0.797775
Si Si5 0.329364 0.168935 0.278416
Si Si6 0.428738 0.332405 0.749744
Si Si7 0.029457 0.830789 0.589767
Si Si8 0.416547 0.329743 0.089660
O O1 0.449344 0.161954 0.253375
O O2 0.581023 0.238246 0.320711
O O3 0.526168 0.252683 0.400172
O O4 0.556530 0.000000 0.369011
O O5 0.318723 0.208545 0.196233
O O6 0.363244 0.274767 0.109358
O O7 0.348878 0.000000 0.132647
O O8 0.366229 0.224131 0.871893
O O9 0.413330 0.000000 0.966788
O O10 0.500000 0.221504 0.000000
O O11 0.395104 0.247397 0.011257
O O12 0.745374 0.198668 0.736742
O O13 0.861091 0.201014 0.748803
O O14 0.846818 0.000000 0.828397
O O15 0.390145 0.266537 0.352359
O O16 0.353549 0.000000 0.300030
O O17 0.432461 0.500000 0.731238
O O18 0.501116 0.290813 0.837314
O O19 0.000000 0.804393 0.500000
O O20 0.033110 0.000000 0.610616
O O21 0.403809 0.500000 0.070980
#
# Coordination Sequence:
#
# PCOD8080967 Si02
#       8
#     8   8   8   8   8   8   8   8
#     4   9  17  29  49  76 104 132 166 209 249 293
#     4   8  15  29  47  69  97 127 161 206 255 299
#     4  11  22  33  47  70 100 133 172 218 262 301
#     4  10  20  35  53  74 102 136 173 210 256 308
#     4   9  19  35  55  78 104 135 168 206 251 305
#     4   9  17  29  48  73 101 133 168 210 255 300
#     4  10  20  34  55  82 109 135 164 203 249 297
#     4  10  18  29  48  71  94 127 170 215 261 303
#
# _framework density 17.853297000000001
#
# number of rings (size 3 to 8) (size 9 to 14) (size 15 to 20)
#    0.000    2.500    1.250    2.250    0.000    6.000 
#    0.000    0.625    0.000    0.750    0.000    0.000 
#    0.000    0.000    0.000    0.000    0.000    0.000 
#
# Total GULP energy -396800.725033 kJ/mol
# GULP energy per Si atom -12400.022657 kJ/mol
# Density = 1.781266 g / cm^3
# Si number density = 17.853297 Si / 1000 Ang^3
#
#
#
# Elastic Constant Matrix: (Units=GPa)
#
#
# Indices 1 2 3 4 5 6 
#
# 1 119.7490 52.7671 42.0684 0.0000 -19.5855 0.0000
# 2 52.7671 106.1829 52.3069 0.0000 -17.6031 0.0000
# 3 42.0684 52.3069 63.9140 0.0000 -16.9599 0.0000
# 4 0.0000 0.0000 0.0000 25.2727 0.0000 -6.6397
# 5 -19.5855 -17.6031 -16.9599 0.0000 22.6180 0.0000
# 6 0.0000 0.0000 0.0000 -6.6397 0.0000 25.5538
#
#
#
# Elastic Compliance Matrix: (Units=1/GPa)
#
#
# Indices 1 2 3 4 5 6 
#
# 1 0.011942 -0.003168 -0.003967 0.000000 0.004901 0.000000
# 2 -0.003168 0.016812 -0.011148 0.000000 0.001982 0.000000
# 3 -0.003967 -0.011148 0.030170 0.000000 0.010511 0.000000
# 4 0.000000 0.000000 0.000000 0.042467 0.000000 0.011034
# 5 0.004901 0.001982 0.010511 0.000000 0.057880 0.000000
# 6 0.000000 0.000000 0.000000 0.011034 0.000000 0.042000
#
#
# Mechanical properties :
#
#
# Convention : Reuss Voigt Hill
#
# Bulk Modulus (GPa) = 44.72694 64.90341 54.81518
# Shear Modulus (GPa) = 20.38398 24.20246 22.29322
#
# Velocity S-wave (km/s) = 3.38264 3.68588 3.53751
# Velocity P-wave (km/s) = 6.35321 7.38559 6.88877
#
# Compressibility (1/GPa) = 0.02235789
#
# Stress axis : x y z
#
# Youngs Moduli (GPa) = 83.73871 59.48098 33.14560
#
# Poissons Ratio (x) = 0.18842 0.13150
# Poissons Ratio (y) = 0.26526 0.36951
# Poissons Ratio (z) = 0.33223 0.66309
#
# Static dielectric constant tensor:
#      x y z
#    x 3.539290 0.000000 -0.259980 
#    y 0.000000 3.416700 0.000000 
#    z -0.259980 0.000000 2.897760 
# 
# 
# High freq. dielectric constant tensor:
#      x y z
#    x 1.692620 0.000000 -0.026010 
#    y 0.000000 1.697850 0.000000 
#    z -0.026010 0.000000 1.650270 
# 
# From -- ./inp_files/323709.got.cif
#   From: 2010.06.25/outbox.cif.g09.slc.cpg/sg12_162_cif.got.tgz:323709.got - 2010.06.28 00:19:55.
