data_PCOD8080109
_publ_section_title
;
Structure prediction by ZEFSAII (Michael W. Deem and Ramdas Pophale) SiO2 
 PCOD8080109
Probable space group: C 2/M
;
_chemical_formula_sum "Si O2"
_cell_formula_units_Z 40
_cell_length_a 25.028758
_cell_length_b 9.411821
_cell_length_c 24.830198
_cell_angle_alpha 90.000000
_cell_angle_beta 23.809353
_cell_angle_gamma 90.000000
_cell_volume 2361.272636
_symmetry_space_group_name_H-M "C 2/M"
_symmetry_group_IT_number 12
_symmetry_cell_setting 'monoclinic'
loop_
_space_group_symop_operation_xyz
x,y,z
-x,y,-z
-x,-y,-z
x,-y,z
1/2+x,1/2+y,z
1/2-x,1/2+y,-z
1/2-x,1/2-y,-z
1/2+x,1/2-y,z
loop_
_atom_site_type_symbol
_atom_site_label
_atom_site_fract_x
_atom_site_fract_y
_atom_site_fract_z
Si Si1 0.154023 0.162937 0.126488
Si Si2 0.318458 0.163632 0.077157
Si Si3 0.137175 0.835109 0.633691
Si Si4 0.574409 0.665054 0.811066
Si Si5 0.843383 0.842978 0.152828
O O1 0.194435 0.179897 0.151572
O O2 0.004544 0.218298 0.257595
O O3 0.163368 0.000000 0.098815
O O4 0.250000 0.250000 0.000000
O O5 0.276558 0.232753 0.173130
O O6 0.355682 0.000000 0.052761
O O7 0.443025 0.240754 0.935339
O O8 0.250000 0.750000 0.500000
O O9 0.148352 0.803623 0.687100
O O10 0.157708 0.000000 0.601912
O O11 0.530078 0.500000 0.855783
O O12 0.676338 0.701181 0.766147
O O13 0.784382 0.000000 0.196190
O O14 0.000000 0.842919 0.000000
#
# Coordination Sequence:
#
# PCOD8080109 Si02
#       5
#     8   8   8   8   8
#     4  10  20  33  51  74 101 131 164 204 249 295
#     4  10  18  27  45  75 102 124 157 202 247 291
#     4  10  21  36  52  72 100 132 167 207 247 294
#     4   9  17  31  49  68  96 132 165 198 241 291
#     4   8  15  27  44  67  95 129 162 195 241 291
#
# _framework density 16.940017999999998
#
# number of rings (size 3 to 8) (size 9 to 14) (size 15 to 20)
#    0.000    2.600    2.000    1.800    0.000    6.000 
#    0.000    0.000    0.000    1.200    0.000    8.400 
#    0.000    0.000    0.000    0.000    0.000    0.000 
#
# Total GULP energy -247927.331242 kJ/mol
# GULP energy per Si atom -12396.366562 kJ/mol
# Density = 1.690146 g / cm^3
# Si number density = 16.940018 Si / 1000 Ang^3
#
#
#
# Elastic Constant Matrix: (Units=GPa)
#
#
# Indices 1 2 3 4 5 6 
#
# 1 140.7332 61.0491 59.8923 -0.0001 13.6072 0.0000
# 2 61.0491 84.6463 50.6610 -0.0015 4.0557 0.0001
# 3 59.8923 50.6610 92.8078 -0.0022 4.6245 0.0002
# 4 -0.0001 -0.0015 -0.0022 24.5541 -0.0001 3.9315
# 5 13.6072 4.0557 4.6245 -0.0001 19.3280 0.0001
# 6 0.0000 0.0001 0.0002 3.9315 0.0001 30.2351
#
#
#
# Elastic Compliance Matrix: (Units=1/GPa)
#
#
# Indices 1 2 3 4 5 6 
#
# 1 0.012067 -0.005836 -0.004290 -0.000001 -0.006244 0.000000
# 2 -0.005836 0.020407 -0.007453 0.000001 0.001610 0.000000
# 3 -0.004290 -0.007453 0.017594 0.000001 0.000375 0.000000
# 4 -0.000001 0.000001 0.000001 0.041592 0.000000 -0.005408
# 5 -0.006244 0.001610 0.000375 0.000000 0.055707 0.000000
# 6 0.000000 0.000000 0.000000 -0.005408 0.000000 0.033777
#
#
# Mechanical properties :
#
#
# Convention : Reuss Voigt Hill
#
# Bulk Modulus (GPa) = 67.07994 73.48801 70.28397
# Shear Modulus (GPa) = 22.59657 24.59577 23.59617
#
# Velocity S-wave (km/s) = 3.65624 3.81456 3.73624
# Velocity P-wave (km/s) = 7.58344 7.92948 7.75839
#
# Compressibility (1/GPa) = 0.01490759
#
# Stress axis : x y z
#
# Youngs Moduli (GPa) = 82.87163 49.00359 56.83880
#
# Poissons Ratio (x) = 0.28598 0.24386
# Poissons Ratio (y) = 0.48364 0.42364
# Poissons Ratio (z) = 0.35555 0.36525
#
# Static dielectric constant tensor:
#      x y z
#    x 3.856030 0.000000 0.095800 
#    y 0.000000 3.226330 0.000000 
#    z 0.095800 0.000000 2.731570 
# 
# 
# High freq. dielectric constant tensor:
#      x y z
#    x 1.676490 0.000000 0.010010 
#    y 0.000000 1.655470 0.000000 
#    z 0.010010 0.000000 1.595910 
# 
# From -- ./inp_files/101022.got.cif
#   From: 2010.06.25/outbox.cif.g09.slc.cpg/sg12_51_cif.got.tgz:101022.got - 2010.06.28 00:19:55.
