data_PCOD8080608
_publ_section_title
;
Structure prediction by ZEFSAII (Michael W. Deem and Ramdas Pophale) SiO2 
 PCOD8080608
Probable space group: C 2/M
;
_chemical_formula_sum "Si O2"
_cell_formula_units_Z 40
_cell_length_a 9.115038
_cell_length_b 21.023665
_cell_length_c 12.281287
_cell_angle_alpha 90.000000
_cell_angle_beta 122.123792
_cell_angle_gamma 90.000000
_cell_volume 1993.166286
_symmetry_space_group_name_H-M "C 2/M"
_symmetry_group_IT_number 12
_symmetry_cell_setting 'monoclinic'
loop_
_space_group_symop_operation_xyz
x,y,z
-x,y,-z
-x,-y,-z
x,-y,z
1/2+x,1/2+y,z
1/2-x,1/2+y,-z
1/2-x,1/2-y,-z
1/2+x,1/2-y,z
loop_
_atom_site_type_symbol
_atom_site_label
_atom_site_fract_x
_atom_site_fract_y
_atom_site_fract_z
Si Si1 0.026143 0.286211 0.840493
Si Si2 0.880548 0.308622 0.557140
Si Si3 0.836610 0.396381 0.867246
Si Si4 0.703029 0.429389 0.581529
Si Si5 0.385459 0.345502 0.049288
O O1 0.000642 0.212546 0.859567
O O2 0.006774 0.294940 0.705565
O O3 0.881367 0.323184 0.854260
O O4 0.210258 0.316538 0.935006
O O5 0.750000 0.250000 0.500000
O O6 0.787270 0.376490 0.537466
O O7 0.000000 0.313155 0.500000
O O8 0.786801 0.431854 0.736332
O O9 0.665288 0.396070 0.876737
O O10 0.000000 0.426957 0.000000
O O11 0.500000 0.413709 0.500000
O O12 0.735248 0.500000 0.545206
O O13 0.500000 0.379428 0.000000
#
# Coordination Sequence:
#
# PCOD8080608 Si02
#       5
#     8   8   8   8   8
#     4   9  19  32  47  77 115 152 186 227 298 348
#     4  11  25  37  59  91 121 154 196 250 297 355
#     4   9  19  35  54  82 112 150 199 241 290 351
#     4  10  23  43  63  84 117 163 205 246 303 362
#     4  10  18  28  52  77 113 153 184 235 288 354
#
# _framework density 20.068572
#
# number of rings (size 3 to 8) (size 9 to 14) (size 15 to 20)
#    0.000    2.200    0.000    3.600   11.200    0.800 
#    0.000    0.000    0.000    0.600    0.000    0.000 
#    0.000    0.000    0.000    0.000    0.000    0.000 
#
# Total GULP energy -247863.225955 kJ/mol
# GULP energy per Si atom -12393.161298 kJ/mol
# Density = 2.002289 g / cm^3
# Si number density = 20.068572 Si / 1000 Ang^3
#
#
#
# Elastic Constant Matrix: (Units=GPa)
#
#
# Indices 1 2 3 4 5 6 
#
# 1 132.5253 50.8521 37.2148 0.0000 -36.4554 0.0000
# 2 50.8521 103.3281 26.0992 0.0000 -8.5696 0.0000
# 3 37.2148 26.0992 100.0749 0.0000 -8.9458 0.0000
# 4 0.0000 0.0000 0.0000 12.3029 0.0000 0.6083
# 5 -36.4554 -8.5696 -8.9458 0.0000 35.2384 0.0000
# 6 0.0000 0.0000 0.0000 0.6083 0.0000 12.3735
#
#
#
# Elastic Compliance Matrix: (Units=1/GPa)
#
#
# Indices 1 2 3 4 5 6 
#
# 1 0.013538 -0.004988 -0.002650 0.000000 0.012119 0.000000
# 2 -0.004988 0.012321 -0.001588 0.000000 -0.002567 0.000000
# 3 -0.002650 -0.001588 0.011371 0.000000 -0.000241 0.000000
# 4 0.000000 0.000000 0.000000 0.081480 0.000000 -0.004006
# 5 0.012119 -0.002567 -0.000241 0.000000 0.040231 0.000000
# 6 0.000000 0.000000 0.000000 -0.004006 0.000000 0.081015
#
#
# Mechanical properties :
#
#
# Convention : Reuss Voigt Hill
#
# Bulk Modulus (GPa) = 53.25550 62.69563 57.97556
# Shear Modulus (GPa) = 18.89182 26.76711 22.82946
#
# Velocity S-wave (km/s) = 3.07149 3.65606 3.37645
# Velocity P-wave (km/s) = 6.25884 7.00934 6.64470
#
# Compressibility (1/GPa) = 0.01877740
#
# Stress axis : x y z
#
# Youngs Moduli (GPa) = 73.86775 81.16313 87.94658
#
# Poissons Ratio (x) = 0.40484 0.23306
# Poissons Ratio (y) = 0.36845 0.13964
# Poissons Ratio (z) = 0.19575 0.12887
#
# Static dielectric constant tensor:
#      x y z
#    x 3.639240 0.000000 0.008320 
#    y 0.000000 3.478290 0.000000 
#    z 0.008320 0.000000 4.001770 
# 
# 
# High freq. dielectric constant tensor:
#      x y z
#    x 1.781010 0.000000 -0.000470 
#    y 0.000000 1.752350 0.000000 
#    z -0.000470 0.000000 1.797100 
# 
# From -- ./inp_files/120416.got.cif
#   From: 2010.06.25/outbox.cif.g09.slc.cpg/sg12_61_cif.got.tgz:120416.got - 2010.06.28 00:19:55.
