data_PCOD8080120
_publ_section_title
;
Structure prediction by ZEFSAII (Michael W. Deem and Ramdas Pophale) SiO2 
 PCOD8080120
Probable space group: C 2/M
;
_chemical_formula_sum "Si O2"
_cell_formula_units_Z 64
_cell_length_a 23.804756
_cell_length_b 9.124247
_cell_length_c 17.588938
_cell_angle_alpha 90.000000
_cell_angle_beta 72.633588
_cell_angle_gamma 90.000000
_cell_volume 3646.177907
_symmetry_space_group_name_H-M "C 2/M"
_symmetry_group_IT_number 12
_symmetry_cell_setting 'monoclinic'
loop_
_space_group_symop_operation_xyz
x,y,z
-x,y,-z
-x,-y,-z
x,-y,z
1/2+x,1/2+y,z
1/2-x,1/2+y,-z
1/2-x,1/2-y,-z
1/2+x,1/2-y,z
loop_
_atom_site_type_symbol
_atom_site_label
_atom_site_fract_x
_atom_site_fract_y
_atom_site_fract_z
Si Si1 0.592208 0.326437 0.781748
Si Si2 0.514401 0.674000 0.076861
Si Si3 0.681321 0.172290 0.168622
Si Si4 0.075676 0.326295 0.318352
Si Si5 0.568915 0.838811 0.487106
Si Si6 0.451820 0.327296 0.359846
Si Si7 0.810604 0.827476 0.145130
Si Si8 0.853574 0.826398 0.964446
O O1 0.592082 0.500000 0.789749
O O2 0.533211 0.262710 0.844815
O O3 0.590313 0.282666 0.693707
O O4 0.649836 0.261606 0.801687
O O5 0.511071 0.500000 0.074524
O O6 0.579140 0.723357 0.076093
O O7 0.500000 0.739770 0.000000
O O8 0.626998 0.228621 0.241520
O O9 0.742320 0.212247 0.186892
O O10 0.684033 0.250797 0.086282
O O11 0.676679 0.000000 0.156164
O O12 0.064443 0.500000 0.317045
O O13 0.097205 0.286219 0.395683
O O14 0.015508 0.244837 0.321595
O O15 0.500000 0.847454 0.500000
O O16 0.581696 0.727440 0.550750
O O17 0.592782 0.000000 0.500405
O O18 0.461530 0.500000 0.361639
O O19 0.820447 0.000000 0.139266
O O20 0.832245 0.766298 0.054857
O O21 0.845215 0.000000 0.961813
#
# Coordination Sequence:
#
# PCOD8080120 Si02
#       8
#     8   8   8   8   8   8   8   8
#     4   9  16  26  41  66  95 118 147 186 223 264
#     4   9  14  23  41  65  89 114 145 179 216 261
#     4  10  20  32  47  66  89 119 156 193 225 260
#     4   9  18  32  47  65  92 124 153 180 216 270
#     4   8  15  29  47  65  90 123 151 175 214 272
#     4  10  18  27  46  76  99 113 139 185 234 270
#     4   9  17  30  46  64  88 122 158 189 222 264
#     4  10  18  29  48  70  90 116 152 192 233 269
#
# _framework density 17.552627000000001
#
# number of rings (size 3 to 8) (size 9 to 14) (size 15 to 20)
#    0.000    2.750    1.250    2.250    0.000    3.750 
#    0.000    0.000    0.000    4.125    0.000    0.000 
#    0.000    0.000    0.000    0.000    0.000    1.250 
#
# Total GULP energy -396603.851200 kJ/mol
# GULP energy per Si atom -12393.870350 kJ/mol
# Density = 1.751268 g / cm^3
# Si number density = 17.552627 Si / 1000 Ang^3
#
#
#
# Elastic Constant Matrix: (Units=GPa)
#
#
# Indices 1 2 3 4 5 6 
#
# 1 92.8311 25.7761 52.2508 0.0000 15.5601 0.0000
# 2 25.7761 33.1473 31.0355 0.0000 7.3395 0.0000
# 3 52.2508 31.0355 122.7454 0.0000 22.1447 0.0000
# 4 0.0000 0.0000 0.0000 21.1277 0.0000 3.4270
# 5 15.5601 7.3395 22.1447 0.0000 22.4071 0.0000
# 6 0.0000 0.0000 0.0000 3.4270 0.0000 12.4564
#
#
#
# Elastic Compliance Matrix: (Units=1/GPa)
#
#
# Indices 1 2 3 4 5 6 
#
# 1 0.015916 -0.007589 -0.004029 0.000000 -0.004585 0.000000
# 2 -0.007589 0.043403 -0.007460 0.000000 -0.001575 0.000000
# 3 -0.004029 -0.007460 0.013147 0.000000 -0.007751 0.000000
# 4 0.000000 0.000000 0.000000 0.049542 0.000000 -0.013630
# 5 -0.004585 -0.001575 -0.007751 0.000000 0.055989 0.000000
# 6 0.000000 0.000000 0.000000 -0.013630 0.000000 0.084030
#
#
# Mechanical properties :
#
#
# Convention : Reuss Voigt Hill
#
# Bulk Modulus (GPa) = 29.14621 51.87205 40.50913
# Shear Modulus (GPa) = 16.04530 20.50897 18.27713
#
# Velocity S-wave (km/s) = 3.02673 3.42194 3.23038
# Velocity P-wave (km/s) = 5.37177 6.72527 6.08626
#
# Compressibility (1/GPa) = 0.03430978
#
# Stress axis : x y z
#
# Youngs Moduli (GPa) = 62.83088 23.04012 76.06501
#
# Poissons Ratio (x) = 0.17485 0.30648
# Poissons Ratio (y) = 0.47681 0.56741
# Poissons Ratio (z) = 0.25316 0.17187
#
# Static dielectric constant tensor:
#      x y z
#    x 3.274650 0.000000 0.052390 
#    y 0.000000 2.867590 0.000000 
#    z 0.052390 0.000000 3.611510 
# 
# 
# High freq. dielectric constant tensor:
#      x y z
#    x 1.661110 0.000000 0.008200 
#    y 0.000000 1.635930 0.000000 
#    z 0.008200 0.000000 1.685200 
# 
# From -- ./inp_files/287594.got.cif
#   From: 2010.06.25/outbox.cif.g09.slc.cpg/sg12_144_cif.got.tgz:287594.got - 2010.06.28 00:19:55.
