data_PCOD8080754
_publ_section_title
;
Structure prediction by ZEFSAII (Michael W. Deem and Ramdas Pophale) SiO2 
 PCOD8080754
Probable space group: C 2/M
;
_chemical_formula_sum "Si O2"
_cell_formula_units_Z 64
_cell_length_a 13.419554
_cell_length_b 26.521655
_cell_length_c 14.035651
_cell_angle_alpha 90.000000
_cell_angle_beta 136.226948
_cell_angle_gamma 90.000000
_cell_volume 3455.843775
_symmetry_space_group_name_H-M "C 2/M"
_symmetry_group_IT_number 12
_symmetry_cell_setting 'monoclinic'
loop_
_space_group_symop_operation_xyz
x,y,z
-x,y,-z
-x,-y,-z
x,-y,z
1/2+x,1/2+y,z
1/2-x,1/2+y,-z
1/2-x,1/2-y,-z
1/2+x,1/2-y,z
loop_
_atom_site_type_symbol
_atom_site_label
_atom_site_fract_x
_atom_site_fract_y
_atom_site_fract_z
Si Si1 0.207953 0.214642 0.338140
Si Si2 0.534542 0.261017 0.393687
Si Si3 0.220895 0.236605 0.142926
Si Si4 0.701402 0.363618 0.021754
Si Si5 0.341022 0.148452 0.926454
Si Si6 0.403371 0.609137 0.722250
Si Si7 0.163688 0.055223 0.145215
Si Si8 0.544239 0.624079 0.633248
O O1 0.371150 0.236081 0.456963
O O2 0.112914 0.246151 0.346586
O O3 0.140389 0.224463 0.186946
O O4 0.207887 0.155428 0.363266
O O5 0.388208 0.231224 0.281602
O O6 0.512904 0.319290 0.402567
O O7 0.189240 0.194497 0.043266
O O8 0.173129 0.291319 0.074708
O O9 0.743304 0.401566 0.137445
O O10 0.817439 0.372241 0.017402
O O11 0.542991 0.372869 0.874765
O O12 0.217627 0.124747 0.771530
O O13 0.500000 0.132479 0.000000
O O14 0.327358 0.566389 0.734495
O O15 0.457946 0.591678 0.654744
O O16 0.235146 0.000000 0.177644
O O17 0.000000 0.052969 0.000000
O O18 0.500000 0.600722 0.500000
#
# Coordination Sequence:
#
# PCOD8080754 Si02
#       8
#     8   8   8   8   8   8   8   8
#     4  10  18  29  46  63  94 132 170 209 233 284
#     4   9  19  30  41  65  94 133 179 201 230 274
#     4  11  20  29  45  64 101 135 167 199 244 291
#     4  10  20  33  46  71 104 126 160 207 252 302
#     4  10  22  31  47  72 105 138 171 204 243 293
#     4   9  18  31  48  75  96 124 160 208 254 292
#     4   9  17  32  55  78  99 125 159 205 260 312
#     4   9  17  34  49  66 102 138 170 207 242 286
#
# _framework density 18.519355000000001
#
# number of rings (size 3 to 8) (size 9 to 14) (size 15 to 20)
#    0.000    2.375    1.250    3.000    3.500    0.000 
#    0.000    0.000    0.000    0.750    0.000    1.750 
#    0.000    0.000    0.000    0.000    0.000    0.000 
#
# Total GULP energy -396567.681093 kJ/mol
# GULP energy per Si atom -12392.740034 kJ/mol
# Density = 1.847720 g / cm^3
# Si number density = 18.519355 Si / 1000 Ang^3
#
#
#
# Elastic Constant Matrix: (Units=GPa)
#
#
# Indices 1 2 3 4 5 6 
#
# 1 103.3001 23.5240 48.8595 0.0000 -13.6764 0.0000
# 2 23.5240 48.7189 11.4481 0.0000 -6.2615 0.0000
# 3 48.8595 11.4481 57.7893 0.0000 -18.8002 0.0000
# 4 0.0000 0.0000 0.0000 9.0225 0.0000 -4.7731
# 5 -13.6764 -6.2615 -18.8002 0.0000 33.7018 0.0000
# 6 0.0000 0.0000 0.0000 -4.7731 0.0000 15.3700
#
#
#
# Elastic Compliance Matrix: (Units=1/GPa)
#
#
# Indices 1 2 3 4 5 6 
#
# 1 0.017379 -0.005283 -0.014260 0.000000 -0.001884 0.000000
# 2 -0.005283 0.023243 0.000696 0.000000 0.002563 0.000000
# 3 -0.014260 0.000696 0.033453 0.000000 0.013004 0.000000
# 4 0.000000 0.000000 0.000000 0.132622 0.000000 0.041185
# 5 -0.001884 0.002563 0.013004 0.000000 0.036638 0.000000
# 6 0.000000 0.000000 0.000000 0.041185 0.000000 0.077852
#
#
# Mechanical properties :
#
#
# Convention : Reuss Voigt Hill
#
# Bulk Modulus (GPa) = 27.48670 41.94126 34.71398
# Shear Modulus (GPa) = 13.47688 20.01731 16.74710
#
# Velocity S-wave (km/s) = 2.70055 3.29125 3.01042
# Velocity P-wave (km/s) = 4.95967 6.09422 5.55598
#
# Compressibility (1/GPa) = 0.03638123
#
# Stress axis : x y z
#
# Youngs Moduli (GPa) = 57.54167 43.02450 29.89267
#
# Poissons Ratio (x) = 0.22729 0.42626
# Poissons Ratio (y) = 0.30397 -0.02080
# Poissons Ratio (z) = 0.82052 -0.02993
#
# Static dielectric constant tensor:
#      x y z
#    x 3.835880 0.000000 -0.281230 
#    y 0.000000 3.197070 0.000000 
#    z -0.281230 0.000000 3.389890 
# 
# 
# High freq. dielectric constant tensor:
#      x y z
#    x 1.732870 0.000000 -0.021590 
#    y 0.000000 1.663660 0.000000 
#    z -0.021590 0.000000 1.703060 
# 
# From -- ./inp_files/218956.got.cif
#   From: 2010.06.25/outbox.cif.g09.slc.cpg/sg12_110_cif.got.tgz:218956.got - 2010.06.28 00:19:55.
