data_PCOD8080793
_publ_section_title
;
Structure prediction by ZEFSAII (Michael W. Deem and Ramdas Pophale) SiO2 
 PCOD8080793
Probable space group: C 2/M
;
_chemical_formula_sum "Si O2"
_cell_formula_units_Z 56
_cell_length_a 22.790108
_cell_length_b 8.885672
_cell_length_c 18.546958
_cell_angle_alpha 90.000000
_cell_angle_beta 118.405448
_cell_angle_gamma 90.000000
_cell_volume 3303.666667
_symmetry_space_group_name_H-M "C 2/M"
_symmetry_group_IT_number 12
_symmetry_cell_setting 'monoclinic'
loop_
_space_group_symop_operation_xyz
x,y,z
-x,y,-z
-x,-y,-z
x,-y,z
1/2+x,1/2+y,z
1/2-x,1/2+y,-z
1/2-x,1/2-y,-z
1/2+x,1/2-y,z
loop_
_atom_site_type_symbol
_atom_site_label
_atom_site_fract_x
_atom_site_fract_y
_atom_site_fract_z
Si Si1 0.724698 0.176755 0.376282
Si Si2 0.204024 0.671531 0.078123
Si Si3 0.255962 0.322729 0.763055
Si Si4 0.984823 0.673968 0.574565
Si Si5 0.387932 0.173599 0.269420
Si Si6 0.170050 0.672982 0.908404
Si Si7 0.649534 0.676530 0.456246
O O1 0.717974 0.247652 0.293936
O O2 0.665161 0.240914 0.390379
O O3 0.795708 0.222653 0.452042
O O4 0.715889 0.000000 0.364838
O O5 0.202811 0.500000 0.104165
O O6 0.193827 0.776117 0.142260
O O7 0.273969 0.707434 0.080612
O O8 0.149627 0.697810 0.981039
O O9 0.257624 0.500000 0.754765
O O10 0.181588 0.261363 0.738910
O O11 0.971135 0.500000 0.586809
O O12 0.921350 0.772617 0.556294
O O13 0.000000 0.692475 0.500000
O O14 0.046939 0.745777 0.655627
O O15 0.390769 0.197939 0.183897
O O16 0.389582 0.000000 0.291956
O O17 0.196324 0.500000 0.913609
O O18 0.650169 0.500000 0.442197
#
# Coordination Sequence:
#
# PCOD8080793 Si02
#       7
#     8   8   8   8   8   8   8
#     4  10  20  34  51  69  90 118 153 190 227 271
#     4   9  15  23  38  61  89 119 152 190 230 272
#     4  10  18  29  46  68  95 123 152 188 230 274
#     4  10  19  31  48  69  94 125 159 190 221 264
#     4   8  15  27  43  64  91 125 160 189 221 265
#     4   8  14  25  39  57  86 123 158 190 225 268
#     4  10  21  35  50  69  93 120 151 189 231 270
#
# _framework density 16.950862000000001
#
# number of rings (size 3 to 8) (size 9 to 14) (size 15 to 20)
#    0.000    2.714    0.000    3.429    0.000    3.714 
#    0.000    3.571    0.000    0.000    0.000    1.000 
#    0.000    8.000    0.000    0.000    0.000    0.000 
#
# Total GULP energy -346973.262324 kJ/mol
# GULP energy per Si atom -12391.902226 kJ/mol
# Density = 1.691228 g / cm^3
# Si number density = 16.950862 Si / 1000 Ang^3
#
#
#
# Elastic Constant Matrix: (Units=GPa)
#
#
# Indices 1 2 3 4 5 6 
#
# 1 55.2864 22.5821 35.8216 0.0000 -11.9407 0.0000
# 2 22.5821 54.4344 32.5032 0.0000 -10.1251 0.0000
# 3 35.8216 32.5032 128.8638 0.0000 -19.5487 0.0000
# 4 0.0000 0.0000 0.0000 23.8740 0.0000 -4.9028
# 5 -11.9407 -10.1251 -19.5487 0.0000 24.8678 0.0000
# 6 0.0000 0.0000 0.0000 -4.9028 0.0000 22.6224
#
#
#
# Elastic Compliance Matrix: (Units=1/GPa)
#
#
# Indices 1 2 3 4 5 6 
#
# 1 0.024879 -0.006636 -0.004360 0.000000 0.005817 0.000000
# 2 -0.006636 0.023990 -0.003642 0.000000 0.003718 0.000000
# 3 -0.004360 -0.003642 0.010614 0.000000 0.004767 0.000000
# 4 0.000000 0.000000 0.000000 0.043838 0.000000 0.009501
# 5 0.005817 0.003718 0.004767 0.000000 0.048267 0.000000
# 6 0.000000 0.000000 0.000000 0.009501 0.000000 0.046263
#
#
# Mechanical properties :
#
#
# Convention : Reuss Voigt Hill
#
# Bulk Modulus (GPa) = 33.10443 46.71095 39.90769
# Shear Modulus (GPa) = 21.07959 24.11801 22.59880
#
# Velocity S-wave (km/s) = 3.53026 3.77612 3.65526
# Velocity P-wave (km/s) = 6.01573 6.82851 6.43497
#
# Compressibility (1/GPa) = 0.03020744
#
# Stress axis : x y z
#
# Youngs Moduli (GPa) = 40.19413 41.68392 94.21570
#
# Poissons Ratio (x) = 0.27661 0.41075
# Poissons Ratio (y) = 0.26672 0.34316
# Poissons Ratio (z) = 0.17523 0.15183
#
# Static dielectric constant tensor:
#      x y z
#    x 2.792670 0.000000 -0.075360 
#    y 0.000000 3.111540 0.000000 
#    z -0.075360 0.000000 3.649110 
# 
# 
# High freq. dielectric constant tensor:
#      x y z
#    x 1.598130 0.000000 -0.018640 
#    y 0.000000 1.650590 0.000000 
#    z -0.018640 0.000000 1.672050 
# 
# From -- ./inp_files/287868.got.cif
#   From: 2010.06.25/outbox.cif.g09.slc.cpg/sg12_144_cif.got.tgz:287868.got - 2010.06.28 00:19:55.
