data_PCOD8080850
_publ_section_title
;
Structure prediction by ZEFSAII (Michael W. Deem and Ramdas Pophale) SiO2 
 PCOD8080850
Probable space group: C 2/M
;
_chemical_formula_sum "Si O2"
_cell_formula_units_Z 64
_cell_length_a 14.603965
_cell_length_b 28.072505
_cell_length_c 9.671786
_cell_angle_alpha 90.000000
_cell_angle_beta 113.149602
_cell_angle_gamma 90.000000
_cell_volume 3645.873746
_symmetry_space_group_name_H-M "C 2/M"
_symmetry_group_IT_number 12
_symmetry_cell_setting 'monoclinic'
loop_
_space_group_symop_operation_xyz
x,y,z
-x,y,-z
-x,-y,-z
x,-y,z
1/2+x,1/2+y,z
1/2-x,1/2+y,-z
1/2-x,1/2-y,-z
1/2+x,1/2-y,z
loop_
_atom_site_type_symbol
_atom_site_label
_atom_site_fract_x
_atom_site_fract_y
_atom_site_fract_z
Si Si1 0.770974 0.140423 0.208283
Si Si2 0.670293 0.143696 0.855943
Si Si3 0.487670 0.781391 0.333015
Si Si4 0.060392 0.552615 0.832659
Si Si5 0.644198 0.316045 0.150889
Si Si6 0.544245 0.319288 0.803424
Si Si7 0.697307 0.225699 0.339119
Si Si8 0.349548 0.052493 0.810122
O O1 0.887746 0.140201 0.230315
O O2 0.759540 0.181917 0.314600
O O3 0.740658 0.090179 0.260242
O O4 0.699178 0.148378 0.034321
O O5 0.598679 0.187589 0.784794
O O6 0.617007 0.094041 0.782614
O O7 0.767904 0.145615 0.816631
O O8 0.500000 0.793858 0.500000
O O9 0.460691 0.725927 0.300285
O O10 0.589219 0.794145 0.314746
O O11 0.076252 0.500000 0.774404
O O12 0.942590 0.565007 0.765341
O O13 0.106940 0.551960 0.011310
O O14 0.567792 0.336673 0.222644
O O15 0.690687 0.265710 0.218987
O O16 0.593136 0.304021 0.975952
O O17 0.750000 0.250000 0.500000
O O18 0.306901 0.000000 0.748439
#
# Coordination Sequence:
#
# PCOD8080850 Si02
#       8
#     8   8   8   8   8   8   8   8
#     4  10  18  29  47  68  91 119 151 185 226 270
#     4  10  18  29  47  67  88 119 155 187 222 266
#     4  11  21  31  44  64  92 121 152 186 221 265
#     4   8  14  25  42  65  90 113 141 181 229 273
#     4   9  18  31  45  62  87 120 155 187 217 260
#     4   9  18  31  45  62  88 121 153 185 222 263
#     4  11  21  31  44  65  93 121 150 183 222 268
#     4   8  14  25  42  66  92 113 139 182 230 269
#
# _framework density 17.554089999999999
#
# number of rings (size 3 to 8) (size 9 to 14) (size 15 to 20)
#    0.000    2.500    0.000    4.500    0.000    4.500 
#    0.000    0.000    0.000    1.125    0.000    7.875 
#    0.000    9.500    0.000    0.125    0.000    0.000 
#
# Total GULP energy -396584.881433 kJ/mol
# GULP energy per Si atom -12393.277545 kJ/mol
# Density = 1.751414 g / cm^3
# Si number density = 17.554090 Si / 1000 Ang^3
#
#
#
# Elastic Constant Matrix: (Units=GPa)
#
#
# Indices 1 2 3 4 5 6 
#
# 1 123.4899 77.6563 20.7788 0.0000 -3.3710 0.0000
# 2 77.6563 104.4781 20.1878 0.0000 -8.8774 0.0000
# 3 20.7788 20.1878 32.4952 0.0000 -3.3076 0.0000
# 4 0.0000 0.0000 0.0000 5.8681 0.0000 4.5820
# 5 -3.3710 -8.8774 -3.3076 0.0000 17.1107 0.0000
# 6 0.0000 0.0000 0.0000 4.5820 0.0000 29.1825
#
#
#
# Elastic Compliance Matrix: (Units=1/GPa)
#
#
# Indices 1 2 3 4 5 6 
#
# 1 0.015667 -0.011287 -0.003354 0.000000 -0.003418 0.000000
# 2 -0.011287 0.019347 -0.004087 0.000000 0.007024 0.000000
# 3 -0.003354 -0.004087 0.035880 0.000000 0.004155 0.000000
# 4 0.000000 0.000000 0.000000 0.194226 0.000000 -0.030496
# 5 -0.003418 0.007024 0.004155 0.000000 0.062217 0.000000
# 6 0.000000 0.000000 0.000000 -0.030496 0.000000 0.039055
#
#
# Mechanical properties :
#
#
# Convention : Reuss Voigt Hill
#
# Bulk Modulus (GPa) = 29.90570 55.30101 42.60336
# Shear Modulus (GPa) = 12.04833 19.88826 15.96829
#
# Velocity S-wave (km/s) = 2.62268 3.36961 3.01933
# Velocity P-wave (km/s) = 5.12294 6.83452 6.03967
#
# Compressibility (1/GPa) = 0.03343844
#
# Stress axis : x y z
#
# Youngs Moduli (GPa) = 63.82964 51.68639 27.87034
#
# Poissons Ratio (x) = 0.58339 0.09347
# Poissons Ratio (y) = 0.72045 0.11391
# Poissons Ratio (z) = 0.21406 0.21126
#
# Static dielectric constant tensor:
#      x y z
#    x 3.650230 0.000000 0.018920 
#    y 0.000000 3.353060 0.000000 
#    z 0.018920 0.000000 2.927090 
# 
# 
# High freq. dielectric constant tensor:
#      x y z
#    x 1.689990 0.000000 -0.003010 
#    y 0.000000 1.653070 0.000000 
#    z -0.003010 0.000000 1.648250 
# 
# From -- ./inp_files/67018.got.cif
#   From: 2010.06.25/outbox.cif.g09.slc.cpg/sg12_34_cif.got.tgz:67018.got - 2010.06.28 00:19:55.
