data_PCOD8080363
_publ_section_title
;
Structure prediction by ZEFSAII (Michael W. Deem and Ramdas Pophale) SiO2 
 PCOD8080363
Probable space group: C 2/M
;
_chemical_formula_sum "Si O2"
_cell_formula_units_Z 56
_cell_length_a 22.635943
_cell_length_b 9.238597
_cell_length_c 21.579659
_cell_angle_alpha 90.000000
_cell_angle_beta 131.705544
_cell_angle_gamma 90.000000
_cell_volume 3369.162385
_symmetry_space_group_name_H-M "C 2/M"
_symmetry_group_IT_number 12
_symmetry_cell_setting 'monoclinic'
loop_
_space_group_symop_operation_xyz
x,y,z
-x,y,-z
-x,-y,-z
x,-y,z
1/2+x,1/2+y,z
1/2-x,1/2+y,-z
1/2-x,1/2-y,-z
1/2+x,1/2-y,z
loop_
_atom_site_type_symbol
_atom_site_label
_atom_site_fract_x
_atom_site_fract_y
_atom_site_fract_z
Si Si1 0.303491 0.669271 0.450422
Si Si2 0.654914 0.665889 0.382243
Si Si3 0.024943 0.831096 0.768996
Si Si4 0.868724 0.661561 0.068795
Si Si5 0.623147 0.169256 0.737155
Si Si6 0.238047 0.840040 0.083746
Si Si7 0.590547 0.831674 0.573446
O O1 0.297346 0.500000 0.433771
O O2 0.343945 0.706334 0.544329
O O3 0.215433 0.734919 0.386375
O O4 0.356169 0.738194 0.434224
O O5 0.680894 0.500000 0.391401
O O6 0.568485 0.694882 0.294908
O O7 0.059299 0.757249 0.854897
O O8 0.059530 0.761192 0.730845
O O9 0.047109 0.000000 0.784798
O O10 0.899082 0.500000 0.074797
O O11 0.799890 0.657145 0.070957
O O12 0.834014 0.731435 0.981290
O O13 0.712834 0.209037 0.821067
O O14 0.615206 0.208636 0.660143
O O15 0.606066 0.000000 0.738487
O O16 0.201788 0.000000 0.067899
O O17 0.500000 0.787833 0.500000
O O18 0.604374 0.000000 0.568596
#
# Coordination Sequence:
#
# PCOD8080363 Si02
#       7
#     8   8   8   8   8   8   8
#     4  10  20  33  50  70  91 119 155 193 229 264
#     4   9  19  34  49  67  92 121 153 189 229 272
#     4  10  18  28  45  68  93 121 152 188 229 270
#     4   9  16  25  39  61  89 118 148 184 226 272
#     4   9  18  30  44  65  93 125 157 187 223 269
#     4   8  14  25  39  57  85 119 153 185 218 263
#     4  10  20  33  49  69  95 126 155 185 225 271
#
# _framework density 16.621341999999999
#
# number of rings (size 3 to 8) (size 9 to 14) (size 15 to 20)
#    0.000    2.714    0.000    3.000    0.000    6.000 
#    0.000    0.000    0.000    0.000    0.000    1.000 
#    0.000    8.000    0.000    0.000    0.000    0.000 
#
# Total GULP energy -347179.508233 kJ/mol
# GULP energy per Si atom -12399.268151 kJ/mol
# Density = 1.658351 g / cm^3
# Si number density = 16.621342 Si / 1000 Ang^3
#
#
#
# Elastic Constant Matrix: (Units=GPa)
#
#
# Indices 1 2 3 4 5 6 
#
# 1 77.5296 57.2606 54.8023 0.0000 3.6908 0.0000
# 2 57.2606 108.2481 68.8963 0.0000 7.1141 0.0000
# 3 54.8023 68.8963 138.2755 0.0000 -0.0575 0.0000
# 4 0.0000 0.0000 0.0000 26.9596 0.0000 -0.4081
# 5 3.6908 7.1141 -0.0575 0.0000 16.5870 0.0000
# 6 0.0000 0.0000 0.0000 -0.4081 0.0000 17.8013
#
#
#
# Elastic Compliance Matrix: (Units=1/GPa)
#
#
# Indices 1 2 3 4 5 6 
#
# 1 0.022921 -0.009174 -0.004513 0.000000 -0.001181 0.000000
# 2 -0.009174 0.017787 -0.005229 0.000000 -0.005606 0.000000
# 3 -0.004513 -0.005229 0.011628 0.000000 0.003287 0.000000
# 4 0.000000 0.000000 0.000000 0.037105 0.000000 0.000851
# 5 -0.001181 -0.005606 0.003287 0.000000 0.062967 0.000000
# 6 0.000000 0.000000 0.000000 0.000851 0.000000 0.056195
#
#
# Mechanical properties :
#
#
# Convention : Reuss Voigt Hill
#
# Bulk Modulus (GPa) = 68.95495 76.21908 72.58701
# Shear Modulus (GPa) = 19.89889 21.80918 20.85404
#
# Velocity S-wave (km/s) = 3.46380 3.62625 3.54595
# Velocity P-wave (km/s) = 7.58769 7.96797 7.78016
#
# Compressibility (1/GPa) = 0.01450222
#
# Stress axis : x y z
#
# Youngs Moduli (GPa) = 43.62888 56.21941 86.00292
#
# Poissons Ratio (x) = 0.51576 0.38817
# Poissons Ratio (y) = 0.40026 0.44971
# Poissons Ratio (z) = 0.19692 0.29397
#
# Static dielectric constant tensor:
#      x y z
#    x 2.684140 0.000000 -0.016780 
#    y 0.000000 3.283560 0.000000 
#    z -0.016780 0.000000 3.410700 
# 
# 
# High freq. dielectric constant tensor:
#      x y z
#    x 1.588470 0.000000 0.003580 
#    y 0.000000 1.650110 0.000000 
#    z 0.003580 0.000000 1.652500 
# 
# From -- ./inp_files/323811.got.cif
#   From: 2010.06.25/outbox.cif.g09.slc.cpg/sg12_162_cif.got.tgz:323811.got - 2010.06.28 00:19:55.
