data_PCOD8080944
_publ_section_title
;
Structure prediction by ZEFSAII (Michael W. Deem and Ramdas Pophale) SiO2 
 PCOD8080944
Probable space group: C 2/M
;
_chemical_formula_sum "Si O2"
_cell_formula_units_Z 64
_cell_length_a 17.120662
_cell_length_b 16.637863
_cell_length_c 12.287671
_cell_angle_alpha 90.000000
_cell_angle_beta 104.931570
_cell_angle_gamma 90.000000
_cell_volume 3381.972726
_symmetry_space_group_name_H-M "C 2/M"
_symmetry_group_IT_number 12
_symmetry_cell_setting 'monoclinic'
loop_
_space_group_symop_operation_xyz
x,y,z
-x,y,-z
-x,-y,-z
x,-y,z
1/2+x,1/2+y,z
1/2-x,1/2+y,-z
1/2-x,1/2-y,-z
1/2+x,1/2-y,z
loop_
_atom_site_type_symbol
_atom_site_label
_atom_site_fract_x
_atom_site_fract_y
_atom_site_fract_z
Si Si1 0.075255 0.195051 0.661388
Si Si2 0.503185 0.907302 0.697842
Si Si3 0.835348 0.670686 0.215890
Si Si4 0.563983 0.164317 0.108024
Si Si5 0.291717 0.410350 0.251326
Si Si6 0.087369 0.739991 0.432763
Si Si7 0.695768 0.089063 0.012748
Si Si8 0.697973 0.757630 0.282289
O O1 0.113043 0.246607 0.774643
O O2 0.113511 0.106294 0.686350
O O3 0.106420 0.244595 0.565501
O O4 0.978652 0.192774 0.629497
O O5 0.600634 0.895990 0.717262
O O6 0.481969 0.884856 0.814282
O O7 0.451196 0.849118 0.599199
O O8 0.481287 0.000000 0.664278
O O9 0.757214 0.685649 0.265732
O O10 0.800736 0.651708 0.084390
O O11 0.619169 0.101003 0.063485
O O12 0.618462 0.236746 0.176448
O O13 0.500000 0.202038 0.000000
O O14 0.269415 0.500000 0.283294
O O15 0.275784 0.401066 0.116166
O O16 0.239727 0.345195 0.298342
O O17 0.168727 0.757214 0.395056
O O18 0.690938 0.000000 0.960588
#
# Coordination Sequence:
#
# PCOD8080944 Si02
#       8
#     8   8   8   8   8   8   8   8
#     4   9  19  36  57  74  98 132 175 214 255 303
#     4  10  19  32  52  77 105 139 174 207 250 304
#     4  10  19  31  47  74 104 140 168 197 250 308
#     4  10  18  29  47  76 102 136 176 215 249 286
#     4   9  19  34  54  78 100 131 174 216 254 295
#     4   9  19  37  54  75 102 133 166 217 264 293
#     4  10  19  31  48  74 110 141 167 208 254 299
#     4   9  20  33  50  75 107 136 166 211 256 310
#
# _framework density 18.923866
#
# number of rings (size 3 to 8) (size 9 to 14) (size 15 to 20)
#    0.000    2.500    1.250    0.750    0.000   10.000 
#    0.000    6.875    0.000    9.000    0.000    1.750 
#    0.000    0.000    0.000    0.000    0.000    0.000 
#
# Total GULP energy -396480.819133 kJ/mol
# GULP energy per Si atom -12390.025598 kJ/mol
# Density = 1.888079 g / cm^3
# Si number density = 18.923866 Si / 1000 Ang^3
#
#
#
# Elastic Constant Matrix: (Units=GPa)
#
#
# Indices 1 2 3 4 5 6 
#
# 1 87.5009 43.3620 27.7041 0.0000 -7.3269 0.0000
# 2 43.3620 64.9518 47.4832 0.0000 -5.5407 0.0000
# 3 27.7041 47.4832 66.9045 0.0000 -1.7910 0.0000
# 4 0.0000 0.0000 0.0000 16.6142 0.0000 4.2166
# 5 -7.3269 -5.5407 -1.7910 0.0000 31.6164 0.0000
# 6 0.0000 0.0000 0.0000 4.2166 0.0000 20.9349
#
#
#
# Elastic Compliance Matrix: (Units=1/GPa)
#
#
# Indices 1 2 3 4 5 6 
#
# 1 0.017333 -0.012888 0.002020 0.000000 0.001873 0.000000
# 2 -0.012888 0.042184 -0.024521 0.000000 0.003017 0.000000
# 3 0.002020 -0.024521 0.031458 0.000000 -0.002047 0.000000
# 4 0.000000 0.000000 0.000000 0.063432 0.000000 -0.012776
# 5 0.001873 0.003017 -0.002047 0.000000 0.032476 0.000000
# 6 0.000000 0.000000 0.000000 -0.012776 0.000000 0.050340
#
#
# Mechanical properties :
#
#
# Convention : Reuss Voigt Hill
#
# Bulk Modulus (GPa) = 49.51405 50.71730 50.11568
# Shear Modulus (GPa) = 15.88648 20.55364 18.22006
#
# Velocity S-wave (km/s) = 2.90055 3.29921 3.10628
# Velocity P-wave (km/s) = 6.11876 6.43210 6.27739
#
# Compressibility (1/GPa) = 0.02019629
#
# Stress axis : x y z
#
# Youngs Moduli (GPa) = 57.69461 23.70585 31.78816
#
# Poissons Ratio (x) = 0.30553 -0.06421
# Poissons Ratio (y) = 0.74359 0.77947
# Poissons Ratio (z) = -0.11654 0.58129
#
# Static dielectric constant tensor:
#      x y z
#    x 3.679940 0.000000 0.185240 
#    y 0.000000 3.263780 0.000000 
#    z 0.185240 0.000000 3.530930 
# 
# 
# High freq. dielectric constant tensor:
#      x y z
#    x 1.732280 0.000000 0.015780 
#    y 0.000000 1.694930 0.000000 
#    z 0.015780 0.000000 1.735310 
# 
# From -- ./inp_files/157888.got.cif
#   From: 2010.06.25/outbox.cif.g09.slc.cpg/sg12_79_cif.got.tgz:157888.got - 2010.06.28 00:19:55.
