data_PCOD8080251
_publ_section_title
;
Structure prediction by ZEFSAII (Michael W. Deem and Ramdas Pophale) SiO2 
 PCOD8080251
Probable space group: C 2/M
;
_chemical_formula_sum "Si O2"
_cell_formula_units_Z 64
_cell_length_a 25.606572
_cell_length_b 9.006131
_cell_length_c 21.220980
_cell_angle_alpha 90.000000
_cell_angle_beta 53.420433
_cell_angle_gamma 90.000000
_cell_volume 3929.949200
_symmetry_space_group_name_H-M "C 2/M"
_symmetry_group_IT_number 12
_symmetry_cell_setting 'monoclinic'
loop_
_space_group_symop_operation_xyz
x,y,z
-x,y,-z
-x,-y,-z
x,-y,z
1/2+x,1/2+y,z
1/2-x,1/2+y,-z
1/2-x,1/2-y,-z
1/2+x,1/2-y,z
loop_
_atom_site_type_symbol
_atom_site_label
_atom_site_fract_x
_atom_site_fract_y
_atom_site_fract_z
Si Si1 0.487227 0.172428 0.327330
Si Si2 0.842785 0.326908 0.405427
Si Si3 0.233291 0.674550 0.416568
Si Si4 0.197077 0.329438 0.997424
Si Si5 0.459573 0.673653 0.591149
Si Si6 0.116432 0.328403 0.166530
Si Si7 0.178708 0.676314 0.322995
Si Si8 0.724727 0.674668 0.171322
O O1 0.418367 0.216361 0.346300
O O2 0.497896 0.272637 0.380721
O O3 0.541483 0.206151 0.235397
O O4 0.487335 0.000000 0.348079
O O5 0.831191 0.500000 0.404000
O O6 0.816106 0.275751 0.492881
O O7 0.804258 0.244015 0.377586
O O8 0.242031 0.500000 0.407570
O O9 0.204377 0.734127 0.371761
O O10 0.215130 0.500000 0.988496
O O11 0.208319 0.284109 0.915852
O O12 0.250000 0.250000 0.000000
O O13 0.128084 0.297594 0.082407
O O14 0.500000 0.711734 0.500000
O O15 0.444530 0.500000 0.608013
O O16 0.392610 0.762013 0.638677
O O17 0.133067 0.500000 0.170622
O O18 0.161457 0.224969 0.177297
O O19 0.175901 0.500000 0.321599
O O20 0.228003 0.737832 0.234651
O O21 0.718852 0.500000 0.189258
#
# Coordination Sequence:
#
# PCOD8080251 Si02
#       8
#     8   8   8   8   8   8   8   8
#     4  10  19  31  49  71  95 124 155 189 230 280
#     4   9  18  33  51  70  90 115 152 196 238 277
#     4   9  19  34  50  67  88 118 156 196 237 277
#     4   8  15  26  41  62  90 123 155 187 223 270
#     4  11  23  34  45  66  96 127 157 189 229 277
#     4   9  16  28  45  66  93 126 158 185 225 279
#     4  11  21  33  49  68  93 125 159 194 232 280
#     4  10  18  28  43  66  96 125 155 192 231 271
#
# _framework density 16.285198000000001
#
# number of rings (size 3 to 8) (size 9 to 14) (size 15 to 20)
#    0.000    2.375    1.250    1.875    0.000    4.000 
#    0.000    2.500    0.000    0.000    0.000    0.875 
#    0.000    7.000    0.000    0.000    0.000    0.000 
#
# Total GULP energy -396588.142131 kJ/mol
# GULP energy per Si atom -12393.379442 kJ/mol
# Density = 1.624813 g / cm^3
# Si number density = 16.285198 Si / 1000 Ang^3
#
#
#
# Elastic Constant Matrix: (Units=GPa)
#
#
# Indices 1 2 3 4 5 6 
#
# 1 60.8985 14.6351 26.8517 -0.0003 -6.3479 0.0003
# 2 14.6351 40.2614 27.7024 -0.0015 0.2022 0.0018
# 3 26.8517 27.7024 104.6516 -0.0007 -9.3112 0.0005
# 4 -0.0003 -0.0015 -0.0007 20.2557 0.0003 1.6746
# 5 -6.3479 0.2022 -9.3112 0.0003 18.1536 -0.0001
# 6 0.0003 0.0018 0.0005 1.6746 -0.0001 23.3045
#
#
#
# Elastic Compliance Matrix: (Units=1/GPa)
#
#
# Indices 1 2 3 4 5 6 
#
# 1 0.019582 -0.004900 -0.003262 0.000000 0.005229 0.000000
# 2 -0.004900 0.031978 -0.007745 0.000002 -0.006042 -0.000002
# 3 -0.003262 -0.007745 0.012939 0.000000 0.005582 0.000000
# 4 0.000000 0.000002 0.000000 0.049664 -0.000001 -0.003569
# 5 0.005229 -0.006042 0.005582 -0.000001 0.059844 0.000001
# 6 0.000000 -0.000002 0.000000 -0.003569 0.000001 0.043167
#
#
# Mechanical properties :
#
#
# Convention : Reuss Voigt Hill
#
# Bulk Modulus (GPa) = 30.59498 38.24332 34.41915
# Shear Modulus (GPa) = 19.23936 21.45092 20.34514
#
# Velocity S-wave (km/s) = 3.44088 3.63327 3.53838
# Velocity P-wave (km/s) = 5.88337 6.41368 6.15424
#
# Compressibility (1/GPa) = 0.03268510
#
# Stress axis : x y z
#
# Youngs Moduli (GPa) = 51.06826 31.27109 77.28283
#
# Poissons Ratio (x) = 0.15322 0.25210
# Poissons Ratio (y) = 0.25022 0.59859
# Poissons Ratio (z) = 0.16659 0.24221
#
# Static dielectric constant tensor:
#      x y z
#    x 2.829720 0.000000 -0.016160 
#    y 0.000000 3.062600 0.000000 
#    z -0.016160 0.000000 3.726260 
# 
# 
# High freq. dielectric constant tensor:
#      x y z
#    x 1.584060 0.000000 -0.003000 
#    y 0.000000 1.631830 0.000000 
#    z -0.003000 0.000000 1.639980 
# 
# From -- ./inp_files/323648.got.cif
#   From: 2010.06.25/outbox.cif.g09.slc.cpg/sg12_162_cif.got.tgz:323648.got - 2010.06.28 00:19:55.
