data_PCOD8080462
_publ_section_title
;
Structure prediction by ZEFSAII (Michael W. Deem and Ramdas Pophale) SiO2 
 PCOD8080462
Probable space group: C 2/M
;
_chemical_formula_sum "Si O2"
_cell_formula_units_Z 64
_cell_length_a 21.332274
_cell_length_b 9.278839
_cell_length_c 19.549410
_cell_angle_alpha 90.000000
_cell_angle_beta 111.635359
_cell_angle_gamma 90.000000
_cell_volume 3596.969830
_symmetry_space_group_name_H-M "C 2/M"
_symmetry_group_IT_number 12
_symmetry_cell_setting 'monoclinic'
loop_
_space_group_symop_operation_xyz
x,y,z
-x,y,-z
-x,-y,-z
x,-y,z
1/2+x,1/2+y,z
1/2-x,1/2+y,-z
1/2-x,1/2-y,-z
1/2+x,1/2-y,z
loop_
_atom_site_type_symbol
_atom_site_label
_atom_site_fract_x
_atom_site_fract_y
_atom_site_fract_z
Si Si1 0.921959 0.158045 0.478209
Si Si2 0.731994 0.337958 0.387267
Si Si3 0.180357 0.168828 0.676733
Si Si4 0.691285 0.330024 0.833924
Si Si5 0.973409 0.339838 0.912384
Si Si6 0.341712 0.170792 0.928438
Si Si7 0.652518 0.839267 0.452759
Si Si8 0.596230 0.672079 0.917996
O O1 0.886843 0.206317 0.393243
O O2 0.910931 0.268257 0.535375
O O3 0.000000 0.148641 0.500000
O O4 0.892721 0.000000 0.486777
O O5 0.710776 0.500000 0.359022
O O6 0.757414 0.256515 0.330117
O O7 0.668109 0.251235 0.390826
O O8 0.787088 0.338040 0.468977
O O9 0.168708 0.222293 0.749512
O O10 0.198615 0.000000 0.681789
O O11 0.693338 0.500000 0.838074
O O12 0.767057 0.273871 0.879114
O O13 0.635932 0.274896 0.866044
O O14 0.980651 0.500000 0.883532
O O15 0.893914 0.295979 0.886389
O O16 0.018802 0.230866 0.885192
O O17 0.000000 0.339105 0.000000
O O18 0.344007 0.000000 0.946488
O O19 0.362976 0.261066 0.002951
O O20 0.633790 0.000000 0.422361
O O21 0.593958 0.500000 0.923642
#
# Coordination Sequence:
#
# PCOD8080462 Si02
#       8
#     8   8   8   8   8   8   8   8
#     4   9  17  29  47  70  93 120 155 195 236 279
#     4   9  16  27  44  67  93 114 143 186 229 271
#     4   9  17  31  49  66  89 124 159 187 229 287
#     4   9  18  31  48  69  93 126 161 195 236 285
#     4   8  15  28  46  66  89 120 154 189 233 282
#     4   9  17  31  49  68  92 123 161 198 234 280
#     4   9  16  26  44  69  91 116 146 183 227 272
#     4  10  18  28  46  72  97 121 156 199 239 278
#
# _framework density 17.792753999999999
#
# number of rings (size 3 to 8) (size 9 to 14) (size 15 to 20)
#    0.000    3.000    0.000    2.250    0.000    5.500 
#    0.000    2.500    2.750    0.000    0.000    0.000 
#    0.000    0.000    0.000    0.000    0.000    0.000 
#
# Total GULP energy -396575.995393 kJ/mol
# GULP energy per Si atom -12392.999856 kJ/mol
# Density = 1.775226 g / cm^3
# Si number density = 17.792754 Si / 1000 Ang^3
#
#
#
# Elastic Constant Matrix: (Units=GPa)
#
#
# Indices 1 2 3 4 5 6 
#
# 1 124.6257 50.6696 53.4900 0.0000 -26.5052 0.0000
# 2 50.6696 90.5592 37.6971 0.0000 -18.4128 0.0000
# 3 53.4900 37.6971 74.4530 0.0000 -22.3696 0.0000
# 4 0.0000 0.0000 0.0000 16.4722 0.0000 -7.8502
# 5 -26.5052 -18.4128 -22.3696 0.0000 21.3341 0.0000
# 6 0.0000 0.0000 0.0000 -7.8502 0.0000 27.0259
#
#
#
# Elastic Compliance Matrix: (Units=1/GPa)
#
#
# Indices 1 2 3 4 5 6 
#
# 1 0.013568 -0.003695 -0.005505 0.000000 0.007896 0.000000
# 2 -0.003695 0.015704 -0.003801 0.000000 0.004978 0.000000
# 3 -0.005505 -0.003801 0.023754 0.000000 0.014787 0.000000
# 4 0.000000 0.000000 0.000000 0.070462 0.000000 0.020467
# 5 0.007896 0.004978 0.014787 0.000000 0.076484 0.000000
# 6 0.000000 0.000000 0.000000 0.020467 0.000000 0.042947
#
#
# Mechanical properties :
#
#
# Convention : Reuss Voigt Hill
#
# Bulk Modulus (GPa) = 37.00383 63.70569 50.35476
# Shear Modulus (GPa) = 17.99021 22.81852 20.40436
#
# Velocity S-wave (km/s) = 3.18323 3.58503 3.39009
# Velocity P-wave (km/s) = 5.86113 7.28139 6.60952
#
# Compressibility (1/GPa) = 0.02702423
#
# Stress axis : x y z
#
# Youngs Moduli (GPa) = 73.70143 63.67711 42.09889
#
# Poissons Ratio (x) = 0.23527 0.23175
# Poissons Ratio (y) = 0.27231 0.16003
# Poissons Ratio (z) = 0.40571 0.24206
#
# Static dielectric constant tensor:
#      x y z
#    x 3.538900 0.000000 -0.201770 
#    y 0.000000 3.387390 0.000000 
#    z -0.201770 0.000000 3.061840 
# 
# 
# High freq. dielectric constant tensor:
#      x y z
#    x 1.689670 0.000000 -0.019190 
#    y 0.000000 1.681290 0.000000 
#    z -0.019190 0.000000 1.649490 
# 
# From -- ./inp_files/319231.got.cif
#   From: 2010.06.25/outbox.cif.g09.slc.cpg/sg12_160_cif.got.tgz:319231.got - 2010.06.28 00:19:55.
