data_PCOD8080734
_publ_section_title
;
Structure prediction by ZEFSAII (Michael W. Deem and Ramdas Pophale) SiO2 
 PCOD8080734
Probable space group: C 2/M
;
_chemical_formula_sum "Si O2"
_cell_formula_units_Z 56
_cell_length_a 28.786125
_cell_length_b 8.519214
_cell_length_c 13.682651
_cell_angle_alpha 90.000000
_cell_angle_beta 104.077428
_cell_angle_gamma 90.000000
_cell_volume 3254.695417
_symmetry_space_group_name_H-M "C 2/M"
_symmetry_group_IT_number 12
_symmetry_cell_setting 'monoclinic'
loop_
_space_group_symop_operation_xyz
x,y,z
-x,y,-z
-x,-y,-z
x,-y,z
1/2+x,1/2+y,z
1/2-x,1/2+y,-z
1/2-x,1/2-y,-z
1/2+x,1/2-y,z
loop_
_atom_site_type_symbol
_atom_site_label
_atom_site_fract_x
_atom_site_fract_y
_atom_site_fract_z
Si Si1 0.763990 0.314991 0.111386
Si Si2 0.550612 0.681314 0.426171
Si Si3 0.307777 0.179624 0.409524
Si Si4 0.949982 0.316182 0.364246
Si Si5 0.355444 0.682324 0.253685
Si Si6 0.218115 0.684261 0.276244
Si Si7 0.136114 0.678392 0.368647
O O1 0.758565 0.500000 0.110798
O O2 0.818743 0.268109 0.162028
O O3 0.727111 0.241979 0.170889
O O4 0.750000 0.250000 0.000000
O O5 0.550240 0.500000 0.455372
O O6 0.498832 0.729660 0.358385
O O7 0.563144 0.780910 0.529373
O O8 0.590072 0.712346 0.362503
O O9 0.338716 0.293144 0.356358
O O10 0.252299 0.224601 0.369595
O O11 0.323826 0.205205 0.528162
O O12 0.315695 0.000000 0.379201
O O13 0.956814 0.500000 0.354257
O O14 0.908485 0.255219 0.270541
O O15 0.356882 0.500000 0.228099
O O16 0.229283 0.500000 0.289152
O O17 0.163083 0.719185 0.280525
O O18 0.117586 0.500000 0.359257
#
# Coordination Sequence:
#
# PCOD8080734 Si02
#       7
#     8   8   8   8   8   8   8
#     4  11  22  38  57  78 102 130 164 208 259 306
#     4  11  21  31  47  70  98 135 177 216 250 290
#     4  10  18  29  45  67  98 136 172 204 243 291
#     4  11  20  33  49  68  99 136 173 212 254 297
#     4  11  20  32  51  76 102 132 170 210 251 301
#     4  10  20  33  49  71  99 132 169 207 248 300
#     4  10  20  32  46  67 100 139 173 205 247 295
#
# _framework density 17.205911
#
# number of rings (size 3 to 8) (size 9 to 14) (size 15 to 20)
#    0.000    1.429    1.429    9.000    0.000    1.714 
#    0.000    0.000    0.000    0.000    0.000    1.000 
#    0.000    8.000    0.000    0.000    0.000    0.000 
#
# Total GULP energy -347215.872301 kJ/mol
# GULP energy per Si atom -12400.566868 kJ/mol
# Density = 1.716675 g / cm^3
# Si number density = 17.205911 Si / 1000 Ang^3
#
#
#
# Elastic Constant Matrix: (Units=GPa)
#
#
# Indices 1 2 3 4 5 6 
#
# 1 118.8552 30.0168 44.9793 0.0000 1.7414 0.0000
# 2 30.0168 78.1186 18.8756 0.0000 -2.2216 0.0000
# 3 44.9793 18.8756 72.7544 0.0000 1.6108 0.0000
# 4 0.0000 0.0000 0.0000 22.3809 0.0000 3.6134
# 5 1.7414 -2.2216 1.6108 0.0000 16.0321 0.0000
# 6 0.0000 0.0000 0.0000 3.6134 0.0000 29.5212
#
#
#
# Elastic Compliance Matrix: (Units=1/GPa)
#
#
# Indices 1 2 3 4 5 6 
#
# 1 0.011584 -0.002940 -0.006376 0.000000 -0.001025 0.000000
# 2 -0.002940 0.014485 -0.001997 0.000000 0.002527 0.000000
# 3 -0.006376 -0.001997 0.018236 0.000000 -0.001416 0.000000
# 4 0.000000 0.000000 0.000000 0.045582 0.000000 -0.005579
# 5 -0.001025 0.002527 -0.001416 0.000000 0.062979 0.000000
# 6 0.000000 0.000000 0.000000 -0.005579 0.000000 0.034557
#
#
# Mechanical properties :
#
#
# Convention : Reuss Voigt Hill
#
# Bulk Modulus (GPa) = 46.12498 50.83019 48.47759
# Shear Modulus (GPa) = 23.01241 25.31061 24.16151
#
# Velocity S-wave (km/s) = 3.66111 3.83958 3.75141
# Velocity P-wave (km/s) = 6.68861 7.01875 6.85567
#
# Compressibility (1/GPa) = 0.02168022
#
# Stress axis : x y z
#
# Youngs Moduli (GPa) = 86.32566 69.03752 54.83575
#
# Poissons Ratio (x) = 0.20294 0.34965
# Poissons Ratio (y) = 0.25376 0.10948
# Poissons Ratio (z) = 0.55044 0.13784
#
# Static dielectric constant tensor:
#      x y z
#    x 3.343080 0.000000 0.107320 
#    y 0.000000 3.372930 0.000000 
#    z 0.107320 0.000000 2.871890 
# 
# 
# High freq. dielectric constant tensor:
#      x y z
#    x 1.666750 0.000000 0.009100 
#    y 0.000000 1.683080 0.000000 
#    z 0.009100 0.000000 1.612290 
# 
# From -- ./inp_files/247926.got.cif
#   From: 2010.06.25/outbox.cif.g09.slc.cpg/sg12_124_cif.got.tgz:247926.got - 2010.06.28 00:19:55.
