data_PCOD8080954
_publ_section_title
;
Structure prediction by ZEFSAII (Michael W. Deem and Ramdas Pophale) SiO2 
 PCOD8080954
Probable space group: C 2/M
;
_chemical_formula_sum "Si O2"
_cell_formula_units_Z 56
_cell_length_a 24.072032
_cell_length_b 9.160684
_cell_length_c 15.846631
_cell_angle_alpha 90.000000
_cell_angle_beta 62.917833
_cell_angle_gamma 90.000000
_cell_volume 3111.290627
_symmetry_space_group_name_H-M "C 2/M"
_symmetry_group_IT_number 12
_symmetry_cell_setting 'monoclinic'
loop_
_space_group_symop_operation_xyz
x,y,z
-x,y,-z
-x,-y,-z
x,-y,z
1/2+x,1/2+y,z
1/2-x,1/2+y,-z
1/2-x,1/2-y,-z
1/2+x,1/2-y,z
loop_
_atom_site_type_symbol
_atom_site_label
_atom_site_fract_x
_atom_site_fract_y
_atom_site_fract_z
Si Si1 0.342086 0.170922 0.415187
Si Si2 0.744020 0.828264 0.374200
Si Si3 0.220105 0.327960 0.201314
Si Si4 0.333564 0.826905 0.045756
Si Si5 0.893231 0.327844 0.830290
Si Si6 0.468837 0.172817 0.257766
Si Si7 0.941755 0.673324 0.091705
O O1 0.314216 0.214738 0.525257
O O2 0.306195 0.250867 0.364139
O O3 0.415380 0.216734 0.362650
O O4 0.334349 0.000000 0.402672
O O5 0.727812 0.772046 0.291790
O O6 0.755866 0.000000 0.367212
O O7 0.231446 0.500000 0.186669
O O8 0.267454 0.249495 0.105265
O O9 0.150491 0.285761 0.218496
O O10 0.377734 0.776263 0.092274
O O11 0.323611 0.000000 0.050264
O O12 0.363721 0.768581 0.937864
O O13 0.899176 0.500000 0.835509
O O14 0.962863 0.261456 0.766560
O O15 0.445525 0.234603 0.183855
O O16 0.474973 0.000000 0.248344
O O17 0.945606 0.500000 0.088036
O O18 0.000000 0.738727 0.000000
#
# Coordination Sequence:
#
# PCOD8080954 Si02
#       7
#     8   8   8   8   8   8   8
#     4   9  17  30  51  74  90 111 149 192 228 266
#     4   9  18  32  47  67  96 122 145 181 229 275
#     4  10  20  32  45  63  93 128 154 179 223 274
#     4  10  18  29  48  70  89 116 157 195 224 258
#     4   9  17  29  44  65  93 123 152 186 226 267
#     4   9  15  25  43  68  93 114 144 188 231 265
#     4   9  14  22  39  66  92 108 133 182 232 261
#
# _framework density 17.99896
#
# number of rings (size 3 to 8) (size 9 to 14) (size 15 to 20)
#    0.000    2.714    1.429    1.286    0.000    1.714 
#    0.000    0.714    0.000    6.429    0.000    0.000 
#    0.000    5.714    0.000    0.000    0.000    0.000 
#
# Total GULP energy -347067.003609 kJ/mol
# GULP energy per Si atom -12395.250129 kJ/mol
# Density = 1.795799 g / cm^3
# Si number density = 17.998960 Si / 1000 Ang^3
#
#
#
# Elastic Constant Matrix: (Units=GPa)
#
#
# Indices 1 2 3 4 5 6 
#
# 1 138.3118 20.6119 71.3137 0.0000 -13.3222 0.0000
# 2 20.6119 14.1165 15.9021 0.0000 -2.1348 0.0001
# 3 71.3137 15.9021 103.6282 0.0000 -14.7992 0.0000
# 4 0.0000 0.0000 0.0000 16.7285 0.0000 -2.2858
# 5 -13.3222 -2.1348 -14.7992 0.0000 31.3407 0.0000
# 6 0.0000 0.0001 0.0000 -2.2858 0.0000 16.4171
#
#
#
# Elastic Compliance Matrix: (Units=1/GPa)
#
#
# Indices 1 2 3 4 5 6 
#
# 1 0.012366 -0.010256 -0.006740 0.000000 0.001375 0.000000
# 2 -0.010256 0.094154 -0.007611 0.000000 -0.001540 -0.000001
# 3 -0.006740 -0.007611 0.016055 0.000000 0.004198 0.000000
# 4 0.000000 0.000000 0.000000 0.060937 0.000000 0.008484
# 5 0.001375 -0.001540 0.004198 0.000000 0.034370 0.000000
# 6 0.000000 -0.000001 0.000000 0.008484 0.000000 0.062093
#
#
# Mechanical properties :
#
#
# Convention : Reuss Voigt Hill
#
# Bulk Modulus (GPa) = 13.63071 52.41242 33.02157
# Shear Modulus (GPa) = 14.13862 22.77918 18.45890
#
# Velocity S-wave (km/s) = 2.80576 3.56136 3.20590
# Velocity P-wave (km/s) = 4.25275 6.78925 5.66480
#
# Compressibility (1/GPa) = 0.07336374
#
# Stress axis : x y z
#
# Youngs Moduli (GPa) = 80.86817 10.62089 62.28488
#
# Poissons Ratio (x) = 0.10892 0.41978
# Poissons Ratio (y) = 0.82935 0.47402
# Poissons Ratio (z) = 0.54502 0.08083
#
# Static dielectric constant tensor:
#      x y z
#    x 3.584070 0.000000 -0.095000 
#    y 0.000000 2.815740 0.000000 
#    z -0.095000 0.000000 3.481440 
# 
# 
# High freq. dielectric constant tensor:
#      x y z
#    x 1.702970 0.000000 -0.008410 
#    y 0.000000 1.640790 0.000000 
#    z -0.008410 0.000000 1.698600 
# 
# From -- ./inp_files/231813.got.cif
#   From: 2010.06.25/outbox.cif.g09.slc.cpg/sg12_116_cif.got.tgz:231813.got - 2010.06.28 00:19:55.
