data_PCOD8080899
_publ_section_title
;
Structure prediction by ZEFSAII (Michael W. Deem and Ramdas Pophale) SiO2 
 PCOD8080899
Probable space group: C 2/M
;
_chemical_formula_sum "Si O2"
_cell_formula_units_Z 64
_cell_length_a 29.821338
_cell_length_b 9.293409
_cell_length_c 14.851523
_cell_angle_alpha 90.000000
_cell_angle_beta 79.300801
_cell_angle_gamma 90.000000
_cell_volume 4044.424484
_symmetry_space_group_name_H-M "C 2/M"
_symmetry_group_IT_number 12
_symmetry_cell_setting 'monoclinic'
loop_
_space_group_symop_operation_xyz
x,y,z
-x,y,-z
-x,-y,-z
x,-y,z
1/2+x,1/2+y,z
1/2-x,1/2+y,-z
1/2-x,1/2-y,-z
1/2+x,1/2-y,z
loop_
_atom_site_type_symbol
_atom_site_label
_atom_site_fract_x
_atom_site_fract_y
_atom_site_fract_z
Si Si1 0.792662 0.332947 0.378164
Si Si2 0.532207 0.667434 0.119736
Si Si3 0.438285 0.166551 0.387227
Si Si4 0.122636 0.332954 0.759721
Si Si5 0.405174 0.331759 0.573408
Si Si6 0.806934 0.835114 0.550247
Si Si7 0.542104 0.167705 0.294267
Si Si8 0.433752 0.666002 0.085502
O O1 0.798529 0.500000 0.397177
O O2 0.824520 0.292473 0.281181
O O3 0.812402 0.255500 0.458164
O O4 0.739729 0.291525 0.379244
O O5 0.533605 0.500000 0.147235
O O6 0.550338 0.766561 0.192822
O O7 0.480989 0.714879 0.113729
O O8 0.564700 0.695615 0.021779
O O9 0.408444 0.214798 0.313005
O O10 0.426139 0.267398 0.474907
O O11 0.490777 0.193673 0.345155
O O12 0.429209 0.000000 0.416089
O O13 0.115943 0.500000 0.781564
O O14 0.108150 0.251743 0.855539
O O15 0.417966 0.500000 0.573396
O O16 0.350479 0.308183 0.597061
O O17 0.424154 0.248855 0.651708
O O18 0.804133 0.000000 0.520647
O O19 0.554572 0.000000 0.287493
O O20 0.425325 0.500000 0.108132
#
# Coordination Sequence:
#
# PCOD8080899 Si02
#       8
#     8   8   8   8   8   8   8   8
#     4   9  17  30  48  67  92 122 152 189 233 277
#     4   9  18  33  49  68  93 123 156 191 231 273
#     4  10  20  33  45  65  96 128 161 192 224 268
#     4  10  18  29  47  71  97 126 155 185 229 279
#     4  11  22  33  47  67  92 125 164 199 231 270
#     4   9  18  31  46  67  91 119 156 195 232 272
#     4  11  22  34  48  66  92 127 163 196 229 269
#     4   9  18  31  49  70  95 123 152 189 232 277
#
# _framework density 15.824253000000001
#
# number of rings (size 3 to 8) (size 9 to 14) (size 15 to 20)
#    0.000    2.250    2.500    1.875    0.000    4.500 
#    0.000    1.250    0.000    0.000    0.000    0.875 
#    0.000    0.000    0.000    0.000    0.000    0.000 
#
# Total GULP energy -396772.482875 kJ/mol
# GULP energy per Si atom -12399.140090 kJ/mol
# Density = 1.578824 g / cm^3
# Si number density = 15.824253 Si / 1000 Ang^3
#
#
#
# Elastic Constant Matrix: (Units=GPa)
#
#
# Indices 1 2 3 4 5 6 
#
# 1 79.2346 42.6009 50.4461 0.0000 -9.1138 0.0000
# 2 42.6009 72.4199 56.7030 0.0000 -4.7785 0.0000
# 3 50.4461 56.7030 102.2305 0.0000 -11.4689 0.0000
# 4 0.0000 0.0000 0.0000 32.1641 0.0000 -0.8269
# 5 -9.1138 -4.7785 -11.4689 0.0000 21.3217 0.0000
# 6 0.0000 0.0000 0.0000 -0.8269 0.0000 20.4318
#
#
#
# Elastic Compliance Matrix: (Units=1/GPa)
#
#
# Indices 1 2 3 4 5 6 
#
# 1 0.020697 -0.007547 -0.005560 0.000000 0.004165 0.000000
# 2 -0.007547 0.027235 -0.011770 0.000000 -0.003453 0.000000
# 3 -0.005560 -0.011770 0.019678 0.000000 0.005571 0.000000
# 4 0.000000 0.000000 0.000000 0.031123 0.000000 0.001260
# 5 0.004165 -0.003453 0.005571 0.000000 0.050903 0.000000
# 6 0.000000 0.000000 0.000000 0.001260 0.000000 0.048994
#
#
# Mechanical properties :
#
#
# Convention : Reuss Voigt Hill
#
# Bulk Modulus (GPa) = 55.99724 61.48724 58.74224
# Shear Modulus (GPa) = 19.65891 21.72586 20.69238
#
# Velocity S-wave (km/s) = 3.52849 3.70935 3.62005
# Velocity P-wave (km/s) = 7.21555 7.56878 7.39427
#
# Compressibility (1/GPa) = 0.01785802
#
# Stress axis : x y z
#
# Youngs Moduli (GPa) = 48.31534 36.71691 50.81709
#
# Poissons Ratio (x) = 0.27711 0.28254
# Poissons Ratio (y) = 0.36464 0.59810
# Poissons Ratio (z) = 0.26863 0.43214
#
# Static dielectric constant tensor:
#      x y z
#    x 3.108060 0.000000 -0.144230 
#    y 0.000000 3.044090 0.000000 
#    z -0.144230 0.000000 2.912870 
# 
# 
# High freq. dielectric constant tensor:
#      x y z
#    x 1.594820 0.000000 -0.013690 
#    y 0.000000 1.614410 0.000000 
#    z -0.013690 0.000000 1.591250 
# 
# From -- ./inp_files/248285.got.cif
#   From: 2010.06.25/outbox.cif.g09.slc.cpg/sg12_125_cif.got.tgz:248285.got - 2010.06.28 00:19:55.
