data_PCOD8080701
_publ_section_title
;
Structure prediction by ZEFSAII (Michael W. Deem and Ramdas Pophale) SiO2 
 PCOD8080701
Probable space group: C 2/M
;
_chemical_formula_sum "Si O2"
_cell_formula_units_Z 56
_cell_length_a 32.024304
_cell_length_b 8.921602
_cell_length_c 16.051620
_cell_angle_alpha 90.000000
_cell_angle_beta 129.867963
_cell_angle_gamma 90.000000
_cell_volume 3519.923371
_symmetry_space_group_name_H-M "C 2/M"
_symmetry_group_IT_number 12
_symmetry_cell_setting 'monoclinic'
loop_
_space_group_symop_operation_xyz
x,y,z
-x,y,-z
-x,-y,-z
x,-y,z
1/2+x,1/2+y,z
1/2-x,1/2+y,-z
1/2-x,1/2-y,-z
1/2+x,1/2-y,z
loop_
_atom_site_type_symbol
_atom_site_label
_atom_site_fract_x
_atom_site_fract_y
_atom_site_fract_z
Si Si1 0.693750 0.173092 0.840437
Si Si2 0.396840 0.676543 0.980037
Si Si3 0.059029 0.669044 0.115929
Si Si4 0.510629 0.324838 0.201839
Si Si5 0.303860 0.174262 0.965447
Si Si6 0.921483 0.323496 0.380454
Si Si7 0.514748 0.322491 0.398081
O O1 0.742327 0.274799 0.867792
O O2 0.641176 0.210722 0.718336
O O3 0.711027 0.000000 0.854932
O O4 0.680820 0.212593 0.919786
O O5 0.393167 0.500000 0.968126
O O6 0.449663 0.727843 0.100341
O O7 0.399036 0.742686 0.889426
O O8 0.343510 0.735752 0.956557
O O9 0.079920 0.500000 0.152120
O O10 0.055811 0.742899 0.203170
O O11 0.000000 0.678054 0.000000
O O12 0.516711 0.500000 0.193197
O O13 0.522567 0.280826 0.311938
O O14 0.309849 0.000000 0.953273
O O15 0.933822 0.500000 0.396447
O O16 0.935523 0.252149 0.487965
O O17 0.957920 0.245943 0.356310
O O18 0.513931 0.500000 0.411897
#
# Coordination Sequence:
#
# PCOD8080701 Si02
#       7
#     8   8   8   8   8   8   8
#     4   9  19  33  46  63  89 119 149 184 223 262
#     4  10  18  29  45  64  91 122 149 179 218 264
#     4   9  17  28  43  64  89 116 147 183 220 259
#     4   9  18  30  44  64  90 121 151 180 218 263
#     4  10  19  30  46  67  89 115 150 186 220 261
#     4  10  19  31  46  64  89 119 151 185 221 261
#     4  10  19  30  45  66  91 118 151 185 219 261
#
# _framework density 15.909438
#
# number of rings (size 3 to 8) (size 9 to 14) (size 15 to 20)
#    0.000    2.429    0.000    3.857    0.000    5.143 
#    0.000    0.000    0.000    0.000    0.000    1.000 
#    0.000    0.000    0.000    0.000    0.000    0.000 
#
# Total GULP energy -347235.959463 kJ/mol
# GULP energy per Si atom -12401.284267 kJ/mol
# Density = 1.587323 g / cm^3
# Si number density = 15.909438 Si / 1000 Ang^3
#
#
#
# Elastic Constant Matrix: (Units=GPa)
#
#
# Indices 1 2 3 4 5 6 
#
# 1 107.2084 50.3169 54.0873 0.0000 -17.5305 0.0000
# 2 50.3169 80.0346 43.4245 0.0000 -10.3551 0.0000
# 3 54.0873 43.4245 90.1452 0.0000 -9.9495 0.0000
# 4 0.0000 0.0000 0.0000 22.7020 0.0000 -1.8658
# 5 -17.5305 -10.3551 -9.9495 0.0000 25.7745 0.0000
# 6 0.0000 0.0000 0.0000 -1.8658 0.0000 31.8543
#
#
#
# Elastic Compliance Matrix: (Units=1/GPa)
#
#
# Indices 1 2 3 4 5 6 
#
# 1 0.016331 -0.006112 -0.006162 0.000000 0.006273 0.000000
# 2 -0.006112 0.019570 -0.005589 0.000000 0.001548 0.000000
# 3 -0.006162 -0.005589 0.017519 0.000000 0.000326 0.000000
# 4 0.000000 0.000000 0.000000 0.044262 0.000000 0.002593
# 5 0.006273 0.001548 0.000326 0.000000 0.043812 0.000000
# 6 0.000000 0.000000 0.000000 0.002593 0.000000 0.031545
#
#
# Mechanical properties :
#
#
# Convention : Reuss Voigt Hill
#
# Bulk Modulus (GPa) = 56.51829 63.67173 60.09501
# Shear Modulus (GPa) = 23.29241 24.70345 23.99793
#
# Velocity S-wave (km/s) = 3.83046 3.94478 3.88804
# Velocity P-wave (km/s) = 7.42734 7.80106 7.61649
#
# Compressibility (1/GPa) = 0.01769339
#
# Stress axis : x y z
#
# Youngs Moduli (GPa) = 61.23444 51.09882 57.08203
#
# Poissons Ratio (x) = 0.31232 0.35173
# Poissons Ratio (y) = 0.37427 0.31904
# Poissons Ratio (z) = 0.37731 0.28560
#
# Static dielectric constant tensor:
#      x y z
#    x 2.936840 0.000000 -0.113230 
#    y 0.000000 3.141020 0.000000 
#    z -0.113230 0.000000 2.923720 
# 
# 
# High freq. dielectric constant tensor:
#      x y z
#    x 1.600960 0.000000 -0.012290 
#    y 0.000000 1.627060 0.000000 
#    z -0.012290 0.000000 1.586420 
# 
# From -- ./inp_files/244282.got.cif
#   From: 2010.06.25/outbox.cif.g09.slc.cpg/sg12_123_cif.got.tgz:244282.got - 2010.06.28 00:19:55.
