data_PCOD8080790
_publ_section_title
;
Structure prediction by ZEFSAII (Michael W. Deem and Ramdas Pophale) SiO2 
 PCOD8080790
Probable space group: C 2/M
;
_chemical_formula_sum "Si O2"
_cell_formula_units_Z 64
_cell_length_a 23.455167
_cell_length_b 8.555786
_cell_length_c 21.574123
_cell_angle_alpha 90.000000
_cell_angle_beta 58.233205
_cell_angle_gamma 90.000000
_cell_volume 3680.879852
_symmetry_space_group_name_H-M "C 2/M"
_symmetry_group_IT_number 12
_symmetry_cell_setting 'monoclinic'
loop_
_space_group_symop_operation_xyz
x,y,z
-x,y,-z
-x,-y,-z
x,-y,z
1/2+x,1/2+y,z
1/2-x,1/2+y,-z
1/2-x,1/2-y,-z
1/2+x,1/2-y,z
loop_
_atom_site_type_symbol
_atom_site_label
_atom_site_fract_x
_atom_site_fract_y
_atom_site_fract_z
Si Si1 0.061782 0.816973 0.640104
Si Si2 0.356082 0.178148 0.920761
Si Si3 0.732512 0.182667 0.923086
Si Si4 0.708467 0.685529 0.581181
Si Si5 0.196480 0.314824 0.365519
Si Si6 0.936743 0.679972 0.492902
Si Si7 0.201030 0.684986 0.223610
Si Si8 0.925672 0.817283 0.775142
O O1 0.132701 0.745924 0.622895
O O2 0.049797 0.779593 0.575585
O O3 0.999091 0.750540 0.715554
O O4 0.064458 0.000000 0.648327
O O5 0.286259 0.206829 0.925732
O O6 0.413304 0.284535 0.855853
O O7 0.378457 0.000000 0.898979
O O8 0.340614 0.213684 0.002847
O O9 0.736451 0.233816 0.848801
O O10 0.751915 0.000000 0.919346
O O11 0.708973 0.500000 0.575348
O O12 0.750000 0.750000 0.500000
O O13 0.741681 0.740294 0.626877
O O14 0.191897 0.500000 0.364377
O O15 0.127871 0.250910 0.434836
O O16 0.204649 0.248116 0.291491
O O17 0.925573 0.500000 0.480294
O O18 0.000000 0.701400 0.500000
O O19 0.210141 0.500000 0.216948
O O20 0.129689 0.729011 0.234285
O O21 0.919727 0.000000 0.764691
#
# Coordination Sequence:
#
# PCOD8080790 Si02
#       8
#     8   8   8   8   8   8   8   8
#     4  10  21  33  47  68  92 119 152 192 237 275
#     4   9  16  26  42  64  90 123 157 183 215 266
#     4   9  16  26  41  64  94 123 150 184 223 264
#     4  10  19  35  53  68  87 115 155 199 237 274
#     4   9  18  31  47  67  90 117 151 192 231 266
#     4  10  19  31  48  68  91 121 154 185 223 275
#     4  10  18  29  46  68  93 123 155 185 223 274
#     4  10  19  30  43  65  97 125 149 185 230 272
#
# _framework density 17.387146999999999
#
# number of rings (size 3 to 8) (size 9 to 14) (size 15 to 20)
#    0.000    2.375    1.250    3.750    0.000    3.750 
#    0.000    2.500    0.000    0.000    0.000    0.875 
#    0.000    7.000    0.000    0.000    0.000    0.000 
#
# Total GULP energy -396563.082160 kJ/mol
# GULP energy per Si atom -12392.596317 kJ/mol
# Density = 1.734757 g / cm^3
# Si number density = 17.387147 Si / 1000 Ang^3
#
#
#
# Elastic Constant Matrix: (Units=GPa)
#
#
# Indices 1 2 3 4 5 6 
#
# 1 76.0830 13.8413 60.5981 0.0000 -7.2161 -0.0005
# 2 13.8413 26.2123 21.6373 -0.0006 1.1661 0.0017
# 3 60.5981 21.6373 182.8664 0.0000 -0.5360 0.0002
# 4 0.0000 -0.0006 0.0000 27.6010 -0.0001 0.3478
# 5 -7.2161 1.1661 -0.5360 -0.0001 11.1994 -0.0005
# 6 -0.0005 0.0017 0.0002 0.3478 -0.0005 5.6319
#
#
#
# Elastic Compliance Matrix: (Units=1/GPa)
#
#
# Indices 1 2 3 4 5 6 
#
# 1 0.020316 -0.006431 -0.005932 0.000000 0.013476 0.000005
# 2 -0.006431 0.044558 -0.003167 0.000001 -0.008934 -0.000015
# 3 -0.005932 -0.003167 0.007800 0.000000 -0.003119 0.000000
# 4 0.000000 0.000001 0.000000 0.036259 0.000000 -0.002239
# 5 0.013476 -0.008934 -0.003119 0.000000 0.098754 0.000012
# 6 0.000005 -0.000015 0.000000 -0.002239 0.000012 0.177700
#
#
# Mechanical properties :
#
#
# Convention : Reuss Voigt Hill
#
# Bulk Modulus (GPa) = 24.03060 53.03501 38.53281
# Shear Modulus (GPa) = 11.61931 21.49212 16.55571
#
# Velocity S-wave (km/s) = 2.58790 3.51962 3.08909
# Velocity P-wave (km/s) = 4.77289 6.86190 5.91042
#
# Compressibility (1/GPa) = 0.04161360
#
# Stress axis : x y z
#
# Youngs Moduli (GPa) = 49.22168 22.44276 128.20783
#
# Poissons Ratio (x) = 0.14433 0.76053
# Poissons Ratio (y) = 0.31654 0.40608
# Poissons Ratio (z) = 0.29198 0.07108
#
# Static dielectric constant tensor:
#      x y z
#    x 3.158000 0.000000 -0.007910 
#    y 0.000000 3.099000 0.000000 
#    z -0.007910 0.000000 3.935610 
# 
# 
# High freq. dielectric constant tensor:
#      x y z
#    x 1.623620 0.000000 0.001300 
#    y 0.000000 1.662300 0.000000 
#    z 0.001300 0.000000 1.692170 
# 
# From -- ./inp_files/348515.got.cif
#   From: 2010.06.25/outbox.cif.g09.slc.cpg/sg12_175_cif.got.tgz:348515.got - 2010.06.28 00:19:55.
