data_PCOD8080764
_publ_section_title
;
Structure prediction by ZEFSAII (Michael W. Deem and Ramdas Pophale) SiO2 
 PCOD8080764
Probable space group: C 2/M
;
_chemical_formula_sum "Si O2"
_cell_formula_units_Z 56
_cell_length_a 23.350597
_cell_length_b 16.388835
_cell_length_c 18.505194
_cell_angle_alpha 90.000000
_cell_angle_beta 149.501244
_cell_angle_gamma 90.000000
_cell_volume 3594.120057
_symmetry_space_group_name_H-M "C 2/M"
_symmetry_group_IT_number 12
_symmetry_cell_setting 'monoclinic'
loop_
_space_group_symop_operation_xyz
x,y,z
-x,y,-z
-x,-y,-z
x,-y,z
1/2+x,1/2+y,z
1/2-x,1/2+y,-z
1/2-x,1/2-y,-z
1/2+x,1/2-y,z
loop_
_atom_site_type_symbol
_atom_site_label
_atom_site_fract_x
_atom_site_fract_y
_atom_site_fract_z
Si Si1 0.575705 0.163571 0.346043
Si Si2 0.764090 0.760625 0.374407
Si Si3 0.222250 0.906103 0.515454
Si Si4 0.823262 0.649127 0.320322
Si Si5 0.977874 0.592168 0.371785
Si Si6 0.578523 0.407111 0.019555
Si Si7 0.560949 0.692247 0.234960
O O1 0.650019 0.218924 0.478253
O O2 0.655791 0.100579 0.390544
O O3 0.482890 0.115309 0.292472
O O4 0.514947 0.227026 0.225855
O O5 0.770947 0.857178 0.400371
O O6 0.797831 0.738863 0.327865
O O7 0.641732 0.722848 0.258042
O O8 0.126080 0.869734 0.358884
O O9 0.195191 0.000000 0.503178
O O10 0.893333 0.654416 0.321502
O O11 0.708185 0.601809 0.181776
O O12 0.896998 0.597090 0.457747
O O13 0.932269 0.500000 0.330164
O O14 0.553609 0.500000 0.971265
O O15 0.500000 0.379730 0.000000
O O16 0.547554 0.352261 0.916552
#
# Coordination Sequence:
#
# PCOD8080764 Si02
#       7
#     8   8   8   8   8   8   8
#     4   8  16  27  43  61  86 115 145 174 213 254
#     4   8  15  27  41  60  87 115 143 176 214 256
#     4   9  15  25  44  67  87 110 142 182 220 250
#     4  10  18  30  42  63  91 119 143 171 216 260
#     4  10  18  29  46  66  89 115 145 183 211 246
#     4  11  20  27  41  65  91 118 143 171 214 266
#     4   9  16  29  40  61  91 116 138 174 218 263
#
# _framework density 15.581004
#
# number of rings (size 3 to 8) (size 9 to 14) (size 15 to 20)
#    0.000    2.714    1.429    4.286    0.000    0.000 
#    0.000    0.714    0.000    0.000    0.000   28.000 
#    0.000    0.000    0.000    0.000    0.000    0.000 
#
# Total GULP energy -346948.771446 kJ/mol
# GULP energy per Si atom -12391.027552 kJ/mol
# Density = 1.554554 g / cm^3
# Si number density = 15.581004 Si / 1000 Ang^3
#
#
#
# Elastic Constant Matrix: (Units=GPa)
#
#
# Indices 1 2 3 4 5 6 
#
# 1 101.4467 44.6530 26.0999 0.0000 5.1058 0.0000
# 2 44.6530 92.0538 22.9750 0.0000 -4.3798 0.0000
# 3 26.0999 22.9750 58.2542 0.0000 2.6590 0.0000
# 4 0.0000 0.0000 0.0000 18.7850 0.0000 -4.1250
# 5 5.1058 -4.3798 2.6590 0.0000 13.5496 0.0000
# 6 0.0000 0.0000 0.0000 -4.1250 0.0000 20.7040
#
#
#
# Elastic Compliance Matrix: (Units=1/GPa)
#
#
# Indices 1 2 3 4 5 6 
#
# 1 0.013770 -0.006125 -0.003457 0.000000 -0.006490 0.000000
# 2 -0.006125 0.015101 -0.003572 0.000000 0.007890 0.000000
# 3 -0.003457 -0.003572 0.020299 0.000000 -0.003835 0.000000
# 4 0.000000 0.000000 0.000000 0.055670 0.000000 0.011091
# 5 -0.006490 0.007890 -0.003835 0.000000 0.079551 0.000000
# 6 0.000000 0.000000 0.000000 0.011091 0.000000 0.050510
#
#
# Mechanical properties :
#
#
# Convention : Reuss Voigt Hill
#
# Bulk Modulus (GPa) = 43.74191 48.80115 46.27153
# Shear Modulus (GPa) = 18.59917 21.14283 19.87100
#
# Velocity S-wave (km/s) = 3.45876 3.68769 3.57506
# Velocity P-wave (km/s) = 6.63969 7.03712 6.84129
#
# Compressibility (1/GPa) = 0.02286137
#
# Stress axis : x y z
#
# Youngs Moduli (GPa) = 72.62373 66.21980 49.26398
#
# Poissons Ratio (x) = 0.40561 0.17032
# Poissons Ratio (y) = 0.44484 0.17595
# Poissons Ratio (z) = 0.25108 0.23651
#
# Static dielectric constant tensor:
#      x y z
#    x 3.320130 0.000000 -0.025290 
#    y 0.000000 3.036200 0.000000 
#    z -0.025290 0.000000 2.698720 
# 
# 
# High freq. dielectric constant tensor:
#      x y z
#    x 1.585320 0.000000 0.003210 
#    y 0.000000 1.582810 0.000000 
#    z 0.003210 0.000000 1.567080 
# 
# From -- ./inp_files/285026.got.cif
#   From: 2010.06.25/outbox.cif.g09.slc.cpg/sg12_143_cif.got.tgz:285026.got - 2010.06.28 00:19:55.
