data_PCOD8080657
_publ_section_title
;
Structure prediction by ZEFSAII (Michael W. Deem and Ramdas Pophale) SiO2 
 PCOD8080657
Probable space group: C 2/M
;
_chemical_formula_sum "Si O2"
_cell_formula_units_Z 56
_cell_length_a 27.301342
_cell_length_b 8.758355
_cell_length_c 16.148536
_cell_angle_alpha 90.000000
_cell_angle_beta 65.255230
_cell_angle_gamma 90.000000
_cell_volume 3506.810449
_symmetry_space_group_name_H-M "C 2/M"
_symmetry_group_IT_number 12
_symmetry_cell_setting 'monoclinic'
loop_
_space_group_symop_operation_xyz
x,y,z
-x,y,-z
-x,-y,-z
x,-y,z
1/2+x,1/2+y,z
1/2-x,1/2+y,-z
1/2-x,1/2-y,-z
1/2+x,1/2-y,z
loop_
_atom_site_type_symbol
_atom_site_label
_atom_site_fract_x
_atom_site_fract_y
_atom_site_fract_z
Si Si1 0.738593 0.820151 0.313045
Si Si2 0.049677 0.818570 0.866315
Si Si3 0.767860 0.177033 0.858072
Si Si4 0.560445 0.179105 0.034849
Si Si5 0.801432 0.821479 0.506356
Si Si6 0.670568 0.176781 0.043390
Si Si7 0.649481 0.678713 0.692548
O O1 0.725070 0.771799 0.230156
O O2 0.692002 0.754386 0.407752
O O3 0.797131 0.753642 0.299767
O O4 0.736926 0.000000 0.321564
O O5 0.095002 0.754416 0.771116
O O6 0.994011 0.734817 0.881337
O O7 0.041731 0.000000 0.866445
O O8 0.068004 0.773544 0.945394
O O9 0.815942 0.222309 0.886149
O O10 0.772115 0.000000 0.833338
O O11 0.710504 0.219172 0.939750
O O12 0.610007 0.216434 0.059832
O O13 0.557201 0.000000 0.016149
O O14 0.750000 0.750000 0.500000
O O15 0.850400 0.787718 0.406904
O O16 0.793002 0.000000 0.524129
O O17 0.677749 0.000000 0.061986
O O18 0.650301 0.500000 0.709484
#
# Coordination Sequence:
#
# PCOD8080657 Si02
#       7
#     8   8   8   8   8   8   8
#     4  10  18  29  44  64  91 120 147 177 216 259
#     4  10  18  29  45  65  87 115 150 180 212 253
#     4  10  19  30  46  67  87 113 149 182 215 257
#     4  10  19  31  44  62  89 117 145 179 218 254
#     4   9  16  28  43  62  88 116 146 179 217 259
#     4   9  19  33  46  62  88 118 146 180 219 258
#     4   8  16  28  43  63  88 117 146 178 213 252
#
# _framework density 15.968926
#
# number of rings (size 3 to 8) (size 9 to 14) (size 15 to 20)
#    0.000    2.571    0.000    4.714    0.000    1.714 
#    0.000    7.857    0.000    0.000    0.000    1.000 
#    0.000    8.000    0.000    0.000    0.000    0.000 
#
# Total GULP energy -347077.846631 kJ/mol
# GULP energy per Si atom -12395.637380 kJ/mol
# Density = 1.593258 g / cm^3
# Si number density = 15.968926 Si / 1000 Ang^3
#
#
#
# Elastic Constant Matrix: (Units=GPa)
#
#
# Indices 1 2 3 4 5 6 
#
# 1 84.2558 24.7703 46.5204 0.0000 -5.0307 0.0000
# 2 24.7703 56.6139 34.0362 0.0000 -0.2316 0.0000
# 3 46.5204 34.0362 124.4518 0.0000 -7.5343 0.0000
# 4 0.0000 0.0000 0.0000 25.4959 0.0000 3.6348
# 5 -5.0307 -0.2316 -7.5343 0.0000 21.2018 0.0000
# 6 0.0000 0.0000 0.0000 3.6348 0.0000 22.2579
#
#
#
# Elastic Compliance Matrix: (Units=1/GPa)
#
#
# Indices 1 2 3 4 5 6 
#
# 1 0.015760 -0.004093 -0.004648 0.000000 0.002043 0.000000
# 2 -0.004093 0.022274 -0.004707 0.000000 -0.002401 0.000000
# 3 -0.004648 -0.004707 0.011232 0.000000 0.002837 0.000000
# 4 0.000000 0.000000 0.000000 0.040157 0.000000 -0.006558
# 5 0.002043 -0.002401 0.002837 0.000000 0.048632 0.000000
# 6 0.000000 0.000000 0.000000 -0.006558 0.000000 0.045999
#
#
# Mechanical properties :
#
#
# Convention : Reuss Voigt Hill
#
# Bulk Modulus (GPa) = 44.70251 52.88615 48.79433
# Shear Modulus (GPa) = 22.89296 24.45744 23.67520
#
# Velocity S-wave (km/s) = 3.79039 3.91777 3.85460
# Velocity P-wave (km/s) = 6.87097 7.32497 7.10160
#
# Compressibility (1/GPa) = 0.02237011
#
# Stress axis : x y z
#
# Youngs Moduli (GPa) = 63.45069 44.89467 89.03213
#
# Poissons Ratio (x) = 0.18374 0.41384
# Poissons Ratio (y) = 0.25969 0.41910
# Poissons Ratio (z) = 0.29493 0.21133
#
# Static dielectric constant tensor:
#      x y z
#    x 2.911070 0.000000 -0.176730 
#    y 0.000000 3.080110 0.000000 
#    z -0.176730 0.000000 3.358660 
# 
# 
# High freq. dielectric constant tensor:
#      x y z
#    x 1.579580 0.000000 -0.003460 
#    y 0.000000 1.618990 0.000000 
#    z -0.003460 0.000000 1.613940 
# 
# From -- ./inp_files/243032.got.cif
#   From: 2010.06.25/outbox.cif.g09.slc.cpg/sg12_122_cif.got.tgz:243032.got - 2010.06.28 00:19:55.
