data_PCOD8080089
_publ_section_title
;
Structure prediction by ZEFSAII (Michael W. Deem and Ramdas Pophale) SiO2 
 PCOD8080089
Probable space group: C 2/M
;
_chemical_formula_sum "Si O2"
_cell_formula_units_Z 40
_cell_length_a 24.545989
_cell_length_b 9.143431
_cell_length_c 12.452002
_cell_angle_alpha 90.000000
_cell_angle_beta 59.683711
_cell_angle_gamma 90.000000
_cell_volume 2412.495670
_symmetry_space_group_name_H-M "C 2/M"
_symmetry_group_IT_number 12
_symmetry_cell_setting 'monoclinic'
loop_
_space_group_symop_operation_xyz
x,y,z
-x,y,-z
-x,-y,-z
x,-y,z
1/2+x,1/2+y,z
1/2-x,1/2+y,-z
1/2-x,1/2-y,-z
1/2+x,1/2-y,z
loop_
_atom_site_type_symbol
_atom_site_label
_atom_site_fract_x
_atom_site_fract_y
_atom_site_fract_z
Si Si1 0.804382 0.669370 0.584638
Si Si2 0.162787 0.829897 0.654386
Si Si3 0.670349 0.331885 0.998284
Si Si4 0.706653 0.668576 0.195226
Si Si5 0.930118 0.827627 0.070353
O O1 0.821465 0.500000 0.572903
O O2 0.844070 0.740469 0.448704
O O3 0.730240 0.698063 0.642140
O O4 0.825273 0.744107 0.675315
O O5 0.110051 0.768506 0.788577
O O6 0.153703 0.000000 0.636780
O O7 0.688824 0.500000 0.952049
O O8 0.724043 0.228124 0.898735
O O9 0.604667 0.288360 0.006853
O O10 0.662582 0.311110 0.133985
O O11 0.712915 0.500000 0.221994
O O12 0.935744 0.000000 0.078078
O O13 0.000000 0.756199 0.000000
#
# Coordination Sequence:
#
# PCOD8080089 Si02
#       5
#     8   8   8   8   8
#     4  10  18  29  46  67  95 123 150 191 235 275
#     4   9  17  29  45  68  94 119 152 189 229 277
#     4   9  17  30  45  68  96 121 154 189 228 275
#     4  10  18  27  45  69  96 124 150 188 232 276
#     4   9  16  29  50  71  93 121 152 190 231 270
#
# _framework density 16.580341000000001
#
# number of rings (size 3 to 8) (size 9 to 14) (size 15 to 20)
#    0.000    2.600    2.000    1.200    0.000    1.600 
#    0.000    0.000    0.000    3.600    0.000    8.400 
#    0.000    0.000    0.000    0.000    0.000    0.000 
#
# Total GULP energy -247972.101125 kJ/mol
# GULP energy per Si atom -12398.605056 kJ/mol
# Density = 1.654260 g / cm^3
# Si number density = 16.580341 Si / 1000 Ang^3
#
#
#
# Elastic Constant Matrix: (Units=GPa)
#
#
# Indices 1 2 3 4 5 6 
#
# 1 96.0642 32.9240 63.3262 0.0000 9.2228 0.0000
# 2 32.9240 72.6152 51.6552 0.0000 15.8156 0.0000
# 3 63.3262 51.6552 132.5809 0.0000 17.5673 0.0000
# 4 0.0000 0.0000 0.0000 26.9195 0.0000 5.9774
# 5 9.2228 15.8156 17.5673 0.0000 28.4502 0.0000
# 6 0.0000 0.0000 0.0000 5.9774 0.0000 14.1401
#
#
#
# Elastic Compliance Matrix: (Units=1/GPa)
#
#
# Indices 1 2 3 4 5 6 
#
# 1 0.015502 -0.002499 -0.006479 0.000000 0.000365 0.000000
# 2 -0.002499 0.020642 -0.005920 0.000000 -0.007010 0.000000
# 3 -0.006479 -0.005920 0.013319 0.000000 -0.002833 0.000000
# 4 0.000000 0.000000 0.000000 0.040996 0.000000 -0.017330
# 5 0.000365 -0.007010 -0.002833 0.000000 0.040677 0.000000
# 6 0.000000 0.000000 0.000000 -0.017330 0.000000 0.078047
#
#
# Mechanical properties :
#
#
# Convention : Reuss Voigt Hill
#
# Bulk Modulus (GPa) = 50.84646 66.34123 58.59384
# Shear Modulus (GPa) = 20.36365 24.12561 22.24463
#
# Velocity S-wave (km/s) = 3.50834 3.81868 3.66680
# Velocity P-wave (km/s) = 6.86619 7.71634 7.30365
#
# Compressibility (1/GPa) = 0.01966705
#
# Stress axis : x y z
#
# Youngs Moduli (GPa) = 64.50622 48.44426 75.07987
#
# Poissons Ratio (x) = 0.12107 0.48645
# Poissons Ratio (y) = 0.16122 0.44447
# Poissons Ratio (z) = 0.41795 0.28679
#
# Static dielectric constant tensor:
#      x y z
#    x 3.076300 0.000000 0.183520 
#    y 0.000000 3.029220 0.000000 
#    z 0.183520 0.000000 3.249290 
# 
# 
# High freq. dielectric constant tensor:
#      x y z
#    x 1.606630 0.000000 0.027750 
#    y 0.000000 1.627230 0.000000 
#    z 0.027750 0.000000 1.638620 
# 
# From -- ./inp_files/162716.got.cif
#   From: 2010.06.25/outbox.cif.g09.slc.cpg/sg12_82_cif.got.tgz:162716.got - 2010.06.28 00:19:55.
