data_PCOD8080221
_publ_section_title
;
Structure prediction by ZEFSAII (Michael W. Deem and Ramdas Pophale) SiO2 
 PCOD8080221
Probable space group: C 2/M
;
_chemical_formula_sum "Si O2"
_cell_formula_units_Z 64
_cell_length_a 20.559873
_cell_length_b 9.304517
_cell_length_c 26.316111
_cell_angle_alpha 90.000000
_cell_angle_beta 130.047625
_cell_angle_gamma 90.000000
_cell_volume 3853.778718
_symmetry_space_group_name_H-M "C 2/M"
_symmetry_group_IT_number 12
_symmetry_cell_setting 'monoclinic'
loop_
_space_group_symop_operation_xyz
x,y,z
-x,y,-z
-x,-y,-z
x,-y,z
1/2+x,1/2+y,z
1/2-x,1/2+y,-z
1/2-x,1/2-y,-z
1/2+x,1/2-y,z
loop_
_atom_site_type_symbol
_atom_site_label
_atom_site_fract_x
_atom_site_fract_y
_atom_site_fract_z
Si Si1 0.471042 0.332328 0.836142
Si Si2 0.963807 0.667851 0.036284
Si Si3 0.638980 0.158917 0.288306
Si Si4 0.748612 0.835170 0.430077
Si Si5 0.108181 0.165756 0.820342
Si Si6 0.727075 0.833378 0.038808
Si Si7 0.500891 0.161931 0.694176
Si Si8 0.116501 0.165044 0.427909
O O1 0.460320 0.500000 0.840250
O O2 0.483519 0.255610 0.895913
O O3 0.384299 0.273804 0.766634
O O4 0.550873 0.294798 0.840456
O O5 0.975918 0.500000 0.053896
O O6 0.865077 0.712476 0.987469
O O7 0.000000 0.711071 0.000000
O O8 0.731732 0.188478 0.360818
O O9 0.573187 0.169389 0.301712
O O10 0.635444 0.000000 0.261878
O O11 0.848362 0.817043 0.496148
O O12 0.694296 0.716219 0.432140
O O13 0.719604 0.000000 0.429387
O O14 0.205391 0.202202 0.882941
O O15 0.083432 0.259335 0.758806
O O16 0.094984 0.000000 0.799258
O O17 0.731220 0.000000 0.026566
O O18 0.750000 0.750000 0.000000
O O19 0.467943 0.241754 0.626361
O O20 0.526464 0.000000 0.692858
O O21 0.095060 0.000000 0.404466
#
# Coordination Sequence:
#
# PCOD8080221 Si02
#       8
#     8   8   8   8   8   8   8   8
#     4  10  18  28  43  63  85 110 143 183 224 263
#     4  10  21  35  50  68  91 120 149 179 223 276
#     4   8  14  24  36  51  74 104 139 177 215 257
#     4   8  14  22  31  46  68  99 139 175 211 254
#     4   9  17  28  42  62  84 107 140 182 222 258
#     4  10  19  32  50  70  91 114 147 187 225 267
#     4   9  16  24  34  51  75 105 139 174 214 260
#     4   9  14  20  31  46  69 101 136 175 213 253
#
# _framework density 16.607078000000001
#
# number of rings (size 3 to 8) (size 9 to 14) (size 15 to 20)
#    0.000    2.875    1.250    1.875    0.000    4.750 
#    0.000    0.000    0.000    0.000    0.000    0.000 
#    0.000    0.000    0.000    1.125    0.000   26.250 
#
# Total GULP energy -396549.980832 kJ/mol
# GULP energy per Si atom -12392.186901 kJ/mol
# Density = 1.656928 g / cm^3
# Si number density = 16.607078 Si / 1000 Ang^3
#
#
#
# Elastic Constant Matrix: (Units=GPa)
#
#
# Indices 1 2 3 4 5 6 
#
# 1 42.5050 24.5567 37.8305 0.0000 1.4581 0.0000
# 2 24.5567 86.9258 72.6631 0.0000 -0.5962 0.0000
# 3 37.8305 72.6631 169.6190 0.0000 4.3152 0.0000
# 4 0.0000 0.0000 0.0000 31.9523 0.0000 -1.2498
# 5 1.4581 -0.5962 4.3152 0.0000 8.3354 0.0000
# 6 0.0000 0.0000 0.0000 -1.2498 0.0000 9.1180
#
#
#
# Elastic Compliance Matrix: (Units=1/GPa)
#
#
# Indices 1 2 3 4 5 6 
#
# 1 0.030556 -0.004715 -0.004713 0.000000 -0.003243 0.000000
# 2 -0.004715 0.018886 -0.007189 0.000000 0.005897 0.000000
# 3 -0.004713 -0.007189 0.010152 0.000000 -0.004946 0.000000
# 4 0.000000 0.000000 0.000000 0.031465 0.000000 0.004313
# 5 -0.003243 0.005897 -0.004946 0.000000 0.123519 0.000000
# 6 0.000000 0.000000 0.000000 0.004313 0.000000 0.110265
#
#
# Mechanical properties :
#
#
# Convention : Reuss Voigt Hill
#
# Bulk Modulus (GPa) = 37.93476 63.23891 50.58683
# Shear Modulus (GPa) = 13.62902 20.81445 17.22174
#
# Velocity S-wave (km/s) = 2.86785 3.54411 3.22376
# Velocity P-wave (km/s) = 5.81878 7.41011 6.66213
#
# Compressibility (1/GPa) = 0.02636105
#
# Stress axis : x y z
#
# Youngs Moduli (GPa) = 32.72646 52.94948 98.50129
#
# Poissons Ratio (x) = 0.24966 0.46421
# Poissons Ratio (y) = 0.15431 0.70812
# Poissons Ratio (z) = 0.15423 0.38065
#
# Static dielectric constant tensor:
#      x y z
#    x 2.534120 0.000000 0.229610 
#    y 0.000000 3.212160 0.000000 
#    z 0.229610 0.000000 3.752390 
# 
# 
# High freq. dielectric constant tensor:
#      x y z
#    x 1.544660 0.000000 0.012150 
#    y 0.000000 1.648830 0.000000 
#    z 0.012150 0.000000 1.668330 
# 
# From -- ./inp_files/365230.got.cif
#   From: 2010.06.25/outbox.cif.g09.slc.cpg/sg12_183_cif.got.tgz:365230.got - 2010.06.28 00:19:55.
