data_PCOD8080200
_publ_section_title
;
Structure prediction by ZEFSAII (Michael W. Deem and Ramdas Pophale) SiO2 
 PCOD8080200
Probable space group: C 2/M
;
_chemical_formula_sum "Si O2"
_cell_formula_units_Z 52
_cell_length_a 20.489799
_cell_length_b 17.310945
_cell_length_c 8.894102
_cell_angle_alpha 90.000000
_cell_angle_beta 67.086041
_cell_angle_gamma 90.000000
_cell_volume 2905.781264
_symmetry_space_group_name_H-M "C 2/M"
_symmetry_group_IT_number 12
_symmetry_cell_setting 'monoclinic'
loop_
_space_group_symop_operation_xyz
x,y,z
-x,y,-z
-x,-y,-z
x,-y,z
1/2+x,1/2+y,z
1/2-x,1/2+y,-z
1/2-x,1/2-y,-z
1/2+x,1/2-y,z
loop_
_atom_site_type_symbol
_atom_site_label
_atom_site_fract_x
_atom_site_fract_y
_atom_site_fract_z
Si Si1 0.500000 0.274602 0.000000
Si Si2 0.338106 0.146197 0.222045
Si Si3 0.749330 0.910843 0.449012
Si Si4 0.960413 0.588021 0.317602
Si Si5 0.126307 0.802642 0.685841
Si Si6 0.905227 0.667307 0.877219
Si Si7 0.127307 0.308724 0.419222
O O1 0.552272 0.321894 0.839752
O O2 0.449628 0.227264 0.935041
O O3 0.274826 0.097100 0.353853
O O4 0.414770 0.121202 0.219375
O O5 0.328189 0.237104 0.267755
O O6 0.340861 0.134601 0.038984
O O7 0.829682 0.882003 0.358129
O O8 0.697962 0.856619 0.397140
O O9 0.744829 0.000000 0.402342
O O10 0.940421 0.500000 0.364357
O O11 0.939580 0.636234 0.484315
O O12 0.043703 0.596190 0.210839
O O13 0.117130 0.770731 0.522547
O O14 0.872957 0.708700 0.758512
#
# Coordination Sequence:
#
# PCOD8080200 Si02
#       7
#     4   8   8   8   8   8   8
#     4  10  18  36  52  80 100 132 170 214 250 306
#     4   9  17  32  49  70 101 134 173 198 245 296
#     4  10  20  37  53  72 100 139 172 210 256 305
#     4  10  18  28  42  68 107 143 168 195 238 296
#     4   9  18  35  56  72 101 131 170 214 256 302
#     4  11  18  30  49  76 105 137 170 208 242 295
#     4  10  19  31  52  75 104 133 174 206 252 291
#
# _framework density 17.895358999999999
#
# number of rings (size 3 to 8) (size 9 to 14) (size 15 to 20)
#    0.000    2.462    4.615    4.154    0.000    3.692 
#    0.000    7.308    0.000    0.000    0.000    2.154 
#    0.000    0.000    0.000    0.000    0.000    0.000 
#
# Total GULP energy -322102.435542 kJ/mol
# GULP energy per Si atom -12388.555213 kJ/mol
# Density = 1.785463 g / cm^3
# Si number density = 17.895359 Si / 1000 Ang^3
#
#
#
# Elastic Constant Matrix: (Units=GPa)
#
#
# Indices 1 2 3 4 5 6 
#
# 1 58.2782 28.2489 54.8074 0.0000 -8.8416 0.0000
# 2 28.2489 45.1242 20.1158 0.0000 -9.3092 0.0000
# 3 54.8074 20.1158 131.8013 0.0000 10.4697 0.0000
# 4 0.0000 0.0000 0.0000 7.2530 0.0000 -6.0450
# 5 -8.8416 -9.3092 10.4697 0.0000 28.0340 0.0000
# 6 0.0000 0.0000 0.0000 -6.0450 0.0000 13.8812
#
#
#
# Elastic Compliance Matrix: (Units=1/GPa)
#
#
# Indices 1 2 3 4 5 6 
#
# 1 0.042671 -0.016526 -0.016340 0.000000 0.014073 0.000000
# 2 -0.016526 0.032939 0.001433 0.000000 0.005191 0.000000
# 3 -0.016340 0.001433 0.014979 0.000000 -0.010272 0.000000
# 4 0.000000 0.000000 0.000000 0.216423 0.000000 0.094247
# 5 0.014073 0.005191 -0.010272 0.000000 0.045669 0.000000
# 6 0.000000 0.000000 0.000000 0.094247 0.000000 0.113082
#
#
# Mechanical properties :
#
#
# Convention : Reuss Voigt Hill
#
# Bulk Modulus (GPa) = 36.07130 49.06087 42.56608
# Shear Modulus (GPa) = 9.29589 18.63575 13.96582
#
# Velocity S-wave (km/s) = 2.28164 3.23053 2.79662
# Velocity P-wave (km/s) = 5.20977 6.43351 5.85371
#
# Compressibility (1/GPa) = 0.02772287
#
# Stress axis : x y z
#
# Youngs Moduli (GPa) = 23.43493 30.35903 66.75964
#
# Poissons Ratio (x) = 0.50172 1.09084
# Poissons Ratio (y) = 0.38729 -0.09563
# Poissons Ratio (z) = 0.38292 -0.04349
#
# Static dielectric constant tensor:
#      x y z
#    x 3.059720 0.000000 -0.172180 
#    y 0.000000 2.900980 0.000000 
#    z -0.172180 0.000000 3.758080 
# 
# 
# High freq. dielectric constant tensor:
#      x y z
#    x 1.660240 0.000000 -0.011610 
#    y 0.000000 1.644220 0.000000 
#    z -0.011610 0.000000 1.706980 
# 
# From -- ./inp_files/87192.got.cif
#   From: 2010.06.25/outbox.cif.g09.slc.cpg/sg12_44_cif.got.tgz:87192.got - 2010.06.28 00:19:55.
