data_PCOD8080098
_publ_section_title
;
Structure prediction by ZEFSAII (Michael W. Deem and Ramdas Pophale) SiO2 
 PCOD8080098
Probable space group: C 2/M
;
_chemical_formula_sum "Si O2"
_cell_formula_units_Z 52
_cell_length_a 8.849355
_cell_length_b 25.744646
_cell_length_c 18.384961
_cell_angle_alpha 90.000000
_cell_angle_beta 136.220278
_cell_angle_gamma 90.000000
_cell_volume 2897.989827
_symmetry_space_group_name_H-M "C 2/M"
_symmetry_group_IT_number 12
_symmetry_cell_setting 'monoclinic'
loop_
_space_group_symop_operation_xyz
x,y,z
-x,y,-z
-x,-y,-z
x,-y,z
1/2+x,1/2+y,z
1/2-x,1/2+y,-z
1/2-x,1/2-y,-z
1/2+x,1/2-y,z
loop_
_atom_site_type_symbol
_atom_site_label
_atom_site_fract_x
_atom_site_fract_y
_atom_site_fract_z
Si Si1 0.496134 0.112248 0.783914
Si Si2 0.323018 0.500000 0.773418
Si Si3 0.094932 0.695333 0.610264
Si Si4 0.355608 0.612248 0.783914
Si Si5 0.497237 0.000000 0.773418
Si Si6 0.764140 0.804667 0.389736
Si Si7 0.167252 0.612522 1.000000
Si Si8 0.756437 0.000000 1.000000
O O1 0.694240 0.107798 0.796160
O O2 0.374881 0.055059 0.747087
O O3 0.316460 0.153279 0.696341
O O4 0.596798 0.131345 0.895206
O O5 0.366380 0.555059 0.747087
O O6 0.074681 0.500000 0.716454
O O7 0.484378 0.500000 0.899030
O O8 0.272565 0.653279 0.696341
O O9 0.218391 0.750000 0.645594
O O10 0.000000 0.677179 0.500000
O O11 0.899004 0.700727 0.599336
O O12 0.588820 0.631345 0.895206
O O13 0.712714 0.000000 0.899030
O O14 0.000000 0.822821 0.500000
O O15 0.150014 0.550409 1.000000
O O16 0.000000 0.637201 0.000000
#
# Coordination Sequence:
#
# PCOD8080098 Si02
#       8
#     8   4   8   8   4   8   8   4
#     4   9  18  32  50  72  99 130 163 196 235 285
#     4   8  13  25  46  69  94 127 162 193 228 278
#     4  10  20  35  55  75  94 122 161 204 244 285
#     4   9  18  32  50  72  99 130 163 196 235 285
#     4   8  13  25  46  69  94 127 162 193 228 278
#     4  10  20  35  55  75  94 122 161 204 244 285
#     4  10  18  27  45  72 102 132 160 195 238 281
#     4   8  14  24  38  64  99 130 161 194 229 274
#
# _framework density 17.943473000000001
#
# number of rings (size 3 to 8) (size 9 to 14) (size 15 to 20)
#    0.000    2.769    0.000    2.769    0.000    6.154 
#    0.000    1.538    0.000    0.000    0.000    0.000 
#    0.000    0.000    0.000    0.000    0.000    0.000 
#
# Total GULP energy -322094.823597 kJ/mol
# GULP energy per Si atom -12388.262446 kJ/mol
# Density = 1.790263 g / cm^3
# Si number density = 17.943473 Si / 1000 Ang^3
#
#
#
# Elastic Constant Matrix: (Units=GPa)
#
#
# Indices 1 2 3 4 5 6 
#
# 1 68.1628 34.7625 40.4390 0.0000 -1.6990 0.0000
# 2 34.7625 125.2203 96.4672 0.0000 -6.0968 0.0000
# 3 40.4390 96.4672 127.5983 0.0000 -4.1739 0.0000
# 4 0.0000 0.0000 0.0000 38.3197 0.0000 -2.2407
# 5 -1.6990 -6.0968 -4.1739 0.0000 22.7032 0.0000
# 6 0.0000 0.0000 0.0000 -2.2407 0.0000 15.6415
#
#
#
# Elastic Compliance Matrix: (Units=1/GPa)
#
#
# Indices 1 2 3 4 5 6 
#
# 1 0.018178 -0.001450 -0.004661 0.000000 0.000114 0.000000
# 2 -0.001450 0.019381 -0.014111 0.000000 0.002502 0.000000
# 3 -0.004661 -0.014111 0.019968 0.000000 -0.000467 0.000000
# 4 0.000000 0.000000 0.000000 0.026317 0.000000 0.003770
# 5 0.000114 0.002502 -0.000467 0.000000 0.044641 0.000000
# 6 0.000000 0.000000 0.000000 0.003770 0.000000 0.064473
#
#
# Mechanical properties :
#
#
# Convention : Reuss Voigt Hill
#
# Bulk Modulus (GPa) = 58.54058 73.81319 66.17688
# Shear Modulus (GPa) = 20.91197 25.28704 23.09950
#
# Velocity S-wave (km/s) = 3.41755 3.75809 3.59186
# Velocity P-wave (km/s) = 6.94757 7.74963 7.35953
#
# Compressibility (1/GPa) = 0.01708217
#
# Stress axis : x y z
#
# Youngs Moduli (GPa) = 55.01007 51.59571 50.08119
#
# Poissons Ratio (x) = 0.07482 0.23344
# Poissons Ratio (y) = 0.07977 0.70672
# Poissons Ratio (z) = 0.25641 0.72809
#
# Static dielectric constant tensor:
#      x y z
#    x 3.086900 0.000000 -0.011080 
#    y 0.000000 3.458790 0.000000 
#    z -0.011080 0.000000 3.199070 
# 
# 
# High freq. dielectric constant tensor:
#      x y z
#    x 1.680880 0.000000 0.000310 
#    y 0.000000 1.689510 0.000000 
#    z 0.000310 0.000000 1.677740 
# 
# From -- ./inp_files/302405.got.cif
#   From: 2010.06.25/outbox.cif.g09.slc.cpg/sg12_152_cif.got.tgz:302405.got - 2010.06.28 00:19:55.
