data_PCOD8080654
_publ_section_title
;
Structure prediction by ZEFSAII (Michael W. Deem and Ramdas Pophale) SiO2 
 PCOD8080654
Probable space group: C 2/M
;
_chemical_formula_sum "Si O2"
_cell_formula_units_Z 48
_cell_length_a 34.523824
_cell_length_b 9.105133
_cell_length_c 11.540797
_cell_angle_alpha 90.000000
_cell_angle_beta 119.606316
_cell_angle_gamma 90.000000
_cell_volume 3154.139111
_symmetry_space_group_name_H-M "C 2/M"
_symmetry_group_IT_number 12
_symmetry_cell_setting 'monoclinic'
loop_
_space_group_symop_operation_xyz
x,y,z
-x,y,-z
-x,-y,-z
x,-y,z
1/2+x,1/2+y,z
1/2-x,1/2+y,-z
1/2-x,1/2-y,-z
1/2+x,1/2-y,z
loop_
_atom_site_type_symbol
_atom_site_label
_atom_site_fract_x
_atom_site_fract_y
_atom_site_fract_z
Si Si1 0.550509 0.172919 0.551224
Si Si2 0.874716 0.835009 0.235952
Si Si3 0.287441 0.326669 0.980838
Si Si4 0.386586 0.334414 0.506660
Si Si5 0.225060 0.170555 0.301786
Si Si6 0.317572 0.171253 0.555746
O O1 0.500000 0.219242 0.500000
O O2 0.581228 0.231373 0.704121
O O3 0.566977 0.250456 0.455863
O O4 0.556327 0.000000 0.547395
O O5 0.857353 0.836237 0.344414
O O6 0.888079 0.000000 0.217152
O O7 0.835774 0.772449 0.096708
O O8 0.282336 0.500000 0.990077
O O9 0.282417 0.279477 0.840597
O O10 0.250000 0.250000 0.000000
O O11 0.396934 0.500000 0.563969
O O12 0.360964 0.249769 0.569444
O O13 0.275971 0.204311 0.410520
O O14 0.191722 0.265215 0.330763
O O15 0.213792 0.000000 0.304251
O O16 0.327631 0.000000 0.580933
#
# Coordination Sequence:
#
# PCOD8080654 Si02
#       6
#     8   8   8   8   8   8
#     4   9  17  29  46  69  94 118 148 186 229 276
#     4   8  17  29  43  65  92 120 149 182 223 271
#     4  10  19  31  45  65  91 123 158 189 223 266
#     4   9  17  28  45  66  91 118 145 182 226 271
#     4   9  19  31  44  61  87 122 157 191 227 262
#     4  10  18  29  44  64  88 118 157 195 226 262
#
# _framework density 15.218099
#
# number of rings (size 3 to 8) (size 9 to 14) (size 15 to 20)
#    1.000    1.833    0.000    2.000    0.000    3.333 
#    0.000    0.000    0.000    0.000    0.000    1.167 
#    0.000    9.333    0.000    0.000    0.000    0.000 
#
# Total GULP energy -297421.131720 kJ/mol
# GULP energy per Si atom -12392.547155 kJ/mol
# Density = 1.518346 g / cm^3
# Si number density = 15.218099 Si / 1000 Ang^3
#
#
#
# Elastic Constant Matrix: (Units=GPa)
#
#
# Indices 1 2 3 4 5 6 
#
# 1 133.6697 71.3137 52.3143 0.0000 -0.5157 0.0000
# 2 71.3137 85.6672 34.3389 0.0000 -2.4322 0.0000
# 3 52.3143 34.3389 78.3619 0.0000 -0.9499 0.0000
# 4 0.0000 0.0000 0.0000 17.9833 0.0000 -2.1923
# 5 -0.5157 -2.4322 -0.9499 0.0000 20.7744 0.0000
# 6 0.0000 0.0000 0.0000 -2.1923 0.0000 29.7028
#
#
#
# Elastic Compliance Matrix: (Units=1/GPa)
#
#
# Indices 1 2 3 4 5 6 
#
# 1 0.015272 -0.010496 -0.005609 0.000000 -0.001106 0.000000
# 2 -0.010496 0.021413 -0.002350 0.000000 0.002139 0.000000
# 3 -0.005609 -0.002350 0.017541 0.000000 0.000388 0.000000
# 4 0.000000 0.000000 0.000000 0.056112 0.000000 0.004141
# 5 -0.001106 0.002139 0.000388 0.000000 0.048377 0.000000
# 6 0.000000 0.000000 0.000000 0.004141 0.000000 0.033973
#
#
# Mechanical properties :
#
#
# Convention : Reuss Voigt Hill
#
# Bulk Modulus (GPa) = 57.75592 68.18139 62.96866
# Shear Modulus (GPa) = 21.24305 23.00756 22.12531
#
# Velocity S-wave (km/s) = 3.74024 3.89248 3.81712
# Velocity P-wave (km/s) = 7.52908 8.06858 7.80349
#
# Compressibility (1/GPa) = 0.01731424
#
# Stress axis : x y z
#
# Youngs Moduli (GPa) = 65.47951 46.69969 57.00964
#
# Poissons Ratio (x) = 0.49016 0.31979
# Poissons Ratio (y) = 0.68728 0.13400
# Poissons Ratio (z) = 0.36731 0.10977
#
# Static dielectric constant tensor:
#      x y z
#    x 2.744760 0.000000 -0.006360 
#    y 0.000000 2.945670 0.000000 
#    z -0.006360 0.000000 2.789360 
# 
# 
# High freq. dielectric constant tensor:
#      x y z
#    x 1.568340 0.000000 -0.004630 
#    y 0.000000 1.593990 0.000000 
#    z -0.004630 0.000000 1.552240 
# 
# From -- ./inp_files/185947.got.cif
#   From: 2010.06.25/outbox.cif.g09.slc.cpg/sg12_93_cif.got.tgz:185947.got - 2010.06.28 00:19:55.
