data_PCOD8080313
_publ_section_title
;
Structure prediction by ZEFSAII (Michael W. Deem and Ramdas Pophale) SiO2 
 PCOD8080313
Probable space group: C 2/M
;
_chemical_formula_sum "Si O2"
_cell_formula_units_Z 60
_cell_length_a 22.148213
_cell_length_b 12.629791
_cell_length_c 14.309918
_cell_angle_alpha 90.000000
_cell_angle_beta 75.377753
_cell_angle_gamma 90.000000
_cell_volume 3873.226526
_symmetry_space_group_name_H-M "C 2/M"
_symmetry_group_IT_number 12
_symmetry_cell_setting 'monoclinic'
loop_
_space_group_symop_operation_xyz
x,y,z
-x,y,-z
-x,-y,-z
x,-y,z
1/2+x,1/2+y,z
1/2-x,1/2+y,-z
1/2-x,1/2-y,-z
1/2+x,1/2-y,z
loop_
_atom_site_type_symbol
_atom_site_label
_atom_site_fract_x
_atom_site_fract_y
_atom_site_fract_z
Si Si1 0.541058 0.122212 0.169564
Si Si2 0.474318 0.300921 0.291499
Si Si3 0.430912 0.616565 0.490520
Si Si4 0.913449 0.879759 0.127797
Si Si5 0.000000 0.721980 0.000000
Si Si6 0.831574 0.742216 0.873783
Si Si7 0.105770 0.878670 0.298057
Si Si8 0.205126 0.878319 0.935821
O O1 0.498285 0.181887 0.263067
O O2 0.612010 0.160373 0.138674
O O3 0.538480 0.000000 0.196758
O O4 0.511998 0.143697 0.080273
O O5 0.430907 0.304588 0.401381
O O6 0.431952 0.345496 0.224652
O O7 0.536779 0.371016 0.279024
O O8 0.500000 0.601109 0.500000
O O9 0.405693 0.500000 0.469837
O O10 0.392373 0.662291 0.594368
O O11 0.839248 0.872210 0.138247
O O12 0.936522 0.000000 0.101028
O O13 0.942648 0.800505 0.040805
O O14 0.842665 0.813280 0.778049
O O15 0.769589 0.675110 0.881638
O O16 0.826694 0.817779 0.965284
O O17 0.126079 0.000000 0.287397
O O18 0.216279 0.000000 0.961608
#
# Coordination Sequence:
#
# PCOD8080313 Si02
#       8
#     8   8   8   8   4   8   8   8
#     4  10  19  30  44  61  87 121 153 183 213 259
#     4   9  17  27  45  69  95 118 142 175 225 273
#     4   8  13  24  43  69  95 115 138 173 222 271
#     4  10  18  28  44  68  94 115 141 178 225 272
#     4  10  18  30  42  66  88 118 146 176 220 266
#     4  10  19  32  46  62  86 117 156 186 218 257
#     4   9  16  27  47  72  94 115 142 181 225 266
#     4  10  20  32  46  63  88 118 150 187 220 259
#
# _framework density 15.490959999999999
#
# number of rings (size 3 to 8) (size 9 to 14) (size 15 to 20)
#    0.000    2.533    1.333    3.200    0.000    0.000 
#    0.000    0.000    0.000   11.600    0.000    0.000 
#    0.000    0.000    0.000    0.000    0.000    0.000 
#
# Total GULP energy -371788.153228 kJ/mol
# GULP energy per Si atom -12392.938441 kJ/mol
# Density = 1.545570 g / cm^3
# Si number density = 15.490960 Si / 1000 Ang^3
#
#
#
# Elastic Constant Matrix: (Units=GPa)
#
#
# Indices 1 2 3 4 5 6 
#
# 1 66.8824 40.7219 42.3713 0.0000 -1.1721 0.0000
# 2 40.7219 112.3535 57.0879 0.0000 -5.3344 0.0000
# 3 42.3713 57.0879 110.2503 0.0000 -6.7456 0.0000
# 4 0.0000 0.0000 0.0000 15.4454 0.0000 -0.5742
# 5 -1.1721 -5.3344 -6.7456 0.0000 12.9686 0.0000
# 6 0.0000 0.0000 0.0000 -0.5742 0.0000 18.8813
#
#
#
# Elastic Compliance Matrix: (Units=1/GPa)
#
#
# Indices 1 2 3 4 5 6 
#
# 1 0.021707 -0.004995 -0.005951 0.000000 -0.003188 0.000000
# 2 -0.004995 0.013267 -0.004796 0.000000 0.002511 0.000000
# 3 -0.005951 -0.004796 0.014137 0.000000 0.004843 0.000000
# 4 0.000000 0.000000 0.000000 0.064818 0.000000 0.001971
# 5 -0.003188 0.002511 0.004843 0.000000 0.080373 0.000000
# 6 0.000000 0.000000 0.000000 0.001971 0.000000 0.053023
#
#
# Mechanical properties :
#
#
# Convention : Reuss Voigt Hill
#
# Bulk Modulus (GPa) = 56.73320 63.31650 60.02485
# Shear Modulus (GPa) = 17.56323 19.41272 18.48798
#
# Velocity S-wave (km/s) = 3.37081 3.54385 3.45841
# Velocity P-wave (km/s) = 7.20088 7.59652 7.40134
#
# Compressibility (1/GPa) = 0.01762636
#
# Stress axis : x y z
#
# Youngs Moduli (GPa) = 46.06758 75.37319 70.73496
#
# Poissons Ratio (x) = 0.37651 0.42095
# Poissons Ratio (y) = 0.23012 0.33928
# Poissons Ratio (z) = 0.27415 0.36152
#
# Static dielectric constant tensor:
#      x y z
#    x 2.744890 0.000000 -0.015430 
#    y 0.000000 2.909510 0.000000 
#    z -0.015430 0.000000 3.179630 
# 
# 
# High freq. dielectric constant tensor:
#      x y z
#    x 1.568390 0.000000 0.004190 
#    y 0.000000 1.589350 0.000000 
#    z 0.004190 0.000000 1.591880 
# 
# From -- ./inp_files/239299.got.cif
#   From: 2010.06.25/outbox.cif.g09.slc.cpg/sg12_120_cif.got.tgz:239299.got - 2010.06.28 00:19:55.
