data_PCOD8080383
_publ_section_title
;
Structure prediction by ZEFSAII (Michael W. Deem and Ramdas Pophale) SiO2 
 PCOD8080383
Probable space group: C 2/M
;
_chemical_formula_sum "Si O2"
_cell_formula_units_Z 64
_cell_length_a 24.854705
_cell_length_b 8.821197
_cell_length_c 17.899004
_cell_angle_alpha 90.000000
_cell_angle_beta 75.834950
_cell_angle_gamma 90.000000
_cell_volume 3805.005414
_symmetry_space_group_name_H-M "C 2/M"
_symmetry_group_IT_number 12
_symmetry_cell_setting 'monoclinic'
loop_
_space_group_symop_operation_xyz
x,y,z
-x,y,-z
-x,-y,-z
x,-y,z
1/2+x,1/2+y,z
1/2-x,1/2+y,-z
1/2-x,1/2-y,-z
1/2+x,1/2-y,z
loop_
_atom_site_type_symbol
_atom_site_label
_atom_site_fract_x
_atom_site_fract_y
_atom_site_fract_z
Si Si1 0.307234 0.824439 0.499005
Si Si2 0.795946 0.179259 0.812821
Si Si3 0.671060 0.824359 0.666828
Si Si4 0.011425 0.178595 0.082073
Si Si5 0.865776 0.820519 0.927237
Si Si6 0.287380 0.821972 0.664155
Si Si7 0.905349 0.677026 0.173131
Si Si8 0.182489 0.178460 0.901708
O O1 0.250000 0.750000 0.500000
O O2 0.346944 0.787708 0.414136
O O3 0.324205 0.773691 0.577751
O O4 0.295263 0.000000 0.508878
O O5 0.838432 0.243698 0.860622
O O6 0.814919 0.239220 0.725533
O O7 0.734063 0.232656 0.850873
O O8 0.796533 0.000000 0.812320
O O9 0.723182 0.725362 0.675861
O O10 0.618101 0.788723 0.736039
O O11 0.688996 0.000000 0.668110
O O12 0.071988 0.242080 0.083995
O O13 0.968744 0.268253 0.149484
O O14 0.005426 0.000000 0.098467
O O15 0.000000 0.218902 0.000000
O O16 0.869272 0.000000 0.924545
O O17 0.826771 0.771050 0.009468
O O18 0.289173 0.000000 0.679077
O O19 0.900432 0.500000 0.154860
O O20 0.872379 0.776390 0.124366
O O21 0.192721 0.000000 0.890468
#
# Coordination Sequence:
#
# PCOD8080383 Si02
#       8
#     8   8   8   8   8   8   8   8
#     4   8  15  27  43  64  91 126 158 189 227 282
#     4  11  21  33  48  70 100 129 161 198 242 289
#     4   9  17  30  46  66  98 129 155 191 241 286
#     4  10  19  36  56  69  89 125 166 205 243 284
#     4   9  20  36  52  69  91 127 167 202 242 288
#     4  10  18  28  45  69  96 126 163 193 229 283
#     4  11  21  31  48  76 102 126 156 196 245 289
#     4  11  20  34  52  70  95 128 166 199 235 284
#
# _framework density 16.819949999999999
#
# number of rings (size 3 to 8) (size 9 to 14) (size 15 to 20)
#    0.000    2.125    2.500    1.875    0.000    1.250 
#    0.000    3.125    0.000    0.000    0.000    0.875 
#    0.000    7.000    0.000    0.000    0.000    0.000 
#
# Total GULP energy -396569.804569 kJ/mol
# GULP energy per Si atom -12392.806393 kJ/mol
# Density = 1.678167 g / cm^3
# Si number density = 16.819950 Si / 1000 Ang^3
#
#
#
# Elastic Constant Matrix: (Units=GPa)
#
#
# Indices 1 2 3 4 5 6 
#
# 1 51.0990 11.2473 35.1128 0.0000 6.8988 0.0000
# 2 11.2473 42.1763 34.9609 0.0000 2.0912 0.0000
# 3 35.1128 34.9609 152.3996 0.0000 10.2594 0.0000
# 4 0.0000 0.0000 0.0000 22.3510 0.0000 -1.3863
# 5 6.8988 2.0912 10.2594 0.0000 20.7250 0.0000
# 6 0.0000 0.0000 0.0000 -1.3863 0.0000 17.3881
#
#
#
# Elastic Compliance Matrix: (Units=1/GPa)
#
#
# Indices 1 2 3 4 5 6 
#
# 1 0.023996 -0.002285 -0.004637 0.000000 -0.005462 0.000000
# 2 -0.002285 0.029498 -0.006301 0.000000 0.000903 0.000000
# 3 -0.004637 -0.006301 0.009237 0.000000 -0.002393 0.000000
# 4 0.000000 0.000000 0.000000 0.044963 0.000000 0.003585
# 5 -0.005462 0.000903 -0.002393 0.000000 0.051163 0.000000
# 6 0.000000 0.000000 0.000000 0.003585 0.000000 0.057796
#
#
# Mechanical properties :
#
#
# Convention : Reuss Voigt Hill
#
# Bulk Modulus (GPa) = 27.55969 45.36855 36.46412
# Shear Modulus (GPa) = 19.59295 23.04974 21.32135
#
# Velocity S-wave (km/s) = 3.41671 3.70588 3.56423
# Velocity P-wave (km/s) = 5.65561 6.73372 6.21808
#
# Compressibility (1/GPa) = 0.03628488
#
# Stress axis : x y z
#
# Youngs Moduli (GPa) = 41.67292 33.90090 108.26409
#
# Poissons Ratio (x) = 0.07746 0.50201
# Poissons Ratio (y) = 0.09521 0.68220
# Poissons Ratio (z) = 0.19323 0.21362
#
# Static dielectric constant tensor:
#      x y z
#    x 2.951830 0.000000 0.066860 
#    y 0.000000 3.008070 0.000000 
#    z 0.066860 0.000000 3.866410 
# 
# 
# High freq. dielectric constant tensor:
#      x y z
#    x 1.602070 0.000000 -0.000150 
#    y 0.000000 1.646420 0.000000 
#    z -0.000150 0.000000 1.666870 
# 
# From -- ./inp_files/287519.got.cif
#   From: 2010.06.25/outbox.cif.g09.slc.cpg/sg12_144_cif.got.tgz:287519.got - 2010.06.28 00:19:55.
