data_PCOD8080106
_publ_section_title
;
Structure prediction by ZEFSAII (Michael W. Deem and Ramdas Pophale) SiO2 
 PCOD8080106
Probable space group: C 2/M
;
_chemical_formula_sum "Si O2"
_cell_formula_units_Z 56
_cell_length_a 19.512682
_cell_length_b 8.873575
_cell_length_c 18.368361
_cell_angle_alpha 90.000000
_cell_angle_beta 100.489226
_cell_angle_gamma 90.000000
_cell_volume 3127.283460
_symmetry_space_group_name_H-M "C 2/M"
_symmetry_group_IT_number 12
_symmetry_cell_setting 'monoclinic'
loop_
_space_group_symop_operation_xyz
x,y,z
-x,y,-z
-x,-y,-z
x,-y,z
1/2+x,1/2+y,z
1/2-x,1/2+y,-z
1/2-x,1/2-y,-z
1/2+x,1/2-y,z
loop_
_atom_site_type_symbol
_atom_site_label
_atom_site_fract_x
_atom_site_fract_y
_atom_site_fract_z
Si Si1 0.852508 0.326910 0.562713
Si Si2 0.062585 0.678768 0.800656
Si Si3 0.944893 0.827209 0.687886
Si Si4 0.013935 0.820490 0.084522
Si Si5 0.202713 0.678535 0.756064
Si Si6 0.782894 0.325643 0.403962
Si Si7 0.353663 0.673150 0.808381
O O1 0.866361 0.500000 0.584532
O O2 0.918452 0.232082 0.604701
O O3 0.845116 0.301400 0.474381
O O4 0.781785 0.277996 0.588256
O O5 0.059196 0.500000 0.806409
O O6 0.139707 0.737270 0.793851
O O7 0.010318 0.730954 0.727442
O O8 0.045168 0.751438 0.875128
O O9 0.880961 0.807394 0.731572
O O10 0.968367 0.000000 0.686294
O O11 0.089832 0.756826 0.124349
O O12 0.010408 0.000000 0.092276
O O13 0.000000 0.766624 0.000000
O O14 0.207412 0.500000 0.761746
O O15 0.188810 0.724260 0.669469
O O16 0.276746 0.748646 0.798535
O O17 0.757860 0.500000 0.399529
O O18 0.346316 0.500000 0.828011
#
# Coordination Sequence:
#
# PCOD8080106 Si02
#       7
#     8   8   8   8   8   8   8
#     4  10  18  27  45  74 100 124 167 222 259 284
#     4  10  20  32  51  76 101 125 161 213 255 290
#     4  10  18  32  52  69  95 135 172 205 247 305
#     4   9  18  34  55  77 101 132 167 198 237 299
#     4   9  16  30  50  72  97 131 170 204 248 303
#     4   9  17  30  47  68  98 135 170 206 254 307
#     4   8  14  27  51  73  89 124 171 201 228 286
#
# _framework density 17.906915999999999
#
# number of rings (size 3 to 8) (size 9 to 14) (size 15 to 20)
#    0.000    2.714    1.429    2.143    0.000    0.857 
#    0.000    2.857    0.000    4.286    0.000    0.000 
#    0.000    0.000    0.000    0.000    0.000    0.000 
#
# Total GULP energy -347058.910195 kJ/mol
# GULP energy per Si atom -12394.961078 kJ/mol
# Density = 1.786616 g / cm^3
# Si number density = 17.906916 Si / 1000 Ang^3
#
#
#
# Elastic Constant Matrix: (Units=GPa)
#
#
# Indices 1 2 3 4 5 6 
#
# 1 121.6061 21.7913 65.0156 0.0000 -3.1484 0.0000
# 2 21.7913 38.0446 27.7018 0.0000 0.4931 0.0000
# 3 65.0156 27.7018 136.1164 0.0000 7.5657 0.0000
# 4 0.0000 0.0000 0.0000 22.5908 0.0000 1.4523
# 5 -3.1484 0.4931 7.5657 0.0000 21.0267 0.0000
# 6 0.0000 0.0000 0.0000 1.4523 0.0000 19.9704
#
#
#
# Elastic Compliance Matrix: (Units=1/GPa)
#
#
# Indices 1 2 3 4 5 6 
#
# 1 0.011595 -0.002944 -0.005142 0.000000 0.003655 0.000000
# 2 -0.002944 0.031656 -0.005072 0.000000 0.000642 0.000000
# 3 -0.005142 -0.005072 0.011093 0.000000 -0.004642 0.000000
# 4 0.000000 0.000000 0.000000 0.044474 0.000000 -0.003234
# 5 0.003655 0.000642 -0.004642 0.000000 0.049761 0.000000
# 6 0.000000 0.000000 0.000000 -0.003234 0.000000 0.050309
#
#
# Mechanical properties :
#
#
# Convention : Reuss Voigt Hill
#
# Bulk Modulus (GPa) = 35.67967 58.30940 46.99453
# Shear Modulus (GPa) = 21.31766 24.80146 23.05956
#
# Velocity S-wave (km/s) = 3.45406 3.72562 3.59241
# Velocity P-wave (km/s) = 5.98964 7.15124 6.59606
#
# Compressibility (1/GPa) = 0.02802717
#
# Stress axis : x y z
#
# Youngs Moduli (GPa) = 86.24600 31.58943 90.14698
#
# Poissons Ratio (x) = 0.09301 0.46355
# Poissons Ratio (y) = 0.25395 0.45720
# Poissons Ratio (z) = 0.44349 0.16021
#
# Static dielectric constant tensor:
#      x y z
#    x 3.430430 0.000000 0.201770 
#    y 0.000000 3.094320 0.000000 
#    z 0.201770 0.000000 3.407960 
# 
# 
# High freq. dielectric constant tensor:
#      x y z
#    x 1.678440 0.000000 0.017880 
#    y 0.000000 1.670120 0.000000 
#    z 0.017880 0.000000 1.688230 
# 
# From -- ./inp_files/280384.got.cif
#   From: 2010.06.25/outbox.cif.g09.slc.cpg/sg12_141_cif.got.tgz:280384.got - 2010.06.28 00:19:55.
