data_PCOD8080507
_publ_section_title
;
Structure prediction by ZEFSAII (Michael W. Deem and Ramdas Pophale) SiO2 
 PCOD8080507
Probable space group: C 2/M
;
_chemical_formula_sum "Si O2"
_cell_formula_units_Z 48
_cell_length_a 28.452001
_cell_length_b 8.886104
_cell_length_c 26.711371
_cell_angle_alpha 90.000000
_cell_angle_beta 154.898238
_cell_angle_gamma 90.000000
_cell_volume 2864.962686
_symmetry_space_group_name_H-M "C 2/M"
_symmetry_group_IT_number 12
_symmetry_cell_setting 'monoclinic'
loop_
_space_group_symop_operation_xyz
x,y,z
-x,y,-z
-x,-y,-z
x,-y,z
1/2+x,1/2+y,z
1/2-x,1/2+y,-z
1/2-x,1/2-y,-z
1/2+x,1/2-y,z
loop_
_atom_site_type_symbol
_atom_site_label
_atom_site_fract_x
_atom_site_fract_y
_atom_site_fract_z
Si Si1 0.126934 0.166509 0.106373
Si Si2 0.241546 0.173370 0.571255
Si Si3 0.425655 0.177356 0.040635
Si Si4 0.910639 0.172475 0.663558
Si Si5 0.660402 0.677102 0.246526
Si Si6 0.149509 0.175496 0.931658
O O1 0.192091 0.219476 0.219569
O O2 0.166319 0.000000 0.127470
O O3 0.143226 0.280968 0.076189
O O4 0.000000 0.159756 0.000000
O O5 0.129207 0.206014 0.431738
O O6 0.347762 0.218247 0.640753
O O7 0.240027 0.269058 0.621278
O O8 0.252530 0.000000 0.596426
O O9 0.549181 0.241665 0.157704
O O10 0.361160 0.247666 0.024845
O O11 0.430466 0.000000 0.051040
O O12 0.040799 0.203389 0.792923
O O13 0.881471 0.000000 0.649901
O O14 0.639825 0.500000 0.231523
O O15 0.172226 0.000000 0.961545
O O16 0.250000 0.250000 0.000000
#
# Coordination Sequence:
#
# PCOD8080507 Si02
#       6
#     8   8   8   8   8   8
#     4   8  16  29  44  63  92 128 159 188 234 290
#     4  10  18  28  47  72  96 125 161 195 234 287
#     4  11  20  30  46  69  95 124 161 201 240 282
#     4   9  19  33  47  66  95 129 159 195 241 286
#     4  10  18  29  45  68  98 131 159 189 238 290
#     4  11  22  36  52  69  95 129 166 202 240 282
#
# _framework density 16.754145000000001
#
# number of rings (size 3 to 8) (size 9 to 14) (size 15 to 20)
#    0.000    2.167    1.667    4.000    0.000    5.000 
#    0.000    0.000    0.000    0.000    0.000    1.167 
#    0.000    9.333    0.000    0.000    0.000    0.000 
#
# Total GULP energy -297529.980405 kJ/mol
# GULP energy per Si atom -12397.082517 kJ/mol
# Density = 1.671601 g / cm^3
# Si number density = 16.754145 Si / 1000 Ang^3
#
#
#
# Elastic Constant Matrix: (Units=GPa)
#
#
# Indices 1 2 3 4 5 6 
#
# 1 101.6018 58.6933 57.7809 0.0000 -24.9587 0.0000
# 2 58.6933 111.3193 46.4269 0.0001 -14.5796 0.0001
# 3 57.7809 46.4269 87.6805 0.0002 -24.6839 0.0001
# 4 0.0000 0.0001 0.0002 23.1302 0.0001 -5.8643
# 5 -24.9587 -14.5796 -24.6839 0.0001 33.5450 0.0000
# 6 0.0000 0.0001 0.0001 -5.8643 0.0000 28.3244
#
#
#
# Elastic Compliance Matrix: (Units=1/GPa)
#
#
# Indices 1 2 3 4 5 6 
#
# 1 0.019272 -0.006140 -0.007774 0.000000 0.005950 0.000000
# 2 -0.006140 0.013497 -0.003450 0.000000 -0.001241 0.000000
# 3 -0.007774 -0.003450 0.020564 0.000000 0.007849 0.000000
# 4 0.000000 0.000000 0.000000 0.045629 0.000000 0.009447
# 5 0.005950 -0.001241 0.007849 0.000000 0.039474 0.000000
# 6 0.000000 0.000000 0.000000 0.009447 0.000000 0.037261
#
#
# Mechanical properties :
#
#
# Convention : Reuss Voigt Hill
#
# Bulk Modulus (GPa) = 53.74630 69.60040 61.67335
# Shear Modulus (GPa) = 23.08138 26.17997 24.63068
#
# Velocity S-wave (km/s) = 3.71570 3.95726 3.83838
# Velocity P-wave (km/s) = 7.11039 7.90647 7.51897
#
# Compressibility (1/GPa) = 0.01860593
#
# Stress axis : x y z
#
# Youngs Moduli (GPa) = 51.88950 74.09318 48.62803
#
# Poissons Ratio (x) = 0.45490 0.37804
# Poissons Ratio (y) = 0.31858 0.16775
# Poissons Ratio (z) = 0.40339 0.25560
#
# Static dielectric constant tensor:
#      x y z
#    x 3.167100 0.000000 -0.593960 
#    y 0.000000 3.240500 0.000000 
#    z -0.593960 0.000000 3.239410 
# 
# 
# High freq. dielectric constant tensor:
#      x y z
#    x 1.621390 0.000000 -0.048010 
#    y 0.000000 1.657700 0.000000 
#    z -0.048010 0.000000 1.622060 
# 
# From -- ./inp_files/172447.got.cif
#   From: 2010.06.25/outbox.cif.g09.slc.cpg/sg12_87_cif.got.tgz:172447.got - 2010.06.28 00:19:55.
