data_PCOD8080557
_publ_section_title
;
Structure prediction by ZEFSAII (Michael W. Deem and Ramdas Pophale) SiO2 
 PCOD8080557
Probable space group: C 2/M
;
_chemical_formula_sum "Si O2"
_cell_formula_units_Z 56
_cell_length_a 8.953239
_cell_length_b 27.615957
_cell_length_c 16.401439
_cell_angle_alpha 90.000000
_cell_angle_beta 135.955912
_cell_angle_gamma 90.000000
_cell_volume 2819.287011
_symmetry_space_group_name_H-M "C 2/M"
_symmetry_group_IT_number 12
_symmetry_cell_setting 'monoclinic'
loop_
_space_group_symop_operation_xyz
x,y,z
-x,y,-z
-x,-y,-z
x,-y,z
1/2+x,1/2+y,z
1/2-x,1/2+y,-z
1/2-x,1/2-y,-z
1/2+x,1/2-y,z
loop_
_atom_site_type_symbol
_atom_site_label
_atom_site_fract_x
_atom_site_fract_y
_atom_site_fract_z
Si Si1 0.016749 0.591067 0.307041
Si Si2 0.982762 0.683765 0.790477
Si Si3 0.428731 0.404358 0.774019
Si Si4 0.329497 0.684494 0.059213
Si Si5 0.273725 0.054351 0.455175
Si Si6 0.570419 0.500000 0.903625
Si Si7 0.640211 0.000000 0.839096
Si Si8 0.706167 0.753050 0.155625
O O1 0.104021 0.637538 0.292283
O O2 0.785525 0.601557 0.256244
O O3 0.999687 0.547000 0.236948
O O4 0.195806 0.578035 0.444332
O O5 0.070108 0.723249 0.759253
O O6 0.792835 0.708803 0.768851
O O7 0.174303 0.666025 0.926292
O O8 0.579771 0.358766 0.849927
O O9 0.373474 0.409561 0.656383
O O10 0.564870 0.452048 0.847572
O O11 0.517986 0.714219 0.091042
O O12 0.187896 0.719294 0.061366
O O13 0.500000 0.048629 0.500000
O O14 0.174462 0.000000 0.423897
O O15 0.359682 0.500000 0.875711
O O16 0.794522 0.500000 0.040675
#
# Coordination Sequence:
#
# PCOD8080557 Si02
#       8
#     8   8   8   8   8   4   4   8
#     4  10  18  28  48  73 103 135 170 212 251 303
#     4  11  19  32  52  78 105 136 171 208 257 305
#     4  10  18  28  48  73 103 135 170 212 251 303
#     4  11  19  32  52  78 105 136 171 208 257 305
#     4   9  16  30  48  70 102 137 176 209 253 298
#     4   9  16  25  39  70 106 130 156 206 259 300
#     4   9  16  25  39  70 106 130 156 206 259 300
#     4  10  21  34  52  75 106 139 172 210 251 310
#
# _framework density 19.863177
#
# number of rings (size 3 to 8) (size 9 to 14) (size 15 to 20)
#    0.000    2.000    2.857    4.286    0.000    1.143 
#    0.000    0.000    0.000    6.857    0.000    4.000 
#    0.000    0.000    0.000    0.000    0.000    0.000 
#
# Total GULP energy -347090.614445 kJ/mol
# GULP energy per Si atom -12396.093373 kJ/mol
# Density = 1.981797 g / cm^3
# Si number density = 19.863177 Si / 1000 Ang^3
#
#
#
# Elastic Constant Matrix: (Units=GPa)
#
#
# Indices 1 2 3 4 5 6 
#
# 1 55.6837 22.1428 11.4724 0.0000 -16.5450 0.0000
# 2 22.1428 126.6432 60.0210 0.0000 -18.5771 0.0000
# 3 11.4724 60.0210 117.0627 0.0000 -23.2701 0.0000
# 4 0.0000 0.0000 0.0000 25.0943 0.0000 -16.2233
# 5 -16.5450 -18.5771 -23.2701 0.0000 17.4929 0.0000
# 6 0.0000 0.0000 0.0000 -16.2233 0.0000 33.0910
#
#
#
# Elastic Compliance Matrix: (Units=1/GPa)
#
#
# Indices 1 2 3 4 5 6 
#
# 1 0.026392 -0.002539 0.004271 0.000000 0.027946 0.000000
# 2 -0.002539 0.011063 -0.004847 0.000000 0.002899 0.000000
# 3 0.004271 -0.004847 0.014123 0.000000 0.017680 0.000000
# 4 0.000000 0.000000 0.000000 0.058341 0.000000 0.028602
# 5 0.027946 0.002899 0.017680 0.000000 0.110195 0.000000
# 6 0.000000 0.000000 0.000000 0.028602 0.000000 0.044242
#
#
# Mechanical properties :
#
#
# Convention : Reuss Voigt Hill
#
# Bulk Modulus (GPa) = 22.05205 54.07354 38.06279
# Shear Modulus (GPa) = 17.50070 28.85255 23.17663
#
# Velocity S-wave (km/s) = 2.97149 3.81539 3.41957
# Velocity P-wave (km/s) = 4.78530 6.83313 5.89876
#
# Compressibility (1/GPa) = 0.04534725
#
# Stress axis : x y z
#
# Youngs Moduli (GPa) = 37.89033 90.39522 70.80405
#
# Poissons Ratio (x) = 0.22952 -0.30238
# Poissons Ratio (y) = 0.09621 0.34318
# Poissons Ratio (z) = -0.16182 0.43814
#
# Static dielectric constant tensor:
#      x y z
#    x 3.338090 0.000000 -0.256780 
#    y 0.000000 3.781110 0.000000 
#    z -0.256780 0.000000 3.568450 
# 
# 
# High freq. dielectric constant tensor:
#      x y z
#    x 1.739910 0.000000 -0.022520 
#    y 0.000000 1.782300 0.000000 
#    z -0.022520 0.000000 1.751690 
# 
# From -- ./inp_files/200884.got.cif
#   From: 2010.06.25/outbox.cif.g09.slc.cpg/sg12_101_cif.got.tgz:200884.got - 2010.06.28 00:19:55.
