data_PCOD8080651
_publ_section_title
;
Structure prediction by ZEFSAII (Michael W. Deem and Ramdas Pophale) SiO2 
 PCOD8080651
Probable space group: C 2/M
;
_chemical_formula_sum "Si O2"
_cell_formula_units_Z 64
_cell_length_a 20.517367
_cell_length_b 9.175805
_cell_length_c 24.172782
_cell_angle_alpha 90.000000
_cell_angle_beta 56.484243
_cell_angle_gamma 90.000000
_cell_volume 3794.197654
_symmetry_space_group_name_H-M "C 2/M"
_symmetry_group_IT_number 12
_symmetry_cell_setting 'monoclinic'
loop_
_space_group_symop_operation_xyz
x,y,z
-x,y,-z
-x,-y,-z
x,-y,z
1/2+x,1/2+y,z
1/2-x,1/2+y,-z
1/2-x,1/2-y,-z
1/2+x,1/2-y,z
loop_
_atom_site_type_symbol
_atom_site_label
_atom_site_fract_x
_atom_site_fract_y
_atom_site_fract_z
Si Si1 0.457146 0.664211 0.695520
Si Si2 0.201409 0.162679 0.299429
Si Si3 0.085936 0.172574 0.970268
Si Si4 0.465636 0.835881 0.429727
Si Si5 0.278622 0.667930 0.170889
Si Si6 0.122741 0.669342 0.174366
Si Si7 0.875835 0.336559 0.575822
Si Si8 0.167027 0.173736 0.045311
O O1 0.478945 0.500000 0.703245
O O2 0.379082 0.664726 0.696067
O O3 0.528654 0.730028 0.625939
O O4 0.444904 0.764897 0.754938
O O5 0.267054 0.246331 0.233481
O O6 0.189833 0.235834 0.365096
O O7 0.231573 0.000000 0.295392
O O8 0.145223 0.232342 0.895677
O O9 0.084331 0.000000 0.965775
O O10 0.114852 0.217484 0.017249
O O11 0.000000 0.239469 0.000000
O O12 0.397867 0.780431 0.503658
O O13 0.547240 0.836052 0.423174
O O14 0.447046 0.000000 0.418333
O O15 0.288555 0.500000 0.182333
O O16 0.206783 0.688954 0.162930
O O17 0.104755 0.500000 0.170954
O O18 0.121432 0.762230 0.119047
O O19 0.842281 0.500000 0.588158
O O20 0.178451 0.000000 0.045470
O O21 0.250000 0.250000 0.000000
#
# Coordination Sequence:
#
# PCOD8080651 Si02
#       8
#     8   8   8   8   8   8   8   8
#     4   9  16  24  34  53  78 107 140 179 223 264
#     4   9  16  23  33  52  76 103 137 179 222 259
#     4   9  18  33  51  70  91 117 152 189 227 274
#     4   8  13  21  32  46  68 102 140 177 215 259
#     4   9  16  28  44  61  81 110 145 180 222 266
#     4  10  18  29  44  64  86 113 148 186 226 266
#     4   8  13  21  32  46  67 100 141 178 213 257
#     4  11  20  32  50  72  93 117 149 188 231 272
#
# _framework density 16.867861000000001
#
# number of rings (size 3 to 8) (size 9 to 14) (size 15 to 20)
#    0.000    2.875    1.250    2.250    0.000    4.000 
#    0.000    2.500    0.000    3.375    0.000    0.000 
#    0.000    0.000    0.000    1.125    0.000   12.750 
#
# Total GULP energy -396644.495888 kJ/mol
# GULP energy per Si atom -12395.140496 kJ/mol
# Density = 1.682947 g / cm^3
# Si number density = 16.867861 Si / 1000 Ang^3
#
#
#
# Elastic Constant Matrix: (Units=GPa)
#
#
# Indices 1 2 3 4 5 6 
#
# 1 40.5193 24.7782 34.6954 0.0000 0.5035 0.0000
# 2 24.7782 105.4868 80.0320 0.0000 0.3819 0.0003
# 3 34.6954 80.0320 182.3513 0.0000 -1.6265 -0.0001
# 4 0.0000 0.0000 0.0000 35.1247 0.0000 3.0438
# 5 0.5035 0.3819 -1.6265 0.0000 8.6510 -0.0001
# 6 0.0000 0.0003 -0.0001 3.0438 -0.0001 7.2254
#
#
#
# Elastic Compliance Matrix: (Units=1/GPa)
#
#
# Indices 1 2 3 4 5 6 
#
# 1 0.030703 -0.004131 -0.004050 0.000000 -0.002366 0.000000
# 2 -0.004131 0.014796 -0.005721 0.000000 -0.001488 -0.000001
# 3 -0.004050 -0.005721 0.008785 0.000000 0.002140 0.000000
# 4 0.000000 0.000000 0.000000 0.029549 0.000000 -0.012448
# 5 -0.002366 -0.001488 0.002140 0.000000 0.116200 0.000001
# 6 0.000000 -0.000001 0.000000 -0.012448 0.000001 0.143643
#
#
# Mechanical properties :
#
#
# Convention : Reuss Voigt Hill
#
# Bulk Modulus (GPa) = 37.76451 67.48539 52.62495
# Shear Modulus (GPa) = 13.14733 22.79034 17.96883
#
# Velocity S-wave (km/s) = 2.79486 3.67973 3.26739
# Velocity P-wave (km/s) = 5.73167 7.62555 6.74541
#
# Compressibility (1/GPa) = 0.02647989
#
# Stress axis : x y z
#
# Youngs Moduli (GPa) = 32.57029 67.58506 113.83628
#
# Poissons Ratio (x) = 0.27917 0.46103
# Poissons Ratio (y) = 0.13454 0.65128
# Poissons Ratio (z) = 0.13191 0.38667
#
# Static dielectric constant tensor:
#      x y z
#    x 2.583600 0.000000 -0.019780 
#    y 0.000000 3.228190 0.000000 
#    z -0.019780 0.000000 3.568870 
# 
# 
# High freq. dielectric constant tensor:
#      x y z
#    x 1.564410 0.000000 0.000620 
#    y 0.000000 1.647600 0.000000 
#    z 0.000620 0.000000 1.674510 
# 
# From -- ./inp_files/345533.got.cif
#   From: 2010.06.25/outbox.cif.g09.slc.cpg/sg12_173_cif.got.tgz:345533.got - 2010.06.28 00:19:55.
