data_PCOD8080111
_publ_section_title
;
Structure prediction by ZEFSAII (Michael W. Deem and Ramdas Pophale) SiO2 
 PCOD8080111
Probable space group: C 2/M
;
_chemical_formula_sum "Si O2"
_cell_formula_units_Z 64
_cell_length_a 20.323037
_cell_length_b 9.237176
_cell_length_c 23.525820
_cell_angle_alpha 90.000000
_cell_angle_beta 58.110439
_cell_angle_gamma 90.000000
_cell_volume 3749.859925
_symmetry_space_group_name_H-M "C 2/M"
_symmetry_group_IT_number 12
_symmetry_cell_setting 'monoclinic'
loop_
_space_group_symop_operation_xyz
x,y,z
-x,y,-z
-x,-y,-z
x,-y,z
1/2+x,1/2+y,z
1/2-x,1/2+y,-z
1/2-x,1/2-y,-z
1/2+x,1/2-y,z
loop_
_atom_site_type_symbol
_atom_site_label
_atom_site_fract_x
_atom_site_fract_y
_atom_site_fract_z
Si Si1 0.649815 0.332649 0.681029
Si Si2 0.216957 0.668913 0.461639
Si Si3 0.986396 0.169919 0.941094
Si Si4 0.562761 0.171494 0.809789
Si Si5 0.672256 0.335454 0.046979
Si Si6 0.041219 0.329249 0.537359
Si Si7 0.432183 0.335515 0.806856
Si Si8 0.491444 0.663750 0.337826
O O1 0.644526 0.500000 0.701281
O O2 0.733636 0.293385 0.617098
O O3 0.638019 0.235459 0.742859
O O4 0.585282 0.296092 0.662903
O O5 0.221747 0.500000 0.473091
O O6 0.250000 0.750000 0.500000
O O7 0.129721 0.721362 0.491743
O O8 0.900124 0.216620 0.959249
O O9 0.052381 0.257637 0.876682
O O10 0.998445 0.000000 0.924699
O O11 0.000000 0.212006 0.000000
O O12 0.488513 0.215704 0.806881
O O13 0.570292 0.000000 0.811894
O O14 0.691346 0.500000 0.023426
O O15 0.650629 0.316424 0.124159
O O16 0.750000 0.250000 0.000000
O O17 0.032855 0.500000 0.545687
O O18 0.999905 0.265653 0.611904
O O19 0.000000 0.268715 0.500000
O O20 0.463166 0.500000 0.806070
O O21 0.432841 0.314761 0.738069
O O22 0.486198 0.500000 0.362503
#
# Coordination Sequence:
#
# PCOD8080111 Si02
#       8
#     8   8   8   8   8   8   8   8
#     4   9  17  30  48  70  96 127 161 199 242 291
#     4  10  19  32  51  73  97 126 161 202 244 288
#     4   9  18  34  54  72  96 135 173 198 231 290
#     4  10  18  27  45  75 103 125 156 204 251 283
#     4   9  17  30  50  75 100 127 159 199 242 283
#     4  10  21  34  48  70 101 130 156 195 249 295
#     4   8  16  31  48  68  97 130 164 198 236 290
#     4   9  16  29  50  72  92 121 165 204 235 281
#
# _framework density 17.067304
#
# number of rings (size 3 to 8) (size 9 to 14) (size 15 to 20)
#    0.000    2.750    1.250    2.625    0.000    5.000 
#    0.000    0.000    2.750    0.000    0.000    0.000 
#    0.000    0.000    0.000    0.000    0.000    0.000 
#
# Total GULP energy -396575.779065 kJ/mol
# GULP energy per Si atom -12392.993096 kJ/mol
# Density = 1.702846 g / cm^3
# Si number density = 17.067304 Si / 1000 Ang^3
#
#
#
# Elastic Constant Matrix: (Units=GPa)
#
#
# Indices 1 2 3 4 5 6 
#
# 1 74.7852 30.8954 63.4141 0.0000 1.8982 -0.0002
# 2 30.8954 64.2822 60.0882 0.0000 3.4529 -0.0005
# 3 63.4141 60.0882 168.3398 0.0000 2.3436 0.0000
# 4 0.0000 0.0000 0.0000 32.4953 0.0000 -0.2733
# 5 1.8982 3.4529 2.3436 0.0000 26.6198 -0.0001
# 6 -0.0002 -0.0005 0.0000 -0.2733 -0.0001 17.8049
#
#
#
# Elastic Compliance Matrix: (Units=1/GPa)
#
#
# Indices 1 2 3 4 5 6 
#
# 1 0.020286 -0.003888 -0.006249 0.000000 -0.000392 0.000000
# 2 -0.003888 0.024232 -0.007154 0.000000 -0.002236 0.000001
# 3 -0.006249 -0.007154 0.010842 0.000000 0.000419 0.000000
# 4 0.000000 0.000000 0.000000 0.030778 0.000000 0.000472
# 5 -0.000392 -0.002236 0.000419 0.000000 0.037847 0.000000
# 6 0.000000 0.000001 0.000000 0.000472 0.000000 0.056171
#
#
# Mechanical properties :
#
#
# Convention : Reuss Voigt Hill
#
# Bulk Modulus (GPa) = 48.12427 68.46696 58.29562
# Shear Modulus (GPa) = 22.55662 25.58465 24.07064
#
# Velocity S-wave (km/s) = 3.63936 3.87595 3.75952
# Velocity P-wave (km/s) = 6.77628 7.76103 7.28531
#
# Compressibility (1/GPa) = 0.02077953
#
# Stress axis : x y z
#
# Youngs Moduli (GPa) = 49.29424 41.26723 92.23425
#
# Poissons Ratio (x) = 0.16045 0.57634
# Poissons Ratio (y) = 0.19166 0.65983
# Poissons Ratio (z) = 0.30802 0.29522
#
# Static dielectric constant tensor:
#      x y z
#    x 2.868120 0.000000 -0.006750 
#    y 0.000000 3.061830 0.000000 
#    z -0.006750 0.000000 3.560060 
# 
# 
# High freq. dielectric constant tensor:
#      x y z
#    x 1.606660 0.000000 -0.005110 
#    y 0.000000 1.651660 0.000000 
#    z -0.005110 0.000000 1.679990 
# 
# From -- ./inp_files/345555.got.cif
#   From: 2010.06.25/outbox.cif.g09.slc.cpg/sg12_173_cif.got.tgz:345555.got - 2010.06.28 00:19:55.
