data_PCOD8080124
_publ_section_title
;
Structure prediction by ZEFSAII (Michael W. Deem and Ramdas Pophale) SiO2 
 PCOD8080124
Probable space group: C 2/M
;
_chemical_formula_sum "Si O2"
_cell_formula_units_Z 36
_cell_length_a 9.000269
_cell_length_b 23.570734
_cell_length_c 11.238184
_cell_angle_alpha 90.000000
_cell_angle_beta 53.847075
_cell_angle_gamma 90.000000
_cell_volume 1925.031499
_symmetry_space_group_name_H-M "C 2/M"
_symmetry_group_IT_number 12
_symmetry_cell_setting 'monoclinic'
loop_
_space_group_symop_operation_xyz
x,y,z
-x,y,-z
-x,-y,-z
x,-y,z
1/2+x,1/2+y,z
1/2-x,1/2+y,-z
1/2-x,1/2-y,-z
1/2+x,1/2-y,z
loop_
_atom_site_type_symbol
_atom_site_label
_atom_site_fract_x
_atom_site_fract_y
_atom_site_fract_z
Si Si1 0.690807 0.438475 0.840810
Si Si2 0.007398 0.834760 0.857057
Si Si3 0.102872 0.717424 0.698693
Si Si4 0.000000 0.248577 0.500000
Si Si5 0.387258 0.124041 0.943464
O O1 0.738332 0.500000 0.759128
O O2 0.654737 0.386770 0.765384
O O3 0.852814 0.422969 0.857812
O O4 0.500000 0.444000 0.000000
O O5 0.074067 0.782661 0.748780
O O6 0.803355 0.852340 0.912993
O O7 0.000000 0.818322 0.000000
O O8 0.018635 0.710506 0.606412
O O9 0.322508 0.707214 0.594168
O O10 0.003884 0.676023 0.836035
O O11 0.500000 0.096695 0.000000
#
# Coordination Sequence:
#
# PCOD8080124 Si02
#       5
#     8   8   8   4   8
#     4   8  16  30  45  67  97 126 153 178 223 284
#     4   9  17  29  49  69  93 125 151 190 230 274
#     4  11  19  32  44  69  97 124 161 185 232 284
#     4  10  22  30  44  62  94 134 154 192 228 268
#     4  10  18  27  47  73  97 121 146 193 238 274
#
# _framework density 18.700991999999999
#
# number of rings (size 3 to 8) (size 9 to 14) (size 15 to 20)
#    0.000    2.889    0.000    5.333    0.000    0.444 
#    0.000    0.000    0.000    0.000    0.000   29.556 
#    0.000    0.000    0.000    0.000    0.000    0.000 
#
# Total GULP energy -223032.091526 kJ/mol
# GULP energy per Si atom -12390.671751 kJ/mol
# Density = 1.865843 g / cm^3
# Si number density = 18.700992 Si / 1000 Ang^3
#
#
#
# Elastic Constant Matrix: (Units=GPa)
#
#
# Indices 1 2 3 4 5 6 
#
# 1 140.7895 23.5566 28.2232 0.0000 -1.9165 0.0000
# 2 23.5566 101.0862 25.8830 0.0000 -3.8249 0.0000
# 3 28.2232 25.8830 37.1900 0.0000 2.3689 0.0000
# 4 0.0000 0.0000 0.0000 1.6819 0.0000 -2.5681
# 5 -1.9165 -3.8249 2.3689 0.0000 19.0177 0.0000
# 6 0.0000 0.0000 0.0000 -2.5681 0.0000 -5.9957
#
#
#
# Elastic Compliance Matrix: (Units=1/GPa)
#
#
# Indices 1 2 3 4 5 6 
#
# 1 0.008436 -0.000294 -0.006298 0.000000 0.001576 0.000000
# 2 -0.000294 0.012282 -0.008549 0.000000 0.003506 0.000000
# 3 -0.006298 -0.008549 0.038070 0.000000 -0.007096 0.000000
# 4 0.000000 0.000000 0.000000 0.359463 0.000000 -0.153969
# 5 0.001576 0.003506 -0.007096 0.000000 0.054330 0.000000
# 6 0.000000 0.000000 0.000000 -0.153969 0.000000 -0.100837
#
#
# Mechanical properties :
#
#
# Convention : Reuss Voigt Hill
#
# Bulk Modulus (GPa) = 35.07796 48.26569 41.67183
# Shear Modulus (GPa) = 12.14983 16.36763 14.25873
#
# Velocity S-wave (km/s) = 2.55166 2.96163 2.76426
# Velocity P-wave (km/s) = 5.24207 6.12864 5.70261
#
# Compressibility (1/GPa) = 0.02850793
#
# Stress axis : x y z
#
# Youngs Moduli (GPa) = 118.54113 81.41667 26.26741
#
# Poissons Ratio (x) = 0.02391 0.16543
# Poissons Ratio (y) = 0.03481 0.22455
# Poissons Ratio (z) = 0.74656 0.69600
#
# Static dielectric constant tensor:
#      x y z
#    x 3.790930 0.000000 -0.086780 
#    y 0.000000 3.856870 0.000000 
#    z -0.086780 0.000000 3.093850 
# 
# 
# High freq. dielectric constant tensor:
#      x y z
#    x 1.749120 0.000000 -0.006520 
#    y 0.000000 1.697700 0.000000 
#    z -0.006520 0.000000 1.684690 
# 
# From -- ./inp_files/121209.got.cif
#   From: 2010.06.25/outbox.cif.g09.slc.cpg/sg12_61_cif.got.tgz:121209.got - 2010.06.28 00:19:55.
