data_PCOD8080376
_publ_section_title
;
Structure prediction by ZEFSAII (Michael W. Deem and Ramdas Pophale) SiO2 
 PCOD8080376
Probable space group: C 2/M
;
_chemical_formula_sum "Si O2"
_cell_formula_units_Z 56
_cell_length_a 22.575124
_cell_length_b 9.054255
_cell_length_c 18.557849
_cell_angle_alpha 90.000000
_cell_angle_beta 61.609920
_cell_angle_gamma 90.000000
_cell_volume 3337.031860
_symmetry_space_group_name_H-M "C 2/M"
_symmetry_group_IT_number 12
_symmetry_cell_setting 'monoclinic'
loop_
_space_group_symop_operation_xyz
x,y,z
-x,y,-z
-x,-y,-z
x,-y,z
1/2+x,1/2+y,z
1/2-x,1/2+y,-z
1/2-x,1/2-y,-z
1/2+x,1/2-y,z
loop_
_atom_site_type_symbol
_atom_site_label
_atom_site_fract_x
_atom_site_fract_y
_atom_site_fract_z
Si Si1 0.518778 0.329987 0.873994
Si Si2 0.053628 0.664501 0.565569
Si Si3 0.631149 0.327621 0.237650
Si Si4 0.998490 0.676539 0.260467
Si Si5 0.399850 0.832982 0.607246
Si Si6 0.738811 0.828253 0.931180
Si Si7 0.891918 0.170196 0.042508
O O1 0.517257 0.500000 0.850427
O O2 0.531916 0.227136 0.797725
O O3 0.579186 0.301660 0.894582
O O4 0.447956 0.287198 0.951212
O O5 0.082466 0.500000 0.553545
O O6 0.098766 0.738652 0.475375
O O7 0.053490 0.734494 0.646313
O O8 0.976011 0.661181 0.589084
O O9 0.613961 0.500000 0.250028
O O10 0.572164 0.245326 0.228787
O O11 0.641498 0.268985 0.313577
O O12 0.699491 0.292919 0.156715
O O13 0.005094 0.500000 0.259879
O O14 0.370117 0.000000 0.624636
O O15 0.671973 0.772854 0.930683
O O16 0.731597 0.000000 0.950956
O O17 0.750000 0.750000 0.000000
O O18 0.870965 0.000000 0.044858
#
# Coordination Sequence:
#
# PCOD8080376 Si02
#       7
#     8   8   8   8   8   8   8
#     4   9  18  33  50  69  92 117 145 185 232 269
#     4   7  12  23  39  61  89 116 145 182 221 259
#     4  10  20  31  42  63  95 124 149 186 230 265
#     4  10  18  28  45  69  94 122 153 184 219 266
#     4   8  13  25  43  60  83 118 153 182 215 266
#     4  11  23  35  48  67  93 122 153 188 224 262
#     4   9  19  35  52  67  89 120 151 184 226 270
#
# _framework density 16.781379999999999
#
# number of rings (size 3 to 8) (size 9 to 14) (size 15 to 20)
#    0.000    2.857    0.000    4.714    0.000    6.857 
#    0.000    7.857    0.000    0.000    0.000    1.000 
#    0.000    0.000    0.000    0.000    0.000    0.000 
#
# Total GULP energy -346919.395394 kJ/mol
# GULP energy per Si atom -12389.978407 kJ/mol
# Density = 1.674318 g / cm^3
# Si number density = 16.781380 Si / 1000 Ang^3
#
#
#
# Elastic Constant Matrix: (Units=GPa)
#
#
# Indices 1 2 3 4 5 6 
#
# 1 61.3489 34.7895 48.2703 0.0000 5.5223 0.0001
# 2 34.7895 71.5755 64.6565 0.0001 2.2816 0.0000
# 3 48.2703 64.6565 151.1350 0.0000 20.8840 0.0001
# 4 0.0000 0.0001 0.0000 28.8273 0.0000 3.4043
# 5 5.5223 2.2816 20.8840 0.0000 20.1747 -0.0001
# 6 0.0001 0.0000 0.0001 3.4043 -0.0001 24.7923
#
#
#
# Elastic Compliance Matrix: (Units=1/GPa)
#
#
# Indices 1 2 3 4 5 6 
#
# 1 0.024202 -0.008016 -0.004096 0.000000 -0.001478 0.000000
# 2 -0.008016 0.026836 -0.010274 0.000000 0.009794 0.000000
# 3 -0.004096 -0.010274 0.014008 0.000000 -0.012218 0.000000
# 4 0.000000 0.000000 0.000000 0.035261 0.000000 -0.004842
# 5 -0.001478 0.009794 -0.012218 0.000000 0.061511 0.000000
# 6 0.000000 0.000000 0.000000 -0.004842 0.000000 0.041000
#
#
# Mechanical properties :
#
#
# Convention : Reuss Voigt Hill
#
# Bulk Modulus (GPa) = 49.32401 64.38800 56.85601
# Shear Modulus (GPa) = 19.65810 23.84841 21.75326
#
# Velocity S-wave (km/s) = 3.42632 3.77387 3.60429
# Velocity P-wave (km/s) = 6.71631 7.57901 7.16067
#
# Compressibility (1/GPa) = 0.02027410
#
# Stress axis : x y z
#
# Youngs Moduli (GPa) = 41.31909 37.26354 71.38639
#
# Poissons Ratio (x) = 0.29871 0.29241
# Poissons Ratio (y) = 0.33122 0.73340
# Poissons Ratio (z) = 0.16925 0.38284
#
# Static dielectric constant tensor:
#      x y z
#    x 2.794520 0.000000 0.244540 
#    y 0.000000 3.087620 0.000000 
#    z 0.244540 0.000000 3.776160 
# 
# 
# High freq. dielectric constant tensor:
#      x y z
#    x 1.599830 0.000000 0.018070 
#    y 0.000000 1.636480 0.000000 
#    z 0.018070 0.000000 1.666070 
# 
# From -- ./inp_files/287368.got.cif
#   From: 2010.06.25/outbox.cif.g09.slc.cpg/sg12_144_cif.got.tgz:287368.got - 2010.06.28 00:19:55.
