data_PCOD8080100
_publ_section_title
;
Structure prediction by ZEFSAII (Michael W. Deem and Ramdas Pophale) SiO2 
 PCOD8080100
Probable space group: C 2/M
;
_chemical_formula_sum "Si O2"
_cell_formula_units_Z 56
_cell_length_a 19.319885
_cell_length_b 13.394115
_cell_length_c 14.258853
_cell_angle_alpha 90.000000
_cell_angle_beta 118.856901
_cell_angle_gamma 90.000000
_cell_volume 3231.631890
_symmetry_space_group_name_H-M "C 2/M"
_symmetry_group_IT_number 12
_symmetry_cell_setting 'monoclinic'
loop_
_space_group_symop_operation_xyz
x,y,z
-x,y,-z
-x,-y,-z
x,-y,z
1/2+x,1/2+y,z
1/2-x,1/2+y,-z
1/2-x,1/2-y,-z
1/2+x,1/2-y,z
loop_
_atom_site_type_symbol
_atom_site_label
_atom_site_fract_x
_atom_site_fract_y
_atom_site_fract_z
Si Si1 0.184611 0.886724 0.187078
Si Si2 0.834318 0.617676 0.178411
Si Si3 0.217650 0.109135 0.419913
Si Si4 0.363299 0.190525 0.616990
Si Si5 0.986730 0.382187 0.384924
Si Si6 0.590003 0.198606 0.149323
Si Si7 0.419020 0.884192 0.048417
O O1 0.247910 0.842960 0.152674
O O2 0.229537 0.883687 0.316099
O O3 0.107880 0.815191 0.137488
O O4 0.156969 0.000000 0.145374
O O5 0.830122 0.500000 0.183992
O O6 0.901275 0.655645 0.294480
O O7 0.856288 0.650017 0.086486
O O8 0.303207 0.118738 0.523843
O O9 0.158364 0.193934 0.417901
O O10 0.182988 0.000000 0.423861
O O11 0.451075 0.174495 0.638792
O O12 0.360460 0.166393 0.726495
O O13 0.997653 0.500000 0.377818
O O14 0.000000 0.349521 0.500000
O O15 0.496857 0.184618 0.107339
O O16 0.618142 0.131440 0.079286
O O17 0.442950 0.000000 0.078335
#
# Coordination Sequence:
#
# PCOD8080100 Si02
#       7
#     8   8   8   8   8   8   8
#     4   9  18  33  50  71  98 126 157 195 240 288
#     4   9  17  30  47  68  97 127 153 193 245 281
#     4   9  18  30  46  70  99 125 154 194 239 286
#     4  10  18  29  47  71  96 123 160 195 233 288
#     4  10  18  27  45  72  97 121 152 195 243 283
#     4  10  19  31  49  71  96 127 162 192 237 283
#     4  10  20  33  48  71  99 125 159 201 239 282
#
# _framework density 17.328704999999999
#
# number of rings (size 3 to 8) (size 9 to 14) (size 15 to 20)
#    0.000    2.429    1.429    2.143    0.000    4.571 
#    0.000    1.429    0.000    0.429    0.000    4.000 
#    0.000    0.000    0.000    0.000    0.000    0.000 
#
# Total GULP energy -347058.083675 kJ/mol
# GULP energy per Si atom -12394.931560 kJ/mol
# Density = 1.728926 g / cm^3
# Si number density = 17.328705 Si / 1000 Ang^3
#
#
#
# Elastic Constant Matrix: (Units=GPa)
#
#
# Indices 1 2 3 4 5 6 
#
# 1 80.9777 45.5556 18.9542 0.0000 -9.4407 0.0000
# 2 45.5556 74.1799 26.7145 0.0000 -2.7203 0.0000
# 3 18.9542 26.7145 76.4727 0.0000 -10.5207 0.0000
# 4 0.0000 0.0000 0.0000 21.0977 0.0000 1.5005
# 5 -9.4407 -2.7203 -10.5207 0.0000 23.6507 0.0000
# 6 0.0000 0.0000 0.0000 1.5005 0.0000 22.6919
#
#
#
# Elastic Compliance Matrix: (Units=1/GPa)
#
#
# Indices 1 2 3 4 5 6 
#
# 1 0.019829 -0.012003 0.000189 0.000000 0.006619 0.000000
# 2 -0.012003 0.022696 -0.005596 0.000000 -0.004670 0.000000
# 3 0.000189 -0.005596 0.015878 0.000000 0.006495 0.000000
# 4 0.000000 0.000000 0.000000 0.047623 0.000000 -0.003149
# 5 0.006619 -0.004670 0.006495 0.000000 0.047276 0.000000
# 6 0.000000 0.000000 0.000000 -0.003149 0.000000 0.044277
#
#
# Mechanical properties :
#
#
# Convention : Reuss Voigt Hill
#
# Bulk Modulus (GPa) = 42.40303 46.00876 44.20590
# Shear Modulus (GPa) = 20.81088 22.84846 21.82967
#
# Velocity S-wave (km/s) = 3.46923 3.63510 3.55313
# Velocity P-wave (km/s) = 6.36949 6.65033 6.51142
#
# Compressibility (1/GPa) = 0.02358322
#
# Stress axis : x y z
#
# Youngs Moduli (GPa) = 50.43168 44.06088 62.97952
#
# Poissons Ratio (x) = 0.52885 -0.01189
# Poissons Ratio (y) = 0.60531 0.35243
# Poissons Ratio (z) = -0.00952 0.24656
#
# Static dielectric constant tensor:
#      x y z
#    x 3.190900 0.000000 -0.173980 
#    y 0.000000 3.122670 0.000000 
#    z -0.173980 0.000000 3.467900 
# 
# 
# High freq. dielectric constant tensor:
#      x y z
#    x 1.652820 0.000000 -0.012130 
#    y 0.000000 1.645820 0.000000 
#    z -0.012130 0.000000 1.678020 
# 
# From -- ./inp_files/231975.got.cif
#   From: 2010.06.25/outbox.cif.g09.slc.cpg/sg12_116_cif.got.tgz:231975.got - 2010.06.28 00:19:55.
