data_PCOD8080175
_publ_section_title
;
Structure prediction by ZEFSAII (Michael W. Deem and Ramdas Pophale) SiO2 
 PCOD8080175
Probable space group: C 2/M
;
_chemical_formula_sum "Si O2"
_cell_formula_units_Z 56
_cell_length_a 29.074517
_cell_length_b 9.020852
_cell_length_c 29.360764
_cell_angle_alpha 90.000000
_cell_angle_beta 152.605755
_cell_angle_gamma 90.000000
_cell_volume 3543.151021
_symmetry_space_group_name_H-M "C 2/M"
_symmetry_group_IT_number 12
_symmetry_cell_setting 'monoclinic'
loop_
_space_group_symop_operation_xyz
x,y,z
-x,y,-z
-x,-y,-z
x,-y,z
1/2+x,1/2+y,z
1/2-x,1/2+y,-z
1/2-x,1/2-y,-z
1/2+x,1/2-y,z
loop_
_atom_site_type_symbol
_atom_site_label
_atom_site_fract_x
_atom_site_fract_y
_atom_site_fract_z
Si Si1 0.642649 0.165787 0.748495
Si Si2 0.134586 0.832802 0.084260
Si Si3 0.125487 0.671963 0.927585
Si Si4 0.828543 0.324599 0.130117
Si Si5 0.599568 0.176897 0.612828
Si Si6 0.007875 0.669667 0.108372
Si Si7 0.298156 0.829155 0.769069
O O1 0.762143 0.170343 0.852060
O O2 0.616850 0.238153 0.775510
O O3 0.597761 0.242695 0.663299
O O4 0.599976 0.000000 0.710058
O O5 0.141173 0.729168 0.134082
O O6 0.109393 0.000000 0.077753
O O7 0.047380 0.776093 0.975259
O O8 0.154698 0.500000 0.955714
O O9 0.107203 0.717355 0.858436
O O10 0.026115 0.707131 0.869674
O O11 0.217624 0.760970 0.029049
O O12 0.817073 0.500000 0.125935
O O13 0.500000 0.230458 0.500000
O O14 0.695598 0.239752 0.670512
O O15 0.610421 0.000000 0.622983
O O16 0.979345 0.500000 0.071376
O O17 0.127721 0.692378 0.209118
O O18 0.270293 0.000000 0.752134
#
# Coordination Sequence:
#
# PCOD8080175 Si02
#       7
#     8   8   8   8   8   8   8
#     4   8  14  25  42  63  84 107 136 173 214 252
#     4  10  18  28  42  61  86 116 150 181 208 246
#     4   9  17  26  39  58  84 116 148 178 207 242
#     4   9  15  26  41  59  83 112 146 179 210 247
#     4   9  18  33  50  67  86 106 135 179 225 266
#     4  10  19  29  39  58  88 120 148 176 211 249
#     4  10  20  31  43  60  86 115 144 176 212 260
#
# _framework density 15.805139
#
# number of rings (size 3 to 8) (size 9 to 14) (size 15 to 20)
#    0.000    2.714    1.429    2.143    0.000    3.143 
#    0.000    0.000    0.000    0.000    0.000    1.000 
#    0.000    0.000    0.000    0.000    0.000    0.000 
#
# Total GULP energy -346882.045235 kJ/mol
# GULP energy per Si atom -12388.644473 kJ/mol
# Density = 1.576917 g / cm^3
# Si number density = 15.805139 Si / 1000 Ang^3
#
#
#
# Elastic Constant Matrix: (Units=GPa)
#
#
# Indices 1 2 3 4 5 6 
#
# 1 125.5423 24.1816 60.7111 0.0000 -4.9768 0.0000
# 2 24.1816 35.5975 22.2399 0.0000 0.8481 -0.0004
# 3 60.7111 22.2399 92.2885 0.0000 -6.9245 0.0000
# 4 0.0000 0.0000 0.0000 16.7694 0.0000 1.3342
# 5 -4.9768 0.8481 -6.9245 0.0000 14.9899 0.0000
# 6 0.0000 -0.0004 0.0000 1.3342 0.0000 16.4121
#
#
#
# Elastic Compliance Matrix: (Units=1/GPa)
#
#
# Indices 1 2 3 4 5 6 
#
# 1 0.012124 -0.003916 -0.006954 0.000000 0.001034 0.000000
# 2 -0.003916 0.034821 -0.006278 0.000000 -0.006170 0.000001
# 3 -0.006954 -0.006278 0.017379 0.000000 0.006074 0.000000
# 4 0.000000 0.000000 0.000000 0.060021 0.000000 -0.004879
# 5 0.001034 -0.006170 0.006074 0.000000 0.070210 0.000000
# 6 0.000000 0.000001 0.000000 -0.004879 0.000000 0.061327
#
#
# Mechanical properties :
#
#
# Convention : Reuss Voigt Hill
#
# Bulk Modulus (GPa) = 33.30279 51.96593 42.63436
# Shear Modulus (GPa) = 16.65625 19.38735 18.02180
#
# Velocity S-wave (km/s) = 3.24983 3.50615 3.38042
# Velocity P-wave (km/s) = 5.93283 7.02434 6.50153
#
# Compressibility (1/GPa) = 0.03002751
#
# Stress axis : x y z
#
# Youngs Moduli (GPa) = 82.48333 28.71810 57.54032
#
# Poissons Ratio (x) = 0.11245 0.40015
# Poissons Ratio (y) = 0.32297 0.36126
# Poissons Ratio (z) = 0.57361 0.18030
#
# Static dielectric constant tensor:
#      x y z
#    x 3.415780 0.000000 -0.137140 
#    y 0.000000 2.956610 0.000000 
#    z -0.137140 0.000000 2.746860 
# 
# 
# High freq. dielectric constant tensor:
#      x y z
#    x 1.615210 0.000000 -0.008050 
#    y 0.000000 1.598630 0.000000 
#    z -0.008050 0.000000 1.559110 
# 
# From -- ./inp_files/247727.got.cif
#   From: 2010.06.25/outbox.cif.g09.slc.cpg/sg12_124_cif.got.tgz:247727.got - 2010.06.28 00:19:55.
