data_PCOD8080257
_publ_section_title
;
Structure prediction by ZEFSAII (Michael W. Deem and Ramdas Pophale) SiO2 
 PCOD8080257
Probable space group: C 2/M
;
_chemical_formula_sum "Si O2"
_cell_formula_units_Z 64
_cell_length_a 29.402382
_cell_length_b 9.027494
_cell_length_c 15.840500
_cell_angle_alpha 90.000000
_cell_angle_beta 117.694018
_cell_angle_gamma 90.000000
_cell_volume 3722.877991
_symmetry_space_group_name_H-M "C 2/M"
_symmetry_group_IT_number 12
_symmetry_cell_setting 'monoclinic'
loop_
_space_group_symop_operation_xyz
x,y,z
-x,y,-z
-x,-y,-z
x,-y,z
1/2+x,1/2+y,z
1/2-x,1/2+y,-z
1/2-x,1/2-y,-z
1/2+x,1/2-y,z
loop_
_atom_site_type_symbol
_atom_site_label
_atom_site_fract_x
_atom_site_fract_y
_atom_site_fract_z
Si Si1 0.423580 0.328321 0.762627
Si Si2 0.964403 0.174183 0.151244
Si Si3 0.790397 0.174360 0.227116
Si Si4 0.137847 0.825507 0.855278
Si Si5 0.326714 0.826340 0.599878
Si Si6 0.903501 0.828946 0.938122
Si Si7 0.185935 0.324501 0.055347
Si Si8 0.778664 0.825360 0.404544
O O1 0.414318 0.500000 0.730952
O O2 0.478763 0.264642 0.777481
O O3 0.379410 0.231643 0.683615
O O4 0.425594 0.306056 0.864651
O O5 0.922007 0.221848 0.185083
O O6 0.971221 0.000000 0.153934
O O7 0.945334 0.227644 0.042582
O O8 0.842416 0.218476 0.221337
O O9 0.742121 0.231690 0.131464
O O10 0.790569 0.240775 0.321761
O O11 0.785223 0.000000 0.233110
O O12 0.144149 0.000000 0.876295
O O13 0.173253 0.745639 0.954263
O O14 0.280018 0.784716 0.622326
O O15 0.318131 0.752377 0.501749
O O16 0.330935 0.000000 0.590049
O O17 0.852555 0.731189 0.905159
O O18 0.889367 0.000000 0.943806
O O19 0.182481 0.500000 0.044940
O O20 0.788013 0.000000 0.418569
#
# Coordination Sequence:
#
# PCOD8080257 Si02
#       8
#     8   8   8   8   8   8   8   8
#     4  10  18  29  48  70  91 120 156 189 226 270
#     4   8  15  28  46  67  91 120 155 193 224 255
#     4   9  17  29  48  70  91 119 153 190 229 267
#     4   9  17  31  48  66  91 123 158 191 223 261
#     4  10  20  33  49  71  97 120 144 181 229 277
#     4   9  17  29  45  66  93 124 157 190 222 262
#     4  10  18  28  43  67  99 127 151 183 226 271
#     4   9  18  34  52  69  92 120 149 183 226 274
#
# _framework density 17.191002000000001
#
# number of rings (size 3 to 8) (size 9 to 14) (size 15 to 20)
#    0.000    2.750    0.000    3.000    0.000    3.500 
#    0.000    5.000    0.000    4.500    0.000    5.250 
#    0.000    0.000    0.000    0.000    0.000    0.000 
#
# Total GULP energy -396651.632891 kJ/mol
# GULP energy per Si atom -12395.363528 kJ/mol
# Density = 1.715187 g / cm^3
# Si number density = 17.191002 Si / 1000 Ang^3
#
#
#
# Elastic Constant Matrix: (Units=GPa)
#
#
# Indices 1 2 3 4 5 6 
#
# 1 124.9885 28.6464 69.2575 0.0000 -0.2227 0.0000
# 2 28.6464 36.4887 28.4164 0.0000 -0.8577 0.0000
# 3 69.2575 28.4164 90.3083 0.0000 -1.6611 0.0000
# 4 0.0000 0.0000 0.0000 23.6371 0.0000 3.1133
# 5 -0.2227 -0.8577 -1.6611 0.0000 30.5753 0.0000
# 6 0.0000 0.0000 0.0000 3.1133 0.0000 18.6281
#
#
#
# Elastic Compliance Matrix: (Units=1/GPa)
#
#
# Indices 1 2 3 4 5 6 
#
# 1 0.014260 -0.003554 -0.009827 0.000000 -0.000530 0.000000
# 2 -0.003554 0.037192 -0.008967 0.000000 0.000530 0.000000
# 3 -0.009827 -0.008967 0.021447 0.000000 0.000842 0.000000
# 4 0.000000 0.000000 0.000000 0.043259 0.000000 -0.007230
# 5 -0.000530 0.000530 0.000842 0.000000 0.032763 0.000000
# 6 0.000000 0.000000 0.000000 -0.007230 0.000000 0.054891
#
#
# Mechanical properties :
#
#
# Convention : Reuss Voigt Hill
#
# Bulk Modulus (GPa) = 35.45967 56.04734 45.75351
# Shear Modulus (GPa) = 19.38671 22.93246 21.15959
#
# Velocity S-wave (km/s) = 3.36180 3.65633 3.51216
# Velocity P-wave (km/s) = 5.97835 7.10623 6.56655
#
# Compressibility (1/GPa) = 0.02820105
#
# Stress axis : x y z
#
# Youngs Moduli (GPa) = 70.12742 26.88747 46.62703
#
# Poissons Ratio (x) = 0.09557 0.45821
# Poissons Ratio (y) = 0.24925 0.41812
# Poissons Ratio (z) = 0.68915 0.24111
#
# Static dielectric constant tensor:
#      x y z
#    x 3.488560 0.000000 -0.022180 
#    y 0.000000 2.991160 0.000000 
#    z -0.022180 0.000000 3.135840 
# 
# 
# High freq. dielectric constant tensor:
#      x y z
#    x 1.668240 0.000000 -0.000900 
#    y 0.000000 1.639140 0.000000 
#    z -0.000900 0.000000 1.645310 
# 
# From -- ./inp_files/248995.got.cif
#   From: 2010.06.25/outbox.cif.g09.slc.cpg/sg12_125_cif.got.tgz:248995.got - 2010.06.28 00:19:55.
