data_PCOD8080628
_publ_section_title
;
Structure prediction by ZEFSAII (Michael W. Deem and Ramdas Pophale) SiO2 
 PCOD8080628
Probable space group: C 2/M
;
_chemical_formula_sum "Si O2"
_cell_formula_units_Z 56
_cell_length_a 34.510287
_cell_length_b 9.227096
_cell_length_c 13.485524
_cell_angle_alpha 90.000000
_cell_angle_beta 54.138773
_cell_angle_gamma 90.000000
_cell_volume 3480.177328
_symmetry_space_group_name_H-M "C 2/M"
_symmetry_group_IT_number 12
_symmetry_cell_setting 'monoclinic'
loop_
_space_group_symop_operation_xyz
x,y,z
-x,y,-z
-x,-y,-z
x,-y,z
1/2+x,1/2+y,z
1/2-x,1/2+y,-z
1/2-x,1/2-y,-z
1/2+x,1/2-y,z
loop_
_atom_site_type_symbol
_atom_site_label
_atom_site_fract_x
_atom_site_fract_y
_atom_site_fract_z
Si Si1 0.892315 0.335436 0.598675
Si Si2 0.446465 0.664518 0.682395
Si Si3 0.707907 0.165965 0.178316
Si Si4 0.107918 0.166687 0.031654
Si Si5 0.023173 0.670553 0.068010
Si Si6 0.197614 0.668926 0.965368
Si Si7 0.526291 0.165333 0.659303
O O1 0.899485 0.500000 0.626254
O O2 0.917219 0.228453 0.636410
O O3 0.835637 0.302197 0.680114
O O4 0.917310 0.315461 0.452718
O O5 0.458723 0.500000 0.639316
O O6 0.414630 0.681069 0.827016
O O7 0.496659 0.745029 0.622507
O O8 0.750573 0.272039 0.144770
O O9 0.725814 0.000000 0.158518
O O10 0.689638 0.198827 0.094110
O O11 0.073013 0.244716 0.005543
O O12 0.115242 0.000000 0.988918
O O13 0.158669 0.247425 0.957934
O O14 0.034242 0.500000 0.052118
O O15 0.985318 0.715353 0.211148
O O16 0.000000 0.720797 0.000000
O O17 0.194480 0.500000 0.944591
O O18 0.509955 0.000000 0.671632
#
# Coordination Sequence:
#
# PCOD8080628 Si02
#       7
#     8   8   8   8   8   8   8
#     4  10  18  29  43  61  87 122 155 181 214 259
#     4  10  19  28  40  61  90 121 152 184 216 254
#     4   9  18  29  42  61  89 122 155 188 219 256
#     4  10  19  30  46  67  92 121 152 186 225 268
#     4   9  18  33  51  70  91 115 147 188 230 271
#     4  10  18  29  45  64  88 120 156 189 221 260
#     4   9  18  30  45  63  86 117 151 182 218 267
#
# _framework density 16.091134
#
# number of rings (size 3 to 8) (size 9 to 14) (size 15 to 20)
#    0.000    2.429    1.429    1.714    0.000    4.857 
#    0.000    0.000    0.000    0.000    0.000    1.000 
#    0.000    0.000    0.000    0.000    0.000    0.000 
#
# Total GULP energy -347139.579968 kJ/mol
# GULP energy per Si atom -12397.842142 kJ/mol
# Density = 1.605451 g / cm^3
# Si number density = 16.091134 Si / 1000 Ang^3
#
#
#
# Elastic Constant Matrix: (Units=GPa)
#
#
# Indices 1 2 3 4 5 6 
#
# 1 98.4908 53.3389 46.0618 0.0000 -12.4992 0.0000
# 2 53.3389 82.4897 37.5085 0.0000 -10.5569 0.0000
# 3 46.0618 37.5085 72.1033 0.0000 -21.4421 0.0000
# 4 0.0000 0.0000 0.0000 17.0047 0.0000 -6.5313
# 5 -12.4992 -10.5569 -21.4421 0.0000 21.6989 0.0000
# 6 0.0000 0.0000 0.0000 -6.5313 0.0000 22.6845
#
#
#
# Elastic Compliance Matrix: (Units=1/GPa)
#
#
# Indices 1 2 3 4 5 6 
#
# 1 0.018081 -0.008424 -0.007492 0.000000 -0.001086 0.000000
# 2 -0.008424 0.019809 -0.004957 0.000000 -0.000113 0.000000
# 3 -0.007492 -0.004957 0.027237 0.000000 0.020187 0.000000
# 4 0.000000 0.000000 0.000000 0.066119 0.000000 0.019037
# 5 -0.001086 -0.000113 0.020187 0.000000 0.065353 0.000000
# 6 0.000000 0.000000 0.000000 0.019037 0.000000 0.049564
#
#
# Mechanical properties :
#
#
# Convention : Reuss Voigt Hill
#
# Bulk Modulus (GPa) = 42.76787 58.54467 50.65627
# Shear Modulus (GPa) = 16.90885 20.02260 18.46573
#
# Velocity S-wave (km/s) = 3.24515 3.53133 3.39126
# Velocity P-wave (km/s) = 6.37790 7.28623 6.84714
#
# Compressibility (1/GPa) = 0.02338204
#
# Stress axis : x y z
#
# Youngs Moduli (GPa) = 55.30613 50.48127 36.71497
#
# Poissons Ratio (x) = 0.42526 0.27505
# Poissons Ratio (y) = 0.46590 0.18200
# Poissons Ratio (z) = 0.41433 0.25024
#
# Static dielectric constant tensor:
#      x y z
#    x 2.785400 0.000000 -0.168770 
#    y 0.000000 3.138170 0.000000 
#    z -0.168770 0.000000 3.122270 
# 
# 
# High freq. dielectric constant tensor:
#      x y z
#    x 1.581940 0.000000 -0.024710 
#    y 0.000000 1.627420 0.000000 
#    z -0.024710 0.000000 1.607110 
# 
# From -- ./inp_files/243045.got.cif
#   From: 2010.06.25/outbox.cif.g09.slc.cpg/sg12_122_cif.got.tgz:243045.got - 2010.06.28 00:19:55.
