data_PCOD8080253
_publ_section_title
;
Structure prediction by ZEFSAII (Michael W. Deem and Ramdas Pophale) SiO2 
 PCOD8080253
Probable space group: C 2/M
;
_chemical_formula_sum "Si O2"
_cell_formula_units_Z 56
_cell_length_a 10.379804
_cell_length_b 27.794004
_cell_length_c 16.215673
_cell_angle_alpha 90.000000
_cell_angle_beta 129.800112
_cell_angle_gamma 90.000000
_cell_volume 3594.148845
_symmetry_space_group_name_H-M "C 2/M"
_symmetry_group_IT_number 12
_symmetry_cell_setting 'monoclinic'
loop_
_space_group_symop_operation_xyz
x,y,z
-x,y,-z
-x,-y,-z
x,-y,z
1/2+x,1/2+y,z
1/2-x,1/2+y,-z
1/2-x,1/2-y,-z
1/2+x,1/2-y,z
loop_
_atom_site_type_symbol
_atom_site_label
_atom_site_fract_x
_atom_site_fract_y
_atom_site_fract_z
Si Si1 0.627403 0.309892 0.127402
Si Si2 0.614040 0.944935 0.267803
Si Si3 0.921568 0.944935 0.267804
Si Si4 0.640348 0.443161 0.500000
Si Si5 0.632435 0.360580 0.872718
Si Si6 0.613002 0.860580 0.872719
Si Si7 0.872611 0.297876 0.872612
O O1 0.541563 0.337946 0.167548
O O2 0.793534 0.337945 0.167548
O O3 0.675783 0.255946 0.175783
O O4 0.500000 0.306471 0.000000
O O5 0.678749 0.929169 0.386774
O O6 0.455417 0.912784 0.179515
O O7 0.762787 0.938247 0.262787
O O8 0.551731 0.000000 0.242563
O O9 0.094801 0.929169 0.386775
O O10 0.903616 0.912784 0.179517
O O11 0.933397 0.000000 0.242564
O O12 0.500000 0.418498 0.500000
O O13 0.621234 0.500000 0.500000
O O14 0.705445 0.325550 0.832222
O O15 0.763374 0.367526 1.000000
O O16 0.458997 0.825550 0.832222
O O17 0.000000 0.295294 0.000000
#
# Coordination Sequence:
#
# PCOD8080253 Si02
#       7
#     8   8   8   8   8   8   8
#     4   9  18  30  43  60  89 122 147 176 213 255
#     4   9  16  27  44  66  90 114 143 179 214 252
#     4   9  16  27  44  66  90 114 143 179 214 252
#     4   7  12  24  42  63  84 108 143 182 213 245
#     4  10  18  28  43  67  92 115 144 175 216 263
#     4  10  18  28  43  67  92 115 144 175 216 263
#     4   9  16  28  45  64  85 112 149 186 213 245
#
# _framework density 15.580878999999999
#
# number of rings (size 3 to 8) (size 9 to 14) (size 15 to 20)
#    0.000    3.000    1.429    2.571    0.000    4.000 
#    0.000    2.143    0.000    3.429    0.000    9.000 
#    0.000    0.000    0.000    0.000    0.000    0.000 
#
# Total GULP energy -346942.620679 kJ/mol
# GULP energy per Si atom -12390.807881 kJ/mol
# Density = 1.554542 g / cm^3
# Si number density = 15.580879 Si / 1000 Ang^3
#
#
#
# Elastic Constant Matrix: (Units=GPa)
#
#
# Indices 1 2 3 4 5 6 
#
# 1 102.7574 55.6098 27.8510 0.0000 1.6403 0.0000
# 2 55.6098 117.5203 45.4931 0.0000 0.2912 0.0000
# 3 27.8510 45.4931 51.5233 0.0000 -0.1646 0.0000
# 4 0.0000 0.0000 0.0000 3.2652 0.0000 0.3073
# 5 1.6403 0.2912 -0.1646 0.0000 9.0361 0.0000
# 6 0.0000 0.0000 0.0000 0.3073 0.0000 13.9316
#
#
#
# Elastic Compliance Matrix: (Units=1/GPa)
#
#
# Indices 1 2 3 4 5 6 
#
# 1 0.013334 -0.005334 -0.002505 0.000000 -0.002294 0.000000
# 2 -0.005334 0.015065 -0.010418 0.000000 0.000293 0.000000
# 3 -0.002505 -0.010418 0.029966 0.000000 0.001336 0.000000
# 4 0.000000 0.000000 0.000000 0.306898 0.000000 -0.006770
# 5 -0.002294 0.000293 0.001336 0.000000 0.111098 0.000000
# 6 0.000000 0.000000 0.000000 -0.006770 0.000000 0.071928
#
#
# Mechanical properties :
#
#
# Convention : Reuss Voigt Hill
#
# Bulk Modulus (GPa) = 45.76509 58.85656 52.31082
# Shear Modulus (GPa) = 8.44470 14.76973 11.60721
#
# Velocity S-wave (km/s) = 2.33060 3.08220 2.73237
# Velocity P-wave (km/s) = 6.05629 7.10799 6.60311
#
# Compressibility (1/GPa) = 0.02185072
#
# Stress axis : x y z
#
# Youngs Moduli (GPa) = 74.99653 66.37766 33.37141
#
# Poissons Ratio (x) = 0.35406 0.08360
# Poissons Ratio (y) = 0.40003 0.34766
# Poissons Ratio (z) = 0.18789 0.69151
#
# Static dielectric constant tensor:
#      x y z
#    x 2.864060 0.000000 -0.001460 
#    y 0.000000 2.954740 0.000000 
#    z -0.001460 0.000000 2.914490 
# 
# 
# High freq. dielectric constant tensor:
#      x y z
#    x 1.575970 0.000000 0.000230 
#    y 0.000000 1.592880 0.000000 
#    z 0.000230 0.000000 1.568050 
# 
# From -- ./inp_files/201003.got.cif
#   From: 2010.06.25/outbox.cif.g09.slc.cpg/sg12_101_cif.got.tgz:201003.got - 2010.06.28 00:19:55.
