data_PCOD8080575
_publ_section_title
;
Structure prediction by ZEFSAII (Michael W. Deem and Ramdas Pophale) SiO2 
 PCOD8080575
Probable space group: C 2/M
;
_chemical_formula_sum "Si O2"
_cell_formula_units_Z 56
_cell_length_a 8.323761
_cell_length_b 20.129487
_cell_length_c 21.582268
_cell_angle_alpha 90.000000
_cell_angle_beta 123.754674
_cell_angle_gamma 90.000000
_cell_volume 3006.575382
_symmetry_space_group_name_H-M "C 2/M"
_symmetry_group_IT_number 12
_symmetry_cell_setting 'monoclinic'
loop_
_space_group_symop_operation_xyz
x,y,z
-x,y,-z
-x,-y,-z
x,-y,z
1/2+x,1/2+y,z
1/2-x,1/2+y,-z
1/2-x,1/2-y,-z
1/2+x,1/2-y,z
loop_
_atom_site_type_symbol
_atom_site_label
_atom_site_fract_x
_atom_site_fract_y
_atom_site_fract_z
Si Si1 0.571460 0.421203 0.664553
Si Si2 0.074775 0.077311 0.806190
Si Si3 0.232388 0.337019 0.758264
Si Si4 0.467550 0.771465 0.173411
Si Si5 0.198035 0.422801 0.516374
Si Si6 0.097687 0.422356 0.357898
Si Si7 0.129398 0.331068 0.088024
O O1 0.558164 0.500000 0.661958
O O2 0.577307 0.393777 0.736065
O O3 0.383862 0.390149 0.589836
O O4 0.764663 0.400336 0.669244
O O5 0.276827 0.096176 0.881951
O O6 0.899545 0.109383 0.807368
O O7 0.045300 0.000000 0.800725
O O8 0.339614 0.268126 0.760520
O O9 0.106770 0.323271 0.792056
O O10 0.086942 0.372661 0.678507
O O11 0.302946 0.720416 0.118509
O O12 0.502419 0.814297 0.120102
O O13 0.196597 0.500000 0.533566
O O14 0.215858 0.412303 0.446617
O O15 0.000000 0.390222 0.500000
O O16 0.031453 0.500000 0.337658
O O17 0.000000 0.331243 0.000000
#
# Coordination Sequence:
#
# PCOD8080575 Si02
#       7
#     8   8   8   8   8   8   8
#     4   9  17  29  45  71 107 138 167 200 240 300
#     4  10  20  33  51  77 106 135 163 199 255 313
#     4  10  19  34  53  74 101 132 169 212 248 291
#     4   9  20  35  53  77  98 129 175 214 246 284
#     4   9  16  26  42  69 105 139 169 202 242 290
#     4  10  18  28  48  78 107 134 163 203 256 303
#     4  10  19  34  56  78 102 130 165 210 252 295
#
# _framework density 18.625843
#
# number of rings (size 3 to 8) (size 9 to 14) (size 15 to 20)
#    0.000    2.429    0.000    3.000    0.000    4.286 
#    0.000    0.714    0.000    0.857    0.000   45.000 
#    0.000    0.000    0.000    0.000    0.000    0.000 
#
# Total GULP energy -347018.051686 kJ/mol
# GULP energy per Si atom -12393.501846 kJ/mol
# Density = 1.858345 g / cm^3
# Si number density = 18.625843 Si / 1000 Ang^3
#
#
#
# Elastic Constant Matrix: (Units=GPa)
#
#
# Indices 1 2 3 4 5 6 
#
# 1 107.4252 35.7562 31.9517 0.0000 -0.3895 0.0000
# 2 35.7562 49.4595 34.4641 0.0000 -9.0308 0.0000
# 3 31.9517 34.4641 95.3346 0.0000 16.6392 0.0000
# 4 0.0000 0.0000 0.0000 17.1058 0.0000 1.1631
# 5 -0.3895 -9.0308 16.6392 0.0000 20.2030 0.0000
# 6 0.0000 0.0000 0.0000 1.1631 0.0000 27.2041
#
#
#
# Elastic Compliance Matrix: (Units=1/GPa)
#
#
# Indices 1 2 3 4 5 6 
#
# 1 0.012573 -0.009998 0.000161 0.000000 -0.004360 0.000000
# 2 -0.009998 0.049767 -0.021593 0.000000 0.039837 0.000000
# 3 0.000161 -0.021593 0.023271 0.000000 -0.028815 0.000000
# 4 0.000000 0.000000 0.000000 0.058630 0.000000 -0.002507
# 5 -0.004360 0.039837 -0.028815 0.000000 0.090952 0.000000
# 6 0.000000 0.000000 0.000000 -0.002507 0.000000 0.036866
#
#
# Mechanical properties :
#
#
# Convention : Reuss Voigt Hill
#
# Bulk Modulus (GPa) = 43.95456 50.72925 47.34190
# Shear Modulus (GPa) = 14.59847 22.90574 18.75210
#
# Velocity S-wave (km/s) = 2.80264 3.51063 3.17642
# Velocity P-wave (km/s) = 5.84148 6.61270 6.23902
#
# Compressibility (1/GPa) = 0.02275077
#
# Stress axis : x y z
#
# Youngs Moduli (GPa) = 79.53718 20.09375 42.97283
#
# Poissons Ratio (x) = 0.20089 -0.00693
# Poissons Ratio (y) = 0.79519 0.92792
# Poissons Ratio (z) = -0.01283 0.43389
#
# Static dielectric constant tensor:
#      x y z
#    x 3.669730 0.000000 0.096300 
#    y 0.000000 3.183220 0.000000 
#    z 0.096300 0.000000 3.360110 
# 
# 
# High freq. dielectric constant tensor:
#      x y z
#    x 1.741890 0.000000 0.007750 
#    y 0.000000 1.688710 0.000000 
#    z 0.007750 0.000000 1.709730 
# 
# From -- ./inp_files/257617.got.cif
#   From: 2010.06.25/outbox.cif.g09.slc.cpg/sg12_129_cif.got.tgz:257617.got - 2010.06.28 00:19:55.
