data_PCOD8080264
_publ_section_title
;
Structure prediction by ZEFSAII (Michael W. Deem and Ramdas Pophale) SiO2 
 PCOD8080264
Probable space group: C 2/M
;
_chemical_formula_sum "Si O2"
_cell_formula_units_Z 64
_cell_length_a 24.371682
_cell_length_b 8.812438
_cell_length_c 24.872168
_cell_angle_alpha 90.000000
_cell_angle_beta 130.909074
_cell_angle_gamma 90.000000
_cell_volume 4037.134720
_symmetry_space_group_name_H-M "C 2/M"
_symmetry_group_IT_number 12
_symmetry_cell_setting 'monoclinic'
loop_
_space_group_symop_operation_xyz
x,y,z
-x,y,-z
-x,-y,-z
x,-y,z
1/2+x,1/2+y,z
1/2-x,1/2+y,-z
1/2-x,1/2-y,-z
1/2+x,1/2-y,z
loop_
_atom_site_type_symbol
_atom_site_label
_atom_site_fract_x
_atom_site_fract_y
_atom_site_fract_z
Si Si1 0.950320 0.318762 0.307713
Si Si2 0.035311 0.178343 0.265081
Si Si3 0.332194 0.673872 0.503731
Si Si4 0.671558 0.174271 0.386293
Si Si5 0.819061 0.331669 0.161682
Si Si6 0.300258 0.681826 0.986798
Si Si7 0.420398 0.169898 0.122539
Si Si8 0.018281 0.176231 0.452246
O O1 0.952859 0.500000 0.302727
O O2 0.869058 0.253714 0.239874
O O3 0.008334 0.248005 0.304115
O O4 0.968098 0.270315 0.379362
O O5 0.120164 0.224078 0.315010
O O6 0.993357 0.241753 0.186053
O O7 0.025123 0.000000 0.260334
O O8 0.335224 0.500000 0.526721
O O9 0.340558 0.785215 0.559148
O O10 0.255641 0.704194 0.424474
O O11 0.396665 0.707145 0.503348
O O12 0.649735 0.000000 0.364046
O O13 0.803779 0.500000 0.172294
O O14 0.739247 0.263515 0.094925
O O15 0.866943 0.331355 0.138542
O O16 0.301304 0.500000 0.991532
O O17 0.250000 0.750000 0.000000
O O18 0.381520 0.747354 0.046550
O O19 0.441124 0.000000 0.118113
O O20 0.000000 0.234573 0.500000
O O21 0.998722 0.000000 0.432782
#
# Coordination Sequence:
#
# PCOD8080264 Si02
#       8
#     8   8   8   8   8   8   8   8
#     4  10  18  29  43  60  80 105 140 178 213 250
#     4  11  19  27  40  59  82 109 139 172 212 254
#     4   9  18  31  45  62  83 108 139 172 214 259
#     4  10  18  28  44  63  83 108 137 176 214 251
#     4   7  13  23  35  50  71  98 130 168 204 238
#     4   9  14  22  34  49  71 102 136 169 205 244
#     4   9  16  25  35  51  76 104 136 171 204 243
#     4  10  20  33  47  63  85 112 141 177 217 258
#
# _framework density 15.852828000000001
#
# number of rings (size 3 to 8) (size 9 to 14) (size 15 to 20)
#    0.000    2.625    1.250    4.125    0.000    0.750 
#    0.000    1.875    0.000    0.000    0.000    0.000 
#    0.000    0.000    0.000    1.125    0.000   23.625 
#
# Total GULP energy -396423.776906 kJ/mol
# GULP energy per Si atom -12388.243028 kJ/mol
# Density = 1.581675 g / cm^3
# Si number density = 15.852828 Si / 1000 Ang^3
#
#
#
# Elastic Constant Matrix: (Units=GPa)
#
#
# Indices 1 2 3 4 5 6 
#
# 1 48.7682 19.3340 44.6659 0.0000 9.1878 0.0000
# 2 19.3340 83.3832 49.9993 0.0000 12.2166 0.0001
# 3 44.6659 49.9993 146.5244 0.0000 33.6490 0.0000
# 4 0.0000 0.0000 0.0000 27.0888 0.0000 6.3132
# 5 9.1878 12.2166 33.6490 0.0000 19.2177 0.0000
# 6 0.0000 0.0001 0.0000 6.3132 0.0000 11.8408
#
#
#
# Elastic Compliance Matrix: (Units=1/GPa)
#
#
# Indices 1 2 3 4 5 6 
#
# 1 0.028743 -0.001804 -0.008787 0.000000 0.002791 0.000000
# 2 -0.001804 0.015202 -0.004376 0.000000 -0.001140 0.000000
# 3 -0.008787 -0.004376 0.015710 0.000000 -0.020525 0.000000
# 4 0.000000 0.000000 0.000000 0.042154 0.000000 -0.022475
# 5 0.002791 -0.001140 -0.020525 0.000000 0.087363 0.000000
# 6 0.000000 0.000000 0.000000 -0.022475 0.000000 0.096436
#
#
# Mechanical properties :
#
#
# Convention : Reuss Voigt Hill
#
# Bulk Modulus (GPa) = 33.64710 56.29712 44.97211
# Shear Modulus (GPa) = 15.36342 22.60789 18.98566
#
# Velocity S-wave (km/s) = 3.11646 3.78049 3.46442
# Velocity P-wave (km/s) = 5.84983 7.39226 6.66581
#
# Compressibility (1/GPa) = 0.02972025
#
# Stress axis : x y z
#
# Youngs Moduli (GPa) = 34.79164 65.78082 63.65397
#
# Poissons Ratio (x) = 0.11870 0.55932
# Poissons Ratio (y) = 0.06278 0.27853
# Poissons Ratio (z) = 0.30571 0.28784
#
# Static dielectric constant tensor:
#      x y z
#    x 2.589980 0.000000 0.452440 
#    y 0.000000 3.074090 0.000000 
#    z 0.452440 0.000000 3.468930 
# 
# 
# High freq. dielectric constant tensor:
#      x y z
#    x 1.534460 0.000000 0.044730 
#    y 0.000000 1.611460 0.000000 
#    z 0.044730 0.000000 1.621370 
# 
# From -- ./inp_files/326585.got.cif
#   From: 2010.06.25/outbox.cif.g09.slc.cpg/sg12_164_cif.got.tgz:326585.got - 2010.06.28 00:19:55.
