data_PCOD8080208
_publ_section_title
;
Structure prediction by ZEFSAII (Michael W. Deem and Ramdas Pophale) SiO2 
 PCOD8080208
Probable space group: C 2/M
;
_chemical_formula_sum "Si O2"
_cell_formula_units_Z 64
_cell_length_a 27.846609
_cell_length_b 9.256401
_cell_length_c 20.621037
_cell_angle_alpha 90.000000
_cell_angle_beta 52.172784
_cell_angle_gamma 90.000000
_cell_volume 4198.335894
_symmetry_space_group_name_H-M "C 2/M"
_symmetry_group_IT_number 12
_symmetry_cell_setting 'monoclinic'
loop_
_space_group_symop_operation_xyz
x,y,z
-x,y,-z
-x,-y,-z
x,-y,z
1/2+x,1/2+y,z
1/2-x,1/2+y,-z
1/2-x,1/2-y,-z
1/2+x,1/2-y,z
loop_
_atom_site_type_symbol
_atom_site_label
_atom_site_fract_x
_atom_site_fract_y
_atom_site_fract_z
Si Si1 0.370666 0.833489 0.981081
Si Si2 0.300909 0.169346 0.917290
Si Si3 0.161770 0.158912 0.595369
Si Si4 0.891376 0.170078 0.228534
Si Si5 0.263678 0.329812 0.272225
Si Si6 0.997103 0.329416 0.927413
Si Si7 0.793283 0.341486 0.549168
Si Si8 0.249348 0.172662 0.152458
O O1 0.361950 0.812805 0.910445
O O2 0.434266 0.763366 0.950676
O O3 0.373990 0.000000 0.997206
O O4 0.313619 0.771672 0.069418
O O5 0.304666 0.251178 0.844975
O O6 0.285257 0.000000 0.920948
O O7 0.250000 0.250000 0.000000
O O8 0.120987 0.224208 0.687418
O O9 0.157857 0.248645 0.531834
O O10 0.230502 0.150213 0.562733
O O11 0.137782 0.000000 0.598020
O O12 0.833429 0.205147 0.231678
O O13 0.948357 0.255799 0.155290
O O14 0.904457 0.000000 0.217271
O O15 0.255952 0.500000 0.263427
O O16 0.219930 0.281329 0.367821
O O17 0.243212 0.230393 0.229973
O O18 0.002635 0.500000 0.912109
O O19 0.000000 0.287119 0.000000
O O20 0.822002 0.500000 0.531205
O O21 0.241840 0.000000 0.156088
#
# Coordination Sequence:
#
# PCOD8080208 Si02
#       8
#     8   8   8   8   8   8   8   8
#     4   8  16  29  42  57  79 107 138 171 204 238
#     4   9  16  28  44  60  80 105 134 169 208 247
#     4   8  14  25  39  54  76 104 133 167 202 235
#     4   9  18  30  41  57  82 111 142 173 205 240
#     4   9  17  28  40  57  85 114 136 164 204 246
#     4  10  19  30  43  59  81 110 143 175 204 233
#     4   8  14  24  38  56  77 103 134 164 196 238
#     4  10  18  28  43  62  82 105 137 172 207 249
#
# _framework density 15.244135
#
# number of rings (size 3 to 8) (size 9 to 14) (size 15 to 20)
#    0.000    3.125    0.000    3.750    0.000    2.750 
#    0.000    6.250    0.000    0.000    0.000    0.000 
#    0.000    1.000    0.000   11.250    0.000    6.125 
#
# Total GULP energy -396490.116188 kJ/mol
# GULP energy per Si atom -12390.316131 kJ/mol
# Density = 1.520944 g / cm^3
# Si number density = 15.244135 Si / 1000 Ang^3
#
#
#
# Elastic Constant Matrix: (Units=GPa)
#
#
# Indices 1 2 3 4 5 6 
#
# 1 85.6220 38.8300 46.2805 -0.0004 18.3362 0.0003
# 2 38.8300 61.2106 43.0257 0.0027 13.8674 -0.0022
# 3 46.2805 43.0257 101.5136 0.0008 20.1958 0.0006
# 4 -0.0004 0.0027 0.0008 27.6392 -0.0002 4.4485
# 5 18.3362 13.8674 20.1958 -0.0002 20.6532 0.0003
# 6 0.0003 -0.0022 0.0006 4.4485 0.0003 18.8684
#
#
#
# Elastic Compliance Matrix: (Units=1/GPa)
#
#
# Indices 1 2 3 4 5 6 
#
# 1 0.018841 -0.007440 -0.003852 0.000001 -0.007966 -0.000001
# 2 -0.007440 0.027162 -0.007209 -0.000003 -0.004583 0.000004
# 3 -0.003852 -0.007209 0.016163 0.000000 -0.007546 -0.000001
# 4 0.000001 -0.000003 0.000000 0.037608 0.000001 -0.008867
# 5 -0.007966 -0.004583 -0.007546 0.000001 0.065947 -0.000002
# 6 -0.000001 0.000004 -0.000001 -0.008867 -0.000002 0.055089
#
#
# Mechanical properties :
#
#
# Convention : Reuss Voigt Hill
#
# Bulk Modulus (GPa) = 39.73637 56.06873 47.90255
# Shear Modulus (GPa) = 18.78290 21.44617 20.11454
#
# Velocity S-wave (km/s) = 3.51399 3.75487 3.63642
# Velocity P-wave (km/s) = 6.52591 7.46050 7.00880
#
# Compressibility (1/GPa) = 0.02516586
#
# Stress axis : x y z
#
# Youngs Moduli (GPa) = 53.07544 36.81569 61.86828
#
# Poissons Ratio (x) = 0.27392 0.23829
# Poissons Ratio (y) = 0.39490 0.44599
# Poissons Ratio (z) = 0.20442 0.26539
#
# Static dielectric constant tensor:
#      x y z
#    x 3.018110 0.000000 0.245950 
#    y 0.000000 3.006240 0.000000 
#    z 0.245950 0.000000 2.933730 
# 
# 
# High freq. dielectric constant tensor:
#      x y z
#    x 1.553940 0.000000 0.026930 
#    y 0.000000 1.580430 0.000000 
#    z 0.026930 0.000000 1.569030 
# 
# From -- ./inp_files/326799.got.cif
#   From: 2010.06.25/outbox.cif.g09.slc.cpg/sg12_164_cif.got.tgz:326799.got - 2010.06.28 00:19:55.
