data_PCOD8080168
_publ_section_title
;
Structure prediction by ZEFSAII (Michael W. Deem and Ramdas Pophale) SiO2 
 PCOD8080168
Probable space group: C 2/M
;
_chemical_formula_sum "Si O2"
_cell_formula_units_Z 64
_cell_length_a 27.605424
_cell_length_b 8.703218
_cell_length_c 24.017388
_cell_angle_alpha 90.000000
_cell_angle_beta 44.040569
_cell_angle_gamma 90.000000
_cell_volume 4011.340602
_symmetry_space_group_name_H-M "C 2/M"
_symmetry_group_IT_number 12
_symmetry_cell_setting 'monoclinic'
loop_
_space_group_symop_operation_xyz
x,y,z
-x,y,-z
-x,-y,-z
x,-y,z
1/2+x,1/2+y,z
1/2-x,1/2+y,-z
1/2-x,1/2-y,-z
1/2+x,1/2-y,z
loop_
_atom_site_type_symbol
_atom_site_label
_atom_site_fract_x
_atom_site_fract_y
_atom_site_fract_z
Si Si1 0.893770 0.318919 0.435292
Si Si2 0.933994 0.681349 0.522715
Si Si3 0.946895 0.670275 0.993033
Si Si4 0.781633 0.319723 0.675706
Si Si5 0.752363 0.179682 0.584961
Si Si6 0.944251 0.823192 0.164706
Si Si7 0.662078 0.181180 0.831849
Si Si8 0.110182 0.821800 0.671671
O O1 0.902922 0.500000 0.421237
O O2 0.930300 0.258452 0.462074
O O3 0.812278 0.276809 0.505192
O O4 0.928255 0.233312 0.353483
O O5 0.942854 0.500000 0.513607
O O6 0.863149 0.724505 0.614624
O O7 0.000000 0.756921 0.500000
O O8 0.937440 0.500000 0.975402
O O9 0.977225 0.780258 0.919834
O O10 0.873857 0.730606 0.079680
O O11 0.000000 0.663605 0.000000
O O12 0.773278 0.500000 0.671034
O O13 0.747579 0.226998 0.653258
O O14 0.736777 0.267872 0.766572
O O15 0.679434 0.220002 0.617218
O O16 0.768247 0.000000 0.565691
O O17 0.886797 0.724429 0.179928
O O18 0.939631 0.789675 0.234443
O O19 0.929388 0.000000 0.163270
O O20 0.673927 0.000000 0.820664
O O21 0.130454 0.000000 0.651538
#
# Coordination Sequence:
#
# PCOD8080168 Si02
#       8
#     8   8   8   8   8   8   8   8
#     4  10  20  32  47  65  84 110 146 181 217 261
#     4   8  16  32  51  68  87 110 139 180 225 265
#     4   8  16  28  40  56  81 114 150 183 217 255
#     4  10  18  28  45  68  89 113 148 184 218 261
#     4  11  20  30  44  60  85 118 148 181 219 254
#     4  10  19  28  41  59  83 117 153 186 217 251
#     4  10  18  28  42  60  86 118 149 183 218 256
#     4  11  21  31  42  60  89 118 149 183 214 253
#
# _framework density 15.954765999999999
#
# number of rings (size 3 to 8) (size 9 to 14) (size 15 to 20)
#    0.000    2.250    1.250    4.875    0.000    4.250 
#    0.000    0.000    0.000   13.500    0.000    0.000 
#    0.000    1.000    0.000    2.250    0.000    3.500 
#
# Total GULP energy -396637.825679 kJ/mol
# GULP energy per Si atom -12394.932052 kJ/mol
# Density = 1.591845 g / cm^3
# Si number density = 15.954766 Si / 1000 Ang^3
#
#
#
# Elastic Constant Matrix: (Units=GPa)
#
#
# Indices 1 2 3 4 5 6 
#
# 1 64.9679 18.0444 49.8153 0.0012 -1.2776 -0.0007
# 2 18.0444 52.1771 30.3215 0.0069 2.8852 0.0040
# 3 49.8153 30.3215 121.8817 0.0010 3.7000 0.0002
# 4 0.0012 0.0069 0.0010 28.3576 -0.0003 3.3750
# 5 -1.2776 2.8852 3.7000 -0.0003 14.3697 0.0002
# 6 -0.0007 0.0040 0.0002 3.3750 0.0002 10.5511
#
#
#
# Elastic Compliance Matrix: (Units=1/GPa)
#
#
# Indices 1 2 3 4 5 6 
#
# 1 0.023127 -0.003147 -0.008820 0.000000 0.004959 0.000003
# 2 -0.003147 0.022969 -0.004313 -0.000004 -0.003781 -0.000007
# 3 -0.008820 -0.004313 0.012982 0.000001 -0.003261 0.000001
# 4 0.000000 -0.000004 0.000001 0.036660 0.000002 -0.011726
# 5 0.004959 -0.003781 -0.003261 0.000002 0.071630 0.000000
# 6 0.000003 -0.000007 0.000001 -0.011726 0.000000 0.098528
#
#
# Mechanical properties :
#
#
# Convention : Reuss Voigt Hill
#
# Bulk Modulus (GPa) = 37.71078 48.37657 43.04368
# Shear Modulus (GPa) = 16.27103 20.04538 18.15820
#
# Velocity S-wave (km/s) = 3.19693 3.54840 3.37724
# Velocity P-wave (km/s) = 6.10856 6.86841 6.49960
#
# Compressibility (1/GPa) = 0.02651762
#
# Stress axis : x y z
#
# Youngs Moduli (GPa) = 43.24027 43.53618 77.03182
#
# Poissons Ratio (x) = 0.13699 0.67942
# Poissons Ratio (y) = 0.13606 0.33227
# Poissons Ratio (z) = 0.38138 0.18779
#
# Static dielectric constant tensor:
#      x y z
#    x 2.804890 -0.000010 0.045110 
#    y -0.000010 2.996920 0.000010 
#    z 0.045110 0.000010 3.481420 
# 
# 
# High freq. dielectric constant tensor:
#      x y z
#    x 1.547610 0.000000 0.006640 
#    y 0.000000 1.616330 0.000000 
#    z 0.006640 0.000000 1.622350 
# 
# From -- ./inp_files/350943.got.cif
#   From: 2010.06.25/outbox.cif.g09.slc.cpg/sg12_176_cif.got.tgz:350943.got - 2010.06.28 00:19:55.
