data_PCOD8080881
_publ_section_title
;
Structure prediction by ZEFSAII (Michael W. Deem and Ramdas Pophale) SiO2 
 PCOD8080881
Probable space group: C 2/M
;
_chemical_formula_sum "Si O2"
_cell_formula_units_Z 64
_cell_length_a 24.985665
_cell_length_b 9.224333
_cell_length_c 17.158295
_cell_angle_alpha 90.000000
_cell_angle_beta 78.289070
_cell_angle_gamma 90.000000
_cell_volume 3872.258771
_symmetry_space_group_name_H-M "C 2/M"
_symmetry_group_IT_number 12
_symmetry_cell_setting 'monoclinic'
loop_
_space_group_symop_operation_xyz
x,y,z
-x,y,-z
-x,-y,-z
x,-y,z
1/2+x,1/2+y,z
1/2-x,1/2+y,-z
1/2-x,1/2-y,-z
1/2+x,1/2-y,z
loop_
_atom_site_type_symbol
_atom_site_label
_atom_site_fract_x
_atom_site_fract_y
_atom_site_fract_z
Si Si1 0.430199 0.168813 0.412454
Si Si2 0.624299 0.334982 0.433243
Si Si3 0.405966 0.331414 0.145266
Si Si4 0.464478 0.667861 0.664510
Si Si5 0.850693 0.331231 0.294976
Si Si6 0.246758 0.833014 0.420483
Si Si7 0.062122 0.336082 0.009069
Si Si8 0.528754 0.667509 0.161654
O O1 0.394574 0.228536 0.493632
O O2 0.488869 0.244407 0.394035
O O3 0.398864 0.200740 0.341731
O O4 0.439307 0.000000 0.423697
O O5 0.613777 0.500000 0.464152
O O6 0.592373 0.303186 0.362669
O O7 0.688195 0.308648 0.397186
O O8 0.393431 0.500000 0.137179
O O9 0.360710 0.262374 0.214908
O O10 0.465008 0.304620 0.165621
O O11 0.401426 0.253367 0.062941
O O12 0.481854 0.500000 0.658139
O O13 0.457359 0.720633 0.755361
O O14 0.849149 0.500000 0.272514
O O15 0.793200 0.277466 0.347592
O O16 0.250000 0.750000 0.500000
O O17 0.258175 0.000000 0.436875
O O18 0.084257 0.500000 0.008100
O O19 0.066150 0.261313 0.092427
O O20 0.000000 0.332849 0.000000
O O21 0.543712 0.500000 0.144004
#
# Coordination Sequence:
#
# PCOD8080881 Si02
#       8
#     8   8   8   8   8   8   8   8
#     4  11  21  32  48  70  98 129 162 201 245 288
#     4  10  21  35  52  69  92 128 169 205 242 288
#     4  10  18  29  47  70  95 125 160 193 232 283
#     4  10  20  34  49  70  98 130 165 200 237 285
#     4  10  20  32  47  69  97 126 159 200 245 286
#     4  10  20  35  52  70  92 124 164 207 249 288
#     4   9  17  28  44  67  97 128 155 186 230 283
#     4   9  17  29  45  66  95 126 157 191 229 279
#
# _framework density 16.527820999999999
#
# number of rings (size 3 to 8) (size 9 to 14) (size 15 to 20)
#    0.000    2.125    2.500    1.500    0.000    5.500 
#    0.000    0.000    0.000    0.000    0.000    0.875 
#    0.000    0.000    0.000    0.000    0.000    0.000 
#
# Total GULP energy -396882.320961 kJ/mol
# GULP energy per Si atom -12402.572530 kJ/mol
# Density = 1.649020 g / cm^3
# Si number density = 16.527821 Si / 1000 Ang^3
#
#
#
# Elastic Constant Matrix: (Units=GPa)
#
#
# Indices 1 2 3 4 5 6 
#
# 1 78.0937 34.6063 30.8740 0.0000 -13.3352 0.0000
# 2 34.6063 83.1226 54.7515 0.0000 -15.4422 0.0000
# 3 30.8740 54.7515 96.0298 0.0000 -29.4941 0.0000
# 4 0.0000 0.0000 0.0000 32.0740 0.0000 -6.6466
# 5 -13.3352 -15.4422 -29.4941 0.0000 19.6626 0.0000
# 6 0.0000 0.0000 0.0000 -6.6466 0.0000 15.4755
#
#
#
# Elastic Compliance Matrix: (Units=1/GPa)
#
#
# Indices 1 2 3 4 5 6 
#
# 1 0.016435 -0.005561 -0.000058 0.000000 0.006692 0.000000
# 2 -0.005561 0.021213 -0.011772 0.000000 -0.004769 0.000000
# 3 -0.000058 -0.011772 0.026502 0.000000 0.030468 0.000000
# 4 0.000000 0.000000 0.000000 0.034224 0.000000 0.014699
# 5 0.006692 -0.004769 0.030468 0.000000 0.097354 0.000000
# 6 0.000000 0.000000 0.000000 0.014699 0.000000 0.070931
#
#
# Mechanical properties :
#
#
# Convention : Reuss Voigt Hill
#
# Bulk Modulus (GPa) = 34.04983 55.30107 44.67545
# Shear Modulus (GPa) = 16.06528 22.57670 19.32099
#
# Velocity S-wave (km/s) = 3.12110 3.69993 3.42277
# Velocity P-wave (km/s) = 5.79953 7.19616 6.53526
#
# Compressibility (1/GPa) = 0.02936872
#
# Stress axis : x y z
#
# Youngs Moduli (GPa) = 60.84569 47.13991 37.73348
#
# Poissons Ratio (x) = 0.26214 0.00219
# Poissons Ratio (y) = 0.33836 0.44419
# Poissons Ratio (z) = 0.00354 0.55492
#
# Static dielectric constant tensor:
#      x y z
#    x 2.988290 0.000000 -0.056570 
#    y 0.000000 3.174670 0.000000 
#    z -0.056570 0.000000 3.145360 
# 
# 
# High freq. dielectric constant tensor:
#      x y z
#    x 1.602080 0.000000 -0.009940 
#    y 0.000000 1.643080 0.000000 
#    z -0.009940 0.000000 1.636130 
# 
# From -- ./inp_files/287671.got.cif
#   From: 2010.06.25/outbox.cif.g09.slc.cpg/sg12_144_cif.got.tgz:287671.got - 2010.06.28 00:19:55.
