data_PCOD8080288
_publ_section_title
;
Structure prediction by ZEFSAII (Michael W. Deem and Ramdas Pophale) SiO2 
 PCOD8080288
Probable space group: C 2/M
;
_chemical_formula_sum "Si O2"
_cell_formula_units_Z 56
_cell_length_a 22.521730
_cell_length_b 9.059798
_cell_length_c 21.633113
_cell_angle_alpha 90.000000
_cell_angle_beta 131.344137
_cell_angle_gamma 90.000000
_cell_volume 3313.887771
_symmetry_space_group_name_H-M "C 2/M"
_symmetry_group_IT_number 12
_symmetry_cell_setting 'monoclinic'
loop_
_space_group_symop_operation_xyz
x,y,z
-x,y,-z
-x,-y,-z
x,-y,z
1/2+x,1/2+y,z
1/2-x,1/2+y,-z
1/2-x,1/2-y,-z
1/2+x,1/2-y,z
loop_
_atom_site_type_symbol
_atom_site_label
_atom_site_fract_x
_atom_site_fract_y
_atom_site_fract_z
Si Si1 0.315736 0.670479 0.468543
Si Si2 0.361474 0.171322 0.620740
Si Si3 0.415769 0.325709 0.421194
Si Si4 0.246137 0.166223 0.092155
Si Si5 0.867114 0.172955 0.254117
Si Si6 0.988260 0.172852 0.229383
Si Si7 0.630279 0.166513 0.933844
O O1 0.335420 0.500000 0.496905
O O2 0.359561 0.767790 0.549867
O O3 0.222271 0.699218 0.403685
O O4 0.349006 0.717965 0.424867
O O5 0.425311 0.257909 0.704909
O O6 0.383991 0.000000 0.633836
O O7 0.500000 0.257815 0.500000
O O8 0.424551 0.500000 0.420758
O O9 0.391045 0.262437 0.337451
O O10 0.287233 0.245359 0.178446
O O11 0.305441 0.166572 0.075740
O O12 0.223113 0.000000 0.094997
O O13 0.166536 0.253606 0.019011
O O14 0.939085 0.207825 0.257478
O O15 0.848092 0.000000 0.242534
O O16 0.946946 0.245377 0.141444
O O17 0.995556 0.000000 0.222266
O O18 0.606255 0.000000 0.935155
#
# Coordination Sequence:
#
# PCOD8080288 Si02
#       7
#     8   8   8   8   8   8   8
#     4   9  18  32  48  65  86 115 150 185 221 261
#     4  10  19  30  45  65  89 116 147 184 223 262
#     4   9  16  28  47  68  88 113 148 186 220 257
#     4   9  16  26  40  60  89 121 149 178 216 263
#     4   9  17  28  44  65  88 117 151 184 219 261
#     4  10  18  28  44  66  91 118 148 181 220 264
#     4   9  16  26  41  62  89 118 148 182 218 258
#
# _framework density 16.898579999999999
#
# number of rings (size 3 to 8) (size 9 to 14) (size 15 to 20)
#    0.000    2.714    0.000    2.571    0.000    6.857 
#    0.000    0.714    0.000    1.714    0.000    1.000 
#    0.000    8.000    0.000    0.000    0.000    0.000 
#
# Total GULP energy -347217.002212 kJ/mol
# GULP energy per Si atom -12400.607222 kJ/mol
# Density = 1.686012 g / cm^3
# Si number density = 16.898580 Si / 1000 Ang^3
#
#
#
# Elastic Constant Matrix: (Units=GPa)
#
#
# Indices 1 2 3 4 5 6 
#
# 1 52.1499 26.5546 45.6699 0.0000 1.5513 0.0000
# 2 26.5546 95.2493 67.5655 0.0000 11.7097 0.0000
# 3 45.6699 67.5655 167.3611 0.0000 10.4997 0.0000
# 4 0.0000 0.0000 0.0000 33.4632 0.0000 4.1707
# 5 1.5513 11.7097 10.4997 0.0000 21.0772 0.0000
# 6 0.0000 0.0000 0.0000 4.1707 0.0000 14.4905
#
#
#
# Elastic Compliance Matrix: (Units=1/GPa)
#
#
# Indices 1 2 3 4 5 6 
#
# 1 0.025994 -0.003426 -0.005894 0.000000 0.002926 0.000000
# 2 -0.003426 0.015780 -0.005060 0.000000 -0.005994 0.000000
# 3 -0.005894 -0.005060 0.009726 0.000000 -0.001601 0.000000
# 4 0.000000 0.000000 0.000000 0.030996 0.000000 -0.008921
# 5 0.002926 -0.005994 -0.001601 0.000000 0.051357 0.000000
# 6 0.000000 0.000000 0.000000 -0.008921 0.000000 0.071579
#
#
# Mechanical properties :
#
#
# Convention : Reuss Voigt Hill
#
# Bulk Modulus (GPa) = 43.97153 66.03782 55.00467
# Shear Modulus (GPa) = 20.68075 25.47086 23.07581
#
# Velocity S-wave (km/s) = 3.50210 3.88658 3.69934
# Velocity P-wave (km/s) = 6.51385 7.70094 7.13214
#
# Compressibility (1/GPa) = 0.02274199
#
# Stress axis : x y z
#
# Youngs Moduli (GPa) = 38.46978 63.37229 102.81205
#
# Poissons Ratio (x) = 0.21710 0.60597
# Poissons Ratio (y) = 0.13179 0.52019
# Poissons Ratio (z) = 0.22674 0.32064
#
# Static dielectric constant tensor:
#      x y z
#    x 2.815670 0.000000 0.065520 
#    y 0.000000 3.171390 0.000000 
#    z 0.065520 0.000000 3.329920 
# 
# 
# High freq. dielectric constant tensor:
#      x y z
#    x 1.602200 0.000000 0.012010 
#    y 0.000000 1.649350 0.000000 
#    z 0.012010 0.000000 1.662480 
# 
# From -- ./inp_files/319692.got.cif
#   From: 2010.06.25/outbox.cif.g09.slc.cpg/sg12_160_cif.got.tgz:319692.got - 2010.06.28 00:19:55.
