data_PCOD8080965
_publ_section_title
;
Structure prediction by ZEFSAII (Michael W. Deem and Ramdas Pophale) SiO2 
 PCOD8080965
Probable space group: C 2/M
;
_chemical_formula_sum "Si O2"
_cell_formula_units_Z 64
_cell_length_a 20.669857
_cell_length_b 9.209749
_cell_length_c 20.436987
_cell_angle_alpha 90.000000
_cell_angle_beta 106.479761
_cell_angle_gamma 90.000000
_cell_volume 3730.650043
_symmetry_space_group_name_H-M "C 2/M"
_symmetry_group_IT_number 12
_symmetry_cell_setting 'monoclinic'
loop_
_space_group_symop_operation_xyz
x,y,z
-x,y,-z
-x,-y,-z
x,-y,z
1/2+x,1/2+y,z
1/2-x,1/2+y,-z
1/2-x,1/2-y,-z
1/2+x,1/2-y,z
loop_
_atom_site_type_symbol
_atom_site_label
_atom_site_fract_x
_atom_site_fract_y
_atom_site_fract_z
Si Si1 0.041619 0.326743 0.359490
Si Si2 0.606041 0.826230 0.650138
Si Si3 0.934515 0.671444 0.777733
Si Si4 0.418483 0.828061 0.130154
Si Si5 0.839915 0.829234 0.849532
Si Si6 0.311933 0.827569 0.205865
Si Si7 0.074312 0.169958 0.000267
Si Si8 0.578457 0.160182 0.505078
O O1 0.040811 0.500000 0.364397
O O2 0.074061 0.277923 0.300209
O O3 0.083878 0.262908 0.434675
O O4 0.964591 0.270746 0.339841
O O5 0.664983 0.771296 0.715535
O O6 0.615583 0.762771 0.578200
O O7 0.604934 0.000000 0.645486
O O8 0.925628 0.500000 0.782755
O O9 0.876627 0.750867 0.800724
O O10 0.007679 0.720416 0.824627
O O11 0.362994 0.768638 0.165344
O O12 0.401641 0.755978 0.056228
O O13 0.414035 0.000000 0.121130
O O14 0.763240 0.771623 0.830103
O O15 0.843840 0.000000 0.837456
O O16 0.874187 0.787922 0.927710
O O17 0.314818 0.000000 0.205604
O O18 0.074937 0.000000 0.984453
O O19 0.000000 0.221599 0.000000
O O20 0.500000 0.148926 0.500000
O O21 0.609846 0.000000 0.507088
#
# Coordination Sequence:
#
# PCOD8080965 Si02
#       8
#     8   8   8   8   8   8   8   8
#     4   8  12  20  36  63  94 117 141 181 228 264
#     4   8  11  19  37  61  89 118 146 180 222 264
#     4  10  18  29  48  71  94 118 148 188 230 268
#     4  10  19  31  51  74  91 113 149 192 233 269
#     4  10  21  35  49  65  90 124 156 184 222 275
#     4   9  17  30  46  66  92 120 151 188 228 267
#     4  10  20  34  49  66  92 123 151 183 226 274
#     4   7  10  15  29  57  91 119 140 171 221 269
#
# _framework density 17.155187999999999
#
# number of rings (size 3 to 8) (size 9 to 14) (size 15 to 20)
#    0.000    3.000    2.500    1.500    0.000    1.250 
#    0.000    0.625    0.000    0.750    0.000    0.000 
#    0.000    5.500    0.000    0.000    0.000    0.000 
#
# Total GULP energy -396467.465787 kJ/mol
# GULP energy per Si atom -12389.608306 kJ/mol
# Density = 1.711614 g / cm^3
# Si number density = 17.155188 Si / 1000 Ang^3
#
#
#
# Elastic Constant Matrix: (Units=GPa)
#
#
# Indices 1 2 3 4 5 6 
#
# 1 102.1141 14.3132 69.7853 0.0000 1.5061 0.0000
# 2 14.3132 10.5306 22.6904 0.0000 -3.4600 0.0000
# 3 69.7853 22.6904 180.5056 0.0000 -3.4844 0.0000
# 4 0.0000 0.0000 0.0000 3.1180 0.0000 -3.5076
# 5 1.5061 -3.4600 -3.4844 0.0000 25.0875 0.0000
# 6 0.0000 0.0000 0.0000 -3.5076 0.0000 13.3187
#
#
#
# Elastic Compliance Matrix: (Units=1/GPa)
#
#
# Indices 1 2 3 4 5 6 
#
# 1 0.014271 -0.011485 -0.004132 0.000000 -0.003015 0.000000
# 2 -0.011485 0.145980 -0.013545 0.000000 0.018942 0.000000
# 3 -0.004132 -0.013545 0.008832 0.000000 -0.000393 0.000000
# 4 0.000000 0.000000 0.000000 0.455741 0.000000 0.120023
# 5 -0.003015 0.018942 -0.000393 0.000000 0.042599 0.000000
# 6 0.000000 0.000000 0.000000 0.120023 0.000000 0.106692
#
#
# Mechanical properties :
#
#
# Convention : Reuss Voigt Hill
#
# Bulk Modulus (GPa) = 9.02846 56.30312 32.66579
# Shear Modulus (GPa) = 5.75137 20.72893 13.24015
#
# Velocity S-wave (km/s) = 1.83299 3.47986 2.78112
# Velocity P-wave (km/s) = 3.12314 7.00264 5.42176
#
# Compressibility (1/GPa) = 0.11076084
#
# Stress axis : x y z
#
# Youngs Moduli (GPa) = 70.07259 6.85027 113.21933
#
# Poissons Ratio (x) = 0.07867 0.46780
# Poissons Ratio (y) = 0.80476 1.53351
# Poissons Ratio (z) = 0.28953 0.09278
#
# Static dielectric constant tensor:
#      x y z
#    x 3.058390 0.000000 0.044840 
#    y 0.000000 2.635940 0.000000 
#    z 0.044840 0.000000 3.730470 
# 
# 
# High freq. dielectric constant tensor:
#      x y z
#    x 1.632570 0.000000 -0.002020 
#    y 0.000000 1.599960 0.000000 
#    z -0.002020 0.000000 1.690770 
# 
# From -- ./inp_files/319226.got.cif
#   From: 2010.06.25/outbox.cif.g09.slc.cpg/sg12_160_cif.got.tgz:319226.got - 2010.06.28 00:19:55.
