data_PCOD8080560
_publ_section_title
;
Structure prediction by ZEFSAII (Michael W. Deem and Ramdas Pophale) SiO2 
 PCOD8080560
Probable space group: C 2/M
;
_chemical_formula_sum "Si O2"
_cell_formula_units_Z 64
_cell_length_a 20.864456
_cell_length_b 8.889352
_cell_length_c 21.067815
_cell_angle_alpha 90.000000
_cell_angle_beta 117.238245
_cell_angle_gamma 90.000000
_cell_volume 3474.182906
_symmetry_space_group_name_H-M "C 2/M"
_symmetry_group_IT_number 12
_symmetry_cell_setting 'monoclinic'
loop_
_space_group_symop_operation_xyz
x,y,z
-x,y,-z
-x,-y,-z
x,-y,z
1/2+x,1/2+y,z
1/2-x,1/2+y,-z
1/2-x,1/2-y,-z
1/2+x,1/2-y,z
loop_
_atom_site_type_symbol
_atom_site_label
_atom_site_fract_x
_atom_site_fract_y
_atom_site_fract_z
Si Si1 0.479168 0.679385 0.180180
Si Si2 0.799738 0.321658 0.575339
Si Si3 0.955868 0.821962 0.920660
Si Si4 0.166127 0.165610 0.832309
Si Si5 0.736072 0.679676 0.680277
Si Si6 0.793404 0.823604 0.831099
Si Si7 0.907626 0.164174 0.336787
Si Si8 0.951504 0.819409 0.658265
O O1 0.478079 0.500000 0.180218
O O2 0.512274 0.746177 0.130404
O O3 0.395666 0.734889 0.149292
O O4 0.529047 0.733849 0.261471
O O5 0.799079 0.500000 0.568465
O O6 0.750000 0.250000 0.500000
O O7 0.770525 0.267761 0.630228
O O8 0.879604 0.259437 0.602153
O O9 0.872511 0.777815 0.891346
O O10 0.965487 0.000000 0.922564
O O11 0.000000 0.753871 0.000000
O O12 0.236264 0.271461 0.858775
O O13 0.129428 0.148074 0.747934
O O14 0.190969 0.000000 0.867289
O O15 0.734986 0.500000 0.687265
O O16 0.783027 0.746327 0.758412
O O17 0.652766 0.743772 0.645802
O O18 0.785532 0.000000 0.817374
O O19 0.985514 0.242018 0.361462
O O20 0.923354 0.000000 0.372815
O O21 0.944757 0.000000 0.651595
#
# Coordination Sequence:
#
# PCOD8080560 Si02
#       8
#     8   8   8   8   8   8   8   8
#     4   8  14  27  49  71  90 124 168 198 229 281
#     4  11  23  36  50  70  98 130 160 192 233 280
#     4   9  17  28  42  65  98 131 164 202 239 278
#     4   8  14  27  47  69  94 122 155 195 235 283
#     4   9  18  34  54  73  94 124 161 195 230 279
#     4  10  18  28  48  75  97 120 154 199 246 283
#     4   7  12  26  49  72  90 114 152 193 229 271
#     4   9  16  30  53  75  94 118 155 202 241 277
#
# _framework density 18.421597999999999
#
# number of rings (size 3 to 8) (size 9 to 14) (size 15 to 20)
#    0.000    3.125    0.000    3.750    0.000    2.000 
#    0.000    6.875    0.000    6.750    0.000    0.000 
#    0.000    0.000    0.000    0.000    0.000    0.000 
#
# Total GULP energy -396456.979484 kJ/mol
# GULP energy per Si atom -12389.280609 kJ/mol
# Density = 1.837967 g / cm^3
# Si number density = 18.421598 Si / 1000 Ang^3
#
#
#
# Elastic Constant Matrix: (Units=GPa)
#
#
# Indices 1 2 3 4 5 6 
#
# 1 145.0994 29.5688 51.9971 0.0000 31.3772 0.0000
# 2 29.5688 34.7466 23.1778 0.0000 6.8853 0.0000
# 3 51.9971 23.1778 83.6327 0.0000 24.3476 0.0000
# 4 0.0000 0.0000 0.0000 15.5664 0.0000 4.5241
# 5 31.3772 6.8853 24.3476 0.0000 17.3351 0.0000
# 6 0.0000 0.0000 0.0000 4.5241 0.0000 25.7416
#
#
#
# Elastic Compliance Matrix: (Units=1/GPa)
#
#
# Indices 1 2 3 4 5 6 
#
# 1 0.012634 -0.006665 -0.000205 0.000000 -0.019933 0.000000
# 2 -0.006665 0.038825 -0.009539 0.000000 0.010041 0.000000
# 3 -0.000205 -0.009539 0.022868 0.000000 -0.027959 0.000000
# 4 0.000000 0.000000 0.000000 0.067699 0.000000 -0.011898
# 5 -0.019933 0.010041 -0.027959 0.000000 0.129047 0.000000
# 6 0.000000 0.000000 0.000000 -0.011898 0.000000 0.040939
#
#
# Mechanical properties :
#
#
# Convention : Reuss Voigt Hill
#
# Bulk Modulus (GPa) = 24.09142 52.55178 38.32160
# Shear Modulus (GPa) = 13.94059 22.31095 18.12577
#
# Velocity S-wave (km/s) = 2.75390 3.48390 3.14019
# Velocity P-wave (km/s) = 4.81852 6.69124 5.83056
#
# Compressibility (1/GPa) = 0.04150855
#
# Stress axis : x y z
#
# Youngs Moduli (GPa) = 79.15266 25.75661 43.72999
#
# Poissons Ratio (x) = 0.17166 0.00895
# Poissons Ratio (y) = 0.52753 0.41716
# Poissons Ratio (z) = 0.01621 0.24570
#
# Static dielectric constant tensor:
#      x y z
#    x 4.072390 0.000000 -0.076670 
#    y 0.000000 3.000290 0.000000 
#    z -0.076670 0.000000 3.158100 
# 
# 
# High freq. dielectric constant tensor:
#      x y z
#    x 1.742710 0.000000 0.004710 
#    y 0.000000 1.669570 0.000000 
#    z 0.004710 0.000000 1.679160 
# 
# From -- ./inp_files/320143.got.cif
#   From: 2010.06.25/outbox.cif.g09.slc.cpg/sg12_161_cif.got.tgz:320143.got - 2010.06.28 00:19:55.
