data_PCOD8080499
_publ_section_title
;
Structure prediction by ZEFSAII (Michael W. Deem and Ramdas Pophale) SiO2 
 PCOD8080499
Probable space group: C 2/M
;
_chemical_formula_sum "Si O2"
_cell_formula_units_Z 64
_cell_length_a 30.706077
_cell_length_b 13.421933
_cell_length_c 9.815566
_cell_angle_alpha 90.000000
_cell_angle_beta 99.926577
_cell_angle_gamma 90.000000
_cell_volume 3984.776547
_symmetry_space_group_name_H-M "C 2/M"
_symmetry_group_IT_number 12
_symmetry_cell_setting 'monoclinic'
loop_
_space_group_symop_operation_xyz
x,y,z
-x,y,-z
-x,-y,-z
x,-y,z
1/2+x,1/2+y,z
1/2-x,1/2+y,-z
1/2-x,1/2-y,-z
1/2+x,1/2-y,z
loop_
_atom_site_type_symbol
_atom_site_label
_atom_site_fract_x
_atom_site_fract_y
_atom_site_fract_z
Si Si1 0.144298 0.613884 0.554534
Si Si2 0.595179 0.885297 0.797946
Si Si3 0.093949 0.617370 0.260240
Si Si4 0.206487 0.115021 0.117960
Si Si5 0.850403 0.296803 0.944183
Si Si6 0.244055 0.613836 0.134216
Si Si7 0.002240 0.617503 0.849135
Si Si8 0.234490 0.724462 0.643541
O O1 0.160523 0.500000 0.550725
O O2 0.105860 0.624096 0.645057
O O3 0.122694 0.652096 0.403618
O O4 0.185696 0.680907 0.613331
O O5 0.545709 0.842245 0.794535
O O6 0.599344 0.000000 0.849971
O O7 0.631169 0.818878 0.896093
O O8 0.098499 0.500000 0.235241
O O9 0.110918 0.676700 0.139117
O O10 0.042509 0.646568 0.255810
O O11 0.162114 0.180324 0.077428
O O12 0.232295 0.144952 0.269638
O O13 0.192669 0.000000 0.118046
O O14 0.237701 0.139433 0.005892
O O15 0.807929 0.364833 0.891563
O O16 0.252888 0.500000 0.176828
O O17 0.267967 0.677186 0.264423
O O18 0.006669 0.500000 0.861254
O O19 0.000000 0.662976 0.000000
O O20 0.250000 0.750000 0.500000
#
# Coordination Sequence:
#
# PCOD8080499 Si02
#       8
#     8   8   8   8   8   8   8   8
#     4  10  20  31  44  66  95 127 160 192 228 272
#     4  10  18  28  47  71  95 124 155 189 230 279
#     4  10  19  30  45  67  96 123 152 189 228 279
#     4  10  21  35  49  66  93 126 160 201 241 275
#     4  11  18  29  49  69  88 119 158 194 229 274
#     4  10  20  33  49  69  93 124 162 199 236 280
#     4   9  16  28  44  67  96 122 150 186 230 278
#     4  11  21  33  49  69  97 129 160 199 239 281
#
# _framework density 16.061126999999999
#
# number of rings (size 3 to 8) (size 9 to 14) (size 15 to 20)
#    0.000    1.875    1.250    6.000    0.000    4.500 
#    0.000    2.500    0.000    0.000    0.000    1.750 
#    0.000    0.000    0.000    8.000    0.000    0.375 
#
# Total GULP energy -396800.251052 kJ/mol
# GULP energy per Si atom -12400.007845 kJ/mol
# Density = 1.602457 g / cm^3
# Si number density = 16.061127 Si / 1000 Ang^3
#
#
#
# Elastic Constant Matrix: (Units=GPa)
#
#
# Indices 1 2 3 4 5 6 
#
# 1 85.4553 27.2124 16.3166 0.0000 2.3469 0.0000
# 2 27.2124 72.6915 25.6588 0.0000 4.7877 0.0000
# 3 16.3166 25.6588 75.8664 0.0000 -1.8609 0.0000
# 4 0.0000 0.0000 0.0000 21.8136 0.0000 1.7831
# 5 2.3469 4.7877 -1.8609 0.0000 26.9295 0.0000
# 6 0.0000 0.0000 0.0000 1.7831 0.0000 16.7158
#
#
#
# Elastic Compliance Matrix: (Units=1/GPa)
#
#
# Indices 1 2 3 4 5 6 
#
# 1 0.013412 -0.004506 -0.001372 0.000000 -0.000462 0.000000
# 2 -0.004506 0.017407 -0.004993 0.000000 -0.003047 0.000000
# 3 -0.001372 -0.004993 0.015215 0.000000 0.002059 0.000000
# 4 0.000000 0.000000 0.000000 0.046246 0.000000 -0.004933
# 5 -0.000462 -0.003047 0.002059 0.000000 0.037858 0.000000
# 6 0.000000 0.000000 0.000000 -0.004933 0.000000 0.060350
#
#
# Mechanical properties :
#
#
# Convention : Reuss Voigt Hill
#
# Bulk Modulus (GPa) = 41.16530 41.37655 41.27092
# Shear Modulus (GPa) = 22.69362 24.08015 23.38688
#
# Velocity S-wave (km/s) = 3.76301 3.87626 3.82005
# Velocity P-wave (km/s) = 6.67580 6.77139 6.72376
#
# Compressibility (1/GPa) = 0.02429231
#
# Stress axis : x y z
#
# Youngs Moduli (GPa) = 74.56267 57.44930 65.72381
#
# Poissons Ratio (x) = 0.25887 0.09016
# Poissons Ratio (y) = 0.33598 0.32814
# Poissons Ratio (z) = 0.10228 0.28683
#
# Static dielectric constant tensor:
#      x y z
#    x 3.121310 0.000000 -0.025020 
#    y 0.000000 2.861190 0.000000 
#    z -0.025020 0.000000 3.134810 
# 
# 
# High freq. dielectric constant tensor:
#      x y z
#    x 1.618300 0.000000 -0.002780 
#    y 0.000000 1.580380 0.000000 
#    z -0.002780 0.000000 1.627360 
# 
# From -- ./inp_files/111253.got.cif
#   From: 2010.06.25/outbox.cif.g09.slc.cpg/sg12_56_cif.got.tgz:111253.got - 2010.06.28 00:19:55.
