data_PCOD8080529
_publ_section_title
;
Structure prediction by ZEFSAII (Michael W. Deem and Ramdas Pophale) SiO2 
 PCOD8080529
Probable space group: C 2/M
;
_chemical_formula_sum "Si O2"
_cell_formula_units_Z 48
_cell_length_a 19.264811
_cell_length_b 9.512829
_cell_length_c 15.630485
_cell_angle_alpha 90.000000
_cell_angle_beta 101.311867
_cell_angle_gamma 90.000000
_cell_volume 2808.841895
_symmetry_space_group_name_H-M "C 2/M"
_symmetry_group_IT_number 12
_symmetry_cell_setting 'monoclinic'
loop_
_space_group_symop_operation_xyz
x,y,z
-x,y,-z
-x,-y,-z
x,-y,z
1/2+x,1/2+y,z
1/2-x,1/2+y,-z
1/2-x,1/2-y,-z
1/2+x,1/2-y,z
loop_
_atom_site_type_symbol
_atom_site_label
_atom_site_fract_x
_atom_site_fract_y
_atom_site_fract_z
Si Si1 0.410163 0.166444 0.717095
Si Si2 0.693850 0.662120 0.739238
Si Si3 0.331699 0.833175 0.862160
Si Si4 0.932553 0.333226 0.225547
Si Si5 0.069411 0.666941 0.968795
Si Si6 0.222616 0.661777 0.414750
O O1 0.383486 0.229160 0.801313
O O2 0.490716 0.213271 0.719219
O O3 0.356889 0.214591 0.628697
O O4 0.406183 0.000000 0.723753
O O5 0.673179 0.500000 0.749192
O O6 0.750930 0.714309 0.824575
O O7 0.624778 0.757779 0.729336
O O8 0.726251 0.683974 0.653497
O O9 0.334401 0.000000 0.856521
O O10 0.360721 0.782822 0.961605
O O11 0.921452 0.500000 0.228464
O O12 0.925307 0.276720 0.126495
O O13 0.063704 0.500000 0.964580
O O14 0.000000 0.727227 0.000000
O O15 0.221320 0.500000 0.442457
O O16 0.250000 0.750000 0.500000
#
# Coordination Sequence:
#
# PCOD8080529 Si02
#       6
#     8   8   8   8   8   8
#     4   8  14  27  47  70  93 119 154 193 231 269
#     4   9  19  33  47  66  98 131 151 178 235 294
#     4   8  13  25  44  65  91 126 162 192 223 265
#     4  10  18  28  47  74  98 121 155 198 232 260
#     4   9  14  22  42  72  96 117 159 206 228 248
#     4   9  18  34  55  73  89 116 155 193 231 280
#
# _framework density 17.088894
#
# number of rings (size 3 to 8) (size 9 to 14) (size 15 to 20)
#    0.000    3.167    1.667    2.000    0.000    1.333 
#    0.000    1.667    0.000    6.500    0.000    0.000 
#    0.000    0.000    0.000    0.000    0.000    0.000 
#
# Total GULP energy -297398.495134 kJ/mol
# GULP energy per Si atom -12391.603964 kJ/mol
# Density = 1.705000 g / cm^3
# Si number density = 17.088894 Si / 1000 Ang^3
#
#
#
# Elastic Constant Matrix: (Units=GPa)
#
#
# Indices 1 2 3 4 5 6 
#
# 1 132.5035 40.6178 57.9570 0.0000 20.9897 0.0000
# 2 40.6178 33.5603 33.8047 0.0000 4.8693 0.0000
# 3 57.9570 33.8047 110.2751 0.0000 27.1230 0.0000
# 4 0.0000 0.0000 0.0000 19.9670 0.0000 -0.7896
# 5 20.9897 4.8693 27.1230 0.0000 24.1673 0.0000
# 6 0.0000 0.0000 0.0000 -0.7896 0.0000 24.8163
#
#
#
# Elastic Compliance Matrix: (Units=1/GPa)
#
#
# Indices 1 2 3 4 5 6 
#
# 1 0.013607 -0.014609 -0.000677 0.000000 -0.008114 0.000000
# 2 -0.014609 0.060091 -0.015036 0.000000 0.017456 0.000000
# 3 -0.000677 -0.015036 0.018155 0.000000 -0.016758 0.000000
# 4 0.000000 0.000000 0.000000 0.050146 0.000000 0.001595
# 5 -0.008114 0.017456 -0.016758 0.000000 0.063716 0.000000
# 6 0.000000 0.000000 0.000000 0.001595 0.000000 0.040347
#
#
# Mechanical properties :
#
#
# Convention : Reuss Voigt Hill
#
# Bulk Modulus (GPa) = 32.04259 60.12199 46.08229
# Shear Modulus (GPa) = 15.76745 23.38742 19.57743
#
# Velocity S-wave (km/s) = 3.04085 3.70344 3.38838
# Velocity P-wave (km/s) = 5.57855 7.31748 6.50637
#
# Compressibility (1/GPa) = 0.03120846
#
# Stress axis : x y z
#
# Youngs Moduli (GPa) = 73.49324 16.64142 55.08031
#
# Poissons Ratio (x) = 0.24311 0.03730
# Poissons Ratio (y) = 1.07363 0.82821
# Poissons Ratio (z) = 0.04977 0.25023
#
# Static dielectric constant tensor:
#      x y z
#    x 3.344420 0.000000 0.297000 
#    y 0.000000 2.644770 0.000000 
#    z 0.297000 0.000000 3.265880 
# 
# 
# High freq. dielectric constant tensor:
#      x y z
#    x 1.663140 0.000000 0.016630 
#    y 0.000000 1.601200 0.000000 
#    z 0.016630 0.000000 1.655040 
# 
# From -- ./inp_files/153623.got.cif
#   From: 2010.06.25/outbox.cif.g09.slc.cpg/sg12_77_cif.got.tgz:153623.got - 2010.06.28 00:19:55.
