data_PCOD8080150
_publ_section_title
;
Structure prediction by ZEFSAII (Michael W. Deem and Ramdas Pophale) SiO2 
 PCOD8080150
Probable space group: C 2/M
;
_chemical_formula_sum "Si O2"
_cell_formula_units_Z 56
_cell_length_a 27.290064
_cell_length_b 9.425506
_cell_length_c 14.450929
_cell_angle_alpha 90.000000
_cell_angle_beta 103.848217
_cell_angle_gamma 90.000000
_cell_volume 3609.062034
_symmetry_space_group_name_H-M "C 2/M"
_symmetry_group_IT_number 12
_symmetry_cell_setting 'monoclinic'
loop_
_space_group_symop_operation_xyz
x,y,z
-x,y,-z
-x,-y,-z
x,-y,z
1/2+x,1/2+y,z
1/2-x,1/2+y,-z
1/2-x,1/2-y,-z
1/2+x,1/2-y,z
loop_
_atom_site_type_symbol
_atom_site_label
_atom_site_fract_x
_atom_site_fract_y
_atom_site_fract_z
Si Si1 0.870644 0.334605 0.581273
Si Si2 0.292688 0.840024 0.390037
Si Si3 0.942264 0.833103 0.481988
Si Si4 0.819731 0.164014 0.706968
Si Si5 0.637030 0.337461 0.699562
Si Si6 0.787175 0.834918 0.891895
Si Si7 0.689588 0.337316 0.898435
O O1 0.883832 0.500000 0.600187
O O2 0.819371 0.311080 0.500028
O O3 0.917266 0.256736 0.552759
O O4 0.861706 0.261669 0.676773
O O5 0.233236 0.811168 0.369694
O O6 0.315531 0.741770 0.321891
O O7 0.303054 0.000000 0.362203
O O8 0.915744 0.791521 0.371742
O O9 0.000000 0.786373 0.500000
O O10 0.937119 0.000000 0.502258
O O11 0.816289 0.214206 0.812581
O O12 0.836478 0.000000 0.707347
O O13 0.646314 0.500000 0.679840
O O14 0.639428 0.310566 0.812182
O O15 0.734486 0.756271 0.878746
O O16 0.774050 0.000000 0.875689
O O17 0.821709 0.802881 0.998579
O O18 0.707190 0.500000 0.897571
#
# Coordination Sequence:
#
# PCOD8080150 Si02
#       7
#     8   8   8   8   8   8   8
#     4  10  20  30  43  63  86 111 142 179 215 250
#     4   9  17  28  40  58  85 117 147 173 203 246
#     4   9  18  33  50  66  85 110 139 173 217 266
#     4  10  18  28  41  58  85 120 150 172 201 246
#     4   9  16  26  43  65  87 111 141 177 213 250
#     4   9  17  27  40  58  85 119 149 175 204 242
#     4   9  16  26  40  61  86 113 145 179 211 241
#
# _framework density 15.516496
#
# number of rings (size 3 to 8) (size 9 to 14) (size 15 to 20)
#    0.000    2.714    1.429    0.857    0.000    2.000 
#    0.000    0.000    0.000    0.000    0.000    1.000 
#    0.000    8.000    0.000    0.000    0.000    0.000 
#
# Total GULP energy -346977.955649 kJ/mol
# GULP energy per Si atom -12392.069845 kJ/mol
# Density = 1.548118 g / cm^3
# Si number density = 15.516496 Si / 1000 Ang^3
#
#
#
# Elastic Constant Matrix: (Units=GPa)
#
#
# Indices 1 2 3 4 5 6 
#
# 1 75.7104 39.2143 57.0255 0.0000 -8.5827 0.0000
# 2 39.2143 53.3922 42.2946 0.0000 -9.4671 0.0000
# 3 57.0255 42.2946 120.5639 0.0000 -13.9746 0.0000
# 4 0.0000 0.0000 0.0000 17.7068 0.0000 -3.9920
# 5 -8.5827 -9.4671 -13.9746 0.0000 16.3306 0.0000
# 6 0.0000 0.0000 0.0000 -3.9920 0.0000 19.4324
#
#
#
# Elastic Compliance Matrix: (Units=1/GPa)
#
#
# Indices 1 2 3 4 5 6 
#
# 1 0.025536 -0.012787 -0.007655 0.000000 -0.000543 0.000000
# 2 -0.012787 0.033329 -0.004644 0.000000 0.008627 0.000000
# 3 -0.007655 -0.004644 0.014172 0.000000 0.005412 0.000000
# 4 0.000000 0.000000 0.000000 0.059218 0.000000 0.012165
# 5 -0.000543 0.008627 0.005412 0.000000 0.070582 0.000000
# 6 0.000000 0.000000 0.000000 0.012165 0.000000 0.053960
#
#
# Mechanical properties :
#
#
# Convention : Reuss Voigt Hill
#
# Bulk Modulus (GPa) = 43.73708 58.52615 51.13161
# Shear Modulus (GPa) = 15.89368 18.10274 16.99821
#
# Velocity S-wave (km/s) = 3.20395 3.41937 3.31341
# Velocity P-wave (km/s) = 6.47578 7.30685 6.90383
#
# Compressibility (1/GPa) = 0.02286390
#
# Stress axis : x y z
#
# Youngs Moduli (GPa) = 39.16067 30.00355 70.56329
#
# Poissons Ratio (x) = 0.38366 0.54019
# Poissons Ratio (y) = 0.50075 0.32770
# Poissons Ratio (z) = 0.29979 0.13934
#
# Static dielectric constant tensor:
#      x y z
#    x 2.600940 0.000000 0.084780 
#    y 0.000000 3.026790 0.000000 
#    z 0.084780 0.000000 3.297760 
# 
# 
# High freq. dielectric constant tensor:
#      x y z
#    x 1.543480 0.000000 -0.001710 
#    y 0.000000 1.601000 0.000000 
#    z -0.001710 0.000000 1.602000 
# 
# From -- ./inp_files/243027.got.cif
#   From: 2010.06.25/outbox.cif.g09.slc.cpg/sg12_122_cif.got.tgz:243027.got - 2010.06.28 00:19:55.
