data_PCOD8080250
_publ_section_title
;
Structure prediction by ZEFSAII (Michael W. Deem and Ramdas Pophale) SiO2 
 PCOD8080250
Probable space group: C 2/M
;
_chemical_formula_sum "Si O2"
_cell_formula_units_Z 56
_cell_length_a 23.787697
_cell_length_b 8.680924
_cell_length_c 28.099889
_cell_angle_alpha 90.000000
_cell_angle_beta 32.052428
_cell_angle_gamma 90.000000
_cell_volume 3079.413335
_symmetry_space_group_name_H-M "C 2/M"
_symmetry_group_IT_number 12
_symmetry_cell_setting 'monoclinic'
loop_
_space_group_symop_operation_xyz
x,y,z
-x,y,-z
-x,-y,-z
x,-y,z
1/2+x,1/2+y,z
1/2-x,1/2+y,-z
1/2-x,1/2-y,-z
1/2+x,1/2-y,z
loop_
_atom_site_type_symbol
_atom_site_label
_atom_site_fract_x
_atom_site_fract_y
_atom_site_fract_z
Si Si1 0.998795 0.684391 0.833579
Si Si2 0.073960 0.182968 0.404242
Si Si3 0.923877 0.182482 0.792974
Si Si4 0.816270 0.321916 0.031007
Si Si5 0.425742 0.821579 0.693712
Si Si6 0.794786 0.675908 0.149089
Si Si7 0.187713 0.677539 0.760266
O O1 0.998279 0.500000 0.835116
O O2 0.104847 0.752393 0.782746
O O3 0.997179 0.745719 0.781259
O O4 0.897467 0.753937 0.935275
O O5 0.026127 0.250359 0.389384
O O6 0.193426 0.247088 0.328229
O O7 0.000000 0.241165 0.500000
O O8 0.074496 0.000000 0.399469
O O9 0.803141 0.245241 0.887094
O O10 0.971085 0.238927 0.708592
O O11 0.928958 0.000000 0.791442
O O12 0.810305 0.500000 0.022800
O O13 0.861374 0.296517 0.052815
O O14 0.300313 0.796401 0.782372
O O15 0.454611 0.000000 0.675622
O O16 0.748034 0.500000 0.181362
O O17 0.859324 0.698885 0.151960
O O18 0.196173 0.500000 0.740827
#
# Coordination Sequence:
#
# PCOD8080250 Si02
#       7
#     8   8   8   8   8   8   8
#     4  10  18  28  43  66  94 123 157 196 234 263
#     4   9  17  32  54  76  97 121 146 175 220 280
#     4  10  19  32  46  62  89 126 165 194 223 268
#     4   8  15  26  43  65  88 119 160 201 230 260
#     4  10  18  29  48  73  95 116 148 192 234 265
#     4   8  14  28  45  63  91 125 157 186 224 275
#     4   8  15  27  45  69  95 121 150 185 226 275
#
# _framework density 18.185281
#
# number of rings (size 3 to 8) (size 9 to 14) (size 15 to 20)
#    0.000    3.000    0.000    3.857    0.000    0.857 
#    0.000    8.571    0.000    0.857    0.000   17.000 
#    0.000    0.000    0.000    0.000    0.000    0.000 
#
# Total GULP energy -346876.729726 kJ/mol
# GULP energy per Si atom -12388.454633 kJ/mol
# Density = 1.814389 g / cm^3
# Si number density = 18.185281 Si / 1000 Ang^3
#
#
#
# Elastic Constant Matrix: (Units=GPa)
#
#
# Indices 1 2 3 4 5 6 
#
# 1 140.0770 21.8032 52.7614 -0.0020 30.2942 -0.0005
# 2 21.8032 37.4102 17.9573 -0.0126 6.9262 0.0096
# 3 52.7614 17.9573 83.1446 0.0065 31.3134 -0.0033
# 4 -0.0020 -0.0126 0.0065 14.4797 0.0029 7.7248
# 5 30.2942 6.9262 31.3134 0.0029 27.8437 -0.0039
# 6 -0.0005 0.0096 -0.0033 7.7248 -0.0039 22.1134
#
#
#
# Elastic Compliance Matrix: (Units=1/GPa)
#
#
# Indices 1 2 3 4 5 6 
#
# 1 0.010345 -0.003179 -0.003360 0.000002 -0.006686 -0.000001
# 2 -0.003179 0.030800 -0.005295 0.000044 0.001751 -0.000029
# 3 -0.003360 -0.005295 0.023298 -0.000015 -0.021228 0.000007
# 4 0.000002 0.000044 -0.000015 0.084881 -0.000009 -0.029651
# 5 -0.006686 0.001751 -0.021228 -0.000009 0.066627 0.000011
# 6 -0.000001 -0.000029 0.000007 -0.029651 0.000011 0.055579
#
#
# Mechanical properties :
#
#
# Convention : Reuss Voigt Hill
#
# Bulk Modulus (GPa) = 24.52375 49.51950 37.02162
# Shear Modulus (GPa) = 16.19222 24.09468 20.14345
#
# Velocity S-wave (km/s) = 2.98720 3.64394 3.33179
# Velocity P-wave (km/s) = 5.04109 6.70776 5.93324
#
# Compressibility (1/GPa) = 0.04077680
#
# Stress axis : x y z
#
# Youngs Moduli (GPa) = 96.66152 32.46706 42.92232
#
# Poissons Ratio (x) = 0.10320 0.14423
# Poissons Ratio (y) = 0.30724 0.22726
# Poissons Ratio (z) = 0.32482 0.17190
#
# Static dielectric constant tensor:
#      x y z
#    x 3.529300 -0.000010 0.285560 
#    y -0.000010 2.934810 0.000010 
#    z 0.285560 0.000010 3.410160 
# 
# 
# High freq. dielectric constant tensor:
#      x y z
#    x 1.698540 0.000000 0.035140 
#    y 0.000000 1.668480 0.000000 
#    z 0.035140 0.000000 1.679100 
# 
# From -- ./inp_files/348469.got.cif
#   From: 2010.06.25/outbox.cif.g09.slc.cpg/sg12_175_cif.got.tgz:348469.got - 2010.06.28 00:19:55.
