data_PCOD8080329
_publ_section_title
;
Structure prediction by ZEFSAII (Michael W. Deem and Ramdas Pophale) SiO2 
 PCOD8080329
Probable space group: C 2/M
;
_chemical_formula_sum "Si O2"
_cell_formula_units_Z 64
_cell_length_a 19.133512
_cell_length_b 8.888784
_cell_length_c 20.839458
_cell_angle_alpha 90.000000
_cell_angle_beta 96.175287
_cell_angle_gamma 90.000000
_cell_volume 3523.677166
_symmetry_space_group_name_H-M "C 2/M"
_symmetry_group_IT_number 12
_symmetry_cell_setting 'monoclinic'
loop_
_space_group_symop_operation_xyz
x,y,z
-x,y,-z
-x,-y,-z
x,-y,z
1/2+x,1/2+y,z
1/2-x,1/2+y,-z
1/2-x,1/2-y,-z
1/2+x,1/2-y,z
loop_
_atom_site_type_symbol
_atom_site_label
_atom_site_fract_x
_atom_site_fract_y
_atom_site_fract_z
Si Si1 0.779978 0.677213 0.208788
Si Si2 0.818012 0.825826 0.479163
Si Si3 0.585519 0.674978 0.829602
Si Si4 0.493701 0.174443 0.925934
Si Si5 0.230383 0.823216 0.656175
Si Si6 0.454437 0.672075 0.737597
Si Si7 0.362282 0.826433 0.830867
Si Si8 0.632991 0.673270 0.386144
O O1 0.778633 0.500000 0.211826
O O2 0.844008 0.730424 0.170954
O O3 0.790302 0.739214 0.281314
O O4 0.708832 0.732835 0.167770
O O5 0.750000 0.750000 0.500000
O O6 0.827540 0.777182 0.405296
O O7 0.879211 0.790118 0.538369
O O8 0.801272 0.000000 0.475135
O O9 0.604626 0.500000 0.835713
O O10 0.547115 0.724078 0.890927
O O11 0.534829 0.709872 0.763460
O O12 0.413462 0.204513 0.896137
O O13 0.513686 0.000000 0.917631
O O14 0.500000 0.223806 0.000000
O O15 0.307542 0.777096 0.639522
O O16 0.229686 0.000000 0.671049
O O17 0.437965 0.500000 0.756116
O O18 0.401244 0.779430 0.769732
O O19 0.440071 0.697788 0.660025
O O20 0.341473 0.000000 0.822993
O O21 0.657771 0.500000 0.381361
#
# Coordination Sequence:
#
# PCOD8080329 Si02
#       8
#     8   8   8   8   8   8   8   8
#     4  12  23  35  51  73 104 140 177 218 263 308
#     4   8  15  25  39  63  96 129 165 208 256 309
#     4  10  21  36  54  79 108 137 173 214 255 302
#     4   9  19  38  62  86 112 140 167 198 243 301
#     4  10  18  28  44  69  99 133 171 214 261 308
#     4   9  17  30  50  75 103 133 168 212 260 308
#     4  10  19  32  54  81 107 135 170 209 248 297
#     4   9  15  26  45  70  99 131 166 209 260 313
#
# _framework density 18.162845000000001
#
# number of rings (size 3 to 8) (size 9 to 14) (size 15 to 20)
#    0.000    2.375    1.250    2.250    0.000    1.750 
#    0.000    0.625    0.000    0.750    0.000    5.250 
#    0.000    0.000    0.000    0.000    0.000    0.000 
#
# Total GULP energy -396502.103957 kJ/mol
# GULP energy per Si atom -12390.690749 kJ/mol
# Density = 1.812151 g / cm^3
# Si number density = 18.162845 Si / 1000 Ang^3
#
#
#
# Elastic Constant Matrix: (Units=GPa)
#
#
# Indices 1 2 3 4 5 6 
#
# 1 83.3861 43.0242 45.0828 0.0000 7.5256 0.0000
# 2 43.0242 91.8651 39.5108 0.0000 1.7614 0.0000
# 3 45.0828 39.5108 123.3831 0.0000 24.4650 0.0000
# 4 0.0000 0.0000 0.0000 22.2237 0.0000 -1.8140
# 5 7.5256 1.7614 24.4650 0.0000 22.7041 0.0000
# 6 0.0000 0.0000 0.0000 -1.8140 0.0000 23.9585
#
#
#
# Elastic Compliance Matrix: (Units=1/GPa)
#
#
# Indices 1 2 3 4 5 6 
#
# 1 0.017680 -0.006441 -0.004240 0.000000 -0.000791 0.000000
# 2 -0.006441 0.015309 -0.003480 0.000000 0.004698 0.000000
# 3 -0.004240 -0.003480 0.013272 0.000000 -0.012626 0.000000
# 4 0.000000 0.000000 0.000000 0.045277 0.000000 0.003428
# 5 -0.000791 0.004698 -0.012626 0.000000 0.057548 0.000000
# 6 0.000000 0.000000 0.000000 0.003428 0.000000 0.041998
#
#
# Mechanical properties :
#
#
# Convention : Reuss Voigt Hill
#
# Bulk Modulus (GPa) = 55.75005 61.54111 58.64558
# Shear Modulus (GPa) = 22.18400 25.17836 23.68118
#
# Velocity S-wave (km/s) = 3.49864 3.72729 3.61477
# Velocity P-wave (km/s) = 6.86162 7.24431 7.05556
#
# Compressibility (1/GPa) = 0.01793720
#
# Stress axis : x y z
#
# Youngs Moduli (GPa) = 56.56144 65.32098 75.34475
#
# Poissons Ratio (x) = 0.42075 0.31950
# Poissons Ratio (y) = 0.36433 0.26222
# Poissons Ratio (z) = 0.23985 0.22734
#
# Static dielectric constant tensor:
#      x y z
#    x 3.138910 0.000000 0.413460 
#    y 0.000000 3.401310 0.000000 
#    z 0.413460 0.000000 3.690510 
# 
# 
# High freq. dielectric constant tensor:
#      x y z
#    x 1.667510 0.000000 0.029180 
#    y 0.000000 1.710430 0.000000 
#    z 0.029180 0.000000 1.706420 
# 
# From -- ./inp_files/314203.got.cif
#   From: 2010.06.25/outbox.cif.g09.slc.cpg/sg12_158_cif.got.tgz:314203.got - 2010.06.28 00:19:55.
