data_PCOD8080583
_publ_section_title
;
Structure prediction by ZEFSAII (Michael W. Deem and Ramdas Pophale) SiO2 
 PCOD8080583
Probable space group: C 2/M
;
_chemical_formula_sum "Si O2"
_cell_formula_units_Z 64
_cell_length_a 20.175070
_cell_length_b 9.220800
_cell_length_c 24.642342
_cell_angle_alpha 90.000000
_cell_angle_beta 50.875808
_cell_angle_gamma 90.000000
_cell_volume 3556.347897
_symmetry_space_group_name_H-M "C 2/M"
_symmetry_group_IT_number 12
_symmetry_cell_setting 'monoclinic'
loop_
_space_group_symop_operation_xyz
x,y,z
-x,y,-z
-x,-y,-z
x,-y,z
1/2+x,1/2+y,z
1/2-x,1/2+y,-z
1/2-x,1/2-y,-z
1/2+x,1/2-y,z
loop_
_atom_site_type_symbol
_atom_site_label
_atom_site_fract_x
_atom_site_fract_y
_atom_site_fract_z
Si Si1 0.434266 0.834077 0.774506
Si Si2 0.027441 0.333316 0.367102
Si Si3 0.161546 0.330960 0.798266
Si Si4 0.004820 0.828393 0.154709
Si Si5 0.176250 0.166106 0.007994
Si Si6 0.174072 0.831908 0.350958
Si Si7 0.238564 0.166947 0.858453
Si Si8 0.078545 0.839597 0.500671
O O1 0.480887 0.813406 0.692906
O O2 0.482678 0.730496 0.791159
O O3 0.335386 0.788599 0.822143
O O4 0.441886 0.000000 0.790615
O O5 0.033269 0.500000 0.381003
O O6 0.114530 0.258854 0.341464
O O7 0.942141 0.266912 0.438793
O O8 0.139482 0.500000 0.816112
O O9 0.227538 0.304783 0.714712
O O10 0.203468 0.274939 0.831730
O O11 0.077370 0.241324 0.830023
O O12 0.084364 0.780632 0.076267
O O13 0.992593 0.000000 0.163183
O O14 0.190550 0.000000 0.016069
O O15 0.250000 0.250000 0.000000
O O16 0.180265 0.189930 0.941493
O O17 0.159445 0.787960 0.422042
O O18 0.148177 0.000000 0.356470
O O19 0.235077 0.000000 0.839843
O O20 0.000000 0.840079 0.500000
O O21 0.094536 0.000000 0.516496
#
# Coordination Sequence:
#
# PCOD8080583 Si02
#       8
#     8   8   8   8   8   8   8   8
#     4  10  20  35  56  81 111 145 180 223 272 321
#     4  10  18  28  48  80 110 137 174 222 269 314
#     4  11  23  38  57  81 111 147 185 226 270 322
#     4  11  24  39  57  82 110 143 183 226 273 327
#     4  10  21  37  59  83 109 142 179 224 273 322
#     4   9  18  32  50  73 105 144 181 217 264 318
#     4  10  20  37  59  82 110 144 180 223 273 322
#     4   8  15  28  45  70 105 141 175 216 265 315
#
# _framework density 17.995989999999999
#
# number of rings (size 3 to 8) (size 9 to 14) (size 15 to 20)
#    0.000    2.125    2.500    1.875    0.000    5.750 
#    0.000    2.500    0.000    0.750    0.000    0.000 
#    0.000    0.000    0.000    0.000    0.000    0.000 
#
# Total GULP energy -396803.533874 kJ/mol
# GULP energy per Si atom -12400.110434 kJ/mol
# Density = 1.795503 g / cm^3
# Si number density = 17.995990 Si / 1000 Ang^3
#
#
#
# Elastic Constant Matrix: (Units=GPa)
#
#
# Indices 1 2 3 4 5 6 
#
# 1 50.2511 28.1902 18.3823 -0.0001 -3.3534 0.0001
# 2 28.1902 77.2084 36.2186 0.0000 -0.6866 0.0002
# 3 18.3823 36.2186 106.4548 0.0000 -0.6647 0.0001
# 4 -0.0001 0.0000 0.0000 30.3636 0.0000 2.3044
# 5 -3.3534 -0.6866 -0.6647 0.0000 20.0700 0.0000
# 6 0.0001 0.0002 0.0001 2.3044 0.0000 32.0304
#
#
#
# Elastic Compliance Matrix: (Units=1/GPa)
#
#
# Indices 1 2 3 4 5 6 
#
# 1 0.025519 -0.008599 -0.001456 0.000000 0.003921 0.000000
# 2 -0.008599 0.018312 -0.004751 0.000000 -0.000968 0.000000
# 3 -0.001456 -0.004751 0.011261 0.000000 -0.000033 0.000000
# 4 0.000000 0.000000 0.000000 0.033115 0.000000 -0.002382
# 5 0.003921 -0.000968 -0.000033 0.000000 0.050447 0.000000
# 6 0.000000 0.000000 0.000000 -0.002382 0.000000 0.031392
#
#
# Mechanical properties :
#
#
# Convention : Reuss Voigt Hill
#
# Bulk Modulus (GPa) = 39.24934 44.38854 41.81894
# Shear Modulus (GPa) = 24.02094 26.56769 25.29431
#
# Velocity S-wave (km/s) = 3.65745 3.84645 3.75314
# Velocity P-wave (km/s) = 6.30026 6.66680 6.48612
#
# Compressibility (1/GPa) = 0.02547813
#
# Stress axis : x y z
#
# Youngs Moduli (GPa) = 39.18719 54.60908 88.79853
#
# Poissons Ratio (x) = 0.46960 0.12932
# Poissons Ratio (y) = 0.33698 0.42191
# Poissons Ratio (z) = 0.05707 0.25947
#
# Static dielectric constant tensor:
#      x y z
#    x 2.959970 0.000000 -0.027130 
#    y 0.000000 3.386270 0.000000 
#    z -0.027130 0.000000 3.862640 
# 
# 
# High freq. dielectric constant tensor:
#      x y z
#    x 1.657900 0.000000 0.003270 
#    y 0.000000 1.701600 0.000000 
#    z 0.003270 0.000000 1.717360 
# 
# From -- ./inp_files/365185.got.cif
#   From: 2010.06.25/outbox.cif.g09.slc.cpg/sg12_183_cif.got.tgz:365185.got - 2010.06.28 00:19:55.
