data_PCOD8080133
_publ_section_title
;
Structure prediction by ZEFSAII (Michael W. Deem and Ramdas Pophale) SiO2 
 PCOD8080133
Probable space group: C 2/M
;
_chemical_formula_sum "Si O2"
_cell_formula_units_Z 64
_cell_length_a 23.987512
_cell_length_b 9.382383
_cell_length_c 19.591893
_cell_angle_alpha 90.000000
_cell_angle_beta 122.623206
_cell_angle_gamma 90.000000
_cell_volume 3713.706613
_symmetry_space_group_name_H-M "C 2/M"
_symmetry_group_IT_number 12
_symmetry_cell_setting 'monoclinic'
loop_
_space_group_symop_operation_xyz
x,y,z
-x,y,-z
-x,-y,-z
x,-y,z
1/2+x,1/2+y,z
1/2-x,1/2+y,-z
1/2-x,1/2-y,-z
1/2+x,1/2-y,z
loop_
_atom_site_type_symbol
_atom_site_label
_atom_site_fract_x
_atom_site_fract_y
_atom_site_fract_z
Si Si1 0.037819 0.834744 0.731709
Si Si2 0.725651 0.839255 0.209866
Si Si3 0.161041 0.162992 0.900342
Si Si4 0.719138 0.336009 0.079848
Si Si5 0.877009 0.836291 0.340876
Si Si6 0.784575 0.667174 0.643571
Si Si7 0.407730 0.163879 0.635205
Si Si8 0.651642 0.833994 0.548748
O O1 0.087538 0.799176 0.826662
O O2 0.070419 0.789073 0.681346
O O3 0.971457 0.749017 0.701591
O O4 0.019651 0.000000 0.718264
O O5 0.692536 0.737022 0.131548
O O6 0.804508 0.816547 0.261280
O O7 0.697111 0.800942 0.265567
O O8 0.707168 0.000000 0.177793
O O9 0.212384 0.265451 0.897422
O O10 0.179008 0.000000 0.891776
O O11 0.164334 0.183477 0.984344
O O12 0.733471 0.500000 0.104824
O O13 0.886571 0.735587 0.412638
O O14 0.887244 0.000000 0.370506
O O15 0.767815 0.500000 0.622616
O O16 0.844850 0.718716 0.636626
O O17 0.720846 0.756835 0.579316
O O18 0.395352 0.187867 0.547137
O O19 0.420614 0.000000 0.660988
O O20 0.665218 0.000000 0.572298
#
# Coordination Sequence:
#
# PCOD8080133 Si02
#       8
#     8   8   8   8   8   8   8   8
#     4  10  20  35  53  70  97 137 173 201 235 292
#     4   9  16  30  51  72  99 130 161 201 245 291
#     4   9  18  33  48  69 103 135 163 195 236 291
#     4  10  18  27  48  78 103 127 158 200 246 289
#     4   9  18  33  51  71  99 136 169 198 241 298
#     4   9  19  36  55  72  96 132 168 204 248 297
#     4  10  22  37  51  72 100 130 166 209 255 293
#     4  10  20  33  52  77 102 124 157 214 261 289
#
# _framework density 17.233456
#
# number of rings (size 3 to 8) (size 9 to 14) (size 15 to 20)
#    0.000    2.500    1.250    1.875    0.000    5.500 
#    0.000    2.500    0.000    0.750    0.000    5.250 
#    0.000    0.000    0.000    0.000    0.000    0.000 
#
# Total GULP energy -396822.719752 kJ/mol
# GULP energy per Si atom -12400.709992 kJ/mol
# Density = 1.719423 g / cm^3
# Si number density = 17.233456 Si / 1000 Ang^3
#
#
#
# Elastic Constant Matrix: (Units=GPa)
#
#
# Indices 1 2 3 4 5 6 
#
# 1 44.3301 24.1137 23.6932 0.0000 5.5681 0.0000
# 2 24.1137 77.8649 49.2390 0.0000 0.5493 0.0000
# 3 23.6932 49.2390 89.0467 0.0000 -0.2053 0.0000
# 4 0.0000 0.0000 0.0000 29.9234 0.0000 -0.8482
# 5 5.5681 0.5493 -0.2053 0.0000 20.7735 0.0000
# 6 0.0000 0.0000 0.0000 -0.8482 0.0000 28.6669
#
#
#
# Elastic Compliance Matrix: (Units=1/GPa)
#
#
# Indices 1 2 3 4 5 6 
#
# 1 0.029252 -0.006261 -0.004339 0.000000 -0.007718 0.000000
# 2 -0.006261 0.021096 -0.009997 0.000000 0.001021 0.000000
# 3 -0.004339 -0.009997 0.017916 0.000000 0.001604 0.000000
# 4 0.000000 0.000000 0.000000 0.033447 0.000000 0.000990
# 5 -0.007718 0.001021 0.001604 0.000000 0.050196 0.000000
# 6 0.000000 0.000000 0.000000 0.000990 0.000000 0.034913
#
#
# Mechanical properties :
#
#
# Convention : Reuss Voigt Hill
#
# Bulk Modulus (GPa) = 36.94027 45.03705 40.98866
# Shear Modulus (GPa) = 21.09374 23.48584 22.28979
#
# Velocity S-wave (km/s) = 3.50237 3.69562 3.60029
# Velocity P-wave (km/s) = 6.15119 6.66336 6.41239
#
# Compressibility (1/GPa) = 0.02707072
#
# Stress axis : x y z
#
# Youngs Moduli (GPa) = 34.18557 47.40192 55.81507
#
# Poissons Ratio (x) = 0.29676 0.24220
# Poissons Ratio (y) = 0.21402 0.55799
# Poissons Ratio (z) = 0.14834 0.47388
#
# Static dielectric constant tensor:
#      x y z
#    x 3.040410 0.000000 -0.226140 
#    y 0.000000 3.243290 0.000000 
#    z -0.226140 0.000000 3.268630 
# 
# 
# High freq. dielectric constant tensor:
#      x y z
#    x 1.641490 0.000000 -0.018980 
#    y 0.000000 1.668000 0.000000 
#    z -0.018980 0.000000 1.664090 
# 
# From -- ./inp_files/326972.got.cif
#   From: 2010.06.25/outbox.cif.g09.slc.cpg/sg12_164_cif.got.tgz:326972.got - 2010.06.28 00:19:55.
