data_PCOD8080031
_publ_section_title
;
Structure prediction by ZEFSAII (Michael W. Deem and Ramdas Pophale) SiO2 
 PCOD8080031
Probable space group: C 2/M
;
_chemical_formula_sum "Si O2"
_cell_formula_units_Z 60
_cell_length_a 16.116689
_cell_length_b 15.114209
_cell_length_c 30.436122
_cell_angle_alpha 90.000000
_cell_angle_beta 152.389942
_cell_angle_gamma 90.000000
_cell_volume 3436.014184
_symmetry_space_group_name_H-M "C 2/M"
_symmetry_group_IT_number 12
_symmetry_cell_setting 'monoclinic'
loop_
_space_group_symop_operation_xyz
x,y,z
-x,y,-z
-x,-y,-z
x,-y,z
1/2+x,1/2+y,z
1/2-x,1/2+y,-z
1/2-x,1/2-y,-z
1/2+x,1/2-y,z
loop_
_atom_site_type_symbol
_atom_site_label
_atom_site_fract_x
_atom_site_fract_y
_atom_site_fract_z
Si Si1 0.493724 0.401614 0.399564
Si Si2 0.840007 0.219006 0.255259
Si Si3 0.215611 0.214202 0.385519
Si Si4 0.316173 0.103308 0.892347
Si Si5 0.500000 0.353851 0.500000
Si Si6 0.739129 0.900701 0.749085
Si Si7 0.451229 0.598805 0.763610
Si Si8 0.141851 0.400288 0.473824
O O1 0.450433 0.500000 0.360554
O O2 0.367042 0.329515 0.315451
O O3 0.468300 0.407838 0.440206
O O4 0.700648 0.376116 0.486701
O O5 0.716412 0.155970 0.167899
O O6 0.741342 0.315211 0.210342
O O7 0.031204 0.235161 0.323099
O O8 0.315584 0.302068 0.418842
O O9 0.182134 0.160606 0.325508
O O10 0.349668 0.160959 0.479706
O O11 0.158764 0.124124 0.853503
O O12 0.326823 0.000000 0.885344
O O13 0.500000 0.136918 0.000000
O O14 0.903754 0.894873 0.792539
O O15 0.548895 0.885026 0.637208
O O16 0.742701 0.000000 0.773105
O O17 0.418269 0.500000 0.730328
O O18 0.164395 0.500000 0.501004
#
# Coordination Sequence:
#
# PCOD8080031 Si02
#       8
#     8   8   8   8   4   8   8   8
#     4  10  20  32  45  64  92 128 167 199 228 263
#     4  10  19  33  51  69  93 123 155 193 235 277
#     4  10  18  27  43  66  91 123 161 198 234 269
#     4   9  18  34  56  78  94 111 143 190 243 290
#     4  12  21  28  41  62  96 134 163 192 220 262
#     4  10  19  30  45  67  96 127 156 185 221 271
#     4   9  17  29  46  69  95 119 148 192 239 276
#     4   9  17  29  44  62  88 124 165 202 230 260
#
# _framework density 17.462091999999998
#
# number of rings (size 3 to 8) (size 9 to 14) (size 15 to 20)
#    0.000    2.267    0.000    4.200    0.000    5.333 
#    0.000    4.000    0.000    0.400    0.000    0.000 
#    0.000    0.000    0.000    0.000    0.000    0.800 
#
# Total GULP energy -371823.545010 kJ/mol
# GULP energy per Si atom -12394.118167 kJ/mol
# Density = 1.742235 g / cm^3
# Si number density = 17.462092 Si / 1000 Ang^3
#
#
#
# Elastic Constant Matrix: (Units=GPa)
#
#
# Indices 1 2 3 4 5 6 
#
# 1 59.0979 28.3504 26.2840 0.0001 -0.6595 0.0002
# 2 28.3504 89.1498 30.1732 -0.0002 -1.4642 -0.0002
# 3 26.2840 30.1732 74.6448 0.0028 -1.5437 -0.0012
# 4 0.0001 -0.0002 0.0028 18.0044 -0.0007 -1.9434
# 5 -0.6595 -1.4642 -1.5437 -0.0007 10.6327 0.0001
# 6 0.0002 -0.0002 -0.0012 -1.9434 0.0001 31.7393
#
#
#
# Elastic Compliance Matrix: (Units=1/GPa)
#
#
# Indices 1 2 3 4 5 6 
#
# 1 0.021854 -0.005036 -0.005663 0.000001 -0.000160 0.000000
# 2 -0.005036 0.014167 -0.003931 0.000001 0.001068 0.000000
# 3 -0.005663 -0.003931 0.017013 -0.000003 0.001577 0.000000
# 4 0.000001 0.000001 -0.000003 0.055911 0.000004 0.003423
# 5 -0.000160 0.001068 0.001577 0.000004 0.094415 0.000000
# 6 0.000000 0.000000 0.000000 0.003423 0.000000 0.031716
#
#
# Mechanical properties :
#
#
# Convention : Reuss Voigt Hill
#
# Bulk Modulus (GPa) = 42.06428 43.61199 42.83813
# Shear Modulus (GPa) = 18.36482 21.28095 19.82288
#
# Velocity S-wave (km/s) = 3.24650 3.49477 3.37292
# Velocity P-wave (km/s) = 6.18015 6.42760 6.30509
#
# Compressibility (1/GPa) = 0.02377314
#
# Stress axis : x y z
#
# Youngs Moduli (GPa) = 45.75907 70.58894 58.78022
#
# Poissons Ratio (x) = 0.35546 0.33287
# Poissons Ratio (y) = 0.23043 0.23108
# Poissons Ratio (z) = 0.25913 0.27750
#
# Static dielectric constant tensor:
#      x y z
#    x 3.243260 0.000000 0.124960 
#    y 0.000000 3.446150 0.000000 
#    z 0.124960 0.000000 2.957300 
# 
# 
# High freq. dielectric constant tensor:
#      x y z
#    x 1.670220 0.000000 0.014230 
#    y 0.000000 1.682620 0.000000 
#    z 0.014230 0.000000 1.634460 
# 
# From -- ./inp_files/214869.got.cif
#   From: 2010.06.25/outbox.cif.g09.slc.cpg/sg12_108_cif.got.tgz:214869.got - 2010.06.28 00:19:55.
