data_PCOD8080114
_publ_section_title
;
Structure prediction by ZEFSAII (Michael W. Deem and Ramdas Pophale) SiO2 
 PCOD8080114
Probable space group: C 2/M
;
_chemical_formula_sum "Si O2"
_cell_formula_units_Z 64
_cell_length_a 8.553509
_cell_length_b 28.286789
_cell_length_c 28.797194
_cell_angle_alpha 90.000000
_cell_angle_beta 30.283736
_cell_angle_gamma 90.000000
_cell_volume 3513.597860
_symmetry_space_group_name_H-M "C 2/M"
_symmetry_group_IT_number 12
_symmetry_cell_setting 'monoclinic'
loop_
_space_group_symop_operation_xyz
x,y,z
-x,y,-z
-x,-y,-z
x,-y,z
1/2+x,1/2+y,z
1/2-x,1/2+y,-z
1/2-x,1/2-y,-z
1/2+x,1/2-y,z
loop_
_atom_site_type_symbol
_atom_site_label
_atom_site_fract_x
_atom_site_fract_y
_atom_site_fract_z
Si Si1 0.659218 0.798127 0.189507
Si Si2 0.351466 0.136351 0.399791
Si Si3 0.146829 0.719460 0.088334
Si Si4 0.470499 0.178786 0.458062
Si Si5 0.979997 0.638533 0.059779
Si Si6 0.198770 0.777109 0.382505
Si Si7 0.196810 0.051100 0.047267
Si Si8 0.677275 0.612243 0.793639
O O1 0.559245 0.801040 0.161335
O O2 0.361223 0.776521 0.291112
O O3 0.735406 0.849555 0.189659
O O4 0.953407 0.765018 0.123425
O O5 0.537699 0.139776 0.400972
O O6 0.377599 0.190284 0.373914
O O7 0.534123 0.103043 0.315979
O O8 0.000000 0.117968 0.500000
O O9 0.100899 0.680013 0.061020
O O10 0.500000 0.736302 0.000000
O O11 0.500000 0.152483 0.500000
O O12 0.702908 0.223451 0.399778
O O13 0.132601 0.199092 0.535904
O O14 0.616917 0.628115 0.162604
O O15 0.000000 0.651582 0.000000
O O16 0.209045 0.593518 0.012291
O O17 0.909060 0.065337 0.154883
O O18 0.117877 0.000000 0.043725
O O19 0.500000 0.044332 0.000000
#
# Coordination Sequence:
#
# PCOD8080114 Si02
#       8
#     8   8   8   8   8   8   8   8
#     4  11  24  32  48  66  95 135 173 203 234 284
#     4   9  18  30  43  63  95 131 157 196 243 280
#     4  12  24  35  46  65  96 135 170 202 239 282
#     4  10  18  27  46  62  89 117 164 210 237 268
#     4   9  19  35  53  71  95 123 158 204 244 291
#     4   9  19  31  41  62  84 124 165 206 240 265
#     4   8  15  31  56  79  94 114 151 201 251 296
#     4   9  18  34  51  72  98 126 163 200 246 289
#
# _framework density 18.214948
#
# number of rings (size 3 to 8) (size 9 to 14) (size 15 to 20)
#    0.000    2.625    0.000    4.500    7.000    2.500 
#    0.000    0.000    0.000    3.750    0.000    0.000 
#    0.000    0.500    0.000    0.000    0.000    5.625 
#
# Total GULP energy -396460.203509 kJ/mol
# GULP energy per Si atom -12389.381360 kJ/mol
# Density = 1.817349 g / cm^3
# Si number density = 18.214948 Si / 1000 Ang^3
#
#
#
# Elastic Constant Matrix: (Units=GPa)
#
#
# Indices 1 2 3 4 5 6 
#
# 1 70.7035 20.7623 15.0673 -0.0187 27.4535 0.0121
# 2 20.7623 55.2268 27.9818 -0.0077 9.0031 0.0037
# 3 15.0673 27.9818 107.0735 -0.0067 16.4997 0.0057
# 4 -0.0187 -0.0077 -0.0067 -52.2697 0.0100 45.4110
# 5 27.4535 9.0031 16.4997 0.0100 25.0375 -0.0060
# 6 0.0121 0.0037 0.0057 45.4110 -0.0060 -24.7042
#
#
#
# Elastic Compliance Matrix: (Units=1/GPa)
#
#
# Indices 1 2 3 4 5 6 
#
# 1 0.026563 -0.006556 0.002338 -0.000004 -0.028309 0.000011
# 2 -0.006556 0.022924 -0.005460 0.000002 0.002543 0.000002
# 3 0.002338 -0.005460 0.011720 -0.000002 -0.008323 0.000001
# 4 -0.000004 0.000002 -0.000002 0.032047 0.000007 0.058908
# 5 -0.028309 0.002543 -0.008323 0.000007 0.075551 -0.000021
# 6 0.000011 0.000002 0.000001 0.058908 -0.000021 0.067806
#
#
# Mechanical properties :
#
#
# Convention : Reuss Voigt Hill
#
# Bulk Modulus (GPa) = 23.89488 40.06965 31.98227
# Shear Modulus (GPa) = 18.52426 0.89221 9.70823
#
# Velocity S-wave (km/s) = 3.19247 0.70063 2.31114
# Velocity P-wave (km/s) = 5.17068 4.76450 4.97174
#
# Compressibility (1/GPa) = 0.04184997
#
# Stress axis : x y z
#
# Youngs Moduli (GPa) = 37.64689 43.62325 85.32486
#
# Poissons Ratio (x) = 0.28598 -0.19946
# Poissons Ratio (y) = 0.24680 0.46588
# Poissons Ratio (z) = -0.08800 0.23819
#
# Static dielectric constant tensor:
#      x y z
#    x 3.400560 0.000000 0.129810 
#    y 0.000000 3.508130 0.000000 
#    z 0.129810 0.000000 3.725490 
# 
# 
# High freq. dielectric constant tensor:
#      x y z
#    x 1.693120 0.000000 0.006030 
#    y 0.000000 1.650050 0.000000 
#    z 0.006030 0.000000 1.719960 
# 
# From -- ./inp_files/373325.got.cif
#   From: 2010.06.25/outbox.cif.g09.slc.cpg/sg12_187_cif.got.tgz:373325.got - 2010.06.28 00:19:55.
