data_PCOD8080055
_publ_section_title
;
Structure prediction by ZEFSAII (Michael W. Deem and Ramdas Pophale) SiO2 
 PCOD8080055
Probable space group: C 2/M
;
_chemical_formula_sum "Si O2"
_cell_formula_units_Z 48
_cell_length_a 27.430541
_cell_length_b 25.069151
_cell_length_c 5.120746
_cell_angle_alpha 90.000000
_cell_angle_beta 133.894079
_cell_angle_gamma 90.000000
_cell_volume 2537.553522
_symmetry_space_group_name_H-M "C 2/M"
_symmetry_group_IT_number 12
_symmetry_cell_setting 'monoclinic'
loop_
_space_group_symop_operation_xyz
x,y,z
-x,y,-z
-x,-y,-z
x,-y,z
1/2+x,1/2+y,z
1/2-x,1/2+y,-z
1/2-x,1/2-y,-z
1/2+x,1/2-y,z
loop_
_atom_site_type_symbol
_atom_site_label
_atom_site_fract_x
_atom_site_fract_y
_atom_site_fract_z
Si Si1 0.436056 0.059274 0.916634
Si Si2 0.863164 0.356010 0.949894
Si Si3 0.826227 0.500000 0.252446
Si Si4 0.311588 0.677826 0.207351
Si Si5 0.762559 0.000000 0.578105
Si Si6 0.155701 0.706269 0.626747
Si Si7 0.206937 0.115164 0.368175
O O1 0.416406 0.096846 0.086035
O O2 0.453873 0.000000 0.094446
O O3 0.371727 0.053311 0.476787
O O4 0.500000 0.083411 0.000000
O O5 0.870161 0.311327 0.751471
O O6 0.787949 0.379720 0.674966
O O7 0.883364 0.327720 0.296228
O O8 0.764282 0.500000 0.225335
O O9 0.800242 0.500000 0.860262
O O10 0.358340 0.730631 0.390240
O O11 0.329172 0.638317 0.509842
O O12 0.234664 0.695561 0.953852
O O13 0.325490 0.646744 0.992646
O O14 0.809007 0.052116 0.708761
#
# Coordination Sequence:
#
# PCOD8080055 Si02
#       7
#     8   8   4   8   4   8   8
#     4   9  19  35  47  62  83 110 145 185 229 268
#     4  10  18  29  45  60  78 105 134 179 216 255
#     4  10  21  32  46  56  82 110 144 182 218 260
#     4   9  17  29  42  61  80 105 127 169 211 251
#     4  12  20  30  45  66  84 112 144 176 209 266
#     4   9  18  29  44  61  79  98 134 169 216 255
#     4  10  18  27  44  60  85 106 135 167 209 249
#
# _framework density 18.915856000000002
#
# number of rings (size 3 to 8) (size 9 to 14) (size 15 to 20)
#    0.500    1.833    1.667    2.000    4.667    4.000 
#    0.000    4.167    0.000    0.000    0.000    0.000 
#    0.000    0.000    0.000    0.000    0.000    0.000 
#
# Total GULP energy -297543.455486 kJ/mol
# GULP energy per Si atom -12397.643979 kJ/mol
# Density = 1.887280 g / cm^3
# Si number density = 18.915856 Si / 1000 Ang^3
#
#
#
# Elastic Constant Matrix: (Units=GPa)
#
#
# Indices 1 2 3 4 5 6 
#
# 1 49.2900 17.4513 5.0945 0.0000 -10.4200 0.0000
# 2 17.4513 109.3634 -0.6732 0.0000 -0.2894 0.0000
# 3 5.0945 -0.6732 13.0926 0.0000 -11.9983 0.0000
# 4 0.0000 0.0000 0.0000 9.1292 0.0000 -7.5562
# 5 -10.4200 -0.2894 -11.9983 0.0000 17.3045 0.0000
# 6 0.0000 0.0000 0.0000 -7.5562 0.0000 31.4361
#
#
#
# Elastic Compliance Matrix: (Units=1/GPa)
#
#
# Indices 1 2 3 4 5 6 
#
# 1 0.025346 -0.003920 0.010594 0.000000 0.022542 0.000000
# 2 -0.003920 0.009764 0.000038 0.000000 -0.002171 0.000000
# 3 0.010594 0.000038 0.214229 0.000000 0.154918 0.000000
# 4 0.000000 0.000000 0.000000 0.136744 0.000000 0.032869
# 5 0.022542 -0.002171 0.154918 0.000000 0.178740 0.000000
# 6 0.000000 0.000000 0.000000 0.032869 0.000000 0.039711
#
#
# Mechanical properties :
#
#
# Convention : Reuss Voigt Hill
#
# Bulk Modulus (GPa) = 3.80571 23.94348 13.87460
# Shear Modulus (GPa) = 7.36706 21.56553 14.46630
#
# Velocity S-wave (km/s) = 1.97563 3.38017 2.76845
# Velocity P-wave (km/s) = 2.68708 5.28388 4.19165
#
# Compressibility (1/GPa) = 0.26276320
#
# Stress axis : x y z
#
# Youngs Moduli (GPa) = 39.45340 102.41922 4.66791
#
# Poissons Ratio (x) = 0.40145 -0.04945
# Poissons Ratio (y) = 0.15465 -0.00018
# Poissons Ratio (z) = -0.41797 -0.00390
#
# Static dielectric constant tensor:
#      x y z
#    x 3.219140 0.000000 -0.439040 
#    y 0.000000 3.685950 0.000000 
#    z -0.439040 0.000000 2.975500 
# 
# 
# High freq. dielectric constant tensor:
#      x y z
#    x 1.703030 0.000000 -0.060750 
#    y 0.000000 1.744400 0.000000 
#    z -0.060750 0.000000 1.677030 
# 
# From -- ./inp_files/21492.got.cif
#   From: 2010.06.25/outbox.cif.g09.slc.cpg/sg12_11_cif.got.tgz:21492.got - 2010.06.28 00:19:55.
