data_PCOD8080699
_publ_section_title
;
Structure prediction by ZEFSAII (Michael W. Deem and Ramdas Pophale) SiO2 
 PCOD8080699
Probable space group: C 2/M
;
_chemical_formula_sum "Si O2"
_cell_formula_units_Z 56
_cell_length_a 24.661494
_cell_length_b 9.156174
_cell_length_c 14.328810
_cell_angle_alpha 90.000000
_cell_angle_beta 83.461578
_cell_angle_gamma 90.000000
_cell_volume 3214.471237
_symmetry_space_group_name_H-M "C 2/M"
_symmetry_group_IT_number 12
_symmetry_cell_setting 'monoclinic'
loop_
_space_group_symop_operation_xyz
x,y,z
-x,y,-z
-x,-y,-z
x,-y,z
1/2+x,1/2+y,z
1/2-x,1/2+y,-z
1/2-x,1/2-y,-z
1/2+x,1/2-y,z
loop_
_atom_site_type_symbol
_atom_site_label
_atom_site_fract_x
_atom_site_fract_y
_atom_site_fract_z
Si Si1 0.815983 0.172758 0.237178
Si Si2 0.209422 0.828178 0.304310
Si Si3 0.611011 0.672488 0.448773
Si Si4 0.303008 0.672239 0.028507
Si Si5 0.415111 0.325928 0.342266
Si Si6 0.868357 0.827976 0.842840
Si Si7 0.963954 0.174161 0.702349
O O1 0.766203 0.243932 0.303229
O O2 0.816976 0.225938 0.129639
O O3 0.871938 0.227452 0.273554
O O4 0.809748 0.000000 0.245552
O O5 0.171368 0.786335 0.399966
O O6 0.179560 0.771145 0.216116
O O7 0.221294 0.000000 0.297993
O O8 0.605244 0.500000 0.453949
O O9 0.601795 0.739046 0.553356
O O10 0.564588 0.731708 0.387102
O O11 0.292350 0.500000 0.027161
O O12 0.250000 0.750000 0.000000
O O13 0.354332 0.716066 0.951951
O O14 0.416259 0.500000 0.346303
O O15 0.474699 0.263392 0.302521
O O16 0.927700 0.768377 0.797816
O O17 0.870025 0.000000 0.829341
O O18 0.965933 0.000000 0.701069
#
# Coordination Sequence:
#
# PCOD8080699 Si02
#       7
#     8   8   8   8   8   8   8
#     4  10  20  29  40  64  95 118 138 172 221 265
#     4   9  16  28  45  64  85 114 149 180 210 248
#     4   8  14  24  42  64  83 111 151 183 207 246
#     4  10  18  29  45  64  87 114 144 176 213 256
#     4   9  16  26  38  59  93 120 138 173 220 259
#     4   8  14  25  42  63  83 105 142 186 212 239
#     4   8  13  23  41  62  84 113 146 177 212 251
#
# _framework density 17.421218
#
# number of rings (size 3 to 8) (size 9 to 14) (size 15 to 20)
#    0.000    3.143    1.429    2.143    0.000    2.286 
#    0.000    0.714    0.000    4.286    0.000    5.000 
#    0.000    8.000    0.000    0.000    0.000    0.000 
#
# Total GULP energy -346981.640187 kJ/mol
# GULP energy per Si atom -12392.201435 kJ/mol
# Density = 1.738157 g / cm^3
# Si number density = 17.421218 Si / 1000 Ang^3
#
#
#
# Elastic Constant Matrix: (Units=GPa)
#
#
# Indices 1 2 3 4 5 6 
#
# 1 169.2061 19.9118 94.3486 0.0000 -6.6609 0.0000
# 2 19.9118 9.7605 15.4392 0.0000 -0.8299 0.0000
# 3 94.3486 15.4392 124.7326 0.0000 -9.6369 0.0000
# 4 0.0000 0.0000 0.0000 10.9768 0.0000 -1.5785
# 5 -6.6609 -0.8299 -9.6369 0.0000 26.7066 0.0000
# 6 0.0000 0.0000 0.0000 -1.5785 0.0000 18.4682
#
#
#
# Elastic Compliance Matrix: (Units=1/GPa)
#
#
# Indices 1 2 3 4 5 6 
#
# 1 0.011211 -0.011754 -0.007033 0.000000 -0.000107 0.000000
# 2 -0.011754 0.139804 -0.008543 0.000000 -0.001670 0.000000
# 3 -0.007033 -0.008543 0.014647 0.000000 0.003266 0.000000
# 4 0.000000 0.000000 0.000000 0.092235 0.000000 0.007884
# 5 -0.000107 -0.001670 0.003266 0.000000 0.038544 0.000000
# 6 0.000000 0.000000 0.000000 0.007884 0.000000 0.054821
#
#
# Mechanical properties :
#
#
# Convention : Reuss Voigt Hill
#
# Bulk Modulus (GPa) = 9.00892 62.56650 35.78771
# Shear Modulus (GPa) = 11.28867 22.83028 17.05947
#
# Velocity S-wave (km/s) = 2.54831 3.62399 3.13267
# Velocity P-wave (km/s) = 3.72035 7.31458 5.80276
#
# Compressibility (1/GPa) = 0.11100112
#
# Stress axis : x y z
#
# Youngs Moduli (GPa) = 89.20157 7.15287 68.27435
#
# Poissons Ratio (x) = 0.08408 0.48018
# Poissons Ratio (y) = 1.04848 0.58327
# Poissons Ratio (z) = 0.62737 0.06111
#
# Static dielectric constant tensor:
#      x y z
#    x 3.493960 0.000000 -0.249010 
#    y 0.000000 2.630600 0.000000 
#    z -0.249010 0.000000 3.614070 
# 
# 
# High freq. dielectric constant tensor:
#      x y z
#    x 1.674670 0.000000 -0.016970 
#    y 0.000000 1.605010 0.000000 
#    z -0.016970 0.000000 1.676440 
# 
# From -- ./inp_files/173935.got.cif
#   From: 2010.06.25/outbox.cif.g09.slc.cpg/sg12_87_cif.got.tgz:173935.got - 2010.06.28 00:19:55.
