data_PCOD8080239
_publ_section_title
;
Structure prediction by ZEFSAII (Michael W. Deem and Ramdas Pophale) SiO2 
 PCOD8080239
Probable space group: C 2/M
;
_chemical_formula_sum "Si O2"
_cell_formula_units_Z 60
_cell_length_a 22.687553
_cell_length_b 11.532627
_cell_length_c 33.181076
_cell_angle_alpha 90.000000
_cell_angle_beta 24.298429
_cell_angle_gamma 90.000000
_cell_volume 3572.440359
_symmetry_space_group_name_H-M "C 2/M"
_symmetry_group_IT_number 12
_symmetry_cell_setting 'monoclinic'
loop_
_space_group_symop_operation_xyz
x,y,z
-x,y,-z
-x,-y,-z
x,-y,z
1/2+x,1/2+y,z
1/2-x,1/2+y,-z
1/2-x,1/2-y,-z
1/2+x,1/2-y,z
loop_
_atom_site_type_symbol
_atom_site_label
_atom_site_fract_x
_atom_site_fract_y
_atom_site_fract_z
Si Si1 0.284827 0.625904 0.606410
Si Si2 0.465580 0.369727 0.797653
Si Si3 0.197942 0.366590 0.009527
Si Si4 0.584884 0.136745 0.575773
Si Si5 0.405335 0.224426 0.209976
Si Si6 0.000000 0.696610 0.500000
Si Si7 0.364124 0.234988 0.371323
Si Si8 0.170593 0.628949 0.320609
O O1 0.358009 0.500000 0.559763
O O2 0.192800 0.633809 0.704747
O O3 0.405758 0.723486 0.529228
O O4 0.185288 0.636787 0.629137
O O5 0.523405 0.500000 0.759735
O O6 0.534317 0.315034 0.794955
O O7 0.511871 0.309160 0.727481
O O8 0.291594 0.365308 0.910027
O O9 0.219236 0.500000 0.015282
O O10 0.028395 0.346212 0.109223
O O11 0.250000 0.250000 0.000000
O O12 0.565504 0.175347 0.633896
O O13 0.729975 0.186036 0.466695
O O14 0.444262 0.180853 0.639466
O O15 0.596318 0.000000 0.564967
O O16 0.310761 0.290098 0.235081
O O17 0.900582 0.619391 0.590514
O O18 0.218170 0.500000 0.278040
#
# Coordination Sequence:
#
# PCOD8080239 Si02
#       8
#     8   8   8   8   8   4   8   8
#     4  10  18  28  43  64  95 130 161 195 237 292
#     4   9  17  30  50  75  99 127 160 204 249 294
#     4   9  17  31  51  77 109 138 168 206 253 304
#     4  10  20  33  49  67  94 128 163 208 250 292
#     4   9  18  29  47  73 102 131 162 196 247 303
#     4  10  18  30  42  68  94 128 158 196 242 300
#     4  10  19  32  48  69  94 123 169 206 246 295
#     4  10  19  31  48  70  97 128 163 206 251 300
#
# _framework density 16.795241000000001
#
# number of rings (size 3 to 8) (size 9 to 14) (size 15 to 20)
#    0.000    2.400    1.333    2.000    0.000    0.533 
#    0.000    0.667    0.000    0.800    0.000    3.733 
#    0.000    0.000    0.000    0.000    0.000    0.000 
#
# Total GULP energy -371660.845770 kJ/mol
# GULP energy per Si atom -12388.694859 kJ/mol
# Density = 1.675701 g / cm^3
# Si number density = 16.795241 Si / 1000 Ang^3
#
#
#
# Elastic Constant Matrix: (Units=GPa)
#
#
# Indices 1 2 3 4 5 6 
#
# 1 81.9143 17.2074 20.3522 0.0036 -4.5268 -0.0006
# 2 17.2074 73.7820 12.7684 0.0018 -5.3054 -0.0009
# 3 20.3522 12.7684 74.2718 0.0095 -7.5410 -0.0006
# 4 0.0036 0.0018 0.0095 3.6838 -0.0009 -0.3994
# 5 -4.5268 -5.3054 -7.5410 -0.0009 16.8615 -0.0004
# 6 -0.0006 -0.0009 -0.0006 -0.3994 -0.0004 14.8267
#
#
#
# Elastic Compliance Matrix: (Units=1/GPa)
#
#
# Indices 1 2 3 4 5 6 
#
# 1 0.013600 -0.002523 -0.003146 -0.000004 0.001450 0.000000
# 2 -0.002523 0.014635 -0.001494 0.000000 0.003259 0.000001
# 3 -0.003146 -0.001494 0.015137 -0.000034 0.005455 0.000000
# 4 -0.000004 0.000000 -0.000034 0.272255 -0.000001 0.007335
# 5 0.001450 0.003259 0.005455 -0.000001 0.063161 0.000002
# 6 0.000000 0.000001 0.000000 0.007335 0.000002 0.067643
#
#
# Mechanical properties :
#
#
# Convention : Reuss Voigt Hill
#
# Bulk Modulus (GPa) = 34.42753 36.73599 35.58176
# Shear Modulus (GPa) = 10.62842 19.05041 14.83941
#
# Velocity S-wave (km/s) = 2.51833 3.37155 2.97568
# Velocity P-wave (km/s) = 5.38506 6.08907 5.74786
#
# Compressibility (1/GPa) = 0.02904652
#
# Stress axis : x y z
#
# Youngs Moduli (GPa) = 73.53167 68.33069 66.06463
#
# Poissons Ratio (x) = 0.17240 0.20781
# Poissons Ratio (y) = 0.18552 0.09867
# Poissons Ratio (z) = 0.23130 0.10206
#
# Static dielectric constant tensor:
#      x y z
#    x 3.016630 0.000000 -0.122780 
#    y 0.000000 3.215380 0.000010 
#    z -0.122780 0.000010 3.355640 
# 
# 
# High freq. dielectric constant tensor:
#      x y z
#    x 1.613270 0.000000 -0.009990 
#    y 0.000000 1.657490 0.000000 
#    z -0.009990 0.000000 1.642320 
# 
# From -- ./inp_files/381090.got.cif
#   From: 2010.06.25/outbox.cif.g09.slc.cpg/sg12_191_cif.got.tgz:381090.got - 2010.06.28 00:19:55.
