data_PCOD8080303
_publ_section_title
;
Structure prediction by ZEFSAII (Michael W. Deem and Ramdas Pophale) SiO2 
 PCOD8080303
Probable space group: C 2/M
;
_chemical_formula_sum "Si O2"
_cell_formula_units_Z 48
_cell_length_a 20.379675
_cell_length_b 9.575733
_cell_length_c 16.135897
_cell_angle_alpha 90.000000
_cell_angle_beta 65.643580
_cell_angle_gamma 90.000000
_cell_volume 2868.663667
_symmetry_space_group_name_H-M "C 2/M"
_symmetry_group_IT_number 12
_symmetry_cell_setting 'monoclinic'
loop_
_space_group_symop_operation_xyz
x,y,z
-x,y,-z
-x,-y,-z
x,-y,z
1/2+x,1/2+y,z
1/2-x,1/2+y,-z
1/2-x,1/2-y,-z
1/2+x,1/2-y,z
loop_
_atom_site_type_symbol
_atom_site_label
_atom_site_fract_x
_atom_site_fract_y
_atom_site_fract_z
Si Si1 0.035463 0.842203 0.609938
Si Si2 0.386668 0.343892 0.590055
Si Si3 0.550395 0.660324 0.051392
Si Si4 0.673862 0.159751 0.246791
Si Si5 0.784795 0.838750 0.053979
Si Si6 0.970708 0.663808 0.777112
O O1 0.098882 0.797169 0.512787
O O2 0.960926 0.837425 0.600304
O O3 0.032511 0.733413 0.687358
O O4 0.049107 0.000000 0.635643
O O5 0.355232 0.500000 0.607594
O O6 0.329103 0.245640 0.665964
O O7 0.544351 0.500000 0.085477
O O8 0.525246 0.764009 0.136096
O O9 0.500000 0.688973 0.000000
O O10 0.631336 0.695239 0.980941
O O11 0.747122 0.199472 0.160859
O O12 0.607753 0.193958 0.219956
O O13 0.671971 0.000000 0.275114
O O14 0.770155 0.000000 0.039943
O O15 0.750000 0.750000 0.000000
O O16 0.986873 0.500000 0.777325
#
# Coordination Sequence:
#
# PCOD8080303 Si02
#       6
#     8   8   8   8   8   8
#     4   8  14  25  40  60  89 122 154 186 224 274
#     4   8  14  24  39  61  89 121 153 185 224 272
#     4  10  21  35  50  68  92 126 164 198 233 276
#     4   9  17  27  41  65  94 120 149 187 233 279
#     4  10  19  32  49  69  94 123 158 196 234 280
#     4  10  18  28  44  67  93 122 155 191 236 281
#
# _framework density 16.732531000000002
#
# number of rings (size 3 to 8) (size 9 to 14) (size 15 to 20)
#    0.000    2.833    1.667    1.500    0.000    2.333 
#    0.000    3.333    0.000    0.000    0.000    1.167 
#    0.000    0.000    0.000    0.000    0.000    0.000 
#
# Total GULP energy -297510.611308 kJ/mol
# GULP energy per Si atom -12396.275471 kJ/mol
# Density = 1.669445 g / cm^3
# Si number density = 16.732531 Si / 1000 Ang^3
#
#
#
# Elastic Constant Matrix: (Units=GPa)
#
#
# Indices 1 2 3 4 5 6 
#
# 1 56.4927 35.7796 45.3108 0.0000 -6.0051 0.0000
# 2 35.7796 103.0401 93.1338 0.0000 -6.2915 0.0000
# 3 45.3108 93.1338 161.0201 0.0000 -17.8978 0.0000
# 4 0.0000 0.0000 0.0000 38.6847 0.0000 -1.8449
# 5 -6.0051 -6.2915 -17.8978 0.0000 12.2035 0.0000
# 6 0.0000 0.0000 0.0000 -1.8449 0.0000 12.0834
#
#
#
# Elastic Compliance Matrix: (Units=1/GPa)
#
#
# Indices 1 2 3 4 5 6 
#
# 1 0.024058 -0.005037 -0.003380 0.000000 0.004284 0.000000
# 2 -0.005037 0.022082 -0.012384 0.000000 -0.009256 0.000000
# 3 -0.003380 -0.012384 0.016045 0.000000 0.015485 0.000000
# 4 0.000000 0.000000 0.000000 0.026040 0.000000 0.003976
# 5 0.004284 -0.009256 0.015485 0.000000 0.101990 0.000000
# 6 0.000000 0.000000 0.000000 0.003976 0.000000 0.083365
#
#
# Mechanical properties :
#
#
# Convention : Reuss Voigt Hill
#
# Bulk Modulus (GPa) = 48.58226 74.33348 61.45787
# Shear Modulus (GPa) = 15.52588 22.34957 18.93773
#
# Velocity S-wave (km/s) = 3.04943 3.65868 3.36786
# Velocity P-wave (km/s) = 6.44176 7.89740 7.20643
#
# Compressibility (1/GPa) = 0.02058365
#
# Stress axis : x y z
#
# Youngs Moduli (GPa) = 41.56580 45.28605 62.32307
#
# Poissons Ratio (x) = 0.22811 0.21067
# Poissons Ratio (y) = 0.20937 0.77178
# Poissons Ratio (z) = 0.14051 0.56080
#
# Static dielectric constant tensor:
#      x y z
#    x 3.805070 0.000000 -1.058140 
#    y 0.000000 3.242920 0.000000 
#    z -1.058140 0.000000 4.053550 
# 
# 
# High freq. dielectric constant tensor:
#      x y z
#    x 1.584550 0.000000 -0.018750 
#    y 0.000000 1.648020 0.000000 
#    z -0.018750 0.000000 1.657740 
# 
# From -- ./inp_files/230373.got.cif
#   From: 2010.06.25/outbox.cif.g09.slc.cpg/sg12_116_cif.got.tgz:230373.got - 2010.06.28 00:19:55.
