data_PCOD8080911
_publ_section_title
;
Structure prediction by ZEFSAII (Michael W. Deem and Ramdas Pophale) SiO2 
 PCOD8080911
Probable space group: C 2/M
;
_chemical_formula_sum "Si O2"
_cell_formula_units_Z 64
_cell_length_a 20.593380
_cell_length_b 9.127647
_cell_length_c 24.263105
_cell_angle_alpha 90.000000
_cell_angle_beta 127.364554
_cell_angle_gamma 90.000000
_cell_volume 3624.810958
_symmetry_space_group_name_H-M "C 2/M"
_symmetry_group_IT_number 12
_symmetry_cell_setting 'monoclinic'
loop_
_space_group_symop_operation_xyz
x,y,z
-x,y,-z
-x,-y,-z
x,-y,z
1/2+x,1/2+y,z
1/2-x,1/2+y,-z
1/2-x,1/2-y,-z
1/2+x,1/2-y,z
loop_
_atom_site_type_symbol
_atom_site_label
_atom_site_fract_x
_atom_site_fract_y
_atom_site_fract_z
Si Si1 0.600928 0.326842 0.791080
Si Si2 0.319344 0.673002 0.762978
Si Si3 0.072966 0.334478 0.494258
Si Si4 0.070217 0.174348 0.996297
Si Si5 0.995473 0.173921 0.152281
Si Si6 0.731060 0.672617 0.139899
Si Si7 0.820054 0.828710 0.369657
Si Si8 0.964249 0.830301 0.359959
O O1 0.614403 0.500000 0.799929
O O2 0.547974 0.267819 0.815019
O O3 0.688554 0.252690 0.839232
O O4 0.552822 0.281099 0.711181
O O5 0.311250 0.500000 0.749291
O O6 0.411542 0.729561 0.802143
O O7 0.290125 0.717735 0.808739
O O8 0.265565 0.755863 0.690028
O O9 0.101292 0.500000 0.496877
O O10 0.148896 0.243176 0.557439
O O11 0.000000 0.329528 0.500000
O O12 0.041567 0.261803 0.421472
O O13 0.054322 0.233469 0.926355
O O14 0.066278 0.000000 0.996070
O O15 0.158275 0.227847 0.062735
O O16 0.000000 0.238158 0.000000
O O17 0.995853 0.000000 0.151488
O O18 0.744419 0.500000 0.142077
O O19 0.883385 0.795654 0.353295
O O20 0.807920 0.000000 0.373399
O O21 0.987804 0.000000 0.376826
#
# Coordination Sequence:
#
# PCOD8080911 Si02
#       8
#     8   8   8   8   8   8   8   8
#     4  10  20  34  50  72 104 138 169 202 250 309
#     4  10  18  30  50  75  98 127 171 217 251 286
#     4   9  17  28  45  72 101 128 162 206 249 288
#     4   9  15  28  50  76 101 128 168 215 257 295
#     4   9  18  32  51  73  99 134 173 211 251 299
#     4  10  19  30  51  77 100 128 169 216 255 293
#     4  10  18  29  47  72 102 133 163 201 250 304
#     4   9  17  29  45  67  98 134 165 196 244 304
#
# _framework density 17.656092999999998
#
# number of rings (size 3 to 8) (size 9 to 14) (size 15 to 20)
#    0.000    2.500    2.500    0.750    0.000    3.000 
#    0.000    0.625    0.000    1.875    0.000    0.000 
#    0.000    0.000    0.000    0.000    0.000    0.000 
#
# Total GULP energy -396807.708269 kJ/mol
# GULP energy per Si atom -12400.240883 kJ/mol
# Density = 1.761591 g / cm^3
# Si number density = 17.656093 Si / 1000 Ang^3
#
#
#
# Elastic Constant Matrix: (Units=GPa)
#
#
# Indices 1 2 3 4 5 6 
#
# 1 94.7714 26.9142 63.8995 0.0000 3.1448 0.0000
# 2 26.9142 49.2126 50.1418 0.0000 7.4788 0.0000
# 3 63.8995 50.1418 177.8133 0.0000 11.2961 0.0000
# 4 0.0000 0.0000 0.0000 22.7736 0.0000 4.4589
# 5 3.1448 7.4788 11.2961 0.0000 25.5427 0.0000
# 6 0.0000 0.0000 0.0000 4.4589 0.0000 15.0000
#
#
#
# Elastic Compliance Matrix: (Units=1/GPa)
#
#
# Indices 1 2 3 4 5 6 
#
# 1 0.014412 -0.003801 -0.004183 0.000000 0.001188 0.000000
# 2 -0.003801 0.030131 -0.006791 0.000000 -0.005351 0.000000
# 3 -0.004183 -0.006791 0.009140 0.000000 -0.001539 0.000000
# 4 0.000000 0.000000 0.000000 0.046624 0.000000 -0.013860
# 5 0.001188 -0.005351 -0.001539 0.000000 0.041251 0.000000
# 6 0.000000 0.000000 0.000000 -0.013860 0.000000 0.070787
#
#
# Mechanical properties :
#
#
# Convention : Reuss Voigt Hill
#
# Bulk Modulus (GPa) = 41.43556 67.07870 54.25713
# Shear Modulus (GPa) = 20.00498 24.71938 22.36218
#
# Velocity S-wave (km/s) = 3.36971 3.74578 3.56271
# Velocity P-wave (km/s) = 6.21764 7.53539 6.90801
#
# Compressibility (1/GPa) = 0.02413386
#
# Stress axis : x y z
#
# Youngs Moduli (GPa) = 69.38720 33.18856 109.41193
#
# Poissons Ratio (x) = 0.12613 0.45765
# Poissons Ratio (y) = 0.26371 0.74301
# Poissons Ratio (z) = 0.29024 0.22538
#
# Static dielectric constant tensor:
#      x y z
#    x 3.103120 0.000000 -0.021770 
#    y 0.000000 3.006370 0.000000 
#    z -0.021770 0.000000 3.518940 
# 
# 
# High freq. dielectric constant tensor:
#      x y z
#    x 1.652390 0.000000 0.005410 
#    y 0.000000 1.655900 0.000000 
#    z 0.005410 0.000000 1.701430 
# 
# From -- ./inp_files/346259.got.cif
#   From: 2010.06.25/outbox.cif.g09.slc.cpg/sg12_174_cif.got.tgz:346259.got - 2010.06.28 00:19:55.
