data_PCOD8080360
_publ_section_title
;
Structure prediction by ZEFSAII (Michael W. Deem and Ramdas Pophale) SiO2 
 PCOD8080360
Probable space group: C 2/M
;
_chemical_formula_sum "Si O2"
_cell_formula_units_Z 56
_cell_length_a 27.680030
_cell_length_b 9.046119
_cell_length_c 18.112425
_cell_angle_alpha 90.000000
_cell_angle_beta 49.341451
_cell_angle_gamma 90.000000
_cell_volume 3440.500859
_symmetry_space_group_name_H-M "C 2/M"
_symmetry_group_IT_number 12
_symmetry_cell_setting 'monoclinic'
loop_
_space_group_symop_operation_xyz
x,y,z
-x,y,-z
-x,-y,-z
x,-y,z
1/2+x,1/2+y,z
1/2-x,1/2+y,-z
1/2-x,1/2-y,-z
1/2+x,1/2-y,z
loop_
_atom_site_type_symbol
_atom_site_label
_atom_site_fract_x
_atom_site_fract_y
_atom_site_fract_z
Si Si1 0.122616 0.672746 0.536137
Si Si2 0.311895 0.329402 0.409073
Si Si3 0.806474 0.172418 0.986559
Si Si4 0.373987 0.328721 0.777449
Si Si5 0.248197 0.168079 0.678658
Si Si6 0.255630 0.825189 0.166997
Si Si7 0.504141 0.328998 0.582817
O O1 0.115169 0.500000 0.557397
O O2 0.127742 0.751429 0.611717
O O3 0.184808 0.710128 0.425766
O O4 0.062159 0.733262 0.553789
O O5 0.310179 0.500000 0.434311
O O6 0.250000 0.250000 0.500000
O O7 0.310165 0.313925 0.321678
O O8 0.868192 0.195741 0.872137
O O9 0.791902 0.000000 0.011625
O O10 0.750000 0.250000 0.000000
O O11 0.811786 0.250470 0.061307
O O12 0.375885 0.500000 0.755207
O O13 0.312814 0.264239 0.794111
O O14 0.439984 0.259670 0.682903
O O15 0.234308 0.279115 0.758872
O O16 0.250843 0.000000 0.705471
O O17 0.261601 0.000000 0.153028
O O18 0.500000 0.309892 0.500000
O O19 0.514317 0.500000 0.594969
#
# Coordination Sequence:
#
# PCOD8080360 Si02
#       7
#     8   8   8   8   8   8   8
#     4  10  20  32  45  65  93 123 155 188 224 267
#     4   9  17  30  47  66  89 118 151 186 225 270
#     4   9  16  28  44  62  88 118 150 187 224 266
#     4   8  16  29  43  62  88 120 155 184 214 260
#     4   9  18  30  44  65  92 118 145 181 225 269
#     4  10  18  28  45  68  91 116 149 186 227 272
#     4  10  19  31  47  66  90 123 159 189 219 259
#
# _framework density 16.276700000000002
#
# number of rings (size 3 to 8) (size 9 to 14) (size 15 to 20)
#    0.000    2.714    0.000    4.286    0.000    4.857 
#    0.000    4.286    0.000    0.000    0.000    1.000 
#    0.000    8.000    0.000    0.000    0.000    0.000 
#
# Total GULP energy -346993.614477 kJ/mol
# GULP energy per Si atom -12392.629088 kJ/mol
# Density = 1.623965 g / cm^3
# Si number density = 16.276700 Si / 1000 Ang^3
#
#
#
# Elastic Constant Matrix: (Units=GPa)
#
#
# Indices 1 2 3 4 5 6 
#
# 1 81.7329 43.5314 36.0180 -0.0005 14.5166 0.0004
# 2 43.5314 90.4872 44.0160 -0.0031 12.9798 0.0022
# 3 36.0180 44.0160 92.5383 -0.0012 13.4773 0.0005
# 4 -0.0005 -0.0031 -0.0012 22.5807 0.0003 5.2526
# 5 14.5166 12.9798 13.4773 0.0003 19.1042 -0.0002
# 6 0.0004 0.0022 0.0005 5.2526 -0.0002 27.7311
#
#
#
# Elastic Compliance Matrix: (Units=1/GPa)
#
#
# Indices 1 2 3 4 5 6 
#
# 1 0.018211 -0.006207 -0.003048 -0.000001 -0.007471 0.000000
# 2 -0.006207 0.017033 -0.005224 0.000002 -0.003171 -0.000002
# 3 -0.003048 -0.005224 0.015183 0.000000 -0.004846 0.000000
# 4 -0.000001 0.000002 0.000000 0.046327 -0.000002 -0.008775
# 5 -0.007471 -0.003171 -0.004846 -0.000002 0.063594 0.000001
# 6 0.000000 -0.000002 0.000000 -0.008775 0.000001 0.037723
#
#
# Mechanical properties :
#
#
# Convention : Reuss Voigt Hill
#
# Bulk Modulus (GPa) = 46.57702 56.87657 51.72679
# Shear Modulus (GPa) = 21.35067 23.29608 22.32337
#
# Velocity S-wave (km/s) = 3.62571 3.78729 3.70738
# Velocity P-wave (km/s) = 6.79747 7.35828 7.08343
#
# Compressibility (1/GPa) = 0.02146982
#
# Stress axis : x y z
#
# Youngs Moduli (GPa) = 54.91318 58.70863 65.86169
#
# Poissons Ratio (x) = 0.36438 0.20073
# Poissons Ratio (y) = 0.34082 0.34408
# Poissons Ratio (z) = 0.16736 0.30671
#
# Static dielectric constant tensor:
#      x y z
#    x 3.075070 0.000000 0.152080 
#    y 0.000000 3.154140 0.000000 
#    z 0.152080 0.000000 3.255250 
# 
# 
# High freq. dielectric constant tensor:
#      x y z
#    x 1.605570 0.000000 0.023090 
#    y 0.000000 1.628810 0.000000 
#    z 0.023090 0.000000 1.607700 
# 
# From -- ./inp_files/288237.got.cif
#   From: 2010.06.25/outbox.cif.g09.slc.cpg/sg12_145_cif.got.tgz:288237.got - 2010.06.28 00:19:55.
