data_PCOD8080525
_publ_section_title
;
Structure prediction by ZEFSAII (Michael W. Deem and Ramdas Pophale) SiO2 
 PCOD8080525
Probable space group: C 2/M
;
_chemical_formula_sum "Si O2"
_cell_formula_units_Z 64
_cell_length_a 8.444290
_cell_length_b 19.734446
_cell_length_c 26.795593
_cell_angle_alpha 90.000000
_cell_angle_beta 50.487762
_cell_angle_gamma 90.000000
_cell_volume 3444.934928
_symmetry_space_group_name_H-M "C 2/M"
_symmetry_group_IT_number 12
_symmetry_cell_setting 'monoclinic'
loop_
_space_group_symop_operation_xyz
x,y,z
-x,y,-z
-x,-y,-z
x,-y,z
1/2+x,1/2+y,z
1/2-x,1/2+y,-z
1/2-x,1/2-y,-z
1/2+x,1/2-y,z
loop_
_atom_site_type_symbol
_atom_site_label
_atom_site_fract_x
_atom_site_fract_y
_atom_site_fract_z
Si Si1 0.166426 0.839055 0.925482
Si Si2 0.237670 0.921725 0.821790
Si Si3 0.079297 0.271532 0.861821
Si Si4 0.543076 0.078185 0.438025
Si Si5 0.999981 0.834458 0.799696
Si Si6 0.820704 0.580205 0.300245
Si Si7 0.543472 0.578701 0.698087
Si Si8 0.295084 0.580828 0.568169
O O1 0.224423 0.906839 0.883372
O O2 0.077106 0.784625 0.904958
O O3 0.369769 0.811920 0.911334
O O4 0.000000 0.858069 0.000000
O O5 0.038743 0.889756 0.834889
O O6 0.451836 0.890204 0.757138
O O7 0.231517 0.000000 0.812693
O O8 0.093531 0.236458 0.803212
O O9 0.261737 0.324454 0.834503
O O10 0.500000 0.113701 0.500000
O O11 0.398525 0.109499 0.424174
O O12 0.781303 0.087024 0.378252
O O13 0.479234 0.000000 0.454884
O O14 0.100249 0.867375 0.730063
O O15 0.836831 0.500000 0.301351
O O16 0.670309 0.599516 0.284914
O O17 0.731914 0.609871 0.370153
O O18 0.538696 0.500000 0.718487
O O19 0.500000 0.608518 0.500000
O O20 0.301303 0.500000 0.569514
#
# Coordination Sequence:
#
# PCOD8080525 Si02
#       8
#     8   8   8   8   8   8   8   8
#     4  10  19  34  56  77 101 130 164 208 250 296
#     4  10  20  33  50  74 104 136 165 199 249 306
#     4   9  20  35  53  77  98 125 167 209 251 288
#     4   9  16  25  38  62  98 135 169 203 242 294
#     4  10  19  34  53  73 100 129 164 209 248 295
#     4   9  17  28  42  65  98 133 166 195 234 293
#     4  10  18  28  47  74 102 133 164 200 252 307
#     4   9  15  23  36  55  86 130 171 203 233 272
#
# _framework density 18.577998999999998
#
# number of rings (size 3 to 8) (size 9 to 14) (size 15 to 20)
#    0.000    2.500    0.000    3.000    0.000    5.250 
#    0.000    0.625    0.000    0.750    0.000    0.875 
#    0.000    7.000    0.000    2.375    0.000    3.250 
#
# Total GULP energy -396543.601937 kJ/mol
# GULP energy per Si atom -12391.987561 kJ/mol
# Density = 1.853572 g / cm^3
# Si number density = 18.577999 Si / 1000 Ang^3
#
#
#
# Elastic Constant Matrix: (Units=GPa)
#
#
# Indices 1 2 3 4 5 6 
#
# 1 119.6319 28.7553 45.0208 -0.0048 -8.5756 0.0018
# 2 28.7553 32.0571 28.6609 -0.0028 -9.4146 0.0012
# 3 45.0208 28.6609 125.2009 -0.0062 2.4061 0.0023
# 4 -0.0048 -0.0028 -0.0062 13.8073 0.0036 1.9301
# 5 -8.5756 -9.4146 2.4061 0.0036 26.1586 -0.0019
# 6 0.0018 0.0012 0.0023 1.9301 -0.0019 23.8439
#
#
#
# Elastic Compliance Matrix: (Units=1/GPa)
#
#
# Indices 1 2 3 4 5 6 
#
# 1 0.011127 -0.007615 -0.002279 0.000001 0.001117 0.000000
# 2 -0.007615 0.051310 -0.009331 -0.000001 0.016828 0.000000
# 3 -0.002279 -0.009331 0.011041 0.000004 -0.005121 -0.000001
# 4 0.000001 -0.000001 0.000004 0.073254 -0.000011 -0.005930
# 5 0.001117 0.016828 -0.005121 -0.000011 0.045122 0.000004
# 6 0.000000 0.000000 -0.000001 -0.005930 0.000004 0.042420
#
#
# Mechanical properties :
#
#
# Convention : Reuss Voigt Hill
#
# Bulk Modulus (GPa) = 28.54921 53.52931 41.03926
# Shear Modulus (GPa) = 17.58080 24.39215 20.98647
#
# Velocity S-wave (km/s) = 3.07957 3.62741 3.36466
# Velocity P-wave (km/s) = 5.29581 6.81322 6.10187
#
# Compressibility (1/GPa) = 0.03502723
#
# Stress axis : x y z
#
# Youngs Moduli (GPa) = 89.86927 19.48944 90.56951
#
# Poissons Ratio (x) = 0.14842 0.20645
# Poissons Ratio (y) = 0.68438 0.84509
# Poissons Ratio (z) = 0.20485 0.18185
#
# Static dielectric constant tensor:
#      x y z
#    x 3.676280 0.000000 0.091980 
#    y 0.000000 3.047300 0.000000 
#    z 0.091980 0.000000 3.411940 
# 
# 
# High freq. dielectric constant tensor:
#      x y z
#    x 1.741590 0.000000 0.004900 
#    y 0.000000 1.665470 0.000000 
#    z 0.004900 0.000000 1.713860 
# 
# From -- ./inp_files/356845.got.cif
#   From: 2010.06.25/outbox.cif.g09.slc.cpg/sg12_179_cif.got.tgz:356845.got - 2010.06.28 00:19:55.
