data_PCOD8080858
_publ_section_title
;
Structure prediction by ZEFSAII (Michael W. Deem and Ramdas Pophale) SiO2 
 PCOD8080858
Probable space group: C 2/M
;
_chemical_formula_sum "Si O2"
_cell_formula_units_Z 64
_cell_length_a 21.254631
_cell_length_b 14.171719
_cell_length_c 11.740077
_cell_angle_alpha 90.000000
_cell_angle_beta 60.284716
_cell_angle_gamma 90.000000
_cell_volume 3071.259612
_symmetry_space_group_name_H-M "C 2/M"
_symmetry_group_IT_number 12
_symmetry_cell_setting 'monoclinic'
loop_
_space_group_symop_operation_xyz
x,y,z
-x,y,-z
-x,-y,-z
x,-y,z
1/2+x,1/2+y,z
1/2-x,1/2+y,-z
1/2-x,1/2-y,-z
1/2+x,1/2-y,z
loop_
_atom_site_type_symbol
_atom_site_label
_atom_site_fract_x
_atom_site_fract_y
_atom_site_fract_z
Si Si1 0.026105 0.602381 0.211901
Si Si2 0.437116 0.766683 0.149221
Si Si3 0.084015 0.783144 0.449748
Si Si4 0.649857 0.894981 0.922269
Si Si5 0.560719 0.609841 0.694085
Si Si6 0.751245 0.110271 0.024771
Si Si7 0.604153 0.391716 0.210629
Si Si8 0.360558 0.109450 0.694259
O O1 0.989448 0.500000 0.266558
O O2 0.073534 0.631144 0.278100
O O3 0.965390 0.680157 0.238859
O O4 0.075857 0.593296 0.057020
O O5 0.367192 0.823163 0.165594
O O6 0.410935 0.664054 0.218458
O O7 0.500000 0.753634 0.000000
O O8 0.097811 0.846825 0.548267
O O9 0.121043 0.834348 0.309301
O O10 0.122957 0.679824 0.426366
O O11 0.000000 0.771136 0.500000
O O12 0.672443 0.000000 0.856460
O O13 0.710701 0.847104 0.949574
O O14 0.581249 0.500000 0.684268
O O15 0.474329 0.626923 0.770782
O O16 0.714757 0.141213 0.176770
O O17 0.734633 0.000000 0.030301
O O18 0.836384 0.136061 0.940178
O O19 0.613140 0.500000 0.237602
O O20 0.359300 0.000000 0.655629
#
# Coordination Sequence:
#
# PCOD8080858 Si02
#       8
#     8   8   8   8   8   8   8   8
#     4   8  13  23  41  66  96 126 152 185 234 291
#     4  10  18  29  47  68  94 126 166 210 254 293
#     4  10  19  31  47  68  96 131 170 205 245 295
#     4   8  14  25  44  72 102 127 154 192 240 297
#     4  10  21  35  49  69  98 131 172 218 254 287
#     4   8  15  29  50  78 107 132 160 197 245 299
#     4   9  17  31  52  75  99 130 168 208 248 291
#     4   9  17  29  45  70 105 135 160 195 242 302
#
# _framework density 20.838356000000001
#
# number of rings (size 3 to 8) (size 9 to 14) (size 15 to 20)
#    0.000    3.000    0.000    3.750    0.000    4.000 
#    0.000    1.250    0.000    0.750    0.000    0.875 
#    0.000    0.000    0.000    1.250    0.000    0.000 
#
# Total GULP energy -396532.142095 kJ/mol
# GULP energy per Si atom -12391.629440 kJ/mol
# Density = 2.079093 g / cm^3
# Si number density = 20.838356 Si / 1000 Ang^3
#
#
#
# Elastic Constant Matrix: (Units=GPa)
#
#
# Indices 1 2 3 4 5 6 
#
# 1 24.9073 15.1419 11.4587 0.0000 -3.1299 0.0000
# 2 15.1419 117.2061 45.9549 0.0000 4.3988 0.0000
# 3 11.4587 45.9549 54.4952 0.0000 -0.8703 0.0000
# 4 0.0000 0.0000 0.0000 37.8241 0.0000 1.9314
# 5 -3.1299 4.3988 -0.8703 0.0000 13.1427 0.0000
# 6 0.0000 0.0000 0.0000 1.9314 0.0000 8.1507
#
#
#
# Elastic Compliance Matrix: (Units=1/GPa)
#
#
# Indices 1 2 3 4 5 6 
#
# 1 0.047034 -0.004080 -0.006255 0.000000 0.012152 0.000000
# 2 -0.004080 0.013435 -0.010570 0.000000 -0.006168 0.000000
# 3 -0.006255 -0.010570 0.028642 0.000000 0.003945 0.000000
# 4 0.000000 0.000000 0.000000 0.026762 0.000000 -0.006341
# 5 0.012152 -0.006168 0.003945 0.000000 0.081308 0.000000
# 6 0.000000 0.000000 0.000000 -0.006341 0.000000 0.124192
#
#
# Mechanical properties :
#
#
# Convention : Reuss Voigt Hill
#
# Bulk Modulus (GPa) = 21.14140 37.96884 29.55512
# Shear Modulus (GPa) = 13.19436 20.09370 16.64403
#
# Velocity S-wave (km/s) = 2.51903 3.10863 2.82923
# Velocity P-wave (km/s) = 4.31603 5.58077 4.98864
#
# Compressibility (1/GPa) = 0.04730056
#
# Stress axis : x y z
#
# Youngs Moduli (GPa) = 21.26122 74.43289 34.91354
#
# Poissons Ratio (x) = 0.30367 0.21840
# Poissons Ratio (y) = 0.08674 0.36904
# Poissons Ratio (z) = 0.13300 0.78676
#
# Static dielectric constant tensor:
#      x y z
#    x 3.358370 0.000000 -0.075640 
#    y 0.000000 3.991600 0.000000 
#    z -0.075640 0.000000 3.621280 
# 
# 
# High freq. dielectric constant tensor:
#      x y z
#    x 1.760270 0.000000 -0.005200 
#    y 0.000000 1.833350 0.000000 
#    z -0.005200 0.000000 1.787840 
# 
# From -- ./inp_files/167247.got.cif
#   From: 2010.06.25/outbox.cif.g09.slc.cpg/sg12_84_cif.got.tgz:167247.got - 2010.06.28 00:19:55.
