data_PCOD8080381
_publ_section_title
;
Structure prediction by ZEFSAII (Michael W. Deem and Ramdas Pophale) SiO2 
 PCOD8080381
Probable space group: C 2/M
;
_chemical_formula_sum "Si O2"
_cell_formula_units_Z 64
_cell_length_a 24.373947
_cell_length_b 9.204307
_cell_length_c 19.885816
_cell_angle_alpha 90.000000
_cell_angle_beta 57.814095
_cell_angle_gamma 90.000000
_cell_volume 3775.697129
_symmetry_space_group_name_H-M "C 2/M"
_symmetry_group_IT_number 12
_symmetry_cell_setting 'monoclinic'
loop_
_space_group_symop_operation_xyz
x,y,z
-x,y,-z
-x,-y,-z
x,-y,z
1/2+x,1/2+y,z
1/2-x,1/2+y,-z
1/2-x,1/2-y,-z
1/2+x,1/2-y,z
loop_
_atom_site_type_symbol
_atom_site_label
_atom_site_fract_x
_atom_site_fract_y
_atom_site_fract_z
Si Si1 0.044675 0.828809 0.068622
Si Si2 0.655568 0.829623 0.377576
Si Si3 0.453908 0.832635 0.654701
Si Si4 0.906902 0.827792 0.102688
Si Si5 0.917817 0.831610 0.458297
Si Si6 0.603275 0.333760 0.679597
Si Si7 0.700509 0.669983 0.728921
Si Si8 0.475268 0.830789 0.791093
O O1 0.065930 0.747317 0.123132
O O2 0.972473 0.775291 0.096319
O O3 0.047843 0.000000 0.079188
O O4 0.092844 0.782247 0.976192
O O5 0.612507 0.797549 0.340142
O O6 0.627930 0.747935 0.459696
O O7 0.727133 0.764854 0.316140
O O8 0.657594 0.000000 0.393428
O O9 0.510265 0.734784 0.586306
O O10 0.442056 0.796818 0.740909
O O11 0.475059 0.000000 0.631515
O O12 0.844424 0.761779 0.182307
O O13 0.906602 0.000000 0.107974
O O14 0.885064 0.807715 0.406895
O O15 0.923562 0.000000 0.473414
O O16 0.581525 0.500000 0.707739
O O17 0.669196 0.297214 0.676400
O O18 0.547949 0.229716 0.743768
O O19 0.705841 0.500000 0.738596
O O20 0.477499 0.000000 0.805080
#
# Coordination Sequence:
#
# PCOD8080381 Si02
#       8
#     8   8   8   8   8   8   8   8
#     4   9  15  26  47  72  95 119 149 187 228 267
#     4  10  20  33  50  68  88 122 160 192 227 269
#     4   9  19  34  49  67  91 120 158 196 227 264
#     4   8  14  25  46  72  94 118 150 188 222 263
#     4  10  20  32  49  72  94 117 149 194 240 275
#     4   9  17  31  49  68  92 121 152 187 228 275
#     4   9  16  29  50  70  90 120 158 190 219 268
#     4  10  18  28  45  69  96 122 149 188 232 272
#
# _framework density 16.950510999999999
#
# number of rings (size 3 to 8) (size 9 to 14) (size 15 to 20)
#    0.000    2.750    1.250    1.875    0.000    3.500 
#    0.000    1.875    0.000    0.750    0.000    0.000 
#    0.000    0.000    0.000    0.000    0.000    0.375 
#
# Total GULP energy -396679.572651 kJ/mol
# GULP energy per Si atom -12396.236645 kJ/mol
# Density = 1.691193 g / cm^3
# Si number density = 16.950511 Si / 1000 Ang^3
#
#
#
# Elastic Constant Matrix: (Units=GPa)
#
#
# Indices 1 2 3 4 5 6 
#
# 1 107.9143 35.2404 76.0528 -0.0001 -2.3641 0.0001
# 2 35.2404 51.5348 45.8877 -0.0003 5.7282 -0.0004
# 3 76.0528 45.8877 128.2007 -0.0001 14.3354 -0.0001
# 4 -0.0001 -0.0003 -0.0001 24.6500 0.0000 6.5287
# 5 -2.3641 5.7282 14.3354 0.0000 21.1059 0.0000
# 6 0.0001 -0.0004 -0.0001 6.5287 0.0000 15.8575
#
#
#
# Elastic Compliance Matrix: (Units=1/GPa)
#
#
# Indices 1 2 3 4 5 6 
#
# 1 0.018264 -0.004346 -0.010432 0.000000 0.010311 0.000000
# 2 -0.004346 0.029531 -0.007620 0.000000 -0.003326 0.000001
# 3 -0.010432 -0.007620 0.017981 0.000000 -0.011313 0.000000
# 4 0.000000 0.000000 0.000000 0.045533 0.000000 -0.018746
# 5 0.010311 -0.003326 -0.011313 0.000000 0.057122 0.000000
# 6 0.000000 0.000001 0.000000 -0.018746 0.000000 0.070780
#
#
# Mechanical properties :
#
#
# Convention : Reuss Voigt Hill
#
# Bulk Modulus (GPa) = 47.66477 66.89020 57.27748
# Shear Modulus (GPa) = 17.18211 21.02062 19.10137
#
# Velocity S-wave (km/s) = 3.18726 3.52535 3.36056
# Velocity P-wave (km/s) = 6.45956 7.49123 6.99444
#
# Compressibility (1/GPa) = 0.02097986
#
# Stress axis : x y z
#
# Youngs Moduli (GPa) = 54.75335 33.86254 55.61337
#
# Poissons Ratio (x) = 0.14718 0.58015
# Poissons Ratio (y) = 0.23798 0.42377
# Poissons Ratio (z) = 0.57118 0.25803
#
# Static dielectric constant tensor:
#      x y z
#    x 3.167720 0.000000 0.129590 
#    y 0.000000 2.985880 0.000000 
#    z 0.129590 0.000000 3.475800 
# 
# 
# High freq. dielectric constant tensor:
#      x y z
#    x 1.635110 0.000000 0.021330 
#    y 0.000000 1.629660 0.000000 
#    z 0.021330 0.000000 1.656270 
# 
# From -- ./inp_files/324167.got.cif
#   From: 2010.06.25/outbox.cif.g09.slc.cpg/sg12_163_cif.got.tgz:324167.got - 2010.06.28 00:19:55.
