data_PCOD8080838
_publ_section_title
;
Structure prediction by ZEFSAII (Michael W. Deem and Ramdas Pophale) SiO2 
 PCOD8080838
Probable space group: C 2/M
;
_chemical_formula_sum "Si O2"
_cell_formula_units_Z 32
_cell_length_a 20.713601
_cell_length_b 17.740807
_cell_length_c 5.227840
_cell_angle_alpha 90.000000
_cell_angle_beta 77.792363
_cell_angle_gamma 90.000000
_cell_volume 1877.665135
_symmetry_space_group_name_H-M "C 2/M"
_symmetry_group_IT_number 12
_symmetry_cell_setting 'monoclinic'
loop_
_space_group_symop_operation_xyz
x,y,z
-x,y,-z
-x,-y,-z
x,-y,z
1/2+x,1/2+y,z
1/2-x,1/2+y,-z
1/2-x,1/2-y,-z
1/2+x,1/2-y,z
loop_
_atom_site_type_symbol
_atom_site_label
_atom_site_fract_x
_atom_site_fract_y
_atom_site_fract_z
Si Si1 0.958690 0.087547 0.784028
Si Si2 0.303710 0.831118 0.156990
Si Si3 0.673410 0.671613 0.004391
Si Si4 0.214230 0.411341 0.318973
O O1 0.000000 0.109597 0.500000
O O2 0.939182 0.000000 0.798637
O O3 0.892433 0.135667 0.830530
O O4 0.000000 0.108738 0.000000
O O5 0.342780 0.751838 0.115660
O O6 0.319519 0.872814 0.407564
O O7 0.224589 0.813887 0.197543
O O8 0.325821 0.884864 0.900968
O O9 0.708952 0.614897 0.772207
O O10 0.211055 0.500000 0.356979
#
# Coordination Sequence:
#
# PCOD8080838 Si02
#       4
#     8   8   8   8
#     4  10  22  34  47  70  98 133 169 194 223 277
#     4   9  20  30  49  71  93 130 160 200 246 289
#     4   9  20  33  50  66 100 130 162 201 242 277
#     4  10  18  29  46  72  98 124 153 190 246 296
#
# _framework density 17.042442999999999
#
# number of rings (size 3 to 8) (size 9 to 14) (size 15 to 20)
#    1.500    1.000    0.000    2.250    3.500    0.000 
#    0.000    0.000    0.000    0.000    0.000    0.000 
#    0.000   20.000    0.000    0.000    0.000    0.000 
#
# Total GULP energy -198281.699534 kJ/mol
# GULP energy per Si atom -12392.606221 kJ/mol
# Density = 1.700365 g / cm^3
# Si number density = 17.042443 Si / 1000 Ang^3
#
#
#
# Elastic Constant Matrix: (Units=GPa)
#
#
# Indices 1 2 3 4 5 6 
#
# 1 47.5605 19.0884 17.3440 0.0000 -8.6753 0.0000
# 2 19.0884 99.1877 31.8121 0.0000 -14.5763 0.0000
# 3 17.3440 31.8121 124.3181 0.0000 -6.1100 0.0000
# 4 0.0000 0.0000 0.0000 13.1890 0.0000 -6.5566
# 5 -8.6753 -14.5763 -6.1100 0.0000 10.8670 0.0000
# 6 0.0000 0.0000 0.0000 -6.5566 0.0000 25.9550
#
#
#
# Elastic Compliance Matrix: (Units=1/GPa)
#
#
# Indices 1 2 3 4 5 6 
#
# 1 0.025632 -0.001714 -0.002309 0.000000 0.016866 0.000000
# 2 -0.001714 0.013444 -0.002450 0.000000 0.015287 0.000000
# 3 -0.002309 -0.002450 0.008989 0.000000 -0.000075 0.000000
# 4 0.000000 0.000000 0.000000 0.086710 0.000000 0.021904
# 5 0.016866 0.015287 -0.000075 0.000000 0.125949 0.000000
# 6 0.000000 0.000000 0.000000 0.021904 0.000000 0.044061
#
#
# Mechanical properties :
#
#
# Convention : Reuss Voigt Hill
#
# Bulk Modulus (GPa) = 28.47320 45.28392 36.87856
# Shear Modulus (GPa) = 15.17741 23.52365 19.35053
#
# Velocity S-wave (km/s) = 2.98747 3.71927 3.37327
# Velocity P-wave (km/s) = 5.35196 6.71363 6.07109
#
# Compressibility (1/GPa) = 0.03512075
#
# Stress axis : x y z
#
# Youngs Moduli (GPa) = 39.01382 74.38258 111.24512
#
# Poissons Ratio (x) = 0.12748 0.25681
# Poissons Ratio (y) = 0.06687 0.27253
# Poissons Ratio (z) = 0.09006 0.18222
#
# Static dielectric constant tensor:
#      x y z
#    x 2.606720 0.000000 0.003540 
#    y 0.000000 3.137390 0.000000 
#    z 0.003540 0.000000 3.201570 
# 
# 
# High freq. dielectric constant tensor:
#      x y z
#    x 1.589560 0.000000 -0.000950 
#    y 0.000000 1.664600 0.000000 
#    z -0.000950 0.000000 1.667660 
# 
# From -- ./inp_files/14314.got.cif
#   From: 2010.06.25/outbox.cif.g09.slc.cpg/sg12_8_cif.got.tgz:14314.got - 2010.06.28 00:19:55.
