data_PCOD8080761
_publ_section_title
;
Structure prediction by ZEFSAII (Michael W. Deem and Ramdas Pophale) SiO2 
 PCOD8080761
Probable space group: C 2/M
;
_chemical_formula_sum "Si O2"
_cell_formula_units_Z 64
_cell_length_a 21.959333
_cell_length_b 19.176733
_cell_length_c 10.081807
_cell_angle_alpha 90.000000
_cell_angle_beta 83.498961
_cell_angle_gamma 90.000000
_cell_volume 4218.232652
_symmetry_space_group_name_H-M "C 2/M"
_symmetry_group_IT_number 12
_symmetry_cell_setting 'monoclinic'
loop_
_space_group_symop_operation_xyz
x,y,z
-x,y,-z
-x,-y,-z
x,-y,z
1/2+x,1/2+y,z
1/2-x,1/2+y,-z
1/2-x,1/2-y,-z
1/2+x,1/2-y,z
loop_
_atom_site_type_symbol
_atom_site_label
_atom_site_fract_x
_atom_site_fract_y
_atom_site_fract_z
Si Si1 0.572143 0.421751 0.979943
Si Si2 0.175661 0.288511 0.406070
Si Si3 0.070975 0.190309 0.473107
Si Si4 0.113314 0.920200 0.254766
Si Si5 0.709270 0.218215 0.701529
Si Si6 0.135841 0.843844 0.731834
Si Si7 0.749015 0.075494 0.701006
Si Si8 0.244999 0.421371 0.390457
O O1 0.597239 0.500000 0.950993
O O2 0.592845 0.373793 0.854724
O O3 0.500000 0.420919 0.000000
O O4 0.596707 0.392073 0.113061
O O5 0.106584 0.259044 0.406498
O O6 0.220229 0.243445 0.299280
O O7 0.193961 0.274937 0.551668
O O8 0.186492 0.371068 0.371175
O O9 0.078655 0.125726 0.371997
O O10 0.096268 0.166181 0.609095
O O11 0.000000 0.211251 0.500000
O O12 0.186136 0.915246 0.246099
O O13 0.090687 0.000000 0.279677
O O14 0.661348 0.269929 0.784039
O O15 0.704070 0.138687 0.757644
O O16 0.193675 0.894525 0.695224
O O17 0.759797 0.080823 0.541926
O O18 0.719818 0.000000 0.745650
O O19 0.229335 0.500000 0.346791
#
# Coordination Sequence:
#
# PCOD8080761 Si02
#       8
#     8   8   8   8   8   8   8   8
#     4  10  21  34  42  54  86 124 146 165 202 251
#     4   8  14  25  39  62  90 109 135 174 222 252
#     4  11  19  28  45  65  87 114 147 181 205 243
#     4  10  19  30  42  59  86 115 141 173 210 248
#     4   8  13  25  42  61  85 109 133 179 217 246
#     4  10  18  29  46  66  85 109 148 178 206 251
#     4   9  14  24  43  65  87 109 133 171 223 255
#     4   9  15  25  47  69  84 108 143 182 214 250
#
# _framework density 15.172231
#
# number of rings (size 3 to 8) (size 9 to 14) (size 15 to 20)
#    0.000    2.625    2.500    2.625    0.000    0.750 
#    0.000    0.625    0.000    0.375    0.000    0.000 
#    0.000    0.500    0.000    0.000    0.000    1.250 
#
# Total GULP energy -396476.386006 kJ/mol
# GULP energy per Si atom -12389.887063 kJ/mol
# Density = 1.513770 g / cm^3
# Si number density = 15.172231 Si / 1000 Ang^3
#
#
#
# Elastic Constant Matrix: (Units=GPa)
#
#
# Indices 1 2 3 4 5 6 
#
# 1 65.6407 48.8620 25.9649 0.0000 -6.6506 0.0000
# 2 48.8620 117.5969 34.5160 0.0000 -1.7016 0.0000
# 3 25.9649 34.5160 54.2495 0.0000 0.7578 0.0000
# 4 0.0000 0.0000 0.0000 -2.6025 0.0000 2.2376
# 5 -6.6506 -1.7016 0.7578 0.0000 13.6078 0.0000
# 6 0.0000 0.0000 0.0000 2.2376 0.0000 20.0694
#
#
#
# Elastic Compliance Matrix: (Units=1/GPa)
#
#
# Indices 1 2 3 4 5 6 
#
# 1 0.025400 -0.008321 -0.007027 0.000000 0.011765 0.000000
# 2 -0.008321 0.013221 -0.004399 0.000000 -0.002169 0.000000
# 3 -0.007027 -0.004399 0.024670 0.000000 -0.005358 0.000000
# 4 0.000000 0.000000 0.000000 -0.350640 0.000000 0.039094
# 5 0.011765 -0.002169 -0.005358 0.000000 0.079264 0.000000
# 6 0.000000 0.000000 0.000000 0.039094 0.000000 0.045468
#
#
# Mechanical properties :
#
#
# Convention : Reuss Voigt Hill
#
# Bulk Modulus (GPa) = 42.02162 50.68588 46.35375
# Shear Modulus (GPa) = -43.40651 14.75791 -14.32430
#
# Velocity S-wave (km/s) = -5.35456 3.12218 -3.07598
# Velocity P-wave (km/s) = 3.23602 6.81740 4.24294
#
# Compressibility (1/GPa) = 0.02379728
#
# Stress axis : x y z
#
# Youngs Moduli (GPa) = 39.36979 75.63848 40.53480
#
# Poissons Ratio (x) = 0.62940 0.28484
# Poissons Ratio (y) = 0.32760 0.17830
# Poissons Ratio (z) = 0.27665 0.33271
#
# Static dielectric constant tensor:
#      x y z
#    x 2.819810 0.000000 0.046390 
#    y 0.000000 3.340990 0.000000 
#    z 0.046390 0.000000 2.623710 
# 
# 
# High freq. dielectric constant tensor:
#      x y z
#    x 1.556410 0.000000 0.005250 
#    y 0.000000 1.587680 0.000000 
#    z 0.005250 0.000000 1.548360 
# 
# From -- ./inp_files/89166.got.cif
#   From: 2010.06.25/outbox.cif.g09.slc.cpg/sg12_45_cif.got.tgz:89166.got - 2010.06.28 00:19:55.
