data_PCOD8080805
_publ_section_title
;
Structure prediction by ZEFSAII (Michael W. Deem and Ramdas Pophale) SiO2 
 PCOD8080805
Probable space group: C 2/M
;
_chemical_formula_sum "Si O2"
_cell_formula_units_Z 64
_cell_length_a 23.567224
_cell_length_b 9.276785
_cell_length_c 17.053092
_cell_angle_alpha 90.000000
_cell_angle_beta 93.583158
_cell_angle_gamma 90.000000
_cell_volume 3720.996328
_symmetry_space_group_name_H-M "C 2/M"
_symmetry_group_IT_number 12
_symmetry_cell_setting 'monoclinic'
loop_
_space_group_symop_operation_xyz
x,y,z
-x,y,-z
-x,-y,-z
x,-y,z
1/2+x,1/2+y,z
1/2-x,1/2+y,-z
1/2-x,1/2-y,-z
1/2+x,1/2-y,z
loop_
_atom_site_type_symbol
_atom_site_label
_atom_site_fract_x
_atom_site_fract_y
_atom_site_fract_z
Si Si1 0.437552 0.669634 0.463437
Si Si2 0.261019 0.671356 0.920380
Si Si3 0.068722 0.668039 0.698371
Si Si4 0.873005 0.670014 0.589463
Si Si5 0.635975 0.658587 0.171766
Si Si6 0.689368 0.169355 0.769807
Si Si7 0.947007 0.334737 0.745155
Si Si8 0.714812 0.338828 0.329855
O O1 0.500000 0.705742 0.500000
O O2 0.424902 0.500000 0.463630
O O3 0.432007 0.729035 0.375883
O O4 0.391413 0.751596 0.511807
O O5 0.256527 0.500000 0.931287
O O6 0.324129 0.715641 0.895464
O O7 0.214039 0.729894 0.853898
O O8 0.250000 0.750000 0.000000
O O9 0.069644 0.500000 0.672068
O O10 0.123318 0.709069 0.755541
O O11 0.013839 0.700332 0.747102
O O12 0.868997 0.500000 0.574329
O O13 0.918793 0.710961 0.660210
O O14 0.810847 0.730471 0.607680
O O15 0.613334 0.500000 0.148999
O O16 0.580380 0.755066 0.182393
O O17 0.673428 0.654101 0.252551
O O18 0.724938 0.224932 0.696611
O O19 0.700322 0.000000 0.772106
O O20 0.934579 0.500000 0.759840
O O21 0.721238 0.500000 0.366715
#
# Coordination Sequence:
#
# PCOD8080805 Si02
#       8
#     8   8   8   8   8   8   8   8
#     4  11  22  33  46  67  95 127 164 204 243 287
#     4   9  17  31  52  79 102 125 156 192 234 281
#     4  10  19  33  51  70  95 128 161 200 245 288
#     4  10  18  29  46  69  94 121 157 205 250 284
#     4   8  15  27  45  68  96 124 154 190 231 278
#     4   8  16  32  53  73  97 128 161 193 236 291
#     4   9  17  27  44  70  95 119 156 200 240 278
#     4   8  14  28  48  68  90 121 158 197 238 284
#
# _framework density 17.199694999999998
#
# number of rings (size 3 to 8) (size 9 to 14) (size 15 to 20)
#    0.000    2.875    1.250    2.250    0.000    2.000 
#    0.000    3.750    0.000    0.750    0.000    5.250 
#    0.000    0.000    0.000    0.000    0.000    0.000 
#
# Total GULP energy -396643.064180 kJ/mol
# GULP energy per Si atom -12395.095756 kJ/mol
# Density = 1.716055 g / cm^3
# Si number density = 17.199695 Si / 1000 Ang^3
#
#
#
# Elastic Constant Matrix: (Units=GPa)
#
#
# Indices 1 2 3 4 5 6 
#
# 1 118.8369 42.6363 52.7891 0.0000 -18.1637 0.0000
# 2 42.6363 63.0975 44.1594 0.0000 -14.1216 0.0000
# 3 52.7891 44.1594 84.9690 0.0000 -20.8063 0.0000
# 4 0.0000 0.0000 0.0000 27.5822 0.0000 -9.7784
# 5 -18.1637 -14.1216 -20.8063 0.0000 26.9913 0.0000
# 6 0.0000 0.0000 0.0000 -9.7784 0.0000 21.3231
#
#
#
# Elastic Compliance Matrix: (Units=1/GPa)
#
#
# Indices 1 2 3 4 5 6 
#
# 1 0.012571 -0.004569 -0.004868 0.000000 0.002316 0.000000
# 2 -0.004569 0.026883 -0.010406 0.000000 0.002969 0.000000
# 3 -0.004868 -0.010406 0.022270 0.000000 0.008446 0.000000
# 4 0.000000 0.000000 0.000000 0.043294 0.000000 0.019854
# 5 0.002316 0.002969 0.008446 0.000000 0.046672 0.000000
# 6 0.000000 0.000000 0.000000 0.019854 0.000000 0.056002
#
#
# Mechanical properties :
#
#
# Convention : Reuss Voigt Hill
#
# Bulk Modulus (GPa) = 45.37692 60.67477 53.02584
# Shear Modulus (GPa) = 19.62920 23.66724 21.64822
#
# Velocity S-wave (km/s) = 3.38191 3.71351 3.55158
# Velocity P-wave (km/s) = 6.45673 7.33076 6.90759
#
# Compressibility (1/GPa) = 0.02203763
#
# Stress axis : x y z
#
# Youngs Moduli (GPa) = 79.55047 37.19855 44.90400
#
# Poissons Ratio (x) = 0.16995 0.21860
# Poissons Ratio (y) = 0.36345 0.46726
# Poissons Ratio (z) = 0.38726 0.38708
#
# Static dielectric constant tensor:
#      x y z
#    x 3.544710 0.000000 -0.203100 
#    y 0.000000 3.168310 0.000000 
#    z -0.203100 0.000000 2.981330 
# 
# 
# High freq. dielectric constant tensor:
#      x y z
#    x 1.663620 0.000000 -0.025620 
#    y 0.000000 1.652300 0.000000 
#    z -0.025620 0.000000 1.632180 
# 
# From -- ./inp_files/238649.got.cif
#   From: 2010.06.25/outbox.cif.g09.slc.cpg/sg12_120_cif.got.tgz:238649.got - 2010.06.28 00:19:55.
