data_PCOD8080762
_publ_section_title
;
Structure prediction by ZEFSAII (Michael W. Deem and Ramdas Pophale) SiO2 
 PCOD8080762
Probable space group: C 2/M
;
_chemical_formula_sum "Si O2"
_cell_formula_units_Z 64
_cell_length_a 27.624908
_cell_length_b 8.680548
_cell_length_c 24.228714
_cell_angle_alpha 90.000000
_cell_angle_beta 43.585501
_cell_angle_gamma 90.000000
_cell_volume 4005.645130
_symmetry_space_group_name_H-M "C 2/M"
_symmetry_group_IT_number 12
_symmetry_cell_setting 'monoclinic'
loop_
_space_group_symop_operation_xyz
x,y,z
-x,y,-z
-x,-y,-z
x,-y,z
1/2+x,1/2+y,z
1/2-x,1/2+y,-z
1/2-x,1/2-y,-z
1/2+x,1/2-y,z
loop_
_atom_site_type_symbol
_atom_site_label
_atom_site_fract_x
_atom_site_fract_y
_atom_site_fract_z
Si Si1 0.933956 0.681934 0.022342
Si Si2 0.562334 0.329564 0.492336
Si Si3 0.751946 0.819911 0.084434
Si Si4 0.719970 0.180744 0.824654
Si Si5 0.608539 0.679525 0.172024
Si Si6 0.946617 0.180385 0.665282
Si Si7 0.660181 0.178771 0.331646
Si Si8 0.395126 0.181306 0.934589
O O1 0.942471 0.500000 0.013844
O O2 0.862072 0.726361 0.113800
O O3 0.931714 0.741839 0.960904
O O4 0.000000 0.757389 0.000000
O O5 0.500000 0.331761 0.500000
O O6 0.594823 0.500000 0.472146
O O7 0.525798 0.274142 0.579919
O O8 0.624153 0.218048 0.420313
O O9 0.745580 0.773296 0.153472
O O10 0.679198 0.778667 0.115616
O O11 0.767980 0.000000 0.064841
O O12 0.812941 0.722320 0.005025
O O13 0.765150 0.231313 0.733961
O O14 0.727661 0.000000 0.830035
O O15 0.627205 0.500000 0.155118
O O16 0.558934 0.718242 0.265226
O O17 0.570188 0.732452 0.146905
O O18 0.889044 0.274940 0.678868
O O19 0.932884 0.000000 0.664293
O O20 0.676055 0.000000 0.316405
O O21 0.404869 0.000000 0.919779
#
# Coordination Sequence:
#
# PCOD8080762 Si02
#       8
#     8   8   8   8   8   8   8   8
#     4   8  16  32  52  69  84 107 142 183 224 264
#     4   8  15  28  42  56  78 113 152 185 217 254
#     4  11  20  30  43  61  86 115 149 184 217 253
#     4  10  18  29  46  66  88 115 146 181 221 264
#     4  11  20  30  44  61  87 119 151 182 212 253
#     4   9  18  30  43  57  81 119 155 184 217 253
#     4  11  19  26  40  62  88 116 148 185 216 254
#     4  10  20  32  46  64  86 112 143 180 220 261
#
# _framework density 15.977449999999999
#
# number of rings (size 3 to 8) (size 9 to 14) (size 15 to 20)
#    0.000    2.250    1.250    5.250    0.000    2.750 
#    0.000    0.000    0.000   13.500    0.000    0.000 
#    0.000    1.000    0.000    2.000    0.000    2.750 
#
# Total GULP energy -396633.326980 kJ/mol
# GULP energy per Si atom -12394.791468 kJ/mol
# Density = 1.594108 g / cm^3
# Si number density = 15.977450 Si / 1000 Ang^3
#
#
#
# Elastic Constant Matrix: (Units=GPa)
#
#
# Indices 1 2 3 4 5 6 
#
# 1 65.7597 16.9599 50.3519 -0.0062 0.9601 0.0182
# 2 16.9599 55.0926 26.0030 0.0021 -0.2397 0.0372
# 3 50.3519 26.0030 125.9850 0.0058 9.2972 0.0003
# 4 -0.0062 0.0021 0.0058 20.7586 -0.0052 5.2123
# 5 0.9601 -0.2397 9.2972 -0.0052 15.3957 0.0026
# 6 0.0182 0.0372 0.0003 5.2123 0.0026 10.6126
#
#
#
# Elastic Compliance Matrix: (Units=1/GPa)
#
#
# Indices 1 2 3 4 5 6 
#
# 1 0.022548 -0.002812 -0.008712 0.000020 0.003811 -0.000040
# 2 -0.002812 0.020590 -0.003310 0.000018 0.002495 -0.000077
# 3 -0.008712 -0.003310 0.012629 -0.000017 -0.007135 0.000036
# 4 0.000020 0.000018 -0.000017 0.054949 0.000032 -0.026988
# 5 0.003811 0.002495 -0.007135 0.000032 0.069063 -0.000048
# 6 -0.000040 -0.000077 0.000036 -0.026988 -0.000048 0.107483
#
#
# Mechanical properties :
#
#
# Convention : Reuss Voigt Hill
#
# Bulk Modulus (GPa) = 38.31749 48.16300 43.24025
# Shear Modulus (GPa) = 15.35486 19.58821 17.47154
#
# Velocity S-wave (km/s) = 3.10342 3.50521 3.31042
# Velocity P-wave (km/s) = 6.07255 6.82582 6.46017
#
# Compressibility (1/GPa) = 0.02609774
#
# Stress axis : x y z
#
# Youngs Moduli (GPa) = 44.35072 48.56690 79.18211
#
# Poissons Ratio (x) = 0.13659 0.68986
# Poissons Ratio (y) = 0.12473 0.26208
# Poissons Ratio (z) = 0.38640 0.16075
#
# Static dielectric constant tensor:
#      x y z
#    x 2.807730 -0.000030 0.122510 
#    y -0.000030 2.938300 0.000020 
#    z 0.122510 0.000020 3.493150 
# 
# 
# High freq. dielectric constant tensor:
#      x y z
#    x 1.548470 0.000000 0.009760 
#    y 0.000000 1.612180 0.000000 
#    z 0.009760 0.000000 1.625100 
# 
# From -- ./inp_files/350914.got.cif
#   From: 2010.06.25/outbox.cif.g09.slc.cpg/sg12_176_cif.got.tgz:350914.got - 2010.06.28 00:19:55.
