data_PCOD8080564
_publ_section_title
;
Structure prediction by ZEFSAII (Michael W. Deem and Ramdas Pophale) SiO2 
 PCOD8080564
Probable space group: C 2/M
;
_chemical_formula_sum "Si O2"
_cell_formula_units_Z 64
_cell_length_a 24.127786
_cell_length_b 9.065100
_cell_length_c 28.244300
_cell_angle_alpha 90.000000
_cell_angle_beta 35.990250
_cell_angle_gamma 90.000000
_cell_volume 3630.260871
_symmetry_space_group_name_H-M "C 2/M"
_symmetry_group_IT_number 12
_symmetry_cell_setting 'monoclinic'
loop_
_space_group_symop_operation_xyz
x,y,z
-x,y,-z
-x,-y,-z
x,-y,z
1/2+x,1/2+y,z
1/2-x,1/2+y,-z
1/2-x,1/2-y,-z
1/2+x,1/2-y,z
loop_
_atom_site_type_symbol
_atom_site_label
_atom_site_fract_x
_atom_site_fract_y
_atom_site_fract_z
Si Si1 0.618305 0.828857 0.846583
Si Si2 0.108169 0.171910 0.595245
Si Si3 0.543565 0.171949 0.159978
Si Si4 0.584178 0.330088 0.225751
Si Si5 0.211060 0.331360 0.880600
Si Si6 0.266976 0.828120 0.560572
Si Si7 0.570936 0.674765 0.044414
Si Si8 0.327606 0.168850 0.293546
O O1 0.683797 0.792242 0.845727
O O2 0.523635 0.733246 0.915394
O O3 0.677022 0.789058 0.758743
O O4 0.587105 0.000000 0.866064
O O5 0.177516 0.214548 0.590189
O O6 0.138859 0.256855 0.526529
O O7 0.003450 0.223660 0.681757
O O8 0.112853 0.000000 0.580558
O O9 0.593566 0.233409 0.172105
O O10 0.586089 0.256182 0.085602
O O11 0.432243 0.201690 0.240488
O O12 0.566630 0.000000 0.138342
O O13 0.568928 0.500000 0.221178
O O14 0.677301 0.307862 0.192503
O O15 0.182703 0.500000 0.912363
O O16 0.159494 0.220841 0.951571
O O17 0.247890 0.767167 0.626323
O O18 0.284119 0.000000 0.552343
O O19 0.565956 0.500000 0.052228
O O20 0.299925 0.000000 0.321170
#
# Coordination Sequence:
#
# PCOD8080564 Si02
#       8
#     8   8   8   8   8   8   8   8
#     4   9  19  36  56  78 102 133 172 215 260 305
#     4   9  18  31  47  72 106 135 164 203 247 300
#     4  10  20  34  53  76 104 138 171 208 259 310
#     4  10  20  35  54  76 104 138 172 211 255 304
#     4  10  21  37  56  75 101 137 175 212 257 309
#     4  10  18  28  48  76 104 132 165 204 250 299
#     4  11  22  35  54  78 104 132 170 219 262 302
#     4   9  17  30  50  75 102 130 164 208 256 300
#
# _framework density 17.629587999999998
#
# number of rings (size 3 to 8) (size 9 to 14) (size 15 to 20)
#    0.000    2.250    1.250    3.000    0.000    6.000 
#    0.000    0.000    0.000    0.750    0.000    5.250 
#    0.000    0.000    0.000    0.000    0.000    0.000 
#
# Total GULP energy -396898.629972 kJ/mol
# GULP energy per Si atom -12403.082187 kJ/mol
# Density = 1.758946 g / cm^3
# Si number density = 17.629588 Si / 1000 Ang^3
#
#
#
# Elastic Constant Matrix: (Units=GPa)
#
#
# Indices 1 2 3 4 5 6 
#
# 1 78.4958 37.6901 60.5563 -0.0007 1.2231 -0.0226
# 2 37.6901 85.1666 56.1561 -0.0142 7.6993 0.0128
# 3 60.5563 56.1561 120.7467 0.0051 14.8846 0.0008
# 4 -0.0007 -0.0142 0.0051 27.7141 -0.0006 6.0599
# 5 1.2231 7.6993 14.8846 -0.0006 21.5336 -0.0064
# 6 -0.0226 0.0128 0.0008 6.0599 -0.0064 21.1750
#
#
#
# Elastic Compliance Matrix: (Units=1/GPa)
#
#
# Indices 1 2 3 4 5 6 
#
# 1 0.022457 -0.003719 -0.010428 -0.000006 0.007262 0.000031
# 2 -0.003719 0.017559 -0.006071 0.000014 -0.001871 -0.000019
# 3 -0.010428 -0.006071 0.017484 -0.000005 -0.009323 -0.000010
# 4 -0.000006 0.000014 -0.000005 0.038491 -0.000004 -0.011015
# 5 0.007262 -0.001871 -0.009323 -0.000004 0.053140 0.000026
# 6 0.000031 -0.000019 -0.000010 -0.011015 0.000026 0.050378
#
#
# Mechanical properties :
#
#
# Convention : Reuss Voigt Hill
#
# Bulk Modulus (GPa) = 58.59911 65.91269 62.25590
# Shear Modulus (GPa) = 20.35553 22.75164 21.55359
#
# Velocity S-wave (km/s) = 3.40166 3.59630 3.50033
# Velocity P-wave (km/s) = 6.98138 7.39684 7.19211
#
# Compressibility (1/GPa) = 0.01706511
#
# Stress axis : x y z
#
# Youngs Moduli (GPa) = 44.52977 56.94946 57.19416
#
# Poissons Ratio (x) = 0.21178 0.59643
# Poissons Ratio (y) = 0.16559 0.34722
# Poissons Ratio (z) = 0.46437 0.34573
#
# Static dielectric constant tensor:
#      x y z
#    x 3.169560 -0.000010 0.155510 
#    y -0.000010 3.225770 0.000040 
#    z 0.155510 0.000040 3.247960 
# 
# 
# High freq. dielectric constant tensor:
#      x y z
#    x 1.660860 0.000000 0.017990 
#    y 0.000000 1.681970 0.000000 
#    z 0.017990 0.000000 1.677960 
# 
# From -- ./inp_files/382380.got.cif
#   From: 2010.06.25/outbox.cif.g09.slc.cpg/sg12_192_cif.got.tgz:382380.got - 2010.06.28 00:19:55.
