data_PCOD8080279
_publ_section_title
;
Structure prediction by ZEFSAII (Michael W. Deem and Ramdas Pophale) SiO2 
 PCOD8080279
Probable space group: C 2/M
;
_chemical_formula_sum "Si O2"
_cell_formula_units_Z 56
_cell_length_a 27.312974
_cell_length_b 8.820209
_cell_length_c 16.179481
_cell_angle_alpha 90.000000
_cell_angle_beta 114.492222
_cell_angle_gamma 90.000000
_cell_volume 3547.008469
_symmetry_space_group_name_H-M "C 2/M"
_symmetry_group_IT_number 12
_symmetry_cell_setting 'monoclinic'
loop_
_space_group_symop_operation_xyz
x,y,z
-x,y,-z
-x,-y,-z
x,-y,z
1/2+x,1/2+y,z
1/2-x,1/2+y,-z
1/2-x,1/2-y,-z
1/2+x,1/2-y,z
loop_
_atom_site_type_symbol
_atom_site_label
_atom_site_fract_x
_atom_site_fract_y
_atom_site_fract_z
Si Si1 0.234159 0.323297 0.360414
Si Si2 0.148915 0.321966 0.810876
Si Si3 0.760195 0.179136 0.811869
Si Si4 0.331376 0.677001 0.545477
Si Si5 0.566320 0.820515 0.458864
Si Si6 0.946509 0.679520 0.363529
Si Si7 0.300655 0.177807 0.991354
O O1 0.227609 0.500000 0.337698
O O2 0.228596 0.232421 0.272211
O O3 0.291621 0.284886 0.441709
O O4 0.186388 0.269780 0.386547
O O5 0.148280 0.500000 0.794103
O O6 0.202185 0.257997 0.802157
O O7 0.095215 0.249723 0.732456
O O8 0.149708 0.288534 0.910509
O O9 0.806823 0.245913 0.905457
O O10 0.763355 0.000000 0.818465
O O11 0.330079 0.500000 0.565880
O O12 0.391039 0.728700 0.564790
O O13 0.572114 0.770204 0.558309
O O14 0.507272 0.767905 0.386040
O O15 0.575563 0.000000 0.454687
O O16 0.946534 0.500000 0.360705
O O17 0.291960 0.000000 0.974070
O O18 0.250000 0.250000 0.000000
#
# Coordination Sequence:
#
# PCOD8080279 Si02
#       7
#     8   8   8   8   8   8   8
#     4  10  20  32  46  64  85 113 148 179 210 255
#     4   8  14  24  40  62  88 117 147 178 210 248
#     4  10  18  28  44  65  89 116 144 179 221 261
#     4  10  20  32  45  63  89 116 142 177 217 255
#     4   9  16  27  45  65  87 116 148 181 212 248
#     4   8  14  25  42  65  88 114 150 182 209 245
#     4   9  16  26  40  60  87 118 149 181 217 257
#
# _framework density 15.787951
#
# number of rings (size 3 to 8) (size 9 to 14) (size 15 to 20)
#    0.000    2.857    0.000    4.286    0.000    2.857 
#    0.000    1.429    0.000    6.000    0.000    1.000 
#    0.000    8.000    0.000    0.000    0.000    0.000 
#
# Total GULP energy -347016.331253 kJ/mol
# GULP energy per Si atom -12393.440402 kJ/mol
# Density = 1.575202 g / cm^3
# Si number density = 15.787951 Si / 1000 Ang^3
#
#
#
# Elastic Constant Matrix: (Units=GPa)
#
#
# Indices 1 2 3 4 5 6 
#
# 1 82.5690 19.4624 47.0160 0.0000 5.5815 0.0000
# 2 19.4624 50.9361 35.0945 0.0000 0.0994 0.0000
# 3 47.0160 35.0945 133.0093 0.0000 8.6162 0.0000
# 4 0.0000 0.0000 0.0000 22.3814 0.0000 -4.5425
# 5 5.5815 0.0994 8.6162 0.0000 20.8482 0.0000
# 6 0.0000 0.0000 0.0000 -4.5425 0.0000 21.2298
#
#
#
# Elastic Compliance Matrix: (Units=1/GPa)
#
#
# Indices 1 2 3 4 5 6 
#
# 1 0.015543 -0.002749 -0.004624 0.000000 -0.002237 0.000000
# 2 -0.002749 0.024615 -0.005716 0.000000 0.002981 0.000000
# 3 -0.004624 -0.005716 0.010870 0.000000 -0.003227 0.000000
# 4 0.000000 0.000000 0.000000 0.046708 0.000000 0.009994
# 5 -0.002237 0.002981 -0.003227 0.000000 0.049884 0.000000
# 6 0.000000 0.000000 0.000000 0.009994 0.000000 0.049242
#
#
# Mechanical properties :
#
#
# Convention : Reuss Voigt Hill
#
# Bulk Modulus (GPa) = 40.24043 52.18447 46.21245
# Shear Modulus (GPa) = 21.61463 23.88797 22.75130
#
# Velocity S-wave (km/s) = 3.70409 3.89402 3.80024
# Velocity P-wave (km/s) = 6.62096 7.30362 6.97065
#
# Compressibility (1/GPa) = 0.02485063
#
# Stress axis : x y z
#
# Youngs Moduli (GPa) = 64.33679 40.62511 91.99581
#
# Poissons Ratio (x) = 0.11167 0.42539
# Poissons Ratio (y) = 0.17684 0.52587
# Poissons Ratio (z) = 0.29750 0.23222
#
# Static dielectric constant tensor:
#      x y z
#    x 2.898680 0.000000 0.250790 
#    y 0.000000 2.901040 0.000000 
#    z 0.250790 0.000000 3.509460 
# 
# 
# High freq. dielectric constant tensor:
#      x y z
#    x 1.573190 0.000000 0.003050 
#    y 0.000000 1.595380 0.000000 
#    z 0.003050 0.000000 1.610000 
# 
# From -- ./inp_files/243283.got.cif
#   From: 2010.06.25/outbox.cif.g09.slc.cpg/sg12_122_cif.got.tgz:243283.got - 2010.06.28 00:19:55.
