data_PCOD8080069
_publ_section_title
;
Structure prediction by ZEFSAII (Michael W. Deem and Ramdas Pophale) SiO2 
 PCOD8080069
Probable space group: C 2/M
;
_chemical_formula_sum "Si O2"
_cell_formula_units_Z 48
_cell_length_a 24.359196
_cell_length_b 8.969039
_cell_length_c 14.154729
_cell_angle_alpha 90.000000
_cell_angle_beta 69.417971
_cell_angle_gamma 90.000000
_cell_volume 2895.110002
_symmetry_space_group_name_H-M "C 2/M"
_symmetry_group_IT_number 12
_symmetry_cell_setting 'monoclinic'
loop_
_space_group_symop_operation_xyz
x,y,z
-x,y,-z
-x,-y,-z
x,-y,z
1/2+x,1/2+y,z
1/2-x,1/2+y,-z
1/2-x,1/2-y,-z
1/2+x,1/2-y,z
loop_
_atom_site_type_symbol
_atom_site_label
_atom_site_fract_x
_atom_site_fract_y
_atom_site_fract_z
Si Si1 0.830828 0.329450 0.494564
Si Si2 0.978148 0.824484 0.228417
Si Si3 0.285928 0.672044 0.340252
Si Si4 0.123986 0.324038 0.827997
Si Si5 0.036234 0.672516 0.568839
Si Si6 0.052606 0.664986 0.041979
O O1 0.823318 0.500000 0.463452
O O2 0.783560 0.296501 0.606137
O O3 0.819913 0.220061 0.414209
O O4 0.895344 0.300630 0.496266
O O5 0.037168 0.777979 0.135648
O O6 0.921074 0.748454 0.218558
O O7 0.985362 0.772258 0.331302
O O8 0.970653 0.000000 0.227648
O O9 0.299266 0.500000 0.313611
O O10 0.310961 0.764629 0.235847
O O11 0.119905 0.500000 0.815927
O O12 0.108948 0.281333 0.946147
O O13 0.024015 0.500000 0.600566
O O14 0.000000 0.725132 0.500000
O O15 0.063367 0.500000 0.078460
O O16 0.000000 0.657629 0.000000
#
# Coordination Sequence:
#
# PCOD8080069 Si02
#       6
#     8   8   8   8   8   8
#     4   9  18  31  45  64  92 123 155 189 227 277
#     4  11  20  29  44  67  94 121 151 192 236 272
#     4  10  18  27  44  69  94 122 151 185 233 277
#     4  10  18  29  45  66  93 125 155 184 225 278
#     4  10  20  34  51  67  88 125 165 194 224 268
#     4   8  16  29  44  62  88 122 154 183 223 278
#
# _framework density 16.579681999999998
#
# number of rings (size 3 to 8) (size 9 to 14) (size 15 to 20)
#    0.000    2.333    1.667    3.500    0.000    4.667 
#    0.000    0.000    0.000    0.000    0.000    1.167 
#    0.000    0.000    0.000    0.000    0.000    0.000 
#
# Total GULP energy -297525.118701 kJ/mol
# GULP energy per Si atom -12396.879946 kJ/mol
# Density = 1.654195 g / cm^3
# Si number density = 16.579682 Si / 1000 Ang^3
#
#
#
# Elastic Constant Matrix: (Units=GPa)
#
#
# Indices 1 2 3 4 5 6 
#
# 1 68.1919 29.8963 49.6336 0.0000 -11.4386 0.0000
# 2 29.8963 93.8871 61.3029 0.0000 -11.2625 0.0000
# 3 49.6336 61.3029 127.3773 0.0000 -29.3072 0.0000
# 4 0.0000 0.0000 0.0000 23.6369 0.0000 -8.3790
# 5 -11.4386 -11.2625 -29.3072 0.0000 26.2749 0.0000
# 6 0.0000 0.0000 0.0000 -8.3790 0.0000 15.1045
#
#
#
# Elastic Compliance Matrix: (Units=1/GPa)
#
#
# Indices 1 2 3 4 5 6 
#
# 1 0.020710 -0.001946 -0.007063 0.000000 0.000303 0.000000
# 2 -0.001946 0.015815 -0.007383 0.000000 -0.002303 0.000000
# 3 -0.007063 -0.007383 0.017112 0.000000 0.012847 0.000000
# 4 0.000000 0.000000 0.000000 0.052663 0.000000 0.029214
# 5 0.000303 -0.002303 0.012847 0.000000 0.051534 0.000000
# 6 0.000000 0.000000 0.000000 0.029214 0.000000 0.082411
#
#
# Mechanical properties :
#
#
# Convention : Reuss Voigt Hill
#
# Bulk Modulus (GPa) = 47.95706 63.45800 55.70753
# Shear Modulus (GPa) = 17.85841 22.91149 20.38495
#
# Velocity S-wave (km/s) = 3.28552 3.72143 3.51025
# Velocity P-wave (km/s) = 6.58641 7.53810 7.07827
#
# Compressibility (1/GPa) = 0.02085199
#
# Stress axis : x y z
#
# Youngs Moduli (GPa) = 48.28670 63.23050 58.43840
#
# Poissons Ratio (x) = 0.12306 0.41277
# Poissons Ratio (y) = 0.09398 0.43144
# Poissons Ratio (z) = 0.34106 0.46682
#
# Static dielectric constant tensor:
#      x y z
#    x 2.877400 0.000000 -0.494100 
#    y 0.000000 3.154160 0.000000 
#    z -0.494100 0.000000 3.473440 
# 
# 
# High freq. dielectric constant tensor:
#      x y z
#    x 1.586770 0.000000 -0.039530 
#    y 0.000000 1.643710 0.000000 
#    z -0.039530 0.000000 1.640770 
# 
# From -- ./inp_files/242613.got.cif
#   From: 2010.06.25/outbox.cif.g09.slc.cpg/sg12_122_cif.got.tgz:242613.got - 2010.06.28 00:19:55.
