data_PCOD8080675
_publ_section_title
;
Structure prediction by ZEFSAII (Michael W. Deem and Ramdas Pophale) SiO2 
 PCOD8080675
Probable space group: C 2/M
;
_chemical_formula_sum "Si O2"
_cell_formula_units_Z 56
_cell_length_a 28.923523
_cell_length_b 8.619434
_cell_length_c 13.906470
_cell_angle_alpha 90.000000
_cell_angle_beta 75.876323
_cell_angle_gamma 90.000000
_cell_volume 3362.142775
_symmetry_space_group_name_H-M "C 2/M"
_symmetry_group_IT_number 12
_symmetry_cell_setting 'monoclinic'
loop_
_space_group_symop_operation_xyz
x,y,z
-x,y,-z
-x,-y,-z
x,-y,z
1/2+x,1/2+y,z
1/2-x,1/2+y,-z
1/2-x,1/2-y,-z
1/2+x,1/2-y,z
loop_
_atom_site_type_symbol
_atom_site_label
_atom_site_fract_x
_atom_site_fract_y
_atom_site_fract_z
Si Si1 0.310126 0.321017 0.584283
Si Si2 0.714406 0.822817 0.732792
Si Si3 0.351213 0.821943 0.749318
Si Si4 0.266032 0.317421 0.891616
Si Si5 0.949286 0.318465 0.623353
Si Si6 0.951028 0.816601 0.414485
Si Si7 0.358713 0.814930 0.378017
O O1 0.326452 0.500000 0.586591
O O2 0.253641 0.304256 0.628941
O O3 0.336718 0.216676 0.648520
O O4 0.323581 0.256583 0.474328
O O5 0.732659 0.743321 0.823186
O O6 0.664252 0.762382 0.713630
O O7 0.707590 0.000000 0.764308
O O8 0.321456 0.722185 0.841716
O O9 0.408112 0.787029 0.723769
O O10 0.340409 0.000000 0.777846
O O11 0.261213 0.500000 0.897792
O O12 0.250000 0.250000 0.000000
O O13 0.953052 0.500000 0.596891
O O14 0.937380 0.230420 0.529920
O O15 0.998643 0.257121 0.642447
O O16 0.911556 0.754050 0.360174
O O17 0.954441 0.000000 0.405335
O O18 0.359846 0.000000 0.387538
#
# Coordination Sequence:
#
# PCOD8080675 Si02
#       7
#     8   8   8   8   8   8   8
#     4  10  18  29  44  66  96 128 163 200 238 280
#     4   8  18  32  47  67  93 126 161 198 237 287
#     4  10  19  31  50  73  97 128 163 199 241 289
#     4  10  20  36  55  76 100 124 157 200 246 293
#     4  10  19  32  48  67  94 128 168 204 239 285
#     4  11  21  30  44  66  96 131 168 205 242 279
#     4  11  19  30  45  64  94 132 168 198 235 280
#
# _framework density 16.656044999999999
#
# number of rings (size 3 to 8) (size 9 to 14) (size 15 to 20)
#    0.000    2.000    1.429    5.571    0.000    1.714 
#    0.000    7.857    0.000    0.000    0.000    1.000 
#    0.000    8.000    0.000    0.000    0.000    0.000 
#
# Total GULP energy -347013.943912 kJ/mol
# GULP energy per Si atom -12393.355140 kJ/mol
# Density = 1.661813 g / cm^3
# Si number density = 16.656045 Si / 1000 Ang^3
#
#
#
# Elastic Constant Matrix: (Units=GPa)
#
#
# Indices 1 2 3 4 5 6 
#
# 1 124.6836 35.1523 58.4007 0.0000 -2.9757 0.0000
# 2 35.1523 56.6025 27.1370 0.0000 -2.5241 0.0000
# 3 58.4007 27.1370 88.7213 0.0000 -4.2483 0.0000
# 4 0.0000 0.0000 0.0000 20.2154 0.0000 -5.2660
# 5 -2.9757 -2.5241 -4.2483 0.0000 15.4693 0.0000
# 6 0.0000 0.0000 0.0000 -5.2660 0.0000 22.8851
#
#
#
# Elastic Compliance Matrix: (Units=1/GPa)
#
#
# Indices 1 2 3 4 5 6 
#
# 1 0.012492 -0.004477 -0.006864 0.000000 -0.000212 0.000000
# 2 -0.004477 0.022350 -0.003806 0.000000 0.001740 0.000000
# 3 -0.006864 -0.003806 0.017085 0.000000 0.002751 0.000000
# 4 0.000000 0.000000 0.000000 0.052621 0.000000 0.012109
# 5 -0.000212 0.001740 0.002751 0.000000 0.065643 0.000000
# 6 0.000000 0.000000 0.000000 0.012109 0.000000 0.046483
#
#
# Mechanical properties :
#
#
# Convention : Reuss Voigt Hill
#
# Bulk Modulus (GPa) = 46.22360 56.82083 51.52222
# Shear Modulus (GPa) = 19.67119 21.66846 20.66982
#
# Velocity S-wave (km/s) = 3.44033 3.61076 3.52658
# Velocity P-wave (km/s) = 6.60252 7.18135 6.89801
#
# Compressibility (1/GPa) = 0.02163397
#
# Stress axis : x y z
#
# Youngs Moduli (GPa) = 80.04835 44.74351 58.53015
#
# Poissons Ratio (x) = 0.20031 0.40175
# Poissons Ratio (y) = 0.35837 0.22275
# Poissons Ratio (z) = 0.54945 0.17028
#
# Static dielectric constant tensor:
#      x y z
#    x 3.563680 0.000000 0.059870 
#    y 0.000000 3.165610 0.000000 
#    z 0.059870 0.000000 2.904600 
# 
# 
# High freq. dielectric constant tensor:
#      x y z
#    x 1.646750 0.000000 -0.008050 
#    y 0.000000 1.648890 0.000000 
#    z -0.008050 0.000000 1.593770 
# 
# From -- ./inp_files/247728.got.cif
#   From: 2010.06.25/outbox.cif.g09.slc.cpg/sg12_124_cif.got.tgz:247728.got - 2010.06.28 00:19:55.
