data_PCOD8080177
_publ_section_title
;
Structure prediction by ZEFSAII (Michael W. Deem and Ramdas Pophale) SiO2 
 PCOD8080177
Probable space group: C 2/M
;
_chemical_formula_sum "Si O2"
_cell_formula_units_Z 64
_cell_length_a 27.590591
_cell_length_b 8.920318
_cell_length_c 22.518011
_cell_angle_alpha 90.000000
_cell_angle_beta 133.140670
_cell_angle_gamma 90.000000
_cell_volume 4043.915539
_symmetry_space_group_name_H-M "C 2/M"
_symmetry_group_IT_number 12
_symmetry_cell_setting 'monoclinic'
loop_
_space_group_symop_operation_xyz
x,y,z
-x,y,-z
-x,-y,-z
x,-y,z
1/2+x,1/2+y,z
1/2-x,1/2+y,-z
1/2-x,1/2-y,-z
1/2+x,1/2-y,z
loop_
_atom_site_type_symbol
_atom_site_label
_atom_site_fract_x
_atom_site_fract_y
_atom_site_fract_z
Si Si1 0.397632 0.322432 0.523350
Si Si2 0.534944 0.664425 0.592213
Si Si3 0.848519 0.323637 0.362344
Si Si4 0.877190 0.324564 0.738829
Si Si5 0.787729 0.323930 0.774547
Si Si6 0.821526 0.321572 0.566747
Si Si7 0.486406 0.331859 0.894021
Si Si8 0.605128 0.330084 0.067797
O O1 0.384067 0.500000 0.515811
O O2 0.476704 0.285846 0.588816
O O3 0.360651 0.262451 0.433958
O O4 0.369795 0.237525 0.556562
O O5 0.500000 0.650989 0.500000
O O6 0.563365 0.500000 0.633632
O O7 0.594680 0.783701 0.638792
O O8 0.848444 0.500000 0.373963
O O9 0.779376 0.270183 0.277134
O O10 0.883897 0.500000 0.744382
O O11 0.824963 0.273772 0.745412
O O12 0.851151 0.265384 0.654080
O O13 0.951574 0.263596 0.813081
O O14 0.772518 0.500000 0.763196
O O15 0.832343 0.279323 0.869200
O O16 0.815572 0.500000 0.558581
O O17 0.750000 0.250000 0.500000
O O18 0.492798 0.500000 0.875308
O O19 0.440840 0.325991 0.913391
O O20 0.560386 0.273286 0.974224
O O21 0.630078 0.500000 0.077543
#
# Coordination Sequence:
#
# PCOD8080177 Si02
#       8
#     8   8   8   8   8   8   8   8
#     4  10  20  34  49  64  85 114 148 185 222 261
#     4   8  16  31  48  64  84 110 139 176 221 264
#     4  11  20  29  45  67  89 114 144 179 219 264
#     4   9  19  31  42  59  84 114 149 185 216 251
#     4  10  18  28  42  61  88 120 149 177 214 259
#     4  11  22  34  47  64  88 119 153 189 224 256
#     4   8  14  25  42  59  79 109 142 177 215 255
#     4   8  14  25  39  59  84 109 140 176 214 255
#
# _framework density 15.826245
#
# number of rings (size 3 to 8) (size 9 to 14) (size 15 to 20)
#    0.000    2.625    0.000    4.500    0.000    5.750 
#    0.000    2.500    0.000    0.000    0.000    0.000 
#    0.000    1.000    0.000    3.250    0.000    4.750 
#
# Total GULP energy -396614.537608 kJ/mol
# GULP energy per Si atom -12394.204300 kJ/mol
# Density = 1.579022 g / cm^3
# Si number density = 15.826245 Si / 1000 Ang^3
#
#
#
# Elastic Constant Matrix: (Units=GPa)
#
#
# Indices 1 2 3 4 5 6 
#
# 1 74.0981 30.1372 43.0279 0.0000 8.8563 0.0000
# 2 30.1372 63.6502 39.5702 0.0000 8.3266 0.0000
# 3 43.0279 39.5702 114.7561 0.0000 16.3528 0.0000
# 4 0.0000 0.0000 0.0000 28.1349 0.0000 5.2159
# 5 8.8563 8.3266 16.3528 0.0000 16.3722 0.0000
# 6 0.0000 0.0000 0.0000 5.2159 0.0000 21.4120
#
#
#
# Elastic Compliance Matrix: (Units=1/GPa)
#
#
# Indices 1 2 3 4 5 6 
#
# 1 0.018860 -0.005632 -0.004762 0.000000 -0.002582 0.000000
# 2 -0.005632 0.021887 -0.004994 0.000000 -0.003097 0.000000
# 3 -0.004762 -0.004994 0.013400 0.000000 -0.008268 0.000000
# 4 0.000000 0.000000 0.000000 0.037224 0.000000 -0.009068
# 5 -0.002582 -0.003097 -0.008268 0.000000 0.072309 0.000000
# 6 0.000000 0.000000 0.000000 -0.009068 0.000000 0.048912
#
#
# Mechanical properties :
#
#
# Convention : Reuss Voigt Hill
#
# Bulk Modulus (GPa) = 42.78700 53.10835 47.94768
# Shear Modulus (GPa) = 19.90782 22.50175 21.20479
#
# Velocity S-wave (km/s) = 3.55053 3.77477 3.66437
# Velocity P-wave (km/s) = 6.62590 7.25455 6.94734
#
# Compressibility (1/GPa) = 0.02337158
#
# Stress axis : x y z
#
# Youngs Moduli (GPa) = 53.02280 45.68839 74.62757
#
# Poissons Ratio (x) = 0.25731 0.35535
# Poissons Ratio (y) = 0.29861 0.37271
# Poissons Ratio (z) = 0.25248 0.22818
#
# Static dielectric constant tensor:
#      x y z
#    x 3.043920 0.000000 0.185120 
#    y 0.000000 3.070200 0.000000 
#    z 0.185120 0.000000 3.240860 
# 
# 
# High freq. dielectric constant tensor:
#      x y z
#    x 1.572460 0.000000 0.024630 
#    y 0.000000 1.613900 0.000000 
#    z 0.024630 0.000000 1.596560 
# 
# From -- ./inp_files/326977.got.cif
#   From: 2010.06.25/outbox.cif.g09.slc.cpg/sg12_164_cif.got.tgz:326977.got - 2010.06.28 00:19:55.
