data_PCOD8080125
_publ_section_title
;
Structure prediction by ZEFSAII (Michael W. Deem and Ramdas Pophale) SiO2 
 PCOD8080125
Probable space group: C 2/M
;
_chemical_formula_sum "Si O2"
_cell_formula_units_Z 56
_cell_length_a 19.179800
_cell_length_b 9.248471
_cell_length_c 28.451019
_cell_angle_alpha 90.000000
_cell_angle_beta 38.048333
_cell_angle_gamma 90.000000
_cell_volume 3110.443571
_symmetry_space_group_name_H-M "C 2/M"
_symmetry_group_IT_number 12
_symmetry_cell_setting 'monoclinic'
loop_
_space_group_symop_operation_xyz
x,y,z
-x,y,-z
-x,-y,-z
x,-y,z
1/2+x,1/2+y,z
1/2-x,1/2+y,-z
1/2-x,1/2-y,-z
1/2+x,1/2-y,z
loop_
_atom_site_type_symbol
_atom_site_label
_atom_site_fract_x
_atom_site_fract_y
_atom_site_fract_z
Si Si1 0.321035 0.835070 0.315643
Si Si2 0.604751 0.166975 0.410184
Si Si3 0.533456 0.832848 0.265526
Si Si4 0.626789 0.836131 0.818470
Si Si5 0.679896 0.834278 0.100439
Si Si6 0.415166 0.333782 0.936306
Si Si7 0.881579 0.171014 0.692179
O O1 0.215029 0.729046 0.378072
O O2 0.412599 0.797915 0.306632
O O3 0.379857 0.813301 0.234029
O O4 0.277743 0.000000 0.342976
O O5 0.500000 0.186553 0.500000
O O6 0.577663 0.255340 0.377443
O O7 0.626182 0.000000 0.386050
O O8 0.634720 0.793885 0.175903
O O9 0.543312 0.731601 0.305478
O O10 0.541053 0.000000 0.276727
O O11 0.530242 0.739228 0.894221
O O12 0.750293 0.789599 0.771381
O O13 0.601109 0.000000 0.846158
O O14 0.620932 0.733490 0.093900
O O15 0.647783 0.000000 0.105049
O O16 0.815601 0.811489 0.027448
O O17 0.441196 0.500000 0.913395
O O18 0.898688 0.000000 0.678066
#
# Coordination Sequence:
#
# PCOD8080125 Si02
#       7
#     8   8   8   8   8   8   8
#     4   9  18  33  56  81 105 140 178 213 259 310
#     4  10  21  38  60  85 110 136 169 210 255 307
#     4  10  19  35  55  76 107 143 176 217 267 312
#     4   9  17  33  51  70 102 139 175 219 267 311
#     4   9  18  32  47  69 105 141 172 217 271 312
#     4  10  18  27  47  76 100 132 181 226 262 306
#     4  10  22  37  55  79 107 140 176 215 262 313
#
# _framework density 18.003862999999999
#
# number of rings (size 3 to 8) (size 9 to 14) (size 15 to 20)
#    0.000    2.429    1.429    2.143    0.000    5.714 
#    0.000    1.429    0.000    4.286    0.000    0.000 
#    0.000    0.000    0.000    0.000    0.000    0.000 
#
# Total GULP energy -347216.307114 kJ/mol
# GULP energy per Si atom -12400.582397 kJ/mol
# Density = 1.796289 g / cm^3
# Si number density = 18.003863 Si / 1000 Ang^3
#
#
#
# Elastic Constant Matrix: (Units=GPa)
#
#
# Indices 1 2 3 4 5 6 
#
# 1 104.1538 50.8711 39.0079 0.0000 0.6396 0.0001
# 2 50.8711 100.5604 56.4974 0.0000 -1.5343 0.0004
# 3 39.0079 56.4974 88.8332 0.0000 -5.7714 0.0000
# 4 0.0000 0.0000 0.0000 29.8289 0.0000 -5.4709
# 5 0.6396 -1.5343 -5.7714 0.0000 17.1262 0.0000
# 6 0.0001 0.0004 0.0000 -5.4709 0.0000 31.4234
#
#
#
# Elastic Compliance Matrix: (Units=1/GPa)
#
#
# Indices 1 2 3 4 5 6 
#
# 1 0.013124 -0.005232 -0.002553 0.000000 -0.001819 0.000000
# 2 -0.005232 0.017625 -0.008993 0.000000 -0.001256 0.000000
# 3 -0.002553 -0.008993 0.018456 0.000000 0.005509 0.000000
# 4 0.000000 0.000000 0.000000 0.034630 0.000000 0.006029
# 5 -0.001819 -0.001256 0.005509 0.000000 0.060202 0.000000
# 6 0.000000 0.000000 0.000000 0.006029 0.000000 0.032873
#
#
# Mechanical properties :
#
#
# Convention : Reuss Voigt Hill
#
# Bulk Modulus (GPa) = 63.91132 65.14444 64.52788
# Shear Modulus (GPa) = 23.18207 25.48711 24.33459
#
# Velocity S-wave (km/s) = 3.59223 3.76659 3.68044
# Velocity P-wave (km/s) = 7.26507 7.42822 7.34710
#
# Compressibility (1/GPa) = 0.01564668
#
# Stress axis : x y z
#
# Youngs Moduli (GPa) = 76.19433 56.73874 54.18338
#
# Poissons Ratio (x) = 0.29688 0.13836
# Poissons Ratio (y) = 0.39868 0.48728
# Poissons Ratio (z) = 0.19456 0.51026
#
# Static dielectric constant tensor:
#      x y z
#    x 3.137960 0.000000 -0.184690 
#    y 0.000000 3.391870 0.000000 
#    z -0.184690 0.000000 3.293540 
# 
# 
# High freq. dielectric constant tensor:
#      x y z
#    x 1.677900 0.000000 -0.015950 
#    y 0.000000 1.703360 0.000000 
#    z -0.015950 0.000000 1.688940 
# 
# From -- ./inp_files/377655.got.cif
#   From: 2010.06.25/outbox.cif.g09.slc.cpg/sg12_189_cif.got.tgz:377655.got - 2010.06.28 00:19:55.
