data_PCOD8080259
_publ_section_title
;
Structure prediction by ZEFSAII (Michael W. Deem and Ramdas Pophale) SiO2 
 PCOD8080259
Probable space group: C 2/M
;
_chemical_formula_sum "Si O2"
_cell_formula_units_Z 48
_cell_length_a 21.885060
_cell_length_b 14.186709
_cell_length_c 14.361753
_cell_angle_alpha 90.000000
_cell_angle_beta 40.103102
_cell_angle_gamma 90.000000
_cell_volume 2872.327841
_symmetry_space_group_name_H-M "C 2/M"
_symmetry_group_IT_number 12
_symmetry_cell_setting 'monoclinic'
loop_
_space_group_symop_operation_xyz
x,y,z
-x,y,-z
-x,-y,-z
x,-y,z
1/2+x,1/2+y,z
1/2-x,1/2+y,-z
1/2-x,1/2-y,-z
1/2+x,1/2-y,z
loop_
_atom_site_type_symbol
_atom_site_label
_atom_site_fract_x
_atom_site_fract_y
_atom_site_fract_z
Si Si1 0.770525 0.280662 0.754568
Si Si2 0.411485 0.609770 0.039382
Si Si3 0.253280 0.607238 0.898320
Si Si4 0.558384 0.390985 0.208772
Si Si5 0.539139 0.751019 0.554908
Si Si6 0.380933 0.891790 0.779713
O O1 0.747098 0.175147 0.816905
O O2 0.849616 0.275186 0.581411
O O3 0.805927 0.344333 0.798390
O O4 0.677039 0.328737 0.820973
O O5 0.384891 0.500000 0.078304
O O6 0.435623 0.637976 0.905674
O O7 0.500000 0.636361 0.000000
O O8 0.264072 0.500000 0.849816
O O9 0.342818 0.636108 0.857568
O O10 0.158216 0.618223 0.070054
O O11 0.533186 0.500000 0.249514
O O12 0.474458 0.332824 0.355561
O O13 0.500000 0.717416 0.500000
O O14 0.483650 0.843878 0.653694
O O15 0.391843 0.000000 0.737447
#
# Coordination Sequence:
#
# PCOD8080259 Si02
#       6
#     8   8   8   8   8   8
#     4  11  19  31  48  72 103 127 159 199 245 294
#     4  10  21  36  55  74  91 125 175 213 240 273
#     4  10  18  29  50  75  99 130 162 199 245 291
#     4  10  18  32  51  72 102 132 160 203 243 282
#     4  10  20  29  43  75 106 133 151 186 247 314
#     4  10  18  28  43  68 101 133 159 189 239 297
#
# _framework density 16.711183999999999
#
# number of rings (size 3 to 8) (size 9 to 14) (size 15 to 20)
#    0.000    1.833    5.000    2.000    0.000    4.667 
#    0.000    0.833    0.000    0.500    0.000    0.000 
#    0.000    0.000    0.000    0.000    0.000    0.000 
#
# Total GULP energy -297666.644805 kJ/mol
# GULP energy per Si atom -12402.776867 kJ/mol
# Density = 1.667315 g / cm^3
# Si number density = 16.711184 Si / 1000 Ang^3
#
#
#
# Elastic Constant Matrix: (Units=GPa)
#
#
# Indices 1 2 3 4 5 6 
#
# 1 58.5750 34.8175 40.0604 0.0000 -16.5567 0.0000
# 2 34.8175 88.5697 58.3787 0.0000 -9.5503 0.0000
# 3 40.0604 58.3787 127.3964 0.0000 -17.0692 0.0000
# 4 0.0000 0.0000 0.0000 22.8369 0.0000 3.4991
# 5 -16.5567 -9.5503 -17.0692 0.0000 15.5011 0.0000
# 6 0.0000 0.0000 0.0000 3.4991 0.0000 17.4403
#
#
#
# Elastic Compliance Matrix: (Units=1/GPa)
#
#
# Indices 1 2 3 4 5 6 
#
# 1 0.030440 -0.007412 -0.002852 0.000000 0.024806 0.000000
# 2 -0.007412 0.018040 -0.006461 0.000000 -0.003916 0.000000
# 3 -0.002852 -0.006461 0.012629 0.000000 0.006879 0.000000
# 4 0.000000 0.000000 0.000000 0.045178 0.000000 -0.009064
# 5 0.024806 -0.003916 0.006879 0.000000 0.096170 0.000000
# 6 0.000000 0.000000 0.000000 -0.009064 0.000000 0.059157
#
#
# Mechanical properties :
#
#
# Convention : Reuss Voigt Hill
#
# Bulk Modulus (GPa) = 36.15340 60.11713 48.13526
# Shear Modulus (GPa) = 16.43208 20.57461 18.50334
#
# Velocity S-wave (km/s) = 3.13916 3.51264 3.33114
# Velocity P-wave (km/s) = 5.90087 7.24595 6.60773
#
# Compressibility (1/GPa) = 0.02765992
#
# Stress axis : x y z
#
# Youngs Moduli (GPa) = 32.85172 55.43091 79.18381
#
# Poissons Ratio (x) = 0.41083 0.22583
# Poissons Ratio (y) = 0.24348 0.51161
# Poissons Ratio (z) = 0.09369 0.35814
#
# Static dielectric constant tensor:
#      x y z
#    x 2.718100 0.000000 -0.018490 
#    y 0.000000 3.264800 0.000000 
#    z -0.018490 0.000000 3.296120 
# 
# 
# High freq. dielectric constant tensor:
#      x y z
#    x 1.583970 0.000000 -0.000880 
#    y 0.000000 1.655390 0.000000 
#    z -0.000880 0.000000 1.654250 
# 
# From -- ./inp_files/166550.got.cif
#   From: 2010.06.25/outbox.cif.g09.slc.cpg/sg12_84_cif.got.tgz:166550.got - 2010.06.28 00:19:55.
