data_PCOD8080290
_publ_section_title
;
Structure prediction by ZEFSAII (Michael W. Deem and Ramdas Pophale) SiO2 
 PCOD8080290
Probable space group: C 2/M
;
_chemical_formula_sum "Si O2"
_cell_formula_units_Z 56
_cell_length_a 32.028000
_cell_length_b 9.201079
_cell_length_c 15.782794
_cell_angle_alpha 90.000000
_cell_angle_beta 130.064350
_cell_angle_gamma 90.000000
_cell_volume 3559.563000
_symmetry_space_group_name_H-M "C 2/M"
_symmetry_group_IT_number 12
_symmetry_cell_setting 'monoclinic'
loop_
_space_group_symop_operation_xyz
x,y,z
-x,y,-z
-x,-y,-z
x,-y,z
1/2+x,1/2+y,z
1/2-x,1/2+y,-z
1/2-x,1/2-y,-z
1/2+x,1/2-y,z
loop_
_atom_site_type_symbol
_atom_site_label
_atom_site_fract_x
_atom_site_fract_y
_atom_site_fract_z
Si Si1 0.013896 0.333435 0.381787
Si Si2 0.940823 0.664211 0.881454
Si Si3 0.309194 0.329982 0.170144
Si Si4 0.984842 0.170096 0.788035
Si Si5 0.599924 0.669211 0.019972
Si Si6 0.701087 0.330527 0.037669
Si Si7 0.587539 0.166273 0.636907
O O1 0.010843 0.500000 0.346422
O O2 0.025387 0.227578 0.319197
O O3 0.063214 0.313463 0.511717
O O4 0.957278 0.288320 0.352070
O O5 0.921125 0.500000 0.838882
O O6 0.942302 0.750928 0.795118
O O7 0.898960 0.741542 0.891028
O O8 0.000000 0.668061 0.000000
O O9 0.305306 0.500000 0.181251
O O10 0.254457 0.257574 0.135250
O O11 0.360568 0.269280 0.287984
O O12 0.316184 0.291074 0.080448
O O13 0.046733 0.206162 0.895131
O O14 0.972593 0.000000 0.775308
O O15 0.601305 0.500000 0.045057
O O16 0.652026 0.718111 0.034097
O O17 0.714215 0.500000 0.063518
O O18 0.605344 0.000000 0.674783
#
# Coordination Sequence:
#
# PCOD8080290 Si02
#       7
#     8   8   8   8   8   8   8
#     4   9  18  31  46  65  88 117 152 182 214 261
#     4   9  17  28  42  62  88 117 148 180 216 260
#     4  10  19  30  45  66  90 116 150 187 218 255
#     4  10  18  28  44  66  92 119 146 180 221 260
#     4   9  17  29  44  63  89 119 149 181 219 262
#     4   9  18  31  45  63  89 120 150 180 220 264
#     4   9  18  32  47  63  88 120 149 181 221 260
#
# _framework density 15.732269000000001
#
# number of rings (size 3 to 8) (size 9 to 14) (size 15 to 20)
#    0.000    2.714    0.000    3.000    0.000    5.714 
#    0.000    1.429    0.000    0.000    0.000    1.000 
#    0.000    0.000    0.000    0.000    0.000    0.000 
#
# Total GULP energy -347247.406463 kJ/mol
# GULP energy per Si atom -12401.693088 kJ/mol
# Density = 1.569646 g / cm^3
# Si number density = 15.732269 Si / 1000 Ang^3
#
#
#
# Elastic Constant Matrix: (Units=GPa)
#
#
# Indices 1 2 3 4 5 6 
#
# 1 116.8793 57.1153 42.2713 0.0000 -8.0173 0.0000
# 2 57.1153 82.8057 40.8323 0.0000 -5.0648 0.0000
# 3 42.2713 40.8323 62.2804 0.0000 -1.3836 0.0000
# 4 0.0000 0.0000 0.0000 26.9774 0.0000 -3.9144
# 5 -8.0173 -5.0648 -1.3836 0.0000 27.7380 0.0000
# 6 0.0000 0.0000 0.0000 -3.9144 0.0000 28.8831
#
#
#
# Elastic Compliance Matrix: (Units=1/GPa)
#
#
# Indices 1 2 3 4 5 6 
#
# 1 0.013911 -0.007114 -0.004722 0.000000 0.002486 0.000000
# 2 -0.007114 0.021685 -0.009357 0.000000 0.001437 0.000000
# 3 -0.004722 -0.009357 0.025356 0.000000 -0.001809 0.000000
# 4 0.000000 0.000000 0.000000 0.037812 0.000000 0.005124
# 5 0.002486 0.001437 -0.001809 0.000000 0.036942 0.000000
# 6 0.000000 0.000000 0.000000 0.005124 0.000000 0.035317
#
#
# Mechanical properties :
#
#
# Convention : Reuss Voigt Hill
#
# Bulk Modulus (GPa) = 53.86338 60.26703 57.06521
# Shear Modulus (GPa) = 22.76896 24.83615 23.80255
#
# Velocity S-wave (km/s) = 3.80844 3.97757 3.89392
# Velocity P-wave (km/s) = 7.32467 7.71270 7.52119
#
# Compressibility (1/GPa) = 0.01856549
#
# Stress axis : x y z
#
# Youngs Moduli (GPa) = 71.88688 46.11393 39.43900
#
# Poissons Ratio (x) = 0.32807 0.18623
# Poissons Ratio (y) = 0.51143 0.36902
# Poissons Ratio (z) = 0.33945 0.43148
#
# Static dielectric constant tensor:
#      x y z
#    x 2.990750 0.000000 -0.072250 
#    y 0.000000 3.031510 0.000000 
#    z -0.072250 0.000000 2.735390 
# 
# 
# High freq. dielectric constant tensor:
#      x y z
#    x 1.596750 0.000000 -0.009710 
#    y 0.000000 1.612910 0.000000 
#    z -0.009710 0.000000 1.574570 
# 
# From -- ./inp_files/237449.got.cif
#   From: 2010.06.25/outbox.cif.g09.slc.cpg/sg12_119_cif.got.tgz:237449.got - 2010.06.28 00:19:55.
