data_PCOD8080742
_publ_section_title
;
Structure prediction by ZEFSAII (Michael W. Deem and Ramdas Pophale) SiO2 
 PCOD8080742
Probable space group: C 2/M
;
_chemical_formula_sum "Si O2"
_cell_formula_units_Z 48
_cell_length_a 20.640152
_cell_length_b 8.978727
_cell_length_c 15.189493
_cell_angle_alpha 90.000000
_cell_angle_beta 101.260919
_cell_angle_gamma 90.000000
_cell_volume 2760.758414
_symmetry_space_group_name_H-M "C 2/M"
_symmetry_group_IT_number 12
_symmetry_cell_setting 'monoclinic'
loop_
_space_group_symop_operation_xyz
x,y,z
-x,y,-z
-x,-y,-z
x,-y,z
1/2+x,1/2+y,z
1/2-x,1/2+y,-z
1/2-x,1/2-y,-z
1/2+x,1/2-y,z
loop_
_atom_site_type_symbol
_atom_site_label
_atom_site_fract_x
_atom_site_fract_y
_atom_site_fract_z
Si Si1 0.682873 0.168064 0.584445
Si Si2 0.927770 0.323140 0.960332
Si Si3 0.838052 0.832663 0.590897
Si Si4 0.143528 0.672650 0.231211
Si Si5 0.186419 0.677063 0.939675
Si Si6 0.296237 0.673204 0.236002
O O1 0.760163 0.169813 0.585218
O O2 0.643950 0.240238 0.491974
O O3 0.668023 0.264310 0.667411
O O4 0.657372 0.000000 0.591452
O O5 0.930027 0.500000 0.958425
O O6 0.903770 0.265824 0.858467
O O7 0.877316 0.270951 0.022140
O O8 0.000000 0.255852 0.000000
O O9 0.874010 0.760982 0.684658
O O10 0.864171 0.000000 0.585665
O O11 0.131632 0.500000 0.248223
O O12 0.218098 0.700187 0.219605
O O13 0.195387 0.500000 0.942375
O O14 0.175224 0.735909 0.838472
O O15 0.250000 0.750000 0.000000
O O16 0.313353 0.500000 0.230340
#
# Coordination Sequence:
#
# PCOD8080742 Si02
#       6
#     8   8   8   8   8   8
#     4   9  16  26  40  63  93 126 158 195 238 286
#     4   9  18  33  51  71  96 128 168 208 243 283
#     4   9  16  25  39  62  92 126 157 193 239 288
#     4   9  16  28  45  66  91 124 162 199 239 284
#     4  11  20  32  50  73  97 128 165 204 247 292
#     4  10  18  29  45  69  97 127 160 199 243 290
#
# _framework density 17.386527000000001
#
# number of rings (size 3 to 8) (size 9 to 14) (size 15 to 20)
#    0.000    2.500    1.667    2.000    0.000    4.667 
#    0.000    0.000    0.000    4.500    0.000    1.167 
#    0.000    9.333    0.000    0.000    0.000    0.000 
#
# Total GULP energy -297586.497760 kJ/mol
# GULP energy per Si atom -12399.437407 kJ/mol
# Density = 1.734695 g / cm^3
# Si number density = 17.386527 Si / 1000 Ang^3
#
#
#
# Elastic Constant Matrix: (Units=GPa)
#
#
# Indices 1 2 3 4 5 6 
#
# 1 63.8072 31.5759 51.2890 0.0000 1.2351 0.0000
# 2 31.5759 95.0686 62.3695 0.0000 1.9024 0.0000
# 3 51.2890 62.3695 175.5491 0.0000 8.7960 0.0000
# 4 0.0000 0.0000 0.0000 37.4588 0.0000 -0.8904
# 5 1.2351 1.9024 8.7960 0.0000 15.0316 0.0000
# 6 0.0000 0.0000 0.0000 -0.8904 0.0000 10.4473
#
#
#
# Elastic Compliance Matrix: (Units=1/GPa)
#
#
# Indices 1 2 3 4 5 6 
#
# 1 0.021602 -0.003929 -0.004998 0.000000 0.001647 0.000000
# 2 -0.003929 0.014449 -0.004028 0.000000 0.000851 0.000000
# 3 -0.004998 -0.004028 0.008800 0.000000 -0.004229 0.000000
# 4 0.000000 0.000000 0.000000 0.026750 0.000000 0.002280
# 5 0.001647 0.000851 -0.004229 0.000000 0.068758 0.000000
# 6 0.000000 0.000000 0.000000 0.002280 0.000000 0.095913
#
#
# Mechanical properties :
#
#
# Convention : Reuss Voigt Hill
#
# Bulk Modulus (GPa) = 52.79646 69.43261 61.11453
# Shear Modulus (GPa) = 18.62222 25.20024 21.91123
#
# Velocity S-wave (km/s) = 3.27627 3.81124 3.55384
# Velocity P-wave (km/s) = 6.68911 7.70642 7.21571
#
# Compressibility (1/GPa) = 0.01894066
#
# Stress axis : x y z
#
# Youngs Moduli (GPa) = 46.29196 69.20674 113.63965
#
# Poissons Ratio (x) = 0.27191 0.56797
# Poissons Ratio (y) = 0.18188 0.45779
# Poissons Ratio (z) = 0.23137 0.27879
#
# Static dielectric constant tensor:
#      x y z
#    x 2.843570 0.000000 0.041770 
#    y 0.000000 3.242700 0.000000 
#    z 0.041770 0.000000 3.550120 
# 
# 
# High freq. dielectric constant tensor:
#      x y z
#    x 1.603590 0.000000 0.002720 
#    y 0.000000 1.669820 0.000000 
#    z 0.002720 0.000000 1.693960 
# 
# From -- ./inp_files/221723.got.cif
#   From: 2010.06.25/outbox.cif.g09.slc.cpg/sg12_111_cif.got.tgz:221723.got - 2010.06.28 00:19:55.
