data_PCOD8080982
_publ_section_title
;
Structure prediction by ZEFSAII (Michael W. Deem and Ramdas Pophale) SiO2 
 PCOD8080982
Probable space group: C 2/M
;
_chemical_formula_sum "Si O2"
_cell_formula_units_Z 64
_cell_length_a 19.758046
_cell_length_b 8.915922
_cell_length_c 25.588919
_cell_angle_alpha 90.000000
_cell_angle_beta 125.796951
_cell_angle_gamma 90.000000
_cell_volume 3656.233199
_symmetry_space_group_name_H-M "C 2/M"
_symmetry_group_IT_number 12
_symmetry_cell_setting 'monoclinic'
loop_
_space_group_symop_operation_xyz
x,y,z
-x,y,-z
-x,-y,-z
x,-y,z
1/2+x,1/2+y,z
1/2-x,1/2+y,-z
1/2-x,1/2-y,-z
1/2+x,1/2-y,z
loop_
_atom_site_type_symbol
_atom_site_label
_atom_site_fract_x
_atom_site_fract_y
_atom_site_fract_z
Si Si1 0.044963 0.828867 0.311643
Si Si2 0.522380 0.322919 0.929542
Si Si3 0.866691 0.176889 0.924995
Si Si4 0.047932 0.826805 0.827327
Si Si5 0.163751 0.829157 0.451226
Si Si6 0.498248 0.677411 0.558970
Si Si7 0.805079 0.177709 0.181144
Si Si8 0.905135 0.324293 0.311156
O O1 0.137228 0.807293 0.377873
O O2 0.037435 0.803744 0.245653
O O3 0.985185 0.709753 0.311885
O O4 0.014198 0.000000 0.310891
O O5 0.513955 0.500000 0.921592
O O6 0.435177 0.265499 0.914160
O O7 0.537137 0.247774 0.878994
O O8 0.599741 0.282597 0.001975
O O9 0.784079 0.270733 0.878929
O O10 0.848877 0.000000 0.911544
O O11 0.126753 0.763445 0.830452
O O12 0.064930 0.000000 0.845958
O O13 0.250000 0.750000 0.500000
O O14 0.089161 0.768429 0.454573
O O15 0.180023 0.000000 0.472496
O O16 0.500000 0.730636 0.500000
O O17 0.508500 0.500000 0.569075
O O18 0.577025 0.754323 0.623566
O O19 0.824620 0.250128 0.246725
O O20 0.808118 0.000000 0.188326
O O21 0.889589 0.500000 0.309753
#
# Coordination Sequence:
#
# PCOD8080982 Si02
#       8
#     8   8   8   8   8   8   8   8
#     4   8  15  29  47  66  90 122 157 190 232 284
#     4   8  15  29  48  68  92 123 156 191 235 283
#     4   9  17  30  48  69  94 124 156 191 233 281
#     4   8  14  27  48  69  88 117 157 194 230 278
#     4   9  17  29  46  68  93 123 156 191 233 277
#     4   9  18  34  53  70  94 129 162 191 229 278
#     4  10  19  31  48  69  94 123 155 192 233 279
#     4  10  18  29  48  72  96 121 153 195 237 277
#
# _framework density 17.504353999999999
#
# number of rings (size 3 to 8) (size 9 to 14) (size 15 to 20)
#    0.000    3.125    0.000    3.750    0.000    2.750 
#    0.000    2.500    0.000    8.250    0.000    0.000 
#    0.000    0.000    0.000    0.000    0.000    0.000 
#
# Total GULP energy -396474.176231 kJ/mol
# GULP energy per Si atom -12389.818007 kJ/mol
# Density = 1.746451 g / cm^3
# Si number density = 17.504354 Si / 1000 Ang^3
#
#
#
# Elastic Constant Matrix: (Units=GPa)
#
#
# Indices 1 2 3 4 5 6 
#
# 1 71.6076 22.8716 76.8596 0.0000 -4.1219 0.0000
# 2 22.8716 50.0358 41.4449 0.0000 0.2524 0.0000
# 3 76.8596 41.4449 174.1296 0.0000 -7.4150 0.0000
# 4 0.0000 0.0000 0.0000 27.5770 0.0000 8.1916
# 5 -4.1219 0.2524 -7.4150 0.0000 33.5190 0.0000
# 6 0.0000 0.0000 0.0000 8.1916 0.0000 16.7703
#
#
#
# Elastic Compliance Matrix: (Units=1/GPa)
#
#
# Indices 1 2 3 4 5 6 
#
# 1 0.026936 -0.003114 -0.011111 0.000000 0.000878 0.000000
# 2 -0.003114 0.025329 -0.004723 0.000000 -0.001619 0.000000
# 3 -0.011111 -0.004723 0.011826 0.000000 0.001285 0.000000
# 4 0.000000 0.000000 0.000000 0.042416 0.000000 -0.020719
# 5 0.000878 -0.001619 0.001285 0.000000 0.030238 0.000000
# 6 0.000000 0.000000 0.000000 -0.020719 0.000000 0.069749
#
#
# Mechanical properties :
#
#
# Convention : Reuss Voigt Hill
#
# Bulk Modulus (GPa) = 38.17432 64.23614 51.20523
# Shear Modulus (GPa) = 19.75327 25.87973 22.81650
#
# Velocity S-wave (km/s) = 3.36293 3.84926 3.61428
# Velocity P-wave (km/s) = 6.07740 7.51882 6.83621
#
# Compressibility (1/GPa) = 0.02619562
#
# Stress axis : x y z
#
# Youngs Moduli (GPa) = 37.12544 39.47974 84.55970
#
# Poissons Ratio (x) = 0.12293 0.93952
# Poissons Ratio (y) = 0.11560 0.39939
# Poissons Ratio (z) = 0.41249 0.18647
#
# Static dielectric constant tensor:
#      x y z
#    x 3.187640 0.000000 -0.258790 
#    y 0.000000 2.927490 0.000000 
#    z -0.258790 0.000000 3.714970 
# 
# 
# High freq. dielectric constant tensor:
#      x y z
#    x 1.639020 0.000000 -0.004680 
#    y 0.000000 1.648010 0.000000 
#    z -0.004680 0.000000 1.698690 
# 
# From -- ./inp_files/365247.got.cif
#   From: 2010.06.25/outbox.cif.g09.slc.cpg/sg12_183_cif.got.tgz:365247.got - 2010.06.28 00:19:55.
