data_PCOD8080160
_publ_section_title
;
Structure prediction by ZEFSAII (Michael W. Deem and Ramdas Pophale) SiO2 
 PCOD8080160
Probable space group: C 2/M
;
_chemical_formula_sum "Si O2"
_cell_formula_units_Z 64
_cell_length_a 31.693685
_cell_length_b 9.143323
_cell_length_c 16.214320
_cell_angle_alpha 90.000000
_cell_angle_beta 70.383632
_cell_angle_gamma 90.000000
_cell_volume 4425.972697
_symmetry_space_group_name_H-M "C 2/M"
_symmetry_group_IT_number 12
_symmetry_cell_setting 'monoclinic'
loop_
_space_group_symop_operation_xyz
x,y,z
-x,y,-z
-x,-y,-z
x,-y,z
1/2+x,1/2+y,z
1/2-x,1/2+y,-z
1/2-x,1/2-y,-z
1/2+x,1/2-y,z
loop_
_atom_site_type_symbol
_atom_site_label
_atom_site_fract_x
_atom_site_fract_y
_atom_site_fract_z
Si Si1 0.246480 0.828951 0.304285
Si Si2 0.666942 0.328554 0.681511
Si Si3 0.594234 0.329010 0.015581
Si Si4 0.993359 0.665087 0.907093
Si Si5 0.208184 0.167833 0.493169
Si Si6 0.319682 0.169478 0.972403
Si Si7 0.580512 0.329755 0.833636
Si Si8 0.730893 0.669127 0.131112
O O1 0.291907 0.748285 0.299809
O O2 0.205559 0.795681 0.396743
O O3 0.229700 0.775924 0.226278
O O4 0.258114 0.000000 0.292868
O O5 0.671644 0.500000 0.696891
O O6 0.666616 0.294673 0.581897
O O7 0.620201 0.271404 0.748819
O O8 0.593120 0.500000 0.036163
O O9 0.551054 0.255424 0.086617
O O10 0.637892 0.259033 0.025845
O O11 0.594873 0.298124 0.917817
O O12 0.988744 0.500000 0.876709
O O13 0.036224 0.741072 0.836891
O O14 0.000000 0.667307 0.000000
O O15 0.250000 0.250000 0.500000
O O16 0.220003 0.000000 0.495916
O O17 0.304336 0.231125 0.894177
O O18 0.332333 0.000000 0.954588
O O19 0.280801 0.193747 0.064618
O O20 0.570155 0.500000 0.826943
O O21 0.716611 0.500000 0.131413
#
# Coordination Sequence:
#
# PCOD8080160 Si02
#       8
#     8   8   8   8   8   8   8   8
#     4   9  16  26  40  56  76 104 136 165 194 229
#     4   9  16  25  38  57  81 106 132 161 192 228
#     4  10  18  28  42  57  77 105 133 160 193 232
#     4   9  17  28  41  57  77 101 130 163 194 225
#     4   8  14  24  37  54  76 102 130 160 192 225
#     4  10  19  29  41  57  77 101 132 168 200 230
#     4   9  17  27  39  57  80 106 133 159 190 229
#     4   9  18  30  41  55  77 104 133 166 200 230
#
# _framework density 14.460098
#
# number of rings (size 3 to 8) (size 9 to 14) (size 15 to 20)
#    0.000    2.875    0.000    1.875    0.000    3.500 
#    0.000    0.000    0.000    0.000    0.000    0.000 
#    0.000    1.000    0.000   11.750    0.000    2.250 
#
# Total GULP energy -396551.120806 kJ/mol
# GULP energy per Si atom -12392.222525 kJ/mol
# Density = 1.442719 g / cm^3
# Si number density = 14.460098 Si / 1000 Ang^3
#
#
#
# Elastic Constant Matrix: (Units=GPa)
#
#
# Indices 1 2 3 4 5 6 
#
# 1 82.3219 47.9383 47.6668 0.0000 -9.5221 0.0000
# 2 47.9383 67.9573 38.7528 0.0000 -4.9196 0.0000
# 3 47.6668 38.7528 111.3980 0.0000 -5.7718 0.0000
# 4 0.0000 0.0000 0.0000 15.2640 0.0000 -1.5373
# 5 -9.5221 -4.9196 -5.7718 0.0000 20.7995 0.0000
# 6 0.0000 0.0000 0.0000 -1.5373 0.0000 26.7527
#
#
#
# Elastic Compliance Matrix: (Units=1/GPa)
#
#
# Indices 1 2 3 4 5 6 
#
# 1 0.023554 -0.013225 -0.005155 0.000000 0.006224 0.000000
# 2 -0.013225 0.025922 -0.003404 0.000000 -0.000868 0.000000
# 3 -0.005155 -0.003404 0.012381 0.000000 0.000270 0.000000
# 4 0.000000 0.000000 0.000000 0.065895 0.000000 0.003787
# 5 0.006224 -0.000868 0.000270 0.000000 0.050797 0.000000
# 6 0.000000 0.000000 0.000000 0.003787 0.000000 0.037597
#
#
# Mechanical properties :
#
#
# Convention : Reuss Voigt Hill
#
# Bulk Modulus (GPa) = 54.67822 58.93257 56.80540
# Shear Modulus (GPa) = 18.81036 21.05120 19.93078
#
# Velocity S-wave (km/s) = 3.61064 3.81965 3.71661
# Velocity P-wave (km/s) = 7.43489 7.76510 7.60179
#
# Compressibility (1/GPa) = 0.01828882
#
# Stress axis : x y z
#
# Youngs Moduli (GPa) = 42.45627 38.57673 80.76900
#
# Poissons Ratio (x) = 0.51016 0.41640
# Poissons Ratio (y) = 0.56147 0.27493
# Poissons Ratio (z) = 0.21888 0.13131
#
# Static dielectric constant tensor:
#      x y z
#    x 2.591940 0.000000 -0.120230 
#    y 0.000000 2.827250 0.000000 
#    z -0.120230 0.000000 3.206590 
# 
# 
# High freq. dielectric constant tensor:
#      x y z
#    x 1.520790 0.000000 -0.011300 
#    y 0.000000 1.563020 0.000000 
#    z -0.011300 0.000000 1.542930 
# 
# From -- ./inp_files/248509.got.cif
#   From: 2010.06.25/outbox.cif.g09.slc.cpg/sg12_125_cif.got.tgz:248509.got - 2010.06.28 00:19:55.
