data_PCOD8080079
_publ_section_title
;
Structure prediction by ZEFSAII (Michael W. Deem and Ramdas Pophale) SiO2 
 PCOD8080079
Probable space group: C 2/M
;
_chemical_formula_sum "Si O2"
_cell_formula_units_Z 48
_cell_length_a 17.058120
_cell_length_b 14.217018
_cell_length_c 12.097200
_cell_angle_alpha 90.000000
_cell_angle_beta 61.867079
_cell_angle_gamma 90.000000
_cell_volume 2587.153852
_symmetry_space_group_name_H-M "C 2/M"
_symmetry_group_IT_number 12
_symmetry_cell_setting 'monoclinic'
loop_
_space_group_symop_operation_xyz
x,y,z
-x,y,-z
-x,-y,-z
x,-y,z
1/2+x,1/2+y,z
1/2-x,1/2+y,-z
1/2-x,1/2-y,-z
1/2+x,1/2-y,z
loop_
_atom_site_type_symbol
_atom_site_label
_atom_site_fract_x
_atom_site_fract_y
_atom_site_fract_z
Si Si1 0.844208 0.392289 0.441520
Si Si2 0.107483 0.890998 0.216677
Si Si3 0.094510 0.889753 0.979344
Si Si4 0.433854 0.707730 0.387580
Si Si5 0.304237 0.606990 0.628331
Si Si6 0.315624 0.608294 0.295974
O O1 0.878220 0.500000 0.418552
O O2 0.927943 0.322187 0.391809
O O3 0.790111 0.366953 0.364552
O O4 0.781922 0.371375 0.590089
O O5 0.123953 0.852561 0.081312
O O6 0.194979 0.881115 0.237970
O O7 0.034680 0.825487 0.323962
O O8 0.076107 0.000000 0.236182
O O9 0.081163 0.000000 0.998238
O O10 0.174930 0.865960 0.840478
O O11 0.000000 0.846218 0.000000
O O12 0.382414 0.670576 0.528427
O O13 0.390054 0.669192 0.305668
O O14 0.325732 0.500000 0.579536
O O15 0.340525 0.500000 0.299871
#
# Coordination Sequence:
#
# PCOD8080079 Si02
#       6
#     8   8   8   8   8   8
#     4   9  19  32  46  64  87 122 160 188 214 257
#     4  10  18  27  44  74 101 117 136 176 234 282
#     4   9  15  24  39  64  97 122 140 169 216 277
#     4  11  17  26  45  66  92 121 148 181 222 270
#     4   9  17  28  43  67  97 119 140 177 230 279
#     4   9  15  25  42  65  91 115 144 179 218 265
#
# _framework density 18.553207
#
# number of rings (size 3 to 8) (size 9 to 14) (size 15 to 20)
#    0.000    2.500    1.667    5.000    0.000    1.333 
#    0.000    0.000    0.000    6.000    0.000    2.333 
#    0.000    0.000    0.000    0.000    0.000    0.000 
#
# Total GULP energy -297334.599303 kJ/mol
# GULP energy per Si atom -12388.941638 kJ/mol
# Density = 1.851098 g / cm^3
# Si number density = 18.553207 Si / 1000 Ang^3
#
#
#
# Elastic Constant Matrix: (Units=GPa)
#
#
# Indices 1 2 3 4 5 6 
#
# 1 37.5491 26.7683 34.3764 0.0000 11.6000 0.0000
# 2 26.7683 65.2999 23.5112 0.0000 -1.6498 0.0000
# 3 34.3764 23.5112 92.4074 0.0000 30.1683 0.0000
# 4 0.0000 0.0000 0.0000 4.0313 0.0000 -2.7239
# 5 11.6000 -1.6498 30.1683 0.0000 24.0943 0.0000
# 6 0.0000 0.0000 0.0000 -2.7239 0.0000 18.4375
#
#
#
# Elastic Compliance Matrix: (Units=1/GPa)
#
#
# Indices 1 2 3 4 5 6 
#
# 1 0.054116 -0.018579 -0.010966 0.000000 -0.013595 0.000000
# 2 -0.018579 0.025171 -0.005033 0.000000 0.016969 0.000000
# 3 -0.010966 -0.005033 0.024645 0.000000 -0.025922 0.000000
# 4 0.000000 0.000000 0.000000 0.275565 0.000000 0.040711
# 5 -0.013595 0.016969 -0.025922 0.000000 0.081668 0.000000
# 6 0.000000 0.000000 0.000000 0.040711 0.000000 0.060252
#
#
# Mechanical properties :
#
#
# Convention : Reuss Voigt Hill
#
# Bulk Modulus (GPa) = 28.75585 40.50759 34.63172
# Shear Modulus (GPa) = 8.30339 16.68599 12.49469
#
# Velocity S-wave (km/s) = 2.11782 3.00218 2.59791
# Velocity P-wave (km/s) = 4.63821 5.82221 5.26361
#
# Compressibility (1/GPa) = 0.03477553
#
# Stress axis : x y z
#
# Youngs Moduli (GPa) = 18.47891 39.72883 40.57686
#
# Poissons Ratio (x) = 0.73811 0.44498
# Poissons Ratio (y) = 0.34331 0.20421
# Poissons Ratio (z) = 0.20265 0.19995
#
# Static dielectric constant tensor:
#      x y z
#    x 3.076100 0.000000 0.381850 
#    y 0.000000 3.248830 0.000000 
#    z 0.381850 0.000000 3.623730 
# 
# 
# High freq. dielectric constant tensor:
#      x y z
#    x 1.676290 0.000000 0.032570 
#    y 0.000000 1.697800 0.000000 
#    z 0.032570 0.000000 1.712500 
# 
# From -- ./inp_files/143518.got.cif
#   From: 2010.06.25/outbox.cif.g09.slc.cpg/sg12_72_cif.got.tgz:143518.got - 2010.06.28 00:19:55.
