data_PCOD8080594
_publ_section_title
;
Structure prediction by ZEFSAII (Michael W. Deem and Ramdas Pophale) SiO2 
 PCOD8080594
Probable space group: C 2/M
;
_chemical_formula_sum "Si O2"
_cell_formula_units_Z 64
_cell_length_a 18.598518
_cell_length_b 9.094694
_cell_length_c 20.729707
_cell_angle_alpha 90.000000
_cell_angle_beta 90.000075
_cell_angle_gamma 90.000000
_cell_volume 3506.384957
_symmetry_space_group_name_H-M "C 2/M"
_symmetry_group_IT_number 12
_symmetry_cell_setting 'monoclinic'
loop_
_space_group_symop_operation_xyz
x,y,z
-x,y,-z
-x,-y,-z
x,-y,z
1/2+x,1/2+y,z
1/2-x,1/2+y,-z
1/2-x,1/2-y,-z
1/2+x,1/2-y,z
loop_
_atom_site_type_symbol
_atom_site_label
_atom_site_fract_x
_atom_site_fract_y
_atom_site_fract_z
Si Si1 0.581036 0.174037 0.001293
Si Si2 0.668042 0.827841 0.622086
Si Si3 0.081036 0.674037 0.498707
Si Si4 0.168041 0.327841 0.877914
Si Si5 0.835697 0.834038 0.610274
Si Si6 0.173580 0.173188 0.750000
Si Si7 0.818953 0.166328 0.750000
Si Si8 0.335697 0.665962 0.889726
O O1 0.619994 0.225710 0.065858
O O2 0.581620 0.000000 0.002499
O O3 0.500000 0.235922 0.000000
O O4 0.622943 0.232739 0.938550
O O5 0.622943 0.767261 0.561449
O O6 0.751518 0.792897 0.608551
O O7 0.639038 0.742760 0.685312
O O8 0.655442 0.000000 0.633232
O O9 0.081620 0.500000 0.497500
O O10 0.119993 0.725710 0.434141
O O11 0.000000 0.735923 0.500000
O O12 0.155442 0.500000 0.866767
O O13 0.139038 0.242759 0.814688
O O14 0.251517 0.292898 0.891449
O O15 0.864907 0.815627 0.684254
O O16 0.847332 0.000000 0.585594
O O17 0.257650 0.211238 0.750000
O O18 0.160973 0.000000 0.750000
O O19 0.864906 0.184373 0.815747
O O20 0.784164 0.000000 0.750000
O O21 0.347331 0.500000 0.914406
#
# Coordination Sequence:
#
# PCOD8080594 Si02
#       8
#     8   8   8   8   8   8   8   8
#     4  10  21  35  50  71 100 133 168 205 245 290
#     4   9  18  34  53  72 100 134 162 196 248 300
#     4  10  21  35  50  71 100 133 168 205 245 290
#     4   9  18  34  53  72 100 134 162 196 248 300
#     4   9  17  31  53  76  98 129 164 199 243 294
#     4  10  18  28  49  80 103 121 159 209 245 284
#     4   8  16  32  51  74 103 131 159 195 249 302
#     4   9  17  31  53  76  98 129 164 199 243 294
#
# _framework density 18.252417999999999
#
# number of rings (size 3 to 8) (size 9 to 14) (size 15 to 20)
#    0.000    2.750    0.000    3.375    0.000    5.500 
#    0.000    1.250    0.000    4.500    0.000    0.000 
#    0.000    0.000    0.000    0.000    0.000    0.000 
#
# Total GULP energy -396662.894298 kJ/mol
# GULP energy per Si atom -12395.715447 kJ/mol
# Density = 1.821087 g / cm^3
# Si number density = 18.252418 Si / 1000 Ang^3
#
#
#
# Elastic Constant Matrix: (Units=GPa)
#
#
# Indices 1 2 3 4 5 6 
#
# 1 71.1472 23.7480 62.9716 0.0000 -0.0009 0.0000
# 2 23.7480 45.1698 43.7947 0.0000 -0.0002 0.0000
# 3 62.9716 43.7947 174.3347 0.0000 -0.0013 0.0000
# 4 0.0000 0.0000 0.0000 34.7124 0.0000 0.0000
# 5 -0.0009 -0.0002 -0.0013 0.0000 2.5591 0.0000
# 6 0.0000 0.0000 0.0000 0.0000 0.0000 15.4582
#
#
#
# Elastic Compliance Matrix: (Units=1/GPa)
#
#
# Indices 1 2 3 4 5 6 
#
# 1 0.021477 -0.004984 -0.006506 0.000000 0.000004 0.000000
# 2 -0.004984 0.030424 -0.005842 0.000000 -0.000002 0.000000
# 3 -0.006506 -0.005842 0.009554 0.000000 0.000002 0.000000
# 4 0.000000 0.000000 0.000000 0.028808 0.000000 0.000000
# 5 0.000004 -0.000002 0.000002 0.000000 0.390760 0.000000
# 6 0.000000 0.000000 0.000000 0.000000 0.000000 0.064691
#
#
# Mechanical properties :
#
#
# Convention : Reuss Voigt Hill
#
# Bulk Modulus (GPa) = 37.32712 61.29781 49.31247
# Shear Modulus (GPa) = 8.48454 21.22177 14.85316
#
# Velocity S-wave (km/s) = 2.15837 3.41351 2.85575
# Velocity P-wave (km/s) = 5.16781 7.01373 6.16030
#
# Compressibility (1/GPa) = 0.02679017
#
# Stress axis : x y z
#
# Youngs Moduli (GPa) = 46.56129 32.86926 104.67110
#
# Poissons Ratio (x) = 0.16382 0.68096
# Poissons Ratio (y) = 0.23205 0.61154
# Poissons Ratio (z) = 0.30292 0.19204
#
# Static dielectric constant tensor:
#      x y z
#    x 3.120840 0.000000 0.000000 
#    y 0.000000 3.147870 0.000000 
#    z 0.000000 0.000000 3.770340 
# 
# 
# High freq. dielectric constant tensor:
#      x y z
#    x 1.663620 0.000000 0.000000 
#    y 0.000000 1.694790 0.000000 
#    z 0.000000 0.000000 1.730970 
# 
# From -- ./inp_files/313975.got.cif
#   From: 2010.06.25/outbox.cif.g09.slc.cpg/sg12_157_cif.got.tgz:313975.got - 2010.06.28 00:19:55.
