data_PCOD8080561
_publ_section_title
;
Structure prediction by ZEFSAII (Michael W. Deem and Ramdas Pophale) SiO2 
 PCOD8080561
Probable space group: C 2/M
;
_chemical_formula_sum "Si O2"
_cell_formula_units_Z 48
_cell_length_a 27.999372
_cell_length_b 9.023747
_cell_length_c 11.323228
_cell_angle_alpha 90.000000
_cell_angle_beta 103.527512
_cell_angle_gamma 90.000000
_cell_volume 2781.549870
_symmetry_space_group_name_H-M "C 2/M"
_symmetry_group_IT_number 12
_symmetry_cell_setting 'monoclinic'
loop_
_space_group_symop_operation_xyz
x,y,z
-x,y,-z
-x,-y,-z
x,-y,z
1/2+x,1/2+y,z
1/2-x,1/2+y,-z
1/2-x,1/2-y,-z
1/2+x,1/2-y,z
loop_
_atom_site_type_symbol
_atom_site_label
_atom_site_fract_x
_atom_site_fract_y
_atom_site_fract_z
Si Si1 0.005066 0.663233 0.863004
Si Si2 0.411123 0.671573 0.798958
Si Si3 0.817274 0.828982 0.604360
Si Si4 0.388363 0.175303 0.028763
Si Si5 0.270575 0.326534 0.337997
Si Si6 0.204543 0.824258 0.908998
O O1 0.994300 0.500000 0.804113
O O2 0.965358 0.777683 0.786829
O O3 0.061360 0.710407 0.869378
O O4 0.000000 0.658525 0.000000
O O5 0.413063 0.500000 0.837249
O O6 0.374091 0.699588 0.668754
O O7 0.392361 0.767583 0.897604
O O8 0.782847 0.745788 0.678114
O O9 0.806928 0.773716 0.464578
O O10 0.803625 0.000000 0.608580
O O11 0.345670 0.261514 0.069455
O O12 0.377748 0.000000 0.018814
O O13 0.261871 0.500000 0.336249
O O14 0.293987 0.278662 0.227608
O O15 0.206753 0.000000 0.929287
O O16 0.250000 0.750000 0.000000
#
# Coordination Sequence:
#
# PCOD8080561 Si02
#       6
#     8   8   8   8   8   8
#     4   8  16  30  46  66  94 126 156 191 235 277
#     4  10  18  28  48  75  98 121 154 196 236 278
#     4   9  18  32  49  70  95 121 153 193 232 273
#     4  10  20  33  48  68  98 130 157 191 234 278
#     4   9  19  34  49  67  93 125 157 189 230 277
#     4  11  22  34  50  71  96 126 158 192 231 279
#
# _framework density 17.256567
#
# number of rings (size 3 to 8) (size 9 to 14) (size 15 to 20)
#    0.000    2.500    0.000    3.500    0.000    9.000 
#    0.000    0.000    0.000    1.000    0.000    7.000 
#    0.000    0.000    0.000    0.000    0.000    0.000 
#
# Total GULP energy -297524.858067 kJ/mol
# GULP energy per Si atom -12396.869086 kJ/mol
# Density = 1.721729 g / cm^3
# Si number density = 17.256567 Si / 1000 Ang^3
#
#
#
# Elastic Constant Matrix: (Units=GPa)
#
#
# Indices 1 2 3 4 5 6 
#
# 1 133.0190 50.4367 55.1183 0.0000 11.6924 0.0000
# 2 50.4367 69.6866 41.9633 0.0000 5.0590 0.0000
# 3 55.1183 41.9633 76.1265 0.0000 7.3318 0.0000
# 4 0.0000 0.0000 0.0000 19.9683 0.0000 3.2497
# 5 11.6924 5.0590 7.3318 0.0000 25.2849 0.0000
# 6 0.0000 0.0000 0.0000 3.2497 0.0000 34.6974
#
#
#
# Elastic Compliance Matrix: (Units=1/GPa)
#
#
# Indices 1 2 3 4 5 6 
#
# 1 0.012043 -0.005124 -0.005614 0.000000 -0.002916 0.000000
# 2 -0.005124 0.023679 -0.009377 0.000000 0.000351 0.000000
# 3 -0.005614 -0.009377 0.022569 0.000000 -0.002072 0.000000
# 4 0.000000 0.000000 0.000000 0.050855 0.000000 -0.004763
# 5 -0.002916 0.000351 -0.002072 0.000000 0.041428 0.000000
# 6 0.000000 0.000000 0.000000 -0.004763 0.000000 0.029267
#
#
# Mechanical properties :
#
#
# Convention : Reuss Voigt Hill
#
# Bulk Modulus (GPa) = 55.36510 63.76319 59.56414
# Shear Modulus (GPa) = 22.11484 24.74437 23.42961
#
# Velocity S-wave (km/s) = 3.58373 3.79081 3.68872
# Velocity P-wave (km/s) = 7.01978 7.49604 7.26182
#
# Compressibility (1/GPa) = 0.01806192
#
# Stress axis : x y z
#
# Youngs Moduli (GPa) = 83.03359 42.23080 44.30787
#
# Poissons Ratio (x) = 0.21639 0.24877
# Poissons Ratio (y) = 0.42546 0.41546
# Poissons Ratio (z) = 0.46619 0.39598
#
# Static dielectric constant tensor:
#      x y z
#    x 3.523540 0.000000 0.229420 
#    y 0.000000 3.323500 0.000000 
#    z 0.229420 0.000000 3.253970 
# 
# 
# High freq. dielectric constant tensor:
#      x y z
#    x 1.667640 0.000000 0.019700 
#    y 0.000000 1.675200 0.000000 
#    z 0.019700 0.000000 1.640060 
# 
# From -- ./inp_files/172432.got.cif
#   From: 2010.06.25/outbox.cif.g09.slc.cpg/sg12_87_cif.got.tgz:172432.got - 2010.06.28 00:19:55.
