data_PCOD8080603
_publ_section_title
;
Structure prediction by ZEFSAII (Michael W. Deem and Ramdas Pophale) SiO2 
 PCOD8080603
Probable space group: C 2/M
;
_chemical_formula_sum "Si O2"
_cell_formula_units_Z 64
_cell_length_a 32.577710
_cell_length_b 9.032419
_cell_length_c 19.959651
_cell_angle_alpha 90.000000
_cell_angle_beta 142.718991
_cell_angle_gamma 90.000000
_cell_volume 3557.565112
_symmetry_space_group_name_H-M "C 2/M"
_symmetry_group_IT_number 12
_symmetry_cell_setting 'monoclinic'
loop_
_space_group_symop_operation_xyz
x,y,z
-x,y,-z
-x,-y,-z
x,-y,z
1/2+x,1/2+y,z
1/2-x,1/2+y,-z
1/2-x,1/2-y,-z
1/2+x,1/2-y,z
loop_
_atom_site_type_symbol
_atom_site_label
_atom_site_fract_x
_atom_site_fract_y
_atom_site_fract_z
Si Si1 0.094402 0.825091 0.821899
Si Si2 0.663162 0.831392 0.434142
Si Si3 0.792522 0.670135 0.652584
Si Si4 0.674847 0.175297 0.040326
Si Si5 0.454940 0.171297 0.621917
Si Si6 0.143962 0.329126 0.625551
Si Si7 0.173589 0.826470 0.794159
Si Si8 0.202932 0.172700 0.209750
O O1 0.142444 0.771727 0.823579
O O2 0.018270 0.779475 0.706351
O O3 0.098935 0.000000 0.838922
O O4 0.117339 0.741832 0.918410
O O5 0.716918 0.721240 0.536388
O O6 0.658829 0.807162 0.348530
O O7 0.589520 0.800440 0.369306
O O8 0.686136 0.000000 0.480975
O O9 0.788971 0.500000 0.670212
O O10 0.823662 0.764979 0.753903
O O11 0.748195 0.224439 0.107111
O O12 0.663955 0.242999 0.099777
O O13 0.666888 0.000000 0.033505
O O14 0.412104 0.217481 0.501044
O O15 0.477885 0.000000 0.647685
O O16 0.138727 0.500000 0.636887
O O17 0.131216 0.242578 0.677935
O O18 0.217227 0.291678 0.690014
O O19 0.166745 0.000000 0.777478
O O20 0.186659 0.000000 0.183175
#
# Coordination Sequence:
#
# PCOD8080603 Si02
#       8
#     8   8   8   8   8   8   8   8
#     4  11  23  37  52  75 103 137 174 214 265 311
#     4   9  18  33  50  73 108 142 173 210 254 302
#     4  10  18  28  50  81 108 136 171 211 255 306
#     4  10  20  36  57  79 100 131 175 219 259 307
#     4  10  20  36  53  72 104 144 179 211 249 306
#     4   9  18  32  52  75 102 137 175 209 254 305
#     4   9  20  36  54  76 104 131 167 218 266 307
#     4  10  18  32  53  78 109 139 167 212 262 306
#
# _framework density 17.989833000000001
#
# number of rings (size 3 to 8) (size 9 to 14) (size 15 to 20)
#    0.000    2.250    1.250    1.875    0.000    4.000 
#    0.000    2.500    0.000    0.750    0.000    5.250 
#    0.000    0.000    0.000    0.000    0.000    0.000 
#
# Total GULP energy -396889.055176 kJ/mol
# GULP energy per Si atom -12402.782974 kJ/mol
# Density = 1.794889 g / cm^3
# Si number density = 17.989833 Si / 1000 Ang^3
#
#
#
# Elastic Constant Matrix: (Units=GPa)
#
#
# Indices 1 2 3 4 5 6 
#
# 1 47.5937 27.7521 27.6336 0.0000 -22.1253 0.0000
# 2 27.7521 69.4835 37.0278 0.0000 -13.5955 0.0000
# 3 27.6336 37.0278 97.0703 0.0000 -20.9594 0.0000
# 4 0.0000 0.0000 0.0000 34.5767 0.0000 -5.6305
# 5 -22.1253 -13.5955 -20.9594 0.0000 26.8768 0.0000
# 6 0.0000 0.0000 0.0000 -5.6305 0.0000 28.3350
#
#
#
# Elastic Compliance Matrix: (Units=1/GPa)
#
#
# Indices 1 2 3 4 5 6 
#
# 1 0.040267 -0.009823 -0.001962 0.000000 0.026649 0.000000
# 2 -0.009823 0.020930 -0.005588 0.000000 -0.001857 0.000000
# 3 -0.001962 -0.005588 0.014469 0.000000 0.006842 0.000000
# 4 0.000000 0.000000 0.000000 0.029888 0.000000 0.005939
# 5 0.026649 -0.001857 0.006842 0.000000 0.063540 0.000000
# 6 0.000000 0.000000 0.000000 0.005939 0.000000 0.036472
#
#
# Mechanical properties :
#
#
# Convention : Reuss Voigt Hill
#
# Bulk Modulus (GPa) = 24.43830 44.33050 34.38440
# Shear Modulus (GPa) = 19.68867 26.07330 22.88098
#
# Velocity S-wave (km/s) = 3.31181 3.81114 3.57022
# Velocity P-wave (km/s) = 5.31396 6.63791 6.01249
#
# Compressibility (1/GPa) = 0.04091937
#
# Stress axis : x y z
#
# Youngs Moduli (GPa) = 24.83446 47.77847 69.11195
#
# Poissons Ratio (x) = 0.46932 0.13559
# Poissons Ratio (y) = 0.24395 0.38623
# Poissons Ratio (z) = 0.04872 0.26701
#
# Static dielectric constant tensor:
#      x y z
#    x 3.410460 0.000000 -0.246560 
#    y 0.000000 3.313530 0.000000 
#    z -0.246560 0.000000 3.162380 
# 
# 
# High freq. dielectric constant tensor:
#      x y z
#    x 1.689220 0.000000 -0.025700 
#    y 0.000000 1.702200 0.000000 
#    z -0.025700 0.000000 1.679760 
# 
# From -- ./inp_files/295740.got.cif
#   From: 2010.06.25/outbox.cif.g09.slc.cpg/sg12_148_cif.got.tgz:295740.got - 2010.06.28 00:19:55.
