data_PCOD8080814
_publ_section_title
;
Structure prediction by ZEFSAII (Michael W. Deem and Ramdas Pophale) SiO2 
 PCOD8080814
Probable space group: C 2/M
;
_chemical_formula_sum "Si O2"
_cell_formula_units_Z 48
_cell_length_a 23.705995
_cell_length_b 8.811060
_cell_length_c 20.704213
_cell_angle_alpha 90.000000
_cell_angle_beta 39.613689
_cell_angle_gamma 90.000000
_cell_volume 2757.394298
_symmetry_space_group_name_H-M "C 2/M"
_symmetry_group_IT_number 12
_symmetry_cell_setting 'monoclinic'
loop_
_space_group_symop_operation_xyz
x,y,z
-x,y,-z
-x,-y,-z
x,-y,z
1/2+x,1/2+y,z
1/2-x,1/2+y,-z
1/2-x,1/2-y,-z
1/2+x,1/2-y,z
loop_
_atom_site_type_symbol
_atom_site_label
_atom_site_fract_x
_atom_site_fract_y
_atom_site_fract_z
Si Si1 0.665772 0.673618 0.754444
Si Si2 0.485543 0.170934 0.771399
Si Si3 0.301780 0.819454 0.894307
Si Si4 0.815872 0.824531 0.120609
Si Si5 0.819130 0.319806 0.390298
Si Si6 0.516512 0.171614 0.079577
O O1 0.670529 0.500000 0.727571
O O2 0.719429 0.697763 0.774576
O O3 0.705845 0.774582 0.661195
O O4 0.565164 0.716756 0.858978
O O5 0.403935 0.243350 0.802878
O O6 0.582819 0.248013 0.678651
O O7 0.452168 0.179009 0.874277
O O8 0.499428 0.000000 0.735570
O O9 0.258826 0.770626 0.864089
O O10 0.302452 0.000000 0.903024
O O11 0.250000 0.750000 0.000000
O O12 0.840553 0.000000 0.086115
O O13 0.903281 0.723856 0.035851
O O14 0.817412 0.500000 0.396173
O O15 0.750000 0.250000 0.500000
O O16 0.488840 0.000000 0.085394
#
# Coordination Sequence:
#
# PCOD8080814 Si02
#       6
#     8   8   8   8   8   8
#     4  10  20  33  47  70 101 131 164 206 250 298
#     4   8  16  30  48  71  99 126 162 205 244 287
#     4  10  18  31  48  70 100 137 172 205 239 286
#     4  10  20  30  45  69 101 137 170 202 244 293
#     4  10  20  36  57  79  97 122 159 208 261 307
#     4  10  18  29  46  69  98 135 172 206 244 291
#
# _framework density 17.407738999999999
#
# number of rings (size 3 to 8) (size 9 to 14) (size 15 to 20)
#    0.000    2.333    1.667    3.000    0.000    3.333 
#    0.000    0.833    0.000    1.000    0.000    7.000 
#    0.000    0.000    0.000    0.000    0.000    0.000 
#
# Total GULP energy -297405.438271 kJ/mol
# GULP energy per Si atom -12391.893261 kJ/mol
# Density = 1.736812 g / cm^3
# Si number density = 17.407739 Si / 1000 Ang^3
#
#
#
# Elastic Constant Matrix: (Units=GPa)
#
#
# Indices 1 2 3 4 5 6 
#
# 1 111.5582 24.6859 57.4381 -0.0007 12.1724 0.0001
# 2 24.6859 50.5789 28.6244 -0.0072 5.1183 0.0073
# 3 57.4381 28.6244 112.4348 -0.0018 6.3541 0.0030
# 4 -0.0007 -0.0072 -0.0018 25.9059 0.0014 2.8497
# 5 12.1724 5.1183 6.3541 0.0014 16.1882 -0.0020
# 6 0.0001 0.0073 0.0030 2.8497 -0.0020 18.7317
#
#
#
# Elastic Compliance Matrix: (Units=1/GPa)
#
#
# Indices 1 2 3 4 5 6 
#
# 1 0.013220 -0.002515 -0.005723 0.000000 -0.006899 0.000001
# 2 -0.002515 0.023998 -0.004605 0.000008 -0.003889 -0.000010
# 3 -0.005723 -0.004605 0.012952 -0.000001 0.000676 0.000000
# 4 0.000000 0.000008 -0.000001 0.039258 -0.000006 -0.005973
# 5 -0.006899 -0.003889 0.000676 -0.000006 0.067925 0.000010
# 6 0.000001 -0.000010 0.000000 -0.005973 0.000010 0.054294
#
#
# Mechanical properties :
#
#
# Convention : Reuss Voigt Hill
#
# Bulk Modulus (GPa) = 40.84391 55.11874 47.98132
# Shear Modulus (GPa) = 20.36691 23.08672 21.72682
#
# Velocity S-wave (km/s) = 3.42423 3.64570 3.53670
# Velocity P-wave (km/s) = 6.25682 7.03232 6.65588
#
# Compressibility (1/GPa) = 0.02448346
#
# Stress axis : x y z
#
# Youngs Moduli (GPa) = 75.64290 41.66962 77.20785
#
# Poissons Ratio (x) = 0.10480 0.44189
# Poissons Ratio (y) = 0.19025 0.35554
# Poissons Ratio (z) = 0.43293 0.19189
#
# Static dielectric constant tensor:
#      x y z
#    x 3.626250 -0.000010 -0.046060 
#    y -0.000010 3.167070 0.000000 
#    z -0.046060 0.000000 3.066050 
# 
# 
# High freq. dielectric constant tensor:
#      x y z
#    x 1.677710 0.000000 0.006590 
#    y 0.000000 1.663590 0.000000 
#    z 0.006590 0.000000 1.639480 
# 
# From -- ./inp_files/236838.got.cif
#   From: 2010.06.25/outbox.cif.g09.slc.cpg/sg12_119_cif.got.tgz:236838.got - 2010.06.28 00:19:55.
