data_PCOD8080799
_publ_section_title
;
Structure prediction by ZEFSAII (Michael W. Deem and Ramdas Pophale) SiO2 
 PCOD8080799
Probable space group: C 2/M
;
_chemical_formula_sum "Si O2"
_cell_formula_units_Z 56
_cell_length_a 34.473364
_cell_length_b 13.852828
_cell_length_c 9.616979
_cell_angle_alpha 90.000000
_cell_angle_beta 134.440235
_cell_angle_gamma 90.000000
_cell_volume 3279.046209
_symmetry_space_group_name_H-M "C 2/M"
_symmetry_group_IT_number 12
_symmetry_cell_setting 'monoclinic'
loop_
_space_group_symop_operation_xyz
x,y,z
-x,y,-z
-x,-y,-z
x,-y,z
1/2+x,1/2+y,z
1/2-x,1/2+y,-z
1/2-x,1/2-y,-z
1/2+x,1/2-y,z
loop_
_atom_site_type_symbol
_atom_site_label
_atom_site_fract_x
_atom_site_fract_y
_atom_site_fract_z
Si Si1 0.068096 0.110231 0.925072
Si Si2 0.244687 0.156926 0.080307
Si Si3 0.690921 0.894356 0.001941
Si Si4 0.876782 0.891042 0.653125
Si Si5 0.731246 0.275170 0.607829
Si Si6 0.371569 0.297080 0.156593
Si Si7 0.053883 0.112431 0.440163
O O1 0.111946 0.178837 0.959857
O O2 0.007105 0.146289 0.744095
O O3 0.075550 0.000000 0.892164
O O4 0.078829 0.118832 0.115048
O O5 0.278308 0.082432 0.069589
O O6 0.268828 0.178096 0.295588
O O7 0.250000 0.250000 0.000000
O O8 0.180205 0.135004 0.932490
O O9 0.642256 0.816799 0.861936
O O10 0.668530 0.000000 0.991802
O O11 0.730145 0.854305 0.222006
O O12 0.828836 0.815968 0.554178
O O13 0.907786 0.863810 0.591934
O O14 0.853225 0.000000 0.588689
O O15 0.750000 0.250000 0.500000
O O16 0.424037 0.324028 0.378019
O O17 0.055275 0.000000 0.483578
#
# Coordination Sequence:
#
# PCOD8080799 Si02
#       7
#     8   8   8   8   8   8   8
#     4  10  20  31  45  71 101 125 155 199 247 293
#     4   8  17  31  47  68  93 124 162 197 231 281
#     4  10  20  34  50  70 100 134 167 202 240 288
#     4  10  18  29  46  68  97 128 153 182 232 297
#     4  10  18  31  50  74 101 127 161 201 243 290
#     4  10  18  31  49  69  93 125 162 199 241 285
#     4  10  19  31  49  71  95 125 160 198 244 295
#
# _framework density 17.078137999999999
#
# number of rings (size 3 to 8) (size 9 to 14) (size 15 to 20)
#    0.000    2.571    0.000    6.000    0.000    5.143 
#    0.000    1.429    0.000    1.714    0.000    0.000 
#    0.000    4.571    0.000    0.000    0.000    0.000 
#
# Total GULP energy -346934.644448 kJ/mol
# GULP energy per Si atom -12390.523016 kJ/mol
# Density = 1.703927 g / cm^3
# Si number density = 17.078138 Si / 1000 Ang^3
#
#
#
# Elastic Constant Matrix: (Units=GPa)
#
#
# Indices 1 2 3 4 5 6 
#
# 1 67.4700 20.1422 25.5352 0.0000 -6.0404 0.0000
# 2 20.1422 66.5948 20.7886 0.0000 3.4969 0.0000
# 3 25.5352 20.7886 84.6307 0.0000 -0.1466 0.0000
# 4 0.0000 0.0000 0.0000 19.3300 0.0000 3.6380
# 5 -6.0404 3.4969 -0.1466 0.0000 37.2793 0.0000
# 6 0.0000 0.0000 0.0000 3.6380 0.0000 19.2664
#
#
#
# Elastic Compliance Matrix: (Units=1/GPa)
#
#
# Indices 1 2 3 4 5 6 
#
# 1 0.018053 -0.004262 -0.004394 0.000000 0.003308 0.000000
# 2 -0.004262 0.017359 -0.002982 0.000000 -0.002331 0.000000
# 3 -0.004394 -0.002982 0.013874 0.000000 -0.000378 0.000000
# 4 0.000000 0.000000 0.000000 0.053639 0.000000 -0.010128
# 5 0.003308 -0.002331 -0.000378 0.000000 0.027578 0.000000
# 6 0.000000 0.000000 0.000000 -0.010128 0.000000 0.053816
#
#
# Mechanical properties :
#
#
# Convention : Reuss Voigt Hill
#
# Bulk Modulus (GPa) = 38.44926 39.06974 38.75950
# Shear Modulus (GPa) = 23.11976 25.32378 24.22177
#
# Velocity S-wave (km/s) = 3.68334 3.85492 3.77011
# Velocity P-wave (km/s) = 6.37589 6.53763 6.45726
#
# Compressibility (1/GPa) = 0.02600830
#
# Stress axis : x y z
#
# Youngs Moduli (GPa) = 55.39219 57.60839 72.07851
#
# Poissons Ratio (x) = 0.24554 0.31674
# Poissons Ratio (y) = 0.23609 0.21494
# Poissons Ratio (z) = 0.24341 0.17179
#
# Static dielectric constant tensor:
#      x y z
#    x 3.728460 0.000000 -0.198820 
#    y 0.000000 4.901790 0.000000 
#    z -0.198820 0.000000 3.290520 
# 
# 
# High freq. dielectric constant tensor:
#      x y z
#    x 1.666220 0.000000 -0.011120 
#    y 0.000000 1.623880 0.000000 
#    z -0.011120 0.000000 1.662470 
# 
# From -- ./inp_files/111698.got.cif
#   From: 2010.06.25/outbox.cif.g09.slc.cpg/sg12_56_cif.got.tgz:111698.got - 2010.06.28 00:19:55.
