data_PCOD8080584
_publ_section_title
;
Structure prediction by ZEFSAII (Michael W. Deem and Ramdas Pophale) SiO2 
 PCOD8080584
Probable space group: C 2/M
;
_chemical_formula_sum "Si O2"
_cell_formula_units_Z 56
_cell_length_a 19.533769
_cell_length_b 9.467405
_cell_length_c 27.425281
_cell_angle_alpha 90.000000
_cell_angle_beta 145.009839
_cell_angle_gamma 90.000000
_cell_volume 2908.391472
_symmetry_space_group_name_H-M "C 2/M"
_symmetry_group_IT_number 12
_symmetry_cell_setting 'monoclinic'
loop_
_space_group_symop_operation_xyz
x,y,z
-x,y,-z
-x,-y,-z
x,-y,z
1/2+x,1/2+y,z
1/2-x,1/2+y,-z
1/2-x,1/2-y,-z
1/2+x,1/2-y,z
loop_
_atom_site_type_symbol
_atom_site_label
_atom_site_fract_x
_atom_site_fract_y
_atom_site_fract_z
Si Si1 0.505550 0.842225 0.083563
Si Si2 0.724339 0.664526 0.240583
Si Si3 0.259845 0.162855 0.906176
Si Si4 0.391212 0.335349 0.276490
Si Si5 0.909038 0.340041 0.134150
Si Si6 0.872069 0.160536 0.711584
Si Si7 0.337037 0.661204 0.583835
O O1 0.611477 0.729279 0.145396
O O2 0.429318 0.833932 0.088569
O O3 0.560923 0.000000 0.109175
O O4 0.403436 0.811801 0.983048
O O5 0.731560 0.500000 0.231822
O O6 0.845260 0.743274 0.295370
O O7 0.712926 0.691022 0.291898
O O8 0.193502 0.205450 0.818004
O O9 0.212146 0.259311 0.922497
O O10 0.235153 0.000000 0.905304
O O11 0.381234 0.500000 0.283648
O O12 0.526333 0.290686 0.344010
O O13 0.901037 0.500000 0.148412
O O14 0.017218 0.265092 0.225262
O O15 0.800454 0.182548 0.619268
O O16 0.922040 0.000000 0.743228
O O17 0.321657 0.500000 0.558912
O O18 0.250000 0.750000 0.500000
#
# Coordination Sequence:
#
# PCOD8080584 Si02
#       7
#     8   8   8   8   8   8   8
#     4   9  19  33  50  75 108 149 192 228 268 320
#     4  10  21  36  57  81 111 149 186 228 270 314
#     4  10  19  33  52  73 106 152 192 225 269 327
#     4  10  21  38  58  79 109 148 184 222 271 331
#     4  10  18  28  48  80 111 139 181 236 278 310
#     4   9  18  37  59  79 108 148 185 215 266 334
#     4  10  21  39  63  88 110 137 176 223 273 329
#
# _framework density 19.254629000000001
#
# number of rings (size 3 to 8) (size 9 to 14) (size 15 to 20)
#    0.000    2.286    1.429    1.286    0.000    4.000 
#    0.000    3.571    0.000    4.286    0.000    0.000 
#    0.000    0.000    0.000    0.000    0.000    0.000 
#
# Total GULP energy -347181.797504 kJ/mol
# GULP energy per Si atom -12399.349911 kJ/mol
# Density = 1.921080 g / cm^3
# Si number density = 19.254629 Si / 1000 Ang^3
#
#
#
# Elastic Constant Matrix: (Units=GPa)
#
#
# Indices 1 2 3 4 5 6 
#
# 1 73.8361 44.1313 44.3891 0.0000 12.0969 0.0000
# 2 44.1313 89.3219 44.3830 0.0000 5.9170 0.0000
# 3 44.3891 44.3830 112.6144 0.0000 -6.1319 0.0000
# 4 0.0000 0.0000 0.0000 32.6329 0.0000 5.3987
# 5 12.0969 5.9170 -6.1319 0.0000 15.8437 0.0000
# 6 0.0000 0.0000 0.0000 5.3987 0.0000 31.7898
#
#
#
# Elastic Compliance Matrix: (Units=1/GPa)
#
#
# Indices 1 2 3 4 5 6 
#
# 1 0.026675 -0.007461 -0.008715 0.000000 -0.020953 0.000000
# 2 -0.007461 0.016934 -0.003848 0.000000 -0.002117 0.000000
# 3 -0.008715 -0.003848 0.014580 0.000000 0.013734 0.000000
# 4 0.000000 0.000000 0.000000 0.031530 0.000000 -0.005355
# 5 -0.020953 -0.002117 0.013734 0.000000 0.085221 0.000000
# 6 0.000000 0.000000 0.000000 -0.005355 0.000000 0.032366
#
#
# Mechanical properties :
#
#
# Convention : Reuss Voigt Hill
#
# Bulk Modulus (GPa) = 55.12633 60.17547 57.65090
# Shear Modulus (GPa) = 19.73162 25.57787 22.65474
#
# Velocity S-wave (km/s) = 3.20468 3.64868 3.43386
# Velocity P-wave (km/s) = 6.51042 7.00505 6.76226
#
# Compressibility (1/GPa) = 0.01814015
#
# Stress axis : x y z
#
# Youngs Moduli (GPa) = 37.48833 59.05217 68.58937
#
# Poissons Ratio (x) = 0.44059 0.59775
# Poissons Ratio (y) = 0.27970 0.26396
# Poissons Ratio (z) = 0.32671 0.22726
#
# Static dielectric constant tensor:
#      x y z
#    x 3.602560 0.000000 -0.040720 
#    y 0.000000 3.542880 0.000000 
#    z -0.040720 0.000000 3.292320 
# 
# 
# High freq. dielectric constant tensor:
#      x y z
#    x 1.752080 0.000000 -0.001790 
#    y 0.000000 1.747740 0.000000 
#    z -0.001790 0.000000 1.725150 
# 
# From -- ./inp_files/329626.got.cif
#   From: 2010.06.25/outbox.cif.g09.slc.cpg/sg12_165_cif.got.tgz:329626.got - 2010.06.28 00:19:55.
