data_PCOD8080704
_publ_section_title
;
Structure prediction by ZEFSAII (Michael W. Deem and Ramdas Pophale) SiO2 
 PCOD8080704
Probable space group: C 2/M
;
_chemical_formula_sum "Si O2"
_cell_formula_units_Z 56
_cell_length_a 20.567896
_cell_length_b 9.149832
_cell_length_c 22.205737
_cell_angle_alpha 90.000000
_cell_angle_beta 51.483386
_cell_angle_gamma 90.000000
_cell_volume 3269.733441
_symmetry_space_group_name_H-M "C 2/M"
_symmetry_group_IT_number 12
_symmetry_cell_setting 'monoclinic'
loop_
_space_group_symop_operation_xyz
x,y,z
-x,y,-z
-x,-y,-z
x,-y,z
1/2+x,1/2+y,z
1/2-x,1/2+y,-z
1/2-x,1/2-y,-z
1/2+x,1/2-y,z
loop_
_atom_site_type_symbol
_atom_site_label
_atom_site_fract_x
_atom_site_fract_y
_atom_site_fract_z
Si Si1 0.990989 0.664629 0.641625
Si Si2 0.265121 0.828858 0.192638
Si Si3 0.396194 0.331236 0.791030
Si Si4 0.836624 0.830069 0.953251
Si Si5 0.327299 0.165575 0.655463
Si Si6 0.405096 0.669980 0.041929
Si Si7 0.081856 0.834633 0.493339
O O1 0.022421 0.500000 0.634251
O O2 0.968773 0.736648 0.718540
O O3 0.910260 0.666629 0.646736
O O4 0.063866 0.755780 0.567260
O O5 0.193579 0.794564 0.185390
O O6 0.245011 0.750345 0.267389
O O7 0.350890 0.765664 0.118470
O O8 0.274453 0.000000 0.199521
O O9 0.418352 0.500000 0.767352
O O10 0.393411 0.289139 0.862984
O O11 0.815307 0.000000 0.964282
O O12 0.750000 0.750000 0.000000
O O13 0.886534 0.784477 0.983938
O O14 0.344422 0.247913 0.582736
O O15 0.298615 0.000000 0.658680
O O16 0.384885 0.500000 0.064763
O O17 0.500000 0.707376 0.000000
O O18 0.000000 0.834089 0.500000
O O19 0.111127 0.000000 0.488930
#
# Coordination Sequence:
#
# PCOD8080704 Si02
#       7
#     8   8   8   8   8   8   8
#     4   9  16  24  36  56  83 116 150 186 228 275
#     4  10  18  29  45  65  89 118 155 196 237 281
#     4   9  17  28  42  63  88 116 151 192 234 276
#     4  10  19  32  50  70  93 121 158 199 239 285
#     4   9  16  25  38  57  83 116 153 190 228 276
#     4  10  21  35  50  69  95 126 158 196 243 290
#     4   9  15  23  35  53  81 117 152 186 226 273
#
# _framework density 17.126778999999999
#
# number of rings (size 3 to 8) (size 9 to 14) (size 15 to 20)
#    0.000    2.571    1.429    1.714    0.000    6.571 
#    0.000    0.000    0.000    0.000    0.000    0.000 
#    0.000    1.143    0.000    3.143    0.000    4.571 
#
# Total GULP energy -347207.323592 kJ/mol
# GULP energy per Si atom -12400.261557 kJ/mol
# Density = 1.708780 g / cm^3
# Si number density = 17.126779 Si / 1000 Ang^3
#
#
#
# Elastic Constant Matrix: (Units=GPa)
#
#
# Indices 1 2 3 4 5 6 
#
# 1 49.5967 29.4068 41.1027 0.0001 4.1772 0.0001
# 2 29.4068 125.4854 90.9013 0.0004 2.9092 -0.0002
# 3 41.1027 90.9013 173.5190 0.0000 12.2888 0.0000
# 4 0.0001 0.0004 0.0000 40.4079 0.0000 -0.3588
# 5 4.1772 2.9092 12.2888 0.0000 10.3778 0.0000
# 6 0.0001 -0.0002 0.0000 -0.3588 0.0000 10.3611
#
#
#
# Elastic Compliance Matrix: (Units=1/GPa)
#
#
# Indices 1 2 3 4 5 6 
#
# 1 0.025785 -0.002810 -0.004318 0.000000 -0.004477 0.000000
# 2 -0.002810 0.013369 -0.006716 0.000000 0.005336 0.000000
# 3 -0.004318 -0.006716 0.010967 0.000000 -0.009366 0.000000
# 4 0.000000 0.000000 0.000000 0.024755 0.000000 0.000857
# 5 -0.004477 0.005336 -0.009366 0.000000 0.107757 0.000000
# 6 0.000000 0.000000 0.000000 0.000857 0.000000 0.096545
#
#
# Mechanical properties :
#
#
# Convention : Reuss Voigt Hill
#
# Bulk Modulus (GPa) = 44.57914 74.60252 59.59083
# Shear Modulus (GPa) = 15.90612 24.70871 20.30741
#
# Velocity S-wave (km/s) = 3.05081 3.80240 3.44715
# Velocity P-wave (km/s) = 6.20446 7.93292 7.12133
#
# Compressibility (1/GPa) = 0.02243201
#
# Stress axis : x y z
#
# Youngs Moduli (GPa) = 38.78223 74.80117 91.17878
#
# Poissons Ratio (x) = 0.21023 0.39375
# Poissons Ratio (y) = 0.10900 0.61232
# Poissons Ratio (z) = 0.16748 0.50234
#
# Static dielectric constant tensor:
#      x y z
#    x 2.632550 0.000000 0.144680 
#    y 0.000000 3.335970 0.000000 
#    z 0.144680 0.000000 3.309600 
# 
# 
# High freq. dielectric constant tensor:
#      x y z
#    x 1.583540 0.000000 0.014260 
#    y 0.000000 1.672790 0.000000 
#    z 0.014260 0.000000 1.678680 
# 
# From -- ./inp_files/345470.got.cif
#   From: 2010.06.25/outbox.cif.g09.slc.cpg/sg12_173_cif.got.tgz:345470.got - 2010.06.28 00:19:55.
