data_PCOD8080147
_publ_section_title
;
Structure prediction by ZEFSAII (Michael W. Deem and Ramdas Pophale) SiO2 
 PCOD8080147
Probable space group: C 2/M
;
_chemical_formula_sum "Si O2"
_cell_formula_units_Z 56
_cell_length_a 31.026027
_cell_length_b 9.063285
_cell_length_c 13.568447
_cell_angle_alpha 90.000000
_cell_angle_beta 92.747377
_cell_angle_gamma 90.000000
_cell_volume 3811.030921
_symmetry_space_group_name_H-M "C 2/M"
_symmetry_group_IT_number 12
_symmetry_cell_setting 'monoclinic'
loop_
_space_group_symop_operation_xyz
x,y,z
-x,y,-z
-x,-y,-z
x,-y,z
1/2+x,1/2+y,z
1/2-x,1/2+y,-z
1/2-x,1/2-y,-z
1/2+x,1/2-y,z
loop_
_atom_site_type_symbol
_atom_site_label
_atom_site_fract_x
_atom_site_fract_y
_atom_site_fract_z
Si Si1 0.370291 0.172958 0.359757
Si Si2 0.468260 0.174147 0.708662
Si Si3 0.117683 0.671561 0.412317
Si Si4 0.701917 0.666026 0.390878
Si Si5 0.215183 0.833478 0.625008
Si Si6 0.004952 0.166969 0.109817
Si Si7 0.948399 0.833104 0.277621
O O1 0.384773 0.209193 0.472542
O O2 0.323972 0.243613 0.330400
O O3 0.404772 0.244114 0.290236
O O4 0.367359 0.000000 0.339532
O O5 0.427085 0.222043 0.640701
O O6 0.462340 0.232913 0.820973
O O7 0.510707 0.251608 0.665022
O O8 0.475190 0.000000 0.708994
O O9 0.126991 0.500000 0.396380
O O10 0.156052 0.759226 0.362890
O O11 0.701569 0.500000 0.349563
O O12 0.739877 0.755799 0.340367
O O13 0.710205 0.667493 0.507658
O O14 0.215194 0.000000 0.666068
O O15 0.958414 0.166492 0.160814
O O16 0.023345 0.000000 0.105023
O O17 0.000000 0.234945 0.000000
O O18 0.944080 0.000000 0.317934
#
# Coordination Sequence:
#
# PCOD8080147 Si02
#       7
#     8   8   8   8   8   8   8
#     4  10  18  28  41  57  81 113 145 174 203 239
#     4   9  17  29  43  61  82 107 139 172 203 242
#     4   9  18  29  40  56  83 115 142 171 207 241
#     4   9  16  25  39  57  76 103 141 177 206 239
#     4   9  16  26  39  55  77 105 138 175 211 242
#     4   8  16  31  47  61  80 105 131 166 211 251
#     4   9  18  30  42  59  82 108 137 171 207 246
#
# _framework density 14.694186999999999
#
# number of rings (size 3 to 8) (size 9 to 14) (size 15 to 20)
#    0.857    2.143    0.000    1.714    0.000    6.000 
#    0.000    2.857    0.000    0.000    0.000    0.000 
#    0.000    1.143    0.000    3.429    0.000    5.286 
#
# Total GULP energy -346991.801339 kJ/mol
# GULP energy per Si atom -12392.564334 kJ/mol
# Density = 1.466074 g / cm^3
# Si number density = 14.694187 Si / 1000 Ang^3
#
#
#
# Elastic Constant Matrix: (Units=GPa)
#
#
# Indices 1 2 3 4 5 6 
#
# 1 103.2574 53.7488 19.8762 0.0000 -18.7497 0.0000
# 2 53.7488 97.3964 19.4498 0.0000 -9.7989 0.0000
# 3 19.8762 19.4498 32.2584 0.0000 -7.9182 0.0000
# 4 0.0000 0.0000 0.0000 15.8200 0.0000 -2.6166
# 5 -18.7497 -9.7989 -7.9182 0.0000 5.9135 0.0000
# 6 0.0000 0.0000 0.0000 -2.6166 0.0000 31.7076
#
#
#
# Elastic Compliance Matrix: (Units=1/GPa)
#
#
# Indices 1 2 3 4 5 6 
#
# 1 0.028445 -0.008682 0.009407 0.000000 0.088397 0.000000
# 2 -0.008682 0.015259 -0.006556 0.000000 -0.011023 0.000000
# 3 0.009407 -0.006556 0.050365 0.000000 0.086400 0.000000
# 4 0.000000 0.000000 0.000000 0.064086 0.000000 0.005289
# 5 0.088397 -0.011023 0.086400 0.000000 0.546808 0.000000
# 6 0.000000 0.000000 0.000000 0.005289 0.000000 0.031975
#
#
# Mechanical properties :
#
#
# Convention : Reuss Voigt Hill
#
# Bulk Modulus (GPa) = 12.13525 46.56242 29.34883
# Shear Modulus (GPa) = 6.44273 20.01072 13.22672
#
# Velocity S-wave (km/s) = 2.09620 3.69428 3.00348
# Velocity P-wave (km/s) = 3.75968 7.06777 5.66077
#
# Compressibility (1/GPa) = 0.08240458
#
# Stress axis : x y z
#
# Youngs Moduli (GPa) = 35.15599 65.53512 19.85523
#
# Poissons Ratio (x) = 0.56900 -0.18677
# Poissons Ratio (y) = 0.30524 0.13018
# Poissons Ratio (z) = -0.33070 0.42966
#
# Static dielectric constant tensor:
#      x y z
#    x 2.849900 0.000000 -0.051850 
#    y 0.000000 2.967920 0.000000 
#    z -0.051850 0.000000 2.431370 
# 
# 
# High freq. dielectric constant tensor:
#      x y z
#    x 1.559730 0.000000 -0.008970 
#    y 0.000000 1.579580 0.000000 
#    z -0.008970 0.000000 1.499970 
# 
# From -- ./inp_files/247842.got.cif
#   From: 2010.06.25/outbox.cif.g09.slc.cpg/sg12_124_cif.got.tgz:247842.got - 2010.06.28 00:19:55.
