data_PCOD8080508
_publ_section_title
;
Structure prediction by ZEFSAII (Michael W. Deem and Ramdas Pophale) SiO2 
 PCOD8080508
Probable space group: C 2/M
;
_chemical_formula_sum "Si O2"
_cell_formula_units_Z 64
_cell_length_a 24.444490
_cell_length_b 9.074365
_cell_length_c 19.936667
_cell_angle_alpha 90.000000
_cell_angle_beta 56.967197
_cell_angle_gamma 90.000000
_cell_volume 3707.486775
_symmetry_space_group_name_H-M "C 2/M"
_symmetry_group_IT_number 12
_symmetry_cell_setting 'monoclinic'
loop_
_space_group_symop_operation_xyz
x,y,z
-x,y,-z
-x,-y,-z
x,-y,z
1/2+x,1/2+y,z
1/2-x,1/2+y,-z
1/2-x,1/2-y,-z
1/2+x,1/2-y,z
loop_
_atom_site_type_symbol
_atom_site_label
_atom_site_fract_x
_atom_site_fract_y
_atom_site_fract_z
Si Si1 0.670462 0.828705 0.950520
Si Si2 0.348624 0.168154 0.186346
Si Si3 0.409069 0.174540 0.870532
Si Si4 0.554992 0.171632 0.761573
Si Si5 0.218023 0.327739 0.298875
Si Si6 0.696772 0.827181 0.163984
Si Si7 0.288642 0.670696 0.568964
Si Si8 0.659502 0.328456 0.607597
O O1 0.635568 0.800290 0.902262
O O2 0.740168 0.750990 0.908465
O O3 0.683580 0.000000 0.954512
O O4 0.623643 0.763095 0.039535
O O5 0.413241 0.197015 0.186527
O O6 0.293312 0.278428 0.248968
O O7 0.323755 0.000000 0.211880
O O8 0.481986 0.237352 0.813764
O O9 0.366613 0.224541 0.834767
O O10 0.413486 0.000000 0.872785
O O11 0.592198 0.261055 0.678911
O O12 0.555876 0.000000 0.741017
O O13 0.213927 0.500000 0.315590
O O14 0.185423 0.284606 0.249545
O O15 0.180715 0.243322 0.384258
O O16 0.709191 0.000000 0.148210
O O17 0.275013 0.500000 0.590678
O O18 0.338058 0.696117 0.474357
O O19 0.219283 0.745894 0.602112
O O20 0.664310 0.500000 0.622728
#
# Coordination Sequence:
#
# PCOD8080508 Si02
#       8
#     8   8   8   8   8   8   8   8
#     4   9  17  30  49  71  95 123 161 207 246 282
#     4   9  17  28  44  69  97 125 158 196 240 287
#     4   9  18  32  49  69  94 129 169 203 236 279
#     4  10  19  31  48  68  97 134 164 193 233 284
#     4  10  18  28  47  72  97 125 156 197 244 283
#     4   9  18  32  49  70  96 125 162 206 245 279
#     4  10  19  31  49  73  99 124 154 191 233 283
#     4  10  20  32  48  72 100 127 154 189 232 282
#
# _framework density 17.262367000000001
#
# number of rings (size 3 to 8) (size 9 to 14) (size 15 to 20)
#    0.000    2.500    1.250    1.500    0.000    2.500 
#    0.000    3.750    0.000    0.750    0.000    9.625 
#    0.000    0.000    0.000    0.000    0.000    0.000 
#
# Total GULP energy -396760.191581 kJ/mol
# GULP energy per Si atom -12398.755987 kJ/mol
# Density = 1.722308 g / cm^3
# Si number density = 17.262367 Si / 1000 Ang^3
#
#
#
# Elastic Constant Matrix: (Units=GPa)
#
#
# Indices 1 2 3 4 5 6 
#
# 1 113.5472 36.4935 74.2412 0.0004 3.8304 -0.0002
# 2 36.4935 62.7127 47.1975 0.0010 7.4961 0.0007
# 3 74.2412 47.1975 126.9812 -0.0002 16.3502 -0.0002
# 4 0.0004 0.0010 -0.0002 26.2070 0.0000 1.1230
# 5 3.8304 7.4961 16.3502 0.0000 24.4685 0.0000
# 6 -0.0002 0.0007 -0.0002 1.1230 0.0000 17.9194
#
#
#
# Elastic Compliance Matrix: (Units=1/GPa)
#
#
# Indices 1 2 3 4 5 6 
#
# 1 0.014977 -0.003077 -0.008132 0.000000 0.004032 0.000000
# 2 -0.003077 0.022815 -0.006393 -0.000001 -0.002236 -0.000001
# 3 -0.008132 -0.006393 0.015963 0.000000 -0.007435 0.000000
# 4 0.000000 -0.000001 0.000000 0.038261 0.000000 -0.002398
# 5 0.004032 -0.002236 -0.007435 0.000000 0.045891 0.000000
# 6 0.000000 -0.000001 0.000000 -0.002398 0.000000 0.055956
#
#
# Mechanical properties :
#
#
# Convention : Reuss Voigt Hill
#
# Bulk Modulus (GPa) = 53.90582 68.78952 61.34767
# Shear Modulus (GPa) = 21.25399 23.40622 22.33011
#
# Velocity S-wave (km/s) = 3.51270 3.68626 3.60053
# Velocity P-wave (km/s) = 6.90994 7.61932 7.27328
#
# Compressibility (1/GPa) = 0.01855087
#
# Stress axis : x y z
#
# Youngs Moduli (GPa) = 66.77037 43.83062 62.64444
#
# Poissons Ratio (x) = 0.13488 0.50941
# Poissons Ratio (y) = 0.20547 0.40049
# Poissons Ratio (z) = 0.54296 0.28021
#
# Static dielectric constant tensor:
#      x y z
#    x 3.188620 0.000000 0.263680 
#    y 0.000000 3.145360 0.000000 
#    z 0.263680 0.000000 3.446790 
# 
# 
# High freq. dielectric constant tensor:
#      x y z
#    x 1.644310 0.000000 0.025280 
#    y 0.000000 1.657940 0.000000 
#    z 0.025280 0.000000 1.669370 
# 
# From -- ./inp_files/326810.got.cif
#   From: 2010.06.25/outbox.cif.g09.slc.cpg/sg12_164_cif.got.tgz:326810.got - 2010.06.28 00:19:55.
