data_PCOD8080007
_publ_section_title
;
Structure prediction by ZEFSAII (Michael W. Deem and Ramdas Pophale) SiO2 
 PCOD8080007
Probable space group: C 2/M
;
_chemical_formula_sum "Si O2"
_cell_formula_units_Z 48
_cell_length_a 12.899135
_cell_length_b 24.785856
_cell_length_c 10.953479
_cell_angle_alpha 90.000000
_cell_angle_beta 130.792163
_cell_angle_gamma 90.000000
_cell_volume 2651.312392
_symmetry_space_group_name_H-M "C 2/M"
_symmetry_group_IT_number 12
_symmetry_cell_setting 'monoclinic'
loop_
_space_group_symop_operation_xyz
x,y,z
-x,y,-z
-x,-y,-z
x,-y,z
1/2+x,1/2+y,z
1/2-x,1/2+y,-z
1/2-x,1/2-y,-z
1/2+x,1/2-y,z
loop_
_atom_site_type_symbol
_atom_site_label
_atom_site_fract_x
_atom_site_fract_y
_atom_site_fract_z
Si Si1 0.841418 0.164897 0.659193
Si Si2 0.146986 0.242661 0.101750
Si Si3 0.427541 0.941774 0.314151
Si Si4 0.535760 0.168130 0.383793
Si Si5 0.593822 0.276032 0.794717
Si Si6 0.369403 0.560829 0.819329
O O1 0.842391 0.197620 0.786688
O O2 0.697270 0.175528 0.482450
O O3 0.859921 0.101437 0.698087
O O4 0.965902 0.184530 0.667027
O O5 0.279452 0.282899 0.204297
O O6 0.150270 0.211731 0.973842
O O7 0.000000 0.273607 0.000000
O O8 0.500000 0.943933 0.500000
O O9 0.488887 0.889822 0.291236
O O10 0.265306 0.933181 0.201869
O O11 0.455131 0.000000 0.269204
O O12 0.500000 0.171273 0.500000
O O13 0.458045 0.214354 0.251058
O O14 0.382459 0.500000 0.777291
O O15 0.500000 0.576585 0.000000
#
# Coordination Sequence:
#
# PCOD8080007 Si02
#       6
#     8   8   8   8   8   8
#     4  11  19  31  46  65  95 127 152 189 228 268
#     4   9  18  31  45  61  87 122 154 183 227 275
#     4   9  16  28  45  62  87 124 155 178 223 279
#     4  11  18  29  45  65  93 124 156 188 222 266
#     4  10  19  29  44  65  89 122 155 186 227 272
#     4  10  18  27  42  66  91 120 154 184 222 276
#
# _framework density 18.104241999999999
#
# number of rings (size 3 to 8) (size 9 to 14) (size 15 to 20)
#    0.000    2.000    5.000    2.000    0.000    1.333 
#    0.000    0.000    0.000    0.000    0.000    0.000 
#    0.000   12.667    0.000    1.000    0.000    0.500 
#
# Total GULP energy -297325.871568 kJ/mol
# GULP energy per Si atom -12388.577982 kJ/mol
# Density = 1.806304 g / cm^3
# Si number density = 18.104242 Si / 1000 Ang^3
#
#
#
# Elastic Constant Matrix: (Units=GPa)
#
#
# Indices 1 2 3 4 5 6 
#
# 1 91.2131 29.7535 27.8135 0.0000 43.3204 0.0000
# 2 29.7535 95.1144 16.9027 0.0000 12.9320 0.0000
# 3 27.8135 16.9027 63.7850 0.0000 33.3329 0.0000
# 4 0.0000 0.0000 0.0000 21.6294 0.0000 6.9116
# 5 43.3204 12.9320 33.3329 0.0000 41.1966 0.0000
# 6 0.0000 0.0000 0.0000 6.9116 0.0000 26.6161
#
#
#
# Elastic Compliance Matrix: (Units=1/GPa)
#
#
# Indices 1 2 3 4 5 6 
#
# 1 0.024473 -0.004741 0.005641 0.000000 -0.028810 0.000000
# 2 -0.004741 0.012038 -0.003038 0.000000 0.003664 0.000000
# 3 0.005641 -0.003038 0.028803 0.000000 -0.028283 0.000000
# 4 0.000000 0.000000 0.000000 0.050417 0.000000 -0.013092
# 5 -0.028810 0.003664 -0.028283 0.000000 0.076303 0.000000
# 6 0.000000 0.000000 0.000000 -0.013092 0.000000 0.040971
#
#
# Mechanical properties :
#
#
# Convention : Reuss Voigt Hill
#
# Bulk Modulus (GPa) = 16.38309 44.33909 30.36109
# Shear Modulus (GPa) = 19.40787 29.59795 24.50291
#
# Velocity S-wave (km/s) = 3.27770 4.04773 3.68290
# Velocity P-wave (km/s) = 4.83667 6.81099 5.90691
#
# Compressibility (1/GPa) = 0.06103853
#
# Stress axis : x y z
#
# Youngs Moduli (GPa) = 40.86175 83.06824 34.71827
#
# Poissons Ratio (x) = 0.39381 -0.19583
# Poissons Ratio (y) = 0.19372 0.10546
# Poissons Ratio (z) = -0.23048 0.25233
#
# Static dielectric constant tensor:
#      x y z
#    x 3.511330 0.000000 0.628640 
#    y 0.000000 3.665460 0.000000 
#    z 0.628640 0.000000 3.389830 
# 
# 
# High freq. dielectric constant tensor:
#      x y z
#    x 1.669210 0.000000 0.058740 
#    y 0.000000 1.687280 0.000000 
#    z 0.058740 0.000000 1.696260 
# 
# From -- ./inp_files/136766.got.cif
#   From: 2010.06.25/outbox.cif.g09.slc.cpg/sg12_69_cif.got.tgz:136766.got - 2010.06.28 00:19:55.
