data_PCOD8080194
_publ_section_title
;
Structure prediction by ZEFSAII (Michael W. Deem and Ramdas Pophale) SiO2 
 PCOD8080194
Probable space group: C 2/M
;
_chemical_formula_sum "Si O2"
_cell_formula_units_Z 56
_cell_length_a 24.609350
_cell_length_b 8.844576
_cell_length_c 18.984064
_cell_angle_alpha 90.000000
_cell_angle_beta 130.403049
_cell_angle_gamma 90.000000
_cell_volume 3146.577514
_symmetry_space_group_name_H-M "C 2/M"
_symmetry_group_IT_number 12
_symmetry_cell_setting 'monoclinic'
loop_
_space_group_symop_operation_xyz
x,y,z
-x,y,-z
-x,-y,-z
x,-y,z
1/2+x,1/2+y,z
1/2-x,1/2+y,-z
1/2-x,1/2-y,-z
1/2+x,1/2-y,z
loop_
_atom_site_type_symbol
_atom_site_label
_atom_site_fract_x
_atom_site_fract_y
_atom_site_fract_z
Si Si1 0.215288 0.825034 0.816937
Si Si2 0.299494 0.823837 0.598991
Si Si3 0.553329 0.320907 0.106656
Si Si4 0.956724 0.674737 0.754367
Si Si5 0.702360 0.174738 0.245635
Si Si6 0.398352 0.174965 0.183062
Si Si7 0.809381 0.820020 1.000000
O O1 0.226439 0.802919 0.742621
O O2 0.142113 0.750002 0.784229
O O3 0.213019 0.000000 0.837599
O O4 0.287960 0.745703 0.906352
O O5 0.250000 0.750000 0.500000
O O6 0.381780 0.772429 0.657594
O O7 0.275814 0.772413 0.657596
O O8 0.290456 0.000000 0.580925
O O9 0.553993 0.500000 0.107980
O O10 0.525513 0.264538 0.159218
O O11 0.633706 0.264528 0.159214
O O12 0.500000 0.262985 0.000000
O O13 0.952000 0.500000 0.772926
O O14 0.016181 0.697078 0.742623
O O15 0.679081 0.000000 0.227087
O O16 0.381607 0.254293 0.093646
O O17 0.375418 0.000000 0.162400
O O18 0.811077 0.000000 0.000001
O O19 0.750000 0.750000 0.000000
#
# Coordination Sequence:
#
# PCOD8080194 Si02
#       7
#     8   8   8   8   8   8   8
#     4  10  19  32  49  71  99 136 175 211 247 291
#     4   9  18  36  58  80  99 122 160 210 259 310
#     4  10  21  33  47  73 104 132 168 216 258 289
#     4   9  20  36  53  73 101 136 172 203 248 313
#     4   9  20  36  53  73 101 136 172 203 248 313
#     4  10  19  32  49  71  99 136 175 211 247 291
#     4  10  18  28  42  63  94 133 174 212 242 280
#
# _framework density 17.797114000000001
#
# number of rings (size 3 to 8) (size 9 to 14) (size 15 to 20)
#    0.000    2.429    0.000    5.143    2.000    5.714 
#    0.000    0.000    0.000    0.857    0.000    6.000 
#    0.000    0.000    0.000    0.000    0.000    0.000 
#
# Total GULP energy -346900.794745 kJ/mol
# GULP energy per Si atom -12389.314098 kJ/mol
# Density = 1.775661 g / cm^3
# Si number density = 17.797114 Si / 1000 Ang^3
#
#
#
# Elastic Constant Matrix: (Units=GPa)
#
#
# Indices 1 2 3 4 5 6 
#
# 1 135.8330 43.6297 60.0096 0.0000 -2.8284 0.0000
# 2 43.6297 98.7717 44.6304 0.0000 0.0652 0.0000
# 3 60.0096 44.6304 126.6288 0.0000 2.2253 0.0000
# 4 0.0000 0.0000 0.0000 26.4032 0.0000 0.1597
# 5 -2.8284 0.0652 2.2253 0.0000 16.6140 0.0000
# 6 0.0000 0.0000 0.0000 0.1597 0.0000 23.9583
#
#
#
# Elastic Compliance Matrix: (Units=1/GPa)
#
#
# Indices 1 2 3 4 5 6 
#
# 1 0.009951 -0.002675 -0.003812 0.000000 0.002215 0.000000
# 2 -0.002675 0.012766 -0.003230 0.000000 -0.000073 0.000000
# 3 -0.003812 -0.003230 0.010879 0.000000 -0.002093 0.000000
# 4 0.000000 0.000000 0.000000 0.037876 0.000000 -0.000252
# 5 0.002215 -0.000073 -0.002093 0.000000 0.060848 0.000000
# 6 0.000000 0.000000 0.000000 -0.000252 0.000000 0.041741
#
#
# Mechanical properties :
#
#
# Convention : Reuss Voigt Hill
#
# Bulk Modulus (GPa) = 70.61446 73.08588 71.85017
# Shear Modulus (GPa) = 25.22506 27.59270 26.40888
#
# Velocity S-wave (km/s) = 3.76888 3.94179 3.85630
# Velocity P-wave (km/s) = 7.66178 7.86589 7.76451
#
# Compressibility (1/GPa) = 0.01416141
#
# Stress axis : x y z
#
# Youngs Moduli (GPa) = 100.48830 78.33596 91.91958
#
# Poissons Ratio (x) = 0.20952 0.35042
# Poissons Ratio (y) = 0.26877 0.29694
# Poissons Ratio (z) = 0.38308 0.25306
#
# Static dielectric constant tensor:
#      x y z
#    x 3.376310 0.000000 0.051630 
#    y 0.000000 3.343700 0.000000 
#    z 0.051630 0.000000 4.166390 
# 
# 
# High freq. dielectric constant tensor:
#      x y z
#    x 1.693950 0.000000 -0.002790 
#    y 0.000000 1.695770 0.000000 
#    z -0.002790 0.000000 1.651320 
# 
# From -- ./inp_files/291953.got.cif
#   From: 2010.06.25/outbox.cif.g09.slc.cpg/sg12_146_cif.got.tgz:291953.got - 2010.06.28 00:19:55.
