data_PCOD8080855
_publ_section_title
;
Structure prediction by ZEFSAII (Michael W. Deem and Ramdas Pophale) SiO2 
 PCOD8080855
Probable space group: C 2/M
;
_chemical_formula_sum "Si O2"
_cell_formula_units_Z 64
_cell_length_a 23.515702
_cell_length_b 9.321173
_cell_length_c 19.951079
_cell_angle_alpha 90.000000
_cell_angle_beta 122.057422
_cell_angle_gamma 90.000000
_cell_volume 3706.321678
_symmetry_space_group_name_H-M "C 2/M"
_symmetry_group_IT_number 12
_symmetry_cell_setting 'monoclinic'
loop_
_space_group_symop_operation_xyz
x,y,z
-x,y,-z
-x,-y,-z
x,-y,z
1/2+x,1/2+y,z
1/2-x,1/2+y,-z
1/2-x,1/2-y,-z
1/2+x,1/2-y,z
loop_
_atom_site_type_symbol
_atom_site_label
_atom_site_fract_x
_atom_site_fract_y
_atom_site_fract_z
Si Si1 0.679428 0.834200 0.607206
Si Si2 0.688516 0.841277 0.159921
Si Si3 0.974352 0.164398 0.300992
Si Si4 0.692976 0.838045 0.322271
Si Si5 0.561564 0.668124 0.082157
Si Si6 0.565131 0.333985 0.237612
Si Si7 0.166679 0.167505 0.734433
Si Si8 0.038243 0.664231 0.459197
O O1 0.741880 0.750432 0.612843
O O2 0.656817 0.764823 0.663080
O O3 0.618064 0.821057 0.517348
O O4 0.699094 0.000000 0.632162
O O5 0.692537 0.838232 0.242264
O O6 0.630928 0.735211 0.097830
O O7 0.763527 0.794791 0.182913
O O8 0.670422 0.000000 0.122422
O O9 0.895194 0.201038 0.254680
O O10 0.999424 0.196725 0.241273
O O11 0.017796 0.254054 0.379910
O O12 0.986796 0.000000 0.327900
O O13 0.625927 0.759480 0.305955
O O14 0.695321 0.000000 0.352610
O O15 0.568853 0.500000 0.076638
O O16 0.548062 0.711253 0.150788
O O17 0.500000 0.729148 0.000000
O O18 0.586911 0.500000 0.253566
O O19 0.168690 0.000000 0.713576
O O20 0.015812 0.500000 0.436486
O O21 0.000000 0.729623 0.500000
#
# Coordination Sequence:
#
# PCOD8080855 Si02
#       8
#     8   8   8   8   8   8   8   8
#     4  10  18  29  47  68  92 122 158 201 243 280
#     4   8  15  27  44  68  95 119 149 189 228 274
#     4  10  20  32  49  70  94 127 162 199 239 282
#     4   9  17  30  48  69  93 122 158 199 241 282
#     4   9  17  30  50  74  97 121 151 190 234 279
#     4   9  18  33  50  71  97 124 159 195 234 286
#     4   9  17  29  45  68  95 123 158 196 236 277
#     4  10  20  33  46  67  97 126 160 201 243 284
#
# _framework density 17.267793000000001
#
# number of rings (size 3 to 8) (size 9 to 14) (size 15 to 20)
#    0.000    2.750    1.250    1.500    0.000    5.000 
#    0.000    0.625    0.000    0.750    0.000    0.000 
#    0.000    0.000    0.000    0.000    0.000    1.625 
#
# Total GULP energy -396705.094630 kJ/mol
# GULP energy per Si atom -12397.034207 kJ/mol
# Density = 1.722849 g / cm^3
# Si number density = 17.267793 Si / 1000 Ang^3
#
#
#
# Elastic Constant Matrix: (Units=GPa)
#
#
# Indices 1 2 3 4 5 6 
#
# 1 124.3485 49.2527 52.7955 0.0000 22.8762 0.0000
# 2 49.2527 75.4553 40.2162 0.0000 13.5658 0.0000
# 3 52.7955 40.2162 76.5260 0.0000 21.3454 0.0000
# 4 0.0000 0.0000 0.0000 20.8702 0.0000 7.4371
# 5 22.8762 13.5658 21.3454 0.0000 26.4227 0.0000
# 6 0.0000 0.0000 0.0000 7.4371 0.0000 25.1437
#
#
#
# Elastic Compliance Matrix: (Units=1/GPa)
#
#
# Indices 1 2 3 4 5 6 
#
# 1 0.013012 -0.004953 -0.005088 0.000000 -0.004613 0.000000
# 2 -0.004953 0.020386 -0.007194 0.000000 -0.000367 0.000000
# 3 -0.005088 -0.007194 0.023364 0.000000 -0.010776 0.000000
# 4 0.000000 0.000000 0.000000 0.053561 0.000000 -0.015842
# 5 -0.004613 -0.000367 -0.010776 0.000000 0.050734 0.000000
# 6 0.000000 0.000000 0.000000 -0.015842 0.000000 0.044457
#
#
# Mechanical properties :
#
#
# Convention : Reuss Voigt Hill
#
# Bulk Modulus (GPa) = 44.85706 62.31763 53.58734
# Shear Modulus (GPa) = 20.20903 23.42502 21.81703
#
# Velocity S-wave (km/s) = 3.42472 3.68716 3.55836
# Velocity P-wave (km/s) = 6.45538 7.36846 6.92698
#
# Compressibility (1/GPa) = 0.02229304
#
# Stress axis : x y z
#
# Youngs Moduli (GPa) = 76.84971 49.05342 42.80089
#
# Poissons Ratio (x) = 0.24294 0.21777
# Poissons Ratio (y) = 0.38061 0.30791
# Poissons Ratio (z) = 0.39100 0.35290
#
# Static dielectric constant tensor:
#      x y z
#    x 3.433250 0.000000 0.310700 
#    y 0.000000 3.312330 0.000000 
#    z 0.310700 0.000000 2.967240 
# 
# 
# High freq. dielectric constant tensor:
#      x y z
#    x 1.667010 0.000000 0.028130 
#    y 0.000000 1.669360 0.000000 
#    z 0.028130 0.000000 1.627720 
# 
# From -- ./inp_files/319987.got.cif
#   From: 2010.06.25/outbox.cif.g09.slc.cpg/sg12_160_cif.got.tgz:319987.got - 2010.06.28 00:19:55.
