data_PCOD8080042
_publ_section_title
;
Structure prediction by ZEFSAII (Michael W. Deem and Ramdas Pophale) SiO2 
 PCOD8080042
Probable space group: C 2/M
;
_chemical_formula_sum "Si O2"
_cell_formula_units_Z 64
_cell_length_a 23.970224
_cell_length_b 9.581850
_cell_length_c 16.588046
_cell_angle_alpha 90.000000
_cell_angle_beta 104.466385
_cell_angle_gamma 90.000000
_cell_volume 3689.131177
_symmetry_space_group_name_H-M "C 2/M"
_symmetry_group_IT_number 12
_symmetry_cell_setting 'monoclinic'
loop_
_space_group_symop_operation_xyz
x,y,z
-x,y,-z
-x,-y,-z
x,-y,z
1/2+x,1/2+y,z
1/2-x,1/2+y,-z
1/2-x,1/2-y,-z
1/2+x,1/2-y,z
loop_
_atom_site_type_symbol
_atom_site_label
_atom_site_fract_x
_atom_site_fract_y
_atom_site_fract_z
Si Si1 0.053788 0.334650 0.417932
Si Si2 0.238115 0.664512 0.913803
Si Si3 0.364538 0.844842 0.229159
Si Si4 0.407565 0.834627 0.739603
Si Si5 0.652957 0.662343 0.156297
Si Si6 0.435709 0.345931 0.006877
Si Si7 0.425767 0.166696 0.399836
Si Si8 0.468211 0.153885 0.155385
O O1 0.048579 0.500000 0.411838
O O2 0.089518 0.283631 0.352564
O O3 0.087049 0.288717 0.512074
O O4 0.988679 0.274126 0.396809
O O5 0.233861 0.500000 0.935078
O O6 0.180154 0.726517 0.849630
O O7 0.286457 0.692189 0.863963
O O8 0.250000 0.750000 0.000000
O O9 0.374737 0.774646 0.321645
O O10 0.430005 0.851012 0.221401
O O11 0.338722 0.000000 0.230794
O O12 0.355590 0.752984 0.765346
O O13 0.468358 0.789525 0.801632
O O14 0.397023 0.000000 0.742693
O O15 0.645143 0.500000 0.175577
O O16 0.604287 0.715978 0.077096
O O17 0.413368 0.500000 0.022925
O O18 0.431809 0.249240 0.082512
O O19 0.500000 0.351350 0.000000
O O20 0.426106 0.000000 0.392089
O O21 0.473623 0.000000 0.118754
#
# Coordination Sequence:
#
# PCOD8080042 Si02
#       8
#     8   8   8   8   8   8   8   8
#     4   8  13  22  39  69 103 125 143 179 236 286
#     4  10  21  36  53  70  92 123 161 201 236 271
#     4   9  16  28  46  69  94 120 152 193 236 277
#     4  10  18  28  45  71  98 120 146 186 232 279
#     4  10  21  35  47  63  89 125 162 190 225 277
#     4  10  19  30  42  57  84 120 153 184 220 270
#     4   8  12  21  41  68  99 126 146 181 234 285
#     4  10  18  27  43  69  95 114 142 186 235 278
#
# _framework density 17.348258000000001
#
# number of rings (size 3 to 8) (size 9 to 14) (size 15 to 20)
#    0.000    2.625    2.500    1.500    0.000    1.250 
#    0.000    0.000    0.000    0.750    0.000    3.500 
#    0.000    0.000    0.000    0.000    0.000    0.000 
#
# Total GULP energy -396418.264929 kJ/mol
# GULP energy per Si atom -12388.070779 kJ/mol
# Density = 1.730877 g / cm^3
# Si number density = 17.348258 Si / 1000 Ang^3
#
#
#
# Elastic Constant Matrix: (Units=GPa)
#
#
# Indices 1 2 3 4 5 6 
#
# 1 68.6245 18.6739 41.4312 0.0000 -6.8671 0.0000
# 2 18.6739 35.3919 38.8519 0.0000 -8.4542 0.0000
# 3 41.4312 38.8519 149.8759 0.0000 -4.3406 0.0000
# 4 0.0000 0.0000 0.0000 10.1212 0.0000 -6.9688
# 5 -6.8671 -8.4542 -4.3406 0.0000 29.5346 0.0000
# 6 0.0000 0.0000 0.0000 -6.9688 0.0000 -8.9922
#
#
#
# Elastic Compliance Matrix: (Units=1/GPa)
#
#
# Indices 1 2 3 4 5 6 
#
# 1 0.018427 -0.005115 -0.003702 0.000000 0.002276 0.000000
# 2 -0.005115 0.043984 -0.009699 0.000000 0.009976 0.000000
# 3 -0.003702 -0.009699 0.010148 0.000000 -0.002146 0.000000
# 4 0.000000 0.000000 0.000000 0.064425 0.000000 -0.049928
# 5 0.002276 0.009976 -0.002146 0.000000 0.036928 0.000000
# 6 0.000000 0.000000 0.000000 -0.049928 0.000000 -0.072514
#
#
# Mechanical properties :
#
#
# Convention : Reuss Voigt Hill
#
# Bulk Modulus (GPa) = 28.14790 50.20069 39.17430
# Shear Modulus (GPa) = 33.27300 16.46173 24.86736
#
# Velocity S-wave (km/s) = 4.38419 3.08376 3.79016
# Velocity P-wave (km/s) = 6.47214 6.45595 6.46405
#
# Compressibility (1/GPa) = 0.03552662
#
# Stress axis : x y z
#
# Youngs Moduli (GPa) = 54.26908 22.73553 98.54498
#
# Poissons Ratio (x) = 0.11629 0.36481
# Poissons Ratio (y) = 0.27758 0.95579
# Poissons Ratio (z) = 0.20090 0.22051
#
# Static dielectric constant tensor:
#      x y z
#    x 3.096600 0.000000 -0.003360 
#    y 0.000000 2.926530 0.000000 
#    z -0.003360 0.000000 3.567030 
# 
# 
# High freq. dielectric constant tensor:
#      x y z
#    x 1.648820 0.000000 -0.004220 
#    y 0.000000 1.621030 0.000000 
#    z -0.004220 0.000000 1.679150 
# 
# From -- ./inp_files/245146.got.cif
#   From: 2010.06.25/outbox.cif.g09.slc.cpg/sg12_123_cif.got.tgz:245146.got - 2010.06.28 00:19:55.
