data_PCOD8080900
_publ_section_title
;
Structure prediction by ZEFSAII (Michael W. Deem and Ramdas Pophale) SiO2 
 PCOD8080900
Probable space group: C 2/M
;
_chemical_formula_sum "Si O2"
_cell_formula_units_Z 64
_cell_length_a 23.733274
_cell_length_b 9.386366
_cell_length_c 18.707009
_cell_angle_alpha 90.000000
_cell_angle_beta 54.148581
_cell_angle_gamma 90.000000
_cell_volume 3377.793994
_symmetry_space_group_name_H-M "C 2/M"
_symmetry_group_IT_number 12
_symmetry_cell_setting 'monoclinic'
loop_
_space_group_symop_operation_xyz
x,y,z
-x,y,-z
-x,-y,-z
x,-y,z
1/2+x,1/2+y,z
1/2-x,1/2+y,-z
1/2-x,1/2-y,-z
1/2+x,1/2-y,z
loop_
_atom_site_type_symbol
_atom_site_label
_atom_site_fract_x
_atom_site_fract_y
_atom_site_fract_z
Si Si1 0.585333 0.163233 0.673501
Si Si2 0.346016 0.168583 0.780445
Si Si3 0.571046 0.163716 0.417379
Si Si4 0.785305 0.331258 0.170345
Si Si5 0.332876 0.164075 0.520470
Si Si6 0.284497 0.838110 0.333380
Si Si7 0.556512 0.831593 0.164595
Si Si8 0.565495 0.830566 0.997305
O O1 0.619848 0.232995 0.577296
O O2 0.635059 0.176952 0.705154
O O3 0.512363 0.236974 0.747843
O O4 0.570383 0.000000 0.664452
O O5 0.399237 0.226761 0.679363
O O6 0.272706 0.249639 0.832418
O O7 0.377621 0.205096 0.834701
O O8 0.333336 0.000000 0.779676
O O9 0.500000 0.238164 0.500000
O O10 0.630461 0.184220 0.431237
O O11 0.552721 0.000000 0.416058
O O12 0.776554 0.500000 0.165630
O O13 0.775511 0.284656 0.259486
O O14 0.861834 0.279652 0.090460
O O15 0.260078 0.245566 0.578236
O O16 0.316531 0.000000 0.514912
O O17 0.259137 0.000000 0.359524
O O18 0.546359 0.000000 0.165952
O O19 0.564402 0.768714 0.078978
O O20 0.561689 0.000000 0.000614
O O21 0.500000 0.770531 0.000000
#
# Coordination Sequence:
#
# PCOD8080900 Si02
#       8
#     8   8   8   8   8   8   8   8
#     4   9  17  29  47  72  98 125 161 209 253 288
#     4  10  19  32  51  75 101 130 165 207 251 293
#     4   9  16  27  45  68  94 126 165 204 238 278
#     4  10  20  33  51  74 102 135 166 202 249 299
#     4  10  18  29  47  71  97 126 163 203 247 294
#     4  10  19  31  47  69 100 132 162 199 246 296
#     4   9  17  30  50  75  99 124 164 211 249 286
#     4   9  17  31  52  77 102 129 165 207 250 296
#
# _framework density 18.947278000000001
#
# number of rings (size 3 to 8) (size 9 to 14) (size 15 to 20)
#    0.000    2.500    1.250    1.875    0.000    6.500 
#    0.000    0.000    0.000    4.875    0.000    0.000 
#    0.000    0.000    0.000    0.000    0.000    0.000 
#
# Total GULP energy -396682.730203 kJ/mol
# GULP energy per Si atom -12396.335319 kJ/mol
# Density = 1.890415 g / cm^3
# Si number density = 18.947278 Si / 1000 Ang^3
#
#
#
# Elastic Constant Matrix: (Units=GPa)
#
#
# Indices 1 2 3 4 5 6 
#
# 1 117.7444 24.9624 71.9562 0.0012 -3.0058 -0.0005
# 2 24.9624 22.6705 27.2142 0.0067 -4.9705 -0.0043
# 3 71.9562 27.2142 138.4597 0.0031 -6.1542 -0.0020
# 4 0.0012 0.0067 0.0031 15.8825 -0.0018 -4.1036
# 5 -3.0058 -4.9705 -6.1542 -0.0018 40.2844 0.0010
# 6 -0.0005 -0.0043 -0.0020 -4.1036 0.0010 20.5889
#
#
#
# Elastic Compliance Matrix: (Units=1/GPa)
#
#
# Indices 1 2 3 4 5 6 
#
# 1 0.013619 -0.008698 -0.005407 0.000003 -0.000883 -0.000001
# 2 -0.008698 0.064490 -0.007884 -0.000022 0.006104 0.000008
# 3 -0.005407 -0.007884 0.011600 0.000001 0.000396 0.000000
# 4 0.000003 -0.000022 0.000001 0.066381 0.000000 0.013230
# 5 -0.000883 0.006104 0.000396 0.000000 0.025571 0.000000
# 6 -0.000001 0.000008 0.000000 0.013230 0.000000 0.051207
#
#
# Mechanical properties :
#
#
# Convention : Reuss Voigt Hill
#
# Bulk Modulus (GPa) = 21.86762 58.57114 40.21938
# Shear Modulus (GPa) = 17.11807 25.66729 21.39268
#
# Velocity S-wave (km/s) = 3.00902 3.68458 3.36380
# Velocity P-wave (km/s) = 4.86196 7.00580 6.02992
#
# Compressibility (1/GPa) = 0.04572971
#
# Stress axis : x y z
#
# Youngs Moduli (GPa) = 73.42659 15.50631 86.21034
#
# Poissons Ratio (x) = 0.13488 0.46616
# Poissons Ratio (y) = 0.63870 0.67965
# Poissons Ratio (z) = 0.39704 0.12225
#
# Static dielectric constant tensor:
#      x y z
#    x 3.498470 0.000000 0.014950 
#    y 0.000000 2.853430 0.000000 
#    z 0.014950 0.000000 3.727170 
# 
# 
# High freq. dielectric constant tensor:
#      x y z
#    x 1.749250 0.000000 0.001850 
#    y 0.000000 1.660960 0.000000 
#    z 0.001850 0.000000 1.749700 
# 
# From -- ./inp_files/289071.got.cif
#   From: 2010.06.25/outbox.cif.g09.slc.cpg/sg12_145_cif.got.tgz:289071.got - 2010.06.28 00:19:55.
