data_PCOD8080998
_publ_section_title
;
Structure prediction by ZEFSAII (Michael W. Deem and Ramdas Pophale) SiO2 
 PCOD8080998
Probable space group: C 2/M
;
_chemical_formula_sum "Si O2"
_cell_formula_units_Z 64
_cell_length_a 20.718124
_cell_length_b 8.979901
_cell_length_c 26.251771
_cell_angle_alpha 90.000000
_cell_angle_beta 128.531670
_cell_angle_gamma 90.000000
_cell_volume 3820.620466
_symmetry_space_group_name_H-M "C 2/M"
_symmetry_group_IT_number 12
_symmetry_cell_setting 'monoclinic'
loop_
_space_group_symop_operation_xyz
x,y,z
-x,y,-z
-x,-y,-z
x,-y,z
1/2+x,1/2+y,z
1/2-x,1/2+y,-z
1/2-x,1/2-y,-z
1/2+x,1/2-y,z
loop_
_atom_site_type_symbol
_atom_site_label
_atom_site_fract_x
_atom_site_fract_y
_atom_site_fract_z
Si Si1 0.283688 0.169030 0.565677
Si Si2 0.332080 0.824857 0.786158
Si Si3 0.444044 0.169757 0.695152
Si Si4 0.496198 0.670032 0.139043
Si Si5 0.697190 0.324229 0.325962
Si Si6 0.907510 0.173842 0.199534
Si Si7 0.923305 0.170480 0.994531
Si Si8 0.775993 0.324479 0.869781
O O1 0.250000 0.250000 0.500000
O O2 0.384714 0.175027 0.615713
O O3 0.251502 0.250450 0.601745
O O4 0.251298 0.000000 0.549807
O O5 0.427329 0.779621 0.830061
O O6 0.276201 0.741237 0.715715
O O7 0.296008 0.773028 0.822379
O O8 0.323434 0.000000 0.773209
O O9 0.399385 0.273636 0.716189
O O10 0.534350 0.239503 0.730707
O O11 0.450481 0.000000 0.718088
O O12 0.528940 0.500000 0.159948
O O13 0.439203 0.714438 0.158802
O O14 0.437868 0.688161 0.061521
O O15 0.708032 0.500000 0.333381
O O16 0.815000 0.233749 0.160476
O O17 0.912443 0.000000 0.214462
O O18 0.839980 0.256723 0.940879
O O19 0.910885 0.000000 0.971956
O O20 0.000000 0.237841 0.000000
O O21 0.781669 0.500000 0.877952
#
# Coordination Sequence:
#
# PCOD8080998 Si02
#       8
#     8   8   8   8   8   8   8   8
#     4   9  17  28  46  76 112 141 172 207 249 293
#     4  11  20  32  50  73  99 128 170 216 258 302
#     4   9  18  30  47  74 104 132 168 207 245 293
#     4  10  19  32  53  72  93 127 168 211 259 313
#     4  10  18  29  48  73 102 133 168 206 249 296
#     4  10  20  35  52  72 100 135 172 207 256 312
#     4  10  20  34  51  73  97 125 168 215 262 316
#     4  10  23  37  50  72 101 132 168 214 261 311
#
# _framework density 16.751204999999999
#
# number of rings (size 3 to 8) (size 9 to 14) (size 15 to 20)
#    0.750    1.375    2.500    1.875    0.000    2.250 
#    0.000    0.000    0.000    0.000    0.000    0.875 
#    0.000    7.000    0.000    0.000    0.000    0.000 
#
# Total GULP energy -396603.082532 kJ/mol
# GULP energy per Si atom -12393.846329 kJ/mol
# Density = 1.671308 g / cm^3
# Si number density = 16.751205 Si / 1000 Ang^3
#
#
#
# Elastic Constant Matrix: (Units=GPa)
#
#
# Indices 1 2 3 4 5 6 
#
# 1 85.0096 25.5326 38.3783 0.0000 -0.1215 0.0000
# 2 25.5326 83.2700 43.2269 0.0000 -3.7020 0.0000
# 3 38.3783 43.2269 102.4063 0.0000 -6.1217 0.0000
# 4 0.0000 0.0000 0.0000 32.6762 0.0000 3.0223
# 5 -0.1215 -3.7020 -6.1217 0.0000 20.4144 0.0000
# 6 0.0000 0.0000 0.0000 3.0223 0.0000 18.8341
#
#
#
# Elastic Compliance Matrix: (Units=1/GPa)
#
#
# Indices 1 2 3 4 5 6 
#
# 1 0.014489 -0.002109 -0.004641 0.000000 -0.001688 0.000000
# 2 -0.002109 0.015701 -0.005771 0.000000 0.001104 0.000000
# 3 -0.004641 -0.005771 0.014129 0.000000 0.003163 0.000000
# 4 0.000000 0.000000 0.000000 0.031064 0.000000 -0.004985
# 5 -0.001688 0.001104 0.003163 0.000000 0.050124 0.000000
# 6 0.000000 0.000000 0.000000 -0.004985 0.000000 0.053895
#
#
# Mechanical properties :
#
#
# Convention : Reuss Voigt Hill
#
# Bulk Modulus (GPa) = 51.87258 53.88461 52.87860
# Shear Modulus (GPa) = 23.71124 25.28816 24.49970
#
# Velocity S-wave (km/s) = 3.76639 3.88961 3.82850
# Velocity P-wave (km/s) = 7.06739 7.23945 7.15393
#
# Compressibility (1/GPa) = 0.01927801
#
# Stress axis : x y z
#
# Youngs Moduli (GPa) = 69.01551 63.69144 70.77415
#
# Poissons Ratio (x) = 0.13430 0.32846
# Poissons Ratio (y) = 0.14553 0.40845
# Poissons Ratio (z) = 0.32030 0.36758
#
# Static dielectric constant tensor:
#      x y z
#    x 2.994040 0.000000 -0.072290 
#    y 0.000000 3.133920 0.000000 
#    z -0.072290 0.000000 3.139020 
# 
# 
# High freq. dielectric constant tensor:
#      x y z
#    x 1.607030 0.000000 -0.005790 
#    y 0.000000 1.652750 0.000000 
#    z -0.005790 0.000000 1.646610 
# 
# From -- ./inp_files/345585.got.cif
#   From: 2010.06.25/outbox.cif.g09.slc.cpg/sg12_173_cif.got.tgz:345585.got - 2010.06.28 00:19:55.
