data_PCOD8080937
_publ_section_title
;
Structure prediction by ZEFSAII (Michael W. Deem and Ramdas Pophale) SiO2 
 PCOD8080937
Probable space group: C 2/M
;
_chemical_formula_sum "Si O2"
_cell_formula_units_Z 48
_cell_length_a 22.959096
_cell_length_b 8.832396
_cell_length_c 14.096363
_cell_angle_alpha 90.000000
_cell_angle_beta 102.649699
_cell_angle_gamma 90.000000
_cell_volume 2789.130224
_symmetry_space_group_name_H-M "C 2/M"
_symmetry_group_IT_number 12
_symmetry_cell_setting 'monoclinic'
loop_
_space_group_symop_operation_xyz
x,y,z
-x,y,-z
-x,-y,-z
x,-y,z
1/2+x,1/2+y,z
1/2-x,1/2+y,-z
1/2-x,1/2-y,-z
1/2+x,1/2-y,z
loop_
_atom_site_type_symbol
_atom_site_label
_atom_site_fract_x
_atom_site_fract_y
_atom_site_fract_z
Si Si1 0.950304 0.179310 0.850937
Si Si2 0.797161 0.179675 0.087732
Si Si3 0.692320 0.173875 0.518360
Si Si4 0.735897 0.821568 0.726979
Si Si5 0.144168 0.677589 0.310195
Si Si6 0.079326 0.179020 0.950973
O O1 0.918092 0.265726 0.754105
O O2 0.019397 0.233209 0.875739
O O3 0.944417 0.000000 0.833873
O O4 0.920410 0.232136 0.939400
O O5 0.784354 0.230246 0.189173
O O6 0.862464 0.242218 0.081471
O O7 0.793874 0.000000 0.078906
O O8 0.750000 0.250000 0.000000
O O9 0.750000 0.250000 0.500000
O O10 0.685835 0.218939 0.627378
O O11 0.639735 0.209877 0.423531
O O12 0.707936 0.000000 0.522365
O O13 0.801554 0.768704 0.718342
O O14 0.738510 0.000000 0.750972
O O15 0.153332 0.500000 0.293310
O O16 0.078851 0.000000 0.951135
#
# Coordination Sequence:
#
# PCOD8080937 Si02
#       6
#     8   8   8   8   8   8
#     4   9  16  31  52  70  89 121 158 192 230 280
#     4  11  21  33  49  72  99 127 156 191 232 280
#     4   8  16  29  45  65  93 123 154 191 235 279
#     4  10  19  32  48  68  95 130 162 191 229 279
#     4  10  18  29  47  74  99 120 151 197 243 282
#     4   8  17  32  49  67  92 124 157 188 228 279
#
# _framework density 17.209665999999999
#
# number of rings (size 3 to 8) (size 9 to 14) (size 15 to 20)
#    0.000    2.667    0.000    3.500    0.000    2.667 
#    0.000    4.167    0.000    1.000    0.000    7.000 
#    0.000    0.000    0.000    0.000    0.000    0.000 
#
# Total GULP energy -297327.758533 kJ/mol
# GULP energy per Si atom -12388.656606 kJ/mol
# Density = 1.717050 g / cm^3
# Si number density = 17.209666 Si / 1000 Ang^3
#
#
#
# Elastic Constant Matrix: (Units=GPa)
#
#
# Indices 1 2 3 4 5 6 
#
# 1 93.4947 23.8759 63.2408 0.0000 4.9034 0.0000
# 2 23.8759 43.9515 39.7561 0.0000 1.7346 0.0000
# 3 63.2408 39.7561 164.2253 0.0000 13.1117 0.0000
# 4 0.0000 0.0000 0.0000 28.1608 0.0000 3.2201
# 5 4.9034 1.7346 13.1117 0.0000 25.4983 0.0000
# 6 0.0000 0.0000 0.0000 3.2201 0.0000 20.4457
#
#
#
# Elastic Compliance Matrix: (Units=1/GPa)
#
#
# Indices 1 2 3 4 5 6 
#
# 1 0.014925 -0.003730 -0.004834 0.000000 -0.000131 0.000000
# 2 -0.003730 0.030136 -0.005999 0.000000 0.001752 0.000000
# 3 -0.004834 -0.005999 0.009694 0.000000 -0.003647 0.000000
# 4 0.000000 0.000000 0.000000 0.036162 0.000000 -0.005695
# 5 -0.000131 0.001752 -0.003647 0.000000 0.041000 0.000000
# 6 0.000000 0.000000 0.000000 -0.005695 0.000000 0.049807
#
#
# Mechanical properties :
#
#
# Convention : Reuss Voigt Hill
#
# Bulk Modulus (GPa) = 39.01814 61.71300 50.36557
# Shear Modulus (GPa) = 22.79031 26.47423 24.63227
#
# Velocity S-wave (km/s) = 3.64301 3.92642 3.78736
# Velocity P-wave (km/s) = 6.35742 7.51618 6.96095
#
# Compressibility (1/GPa) = 0.02562910
#
# Stress axis : x y z
#
# Youngs Moduli (GPa) = 67.00195 33.18325 103.15569
#
# Poissons Ratio (x) = 0.12377 0.49865
# Poissons Ratio (y) = 0.24992 0.61881
# Poissons Ratio (z) = 0.32389 0.19906
#
# Static dielectric constant tensor:
#      x y z
#    x 3.231800 0.000000 0.107730 
#    y 0.000000 3.095510 0.000000 
#    z 0.107730 0.000000 3.952300 
# 
# 
# High freq. dielectric constant tensor:
#      x y z
#    x 1.629220 0.000000 0.010930 
#    y 0.000000 1.659120 0.000000 
#    z 0.010930 0.000000 1.683270 
# 
# From -- ./inp_files/172393.got.cif
#   From: 2010.06.25/outbox.cif.g09.slc.cpg/sg12_87_cif.got.tgz:172393.got - 2010.06.28 00:19:55.
