data_PCOD8080059
_publ_section_title
;
Structure prediction by ZEFSAII (Michael W. Deem and Ramdas Pophale) SiO2 
 PCOD8080059
Probable space group: C 2/M
;
_chemical_formula_sum "Si O2"
_cell_formula_units_Z 64
_cell_length_a 21.978038
_cell_length_b 15.882963
_cell_length_c 11.389290
_cell_angle_alpha 90.000000
_cell_angle_beta 108.743117
_cell_angle_gamma 90.000000
_cell_volume 3764.893862
_symmetry_space_group_name_H-M "C 2/M"
_symmetry_group_IT_number 12
_symmetry_cell_setting 'monoclinic'
loop_
_space_group_symop_operation_xyz
x,y,z
-x,y,-z
-x,-y,-z
x,-y,z
1/2+x,1/2+y,z
1/2-x,1/2+y,-z
1/2-x,1/2-y,-z
1/2+x,1/2-y,z
loop_
_atom_site_type_symbol
_atom_site_label
_atom_site_fract_x
_atom_site_fract_y
_atom_site_fract_z
Si Si1 0.009559 0.595081 0.313762
Si Si2 0.717301 0.093362 0.992773
Si Si3 0.829509 0.725011 0.869458
Si Si4 0.193081 0.288798 0.760986
Si Si5 0.104883 0.595249 0.576926
Si Si6 0.536925 0.766764 0.146780
Si Si7 0.491203 0.408414 0.133669
Si Si8 0.645901 0.345360 0.900224
O O1 0.013931 0.500000 0.266000
O O2 0.071663 0.614284 0.432095
O O3 0.004929 0.661465 0.205939
O O4 0.945748 0.605049 0.350006
O O5 0.686085 0.133204 0.089392
O O6 0.794142 0.091858 0.053767
O O7 0.690168 0.000000 0.962884
O O8 0.696292 0.144136 0.866589
O O9 0.765185 0.761698 0.768491
O O10 0.887069 0.715945 0.812948
O O11 0.853974 0.783883 0.988850
O O12 0.160167 0.334572 0.629554
O O13 0.152139 0.208911 0.783426
O O14 0.133070 0.500000 0.594389
O O15 0.529220 0.674209 0.202956
O O16 0.500000 0.769360 0.000000
O O17 0.516168 0.500000 0.197550
O O18 0.418137 0.400221 0.133169
O O19 0.500000 0.410117 0.000000
#
# Coordination Sequence:
#
# PCOD8080059 Si02
#       8
#     8   8   8   8   8   8   8   8
#     4   9  20  34  51  74  98 127 160 200 239 286
#     4   9  17  26  42  66  94 125 155 192 237 281
#     4   9  18  30  41  67  98 122 156 194 230 289
#     4   9  17  28  48  66  91 123 159 197 241 279
#     4   9  17  33  52  73  96 119 163 206 237 279
#     4  11  20  33  49  68 102 134 159 193 240 293
#     4  10  18  27  44  66  90 124 159 190 233 280
#     4   9  15  29  42  63  94 123 154 192 233 280
#
# _framework density 16.999151000000001
#
# number of rings (size 3 to 8) (size 9 to 14) (size 15 to 20)
#    0.000    2.625    2.500    3.750    1.750    0.750 
#    0.000    1.250    0.000    0.000    0.000   10.500 
#    0.000    0.000    0.000    0.000    0.000    0.000 
#
# Total GULP energy -396556.394734 kJ/mol
# GULP energy per Si atom -12392.387335 kJ/mol
# Density = 1.696046 g / cm^3
# Si number density = 16.999151 Si / 1000 Ang^3
#
#
#
# Elastic Constant Matrix: (Units=GPa)
#
#
# Indices 1 2 3 4 5 6 
#
# 1 79.2951 25.9918 9.0245 0.0000 2.0926 0.0000
# 2 25.9918 111.1893 25.2482 0.0000 -4.5079 0.0000
# 3 9.0245 25.2482 36.1453 0.0000 4.9770 0.0000
# 4 0.0000 0.0000 0.0000 22.9901 0.0000 8.3351
# 5 2.0926 -4.5079 4.9770 0.0000 14.9728 0.0000
# 6 0.0000 0.0000 0.0000 8.3351 0.0000 33.1096
#
#
#
# Elastic Compliance Matrix: (Units=1/GPa)
#
#
# Indices 1 2 3 4 5 6 
#
# 1 0.013807 -0.003125 -0.000911 0.000000 -0.002568 0.000000
# 2 -0.003125 0.011932 -0.008498 0.000000 0.006854 0.000000
# 3 -0.000911 -0.008498 0.035803 0.000000 -0.014332 0.000000
# 4 0.000000 0.000000 0.000000 0.047866 0.000000 -0.012050
# 5 -0.002568 0.006854 -0.014332 0.000000 0.073974 0.000000
# 6 0.000000 0.000000 0.000000 -0.012050 0.000000 0.033236
#
#
# Mechanical properties :
#
#
# Convention : Reuss Voigt Hill
#
# Bulk Modulus (GPa) = 27.41675 38.57320 32.99497
# Shear Modulus (GPa) = 19.69719 25.30551 22.50135
#
# Velocity S-wave (km/s) = 3.40769 3.86247 3.64218
# Velocity P-wave (km/s) = 5.62551 6.52932 6.09420
#
# Compressibility (1/GPa) = 0.03647406
#
# Stress axis : x y z
#
# Youngs Moduli (GPa) = 72.42812 83.81044 27.93050
#
# Poissons Ratio (x) = 0.26189 0.02544
# Poissons Ratio (y) = 0.22632 0.23736
# Poissons Ratio (z) = 0.06598 0.71223
#
# Static dielectric constant tensor:
#      x y z
#    x 3.289350 0.000000 0.105850 
#    y 0.000000 3.405060 0.000000 
#    z 0.105850 0.000000 2.776700 
# 
# 
# High freq. dielectric constant tensor:
#      x y z
#    x 1.656960 0.000000 0.007860 
#    y 0.000000 1.664530 0.000000 
#    z 0.007860 0.000000 1.598600 
# 
# From -- ./inp_files/176145.got.cif
#   From: 2010.06.25/outbox.cif.g09.slc.cpg/sg12_89_cif.got.tgz:176145.got - 2010.06.28 00:19:55.
