data_PCOD8080949
_publ_section_title
;
Structure prediction by ZEFSAII (Michael W. Deem and Ramdas Pophale) SiO2 
 PCOD8080949
Probable space group: C 2/M
;
_chemical_formula_sum "Si O2"
_cell_formula_units_Z 56
_cell_length_a 20.370971
_cell_length_b 8.904279
_cell_length_c 17.206816
_cell_angle_alpha 90.000000
_cell_angle_beta 103.411686
_cell_angle_gamma 90.000000
_cell_volume 3036.006420
_symmetry_space_group_name_H-M "C 2/M"
_symmetry_group_IT_number 12
_symmetry_cell_setting 'monoclinic'
loop_
_space_group_symop_operation_xyz
x,y,z
-x,y,-z
-x,-y,-z
x,-y,z
1/2+x,1/2+y,z
1/2-x,1/2+y,-z
1/2-x,1/2-y,-z
1/2+x,1/2-y,z
loop_
_atom_site_type_symbol
_atom_site_label
_atom_site_fract_x
_atom_site_fract_y
_atom_site_fract_z
Si Si1 0.404855 0.178251 0.092780
Si Si2 0.628664 0.324041 0.072889
Si Si3 0.763014 0.323802 0.320702
Si Si4 0.777054 0.677693 0.151797
Si Si5 0.683275 0.827407 0.508574
Si Si6 0.964005 0.824448 0.806700
Si Si7 0.374198 0.823279 0.660961
O O1 0.336539 0.241609 0.114100
O O2 0.467061 0.238311 0.159008
O O3 0.406844 0.000000 0.092890
O O4 0.409120 0.238094 0.006397
O O5 0.626553 0.500000 0.053714
O O6 0.704971 0.261799 0.101670
O O7 0.590163 0.286715 0.141628
O O8 0.742532 0.500000 0.313345
O O9 0.789929 0.270869 0.244240
O O10 0.823944 0.293892 0.400597
O O11 0.696895 0.229227 0.323114
O O12 0.776088 0.500000 0.147332
O O13 0.750000 0.750000 0.500000
O O14 0.623146 0.783114 0.431893
O O15 0.697471 0.000000 0.499062
O O16 0.935274 0.766087 0.717025
O O17 0.979094 0.000000 0.805732
O O18 0.383372 0.000000 0.678988
#
# Coordination Sequence:
#
# PCOD8080949 Si02
#       7
#     8   8   8   8   8   8   8
#     4  11  23  36  52  77 106 133 166 215 264 299
#     4  10  20  37  57  75  97 132 177 213 248 305
#     4   9  15  30  52  74 102 139 173 199 243 306
#     4   9  18  34  55  77 103 136 172 208 248 300
#     4   8  15  25  44  73 104 132 162 204 249 295
#     4  11  22  37  56  74  99 139 177 208 249 309
#     4  10  18  29  47  78 109 130 163 214 260 292
#
# _framework density 18.445283
#
# number of rings (size 3 to 8) (size 9 to 14) (size 15 to 20)
#    0.000    2.286    1.429    2.143    0.000    3.429 
#    0.000    2.143    0.000    0.857    0.000    6.000 
#    0.000    0.000    0.000    0.000    0.000    0.000 
#
# Total GULP energy -346993.666638 kJ/mol
# GULP energy per Si atom -12392.630951 kJ/mol
# Density = 1.840330 g / cm^3
# Si number density = 18.445283 Si / 1000 Ang^3
#
#
#
# Elastic Constant Matrix: (Units=GPa)
#
#
# Indices 1 2 3 4 5 6 
#
# 1 62.1183 17.5687 18.7947 0.0000 19.6769 0.0000
# 2 17.5687 35.6041 23.8080 0.0000 4.8653 0.0000
# 3 18.7947 23.8080 133.0728 0.0000 22.5904 0.0000
# 4 0.0000 0.0000 0.0000 26.8063 0.0000 5.3350
# 5 19.6769 4.8653 22.5904 0.0000 22.2782 0.0000
# 6 0.0000 0.0000 0.0000 5.3350 0.0000 21.1846
#
#
#
# Elastic Compliance Matrix: (Units=1/GPa)
#
#
# Indices 1 2 3 4 5 6 
#
# 1 0.025686 -0.011051 0.002163 0.000000 -0.022467 0.000000
# 2 -0.011051 0.036696 -0.006403 0.000000 0.008240 0.000000
# 3 0.002163 -0.006403 0.010197 0.000000 -0.010852 0.000000
# 4 0.000000 0.000000 0.000000 0.039273 0.000000 -0.009890
# 5 -0.022467 0.008240 -0.010852 0.000000 0.073936 0.000000
# 6 0.000000 0.000000 0.000000 -0.009890 0.000000 0.049695
#
#
# Mechanical properties :
#
#
# Convention : Reuss Voigt Hill
#
# Bulk Modulus (GPa) = 23.81138 39.01534 31.41336
# Shear Modulus (GPa) = 17.85311 25.42875 21.64093
#
# Velocity S-wave (km/s) = 3.11448 3.71698 3.42899
# Velocity P-wave (km/s) = 5.08631 6.29437 5.72231
#
# Compressibility (1/GPa) = 0.04199673
#
# Stress axis : x y z
#
# Youngs Moduli (GPa) = 38.93148 27.25126 98.06793
#
# Poissons Ratio (x) = 0.30116 -0.21216
# Poissons Ratio (y) = 0.43024 0.62794
# Poissons Ratio (z) = -0.08422 0.17449
#
# Static dielectric constant tensor:
#      x y z
#    x 3.222930 0.000000 0.038330 
#    y 0.000000 3.229810 0.000000 
#    z 0.038330 0.000000 4.070700 
# 
# 
# High freq. dielectric constant tensor:
#      x y z
#    x 1.673680 0.000000 0.009040 
#    y 0.000000 1.705900 0.000000 
#    z 0.009040 0.000000 1.742620 
# 
# From -- ./inp_files/275488.got.cif
#   From: 2010.06.25/outbox.cif.g09.slc.cpg/sg12_138_cif.got.tgz:275488.got - 2010.06.28 00:19:55.
