data_PCOD8080099
_publ_section_title
;
Structure prediction by ZEFSAII (Michael W. Deem and Ramdas Pophale) SiO2 
 PCOD8080099
Probable space group: C 2/M
;
_chemical_formula_sum "Si O2"
_cell_formula_units_Z 56
_cell_length_a 19.411843
_cell_length_b 9.390867
_cell_length_c 28.686865
_cell_angle_alpha 90.000000
_cell_angle_beta 38.601123
_cell_angle_gamma 90.000000
_cell_volume 3262.623764
_symmetry_space_group_name_H-M "C 2/M"
_symmetry_group_IT_number 12
_symmetry_cell_setting 'monoclinic'
loop_
_space_group_symop_operation_xyz
x,y,z
-x,y,-z
-x,-y,-z
x,-y,z
1/2+x,1/2+y,z
1/2-x,1/2+y,-z
1/2-x,1/2-y,-z
1/2+x,1/2-y,z
loop_
_atom_site_type_symbol
_atom_site_label
_atom_site_fract_x
_atom_site_fract_y
_atom_site_fract_z
Si Si1 0.413047 0.664563 0.935996
Si Si2 0.957425 0.666115 0.740564
Si Si3 0.117277 0.665628 0.821583
Si Si4 0.683329 0.837302 0.097307
Si Si5 0.866035 0.833965 0.704578
Si Si6 0.102581 0.169541 0.417048
Si Si7 0.342613 0.168851 0.304160
O O1 0.439935 0.500000 0.913162
O O2 0.522556 0.742955 0.897661
O O3 0.376948 0.732855 0.906277
O O4 0.315451 0.684534 0.025456
O O5 0.965828 0.500000 0.724457
O O6 0.857246 0.697295 0.829181
O O7 0.938568 0.748950 0.702984
O O8 0.072452 0.724466 0.701710
O O9 0.088096 0.500000 0.841627
O O10 0.236368 0.697918 0.781128
O O11 0.116943 0.717555 0.768118
O O12 0.651447 0.000000 0.100670
O O13 0.903353 0.781970 0.633582
O O14 0.890388 0.000000 0.698012
O O15 0.217641 0.224914 0.379211
O O16 0.000000 0.235558 0.500000
O O17 0.100000 0.000000 0.420471
O O18 0.341869 0.000000 0.304361
#
# Coordination Sequence:
#
# PCOD8080099 Si02
#       7
#     8   8   8   8   8   8   8
#     4  10  18  27  45  72  93 115 159 210 242 268
#     4  10  18  31  49  67  94 130 160 189 231 287
#     4   9  16  31  49  64  90 127 162 195 234 283
#     4   9  18  31  45  64  94 130 159 190 239 288
#     4   9  19  32  49  72  97 124 156 196 237 277
#     4   8  14  28  51  75  95 119 156 196 229 272
#     4   8  14  26  47  69  88 122 164 189 220 279
#
# _framework density 17.164100000000001
#
# number of rings (size 3 to 8) (size 9 to 14) (size 15 to 20)
#    0.000    3.000    1.429    2.143    0.000    1.714 
#    0.000    1.429    0.000    4.714    0.000    0.000 
#    0.000    0.000    0.000    0.000    0.000    0.000 
#
# Total GULP energy -347050.704486 kJ/mol
# GULP energy per Si atom -12394.668017 kJ/mol
# Density = 1.712503 g / cm^3
# Si number density = 17.164100 Si / 1000 Ang^3
#
#
#
# Elastic Constant Matrix: (Units=GPa)
#
#
# Indices 1 2 3 4 5 6 
#
# 1 118.6025 34.5660 55.7450 0.0000 -9.2568 0.0000
# 2 34.5660 46.6379 33.0049 -0.0002 -5.2075 0.0002
# 3 55.7450 33.0049 119.9741 0.0000 -15.7084 0.0000
# 4 0.0000 -0.0002 0.0000 15.1477 0.0000 0.4686
# 5 -9.2568 -5.2075 -15.7084 0.0000 21.2576 0.0000
# 6 0.0000 0.0002 0.0000 0.4686 0.0000 28.1693
#
#
#
# Elastic Compliance Matrix: (Units=1/GPa)
#
#
# Indices 1 2 3 4 5 6 
#
# 1 0.012087 -0.006166 -0.003795 0.000000 0.000948 0.000000
# 2 -0.006166 0.029800 -0.005235 0.000000 0.000746 0.000000
# 3 -0.003795 -0.005235 0.012349 0.000000 0.006190 0.000000
# 4 0.000000 0.000000 0.000000 0.066051 0.000000 -0.001099
# 5 0.000948 0.000746 0.006190 0.000000 0.052212 0.000000
# 6 0.000000 0.000000 0.000000 -0.001099 0.000000 0.035518
#
#
# Mechanical properties :
#
#
# Convention : Reuss Voigt Hill
#
# Bulk Modulus (GPa) = 41.94224 59.09406 50.51815
# Shear Modulus (GPa) = 20.29568 23.70816 22.00192
#
# Velocity S-wave (km/s) = 3.44241 3.72057 3.58419
# Velocity P-wave (km/s) = 6.34739 7.27739 6.82824
#
# Compressibility (1/GPa) = 0.02384231
#
# Stress axis : x y z
#
# Youngs Moduli (GPa) = 82.73666 33.55690 80.97560
#
# Poissons Ratio (x) = 0.20692 0.30734
# Poissons Ratio (y) = 0.51017 0.42393
# Poissons Ratio (z) = 0.31403 0.17568
#
# Static dielectric constant tensor:
#      x y z
#    x 3.101430 0.000000 -0.294990 
#    y 0.000000 2.907450 0.000000 
#    z -0.294990 0.000000 3.508090 
# 
# 
# High freq. dielectric constant tensor:
#      x y z
#    x 1.645130 0.000000 -0.019100 
#    y 0.000000 1.631770 0.000000 
#    z -0.019100 0.000000 1.661340 
# 
# From -- ./inp_files/342028.got.cif
#   From: 2010.06.25/outbox.cif.g09.slc.cpg/sg12_172_cif.got.tgz:342028.got - 2010.06.28 00:19:55.
