data_PCOD8080280
_publ_section_title
;
Structure prediction by ZEFSAII (Michael W. Deem and Ramdas Pophale) SiO2 
 PCOD8080280
Probable space group: C 2/M
;
_chemical_formula_sum "Si O2"
_cell_formula_units_Z 56
_cell_length_a 26.261533
_cell_length_b 9.146115
_cell_length_c 14.530499
_cell_angle_alpha 90.000000
_cell_angle_beta 78.689216
_cell_angle_gamma 90.000000
_cell_volume 3422.309637
_symmetry_space_group_name_H-M "C 2/M"
_symmetry_group_IT_number 12
_symmetry_cell_setting 'monoclinic'
loop_
_space_group_symop_operation_xyz
x,y,z
-x,y,-z
-x,-y,-z
x,-y,z
1/2+x,1/2+y,z
1/2-x,1/2+y,-z
1/2-x,1/2-y,-z
1/2+x,1/2-y,z
loop_
_atom_site_type_symbol
_atom_site_label
_atom_site_fract_x
_atom_site_fract_y
_atom_site_fract_z
Si Si1 0.398120 0.167199 0.549175
Si Si2 0.197128 0.671574 0.543020
Si Si3 0.933376 0.827056 0.106029
Si Si4 0.464555 0.336012 0.392207
Si Si5 0.950931 0.172677 0.897780
Si Si6 0.060434 0.331546 0.275735
Si Si7 0.132868 0.835739 0.706511
O O1 0.343226 0.211596 0.524088
O O2 0.445375 0.267187 0.495504
O O3 0.395559 0.187640 0.660704
O O4 0.411355 0.000000 0.518180
O O5 0.206708 0.500000 0.548360
O O6 0.250000 0.750000 0.500000
O O7 0.176694 0.730765 0.648554
O O8 0.886624 0.770348 0.188004
O O9 0.989654 0.768961 0.119106
O O10 0.936556 0.000000 0.114257
O O11 0.922671 0.783381 0.003662
O O12 0.485655 0.500000 0.402071
O O13 0.507395 0.236655 0.330491
O O14 0.416291 0.339740 0.341611
O O15 0.921297 0.251371 0.824158
O O16 0.948712 0.000000 0.882068
O O17 0.050623 0.500000 0.256496
O O18 0.155767 0.000000 0.709332
#
# Coordination Sequence:
#
# PCOD8080280 Si02
#       7
#     8   8   8   8   8   8   8
#     4   9  20  34  45  61  90 123 150 180 228 281
#     4  10  20  35  52  70  90 114 146 188 234 279
#     4   8  14  27  46  65  90 123 158 192 227 260
#     4  10  18  28  44  65  89 120 159 193 217 254
#     4   9  16  28  45  64  89 125 163 195 220 253
#     4  11  20  29  41  61  93 129 156 183 222 266
#     4   9  16  29  48  69  92 121 153 185 225 272
#
# _framework density 16.363216999999999
#
# number of rings (size 3 to 8) (size 9 to 14) (size 15 to 20)
#    0.000    2.571    1.429    2.571    0.000    4.000 
#    0.000    2.143    0.000    0.000    0.000    1.000 
#    0.000    0.000    0.000    0.000    0.000    0.000 
#
# Total GULP energy -347068.077822 kJ/mol
# GULP energy per Si atom -12395.288494 kJ/mol
# Density = 1.632597 g / cm^3
# Si number density = 16.363217 Si / 1000 Ang^3
#
#
#
# Elastic Constant Matrix: (Units=GPa)
#
#
# Indices 1 2 3 4 5 6 
#
# 1 48.4075 31.4330 41.8653 0.0000 -12.2671 0.0000
# 2 31.4330 77.6338 51.9646 0.0000 -3.6449 0.0000
# 3 41.8653 51.9646 147.7417 0.0000 -6.2878 0.0000
# 4 0.0000 0.0000 0.0000 26.4692 0.0000 0.1776
# 5 -12.2671 -3.6449 -6.2878 0.0000 20.7585 0.0000
# 6 0.0000 0.0000 0.0000 0.1776 0.0000 19.1903
#
#
#
# Elastic Compliance Matrix: (Units=1/GPa)
#
#
# Indices 1 2 3 4 5 6 
#
# 1 0.037213 -0.010032 -0.006236 0.000000 0.018340 0.000000
# 2 -0.010032 0.019580 -0.004204 0.000000 -0.003764 0.000000
# 3 -0.006236 -0.004204 0.009954 0.000000 -0.001408 0.000000
# 4 0.000000 0.000000 0.000000 0.037782 0.000000 -0.000350
# 5 0.018340 -0.003764 -0.001408 0.000000 0.057924 0.000000
# 6 0.000000 0.000000 0.000000 -0.000350 0.000000 0.052113
#
#
# Mechanical properties :
#
#
# Convention : Reuss Voigt Hill
#
# Bulk Modulus (GPa) = 38.75479 58.25654 48.50567
# Shear Modulus (GPa) = 18.93137 23.18495 21.05816
#
# Velocity S-wave (km/s) = 3.40508 3.76825 3.59126
# Velocity P-wave (km/s) = 6.26059 7.39002 6.84862
#
# Compressibility (1/GPa) = 0.02580326
#
# Stress axis : x y z
#
# Youngs Moduli (GPa) = 26.87241 51.07173 100.45733
#
# Poissons Ratio (x) = 0.51235 0.62644
# Poissons Ratio (y) = 0.26958 0.42236
# Poissons Ratio (z) = 0.16757 0.21472
#
# Static dielectric constant tensor:
#      x y z
#    x 2.759270 0.000000 0.008600 
#    y 0.000000 3.137280 0.000000 
#    z 0.008600 0.000000 3.523630 
# 
# 
# High freq. dielectric constant tensor:
#      x y z
#    x 1.578720 0.000000 0.005350 
#    y 0.000000 1.625210 0.000000 
#    z 0.005350 0.000000 1.638200 
# 
# From -- ./inp_files/247804.got.cif
#   From: 2010.06.25/outbox.cif.g09.slc.cpg/sg12_124_cif.got.tgz:247804.got - 2010.06.28 00:19:55.
