data_PCOD8080309
_publ_section_title
;
Structure prediction by ZEFSAII (Michael W. Deem and Ramdas Pophale) SiO2 
 PCOD8080309
Probable space group: C 2/M
;
_chemical_formula_sum "Si O2"
_cell_formula_units_Z 64
_cell_length_a 23.736981
_cell_length_b 8.861564
_cell_length_c 21.560314
_cell_angle_alpha 90.000000
_cell_angle_beta 124.031103
_cell_angle_gamma 90.000000
_cell_volume 3758.426336
_symmetry_space_group_name_H-M "C 2/M"
_symmetry_group_IT_number 12
_symmetry_cell_setting 'monoclinic'
loop_
_space_group_symop_operation_xyz
x,y,z
-x,y,-z
-x,-y,-z
x,-y,z
1/2+x,1/2+y,z
1/2-x,1/2+y,-z
1/2-x,1/2-y,-z
1/2+x,1/2-y,z
loop_
_atom_site_type_symbol
_atom_site_label
_atom_site_fract_x
_atom_site_fract_y
_atom_site_fract_z
Si Si1 0.189591 0.821491 0.639212
Si Si2 0.205776 0.322022 0.774711
Si Si3 0.780639 0.668911 0.927785
Si Si4 0.041782 0.838652 0.584568
Si Si5 0.547174 0.174417 0.379196
Si Si6 0.075559 0.321373 0.773629
Si Si7 0.806278 0.319072 0.490809
Si Si8 0.146144 0.168335 0.925942
O O1 0.227684 0.757730 0.723581
O O2 0.112836 0.774093 0.605608
O O3 0.210471 0.739188 0.588605
O O4 0.201809 0.000000 0.639473
O O5 0.207717 0.500000 0.766549
O O6 0.263885 0.273512 0.858843
O O7 0.131007 0.269404 0.755034
O O8 0.799649 0.500000 0.917520
O O9 0.716659 0.663362 0.933438
O O10 0.844405 0.739579 0.004284
O O11 0.000000 0.884065 0.500000
O O12 0.002872 0.706024 0.595096
O O13 0.049738 0.000000 0.626988
O O14 0.501930 0.229268 0.292159
O O15 0.621498 0.246813 0.437595
O O16 0.560874 0.000000 0.381589
O O17 0.081886 0.500000 0.784792
O O18 0.089504 0.247159 0.848477
O O19 0.804090 0.500000 0.489725
O O20 0.750000 0.250000 0.500000
O O21 0.121332 0.000000 0.926773
#
# Coordination Sequence:
#
# PCOD8080309 Si02
#       8
#     8   8   8   8   8   8   8   8
#     4  11  21  33  50  72  99 127 160 200 244 292
#     4  10  18  28  44  67  96 127 161 199 239 283
#     4   9  16  26  39  57  87 127 165 197 232 276
#     4  10  19  30  46  71  98 124 153 193 242 289
#     4  10  20  33  50  71  95 125 161 201 243 291
#     4   9  17  28  42  64  94 125 158 196 238 284
#     4  11  24  40  56  71  92 125 165 206 249 295
#     4   9  16  25  38  58  86 124 165 197 230 276
#
# _framework density 17.028403999999998
#
# number of rings (size 3 to 8) (size 9 to 14) (size 15 to 20)
#    0.000    2.125    2.500    1.875    0.000    5.250 
#    0.000    0.000    0.000    0.000    0.000    0.000 
#    0.000    1.000    0.000   10.750    0.000    5.250 
#
# Total GULP energy -396465.238085 kJ/mol
# GULP energy per Si atom -12389.538690 kJ/mol
# Density = 1.698965 g / cm^3
# Si number density = 17.028404 Si / 1000 Ang^3
#
#
#
# Elastic Constant Matrix: (Units=GPa)
#
#
# Indices 1 2 3 4 5 6 
#
# 1 55.8010 19.9730 38.0742 0.0000 -8.0629 0.0000
# 2 19.9730 67.4659 46.9300 0.0000 -1.3007 0.0000
# 3 38.0742 46.9300 126.9590 0.0000 -5.1799 0.0000
# 4 0.0000 0.0000 0.0000 31.2904 0.0000 -4.3627
# 5 -8.0629 -1.3007 -5.1799 0.0000 9.3220 0.0000
# 6 0.0000 0.0000 0.0000 -4.3627 0.0000 17.6464
#
#
#
# Elastic Compliance Matrix: (Units=1/GPa)
#
#
# Indices 1 2 3 4 5 6 
#
# 1 0.025687 -0.003251 -0.005744 0.000000 0.018573 0.000000
# 2 -0.003251 0.020381 -0.006710 0.000000 -0.003696 0.000000
# 3 -0.005744 -0.006710 0.012113 0.000000 0.000826 0.000000
# 4 0.000000 0.000000 0.000000 0.033100 0.000000 0.008183
# 5 0.018573 -0.003696 0.000826 0.000000 0.123281 0.000000
# 6 0.000000 0.000000 0.000000 0.008183 0.000000 0.058692
#
#
# Mechanical properties :
#
#
# Convention : Reuss Voigt Hill
#
# Bulk Modulus (GPa) = 37.35242 51.13114 44.24178
# Shear Modulus (GPa) = 15.94456 21.33500 18.63978
#
# Velocity S-wave (km/s) = 3.06330 3.54348 3.31211
# Velocity P-wave (km/s) = 5.87322 6.84353 6.37686
#
# Compressibility (1/GPa) = 0.02677203
#
# Stress axis : x y z
#
# Youngs Moduli (GPa) = 38.92972 49.06603 82.55574
#
# Poissons Ratio (x) = 0.15951 0.47420
# Poissons Ratio (y) = 0.12656 0.55391
# Poissons Ratio (z) = 0.22361 0.32921
#
# Static dielectric constant tensor:
#      x y z
#    x 2.703730 0.000000 0.104990 
#    y 0.000000 3.269470 0.000000 
#    z 0.104990 0.000000 3.495770 
# 
# 
# High freq. dielectric constant tensor:
#      x y z
#    x 1.581000 0.000000 0.004770 
#    y 0.000000 1.668310 0.000000 
#    z 0.004770 0.000000 1.672980 
# 
# From -- ./inp_files/323718.got.cif
#   From: 2010.06.25/outbox.cif.g09.slc.cpg/sg12_162_cif.got.tgz:323718.got - 2010.06.28 00:19:55.
