data_PCOD8080748
_publ_section_title
;
Structure prediction by ZEFSAII (Michael W. Deem and Ramdas Pophale) SiO2 
 PCOD8080748
Probable space group: C 2/M
;
_chemical_formula_sum "Si O2"
_cell_formula_units_Z 64
_cell_length_a 22.455732
_cell_length_b 12.389307
_cell_length_c 22.779137
_cell_angle_alpha 90.000000
_cell_angle_beta 145.066853
_cell_angle_gamma 90.000000
_cell_volume 3628.926767
_symmetry_space_group_name_H-M "C 2/M"
_symmetry_group_IT_number 12
_symmetry_cell_setting 'monoclinic'
loop_
_space_group_symop_operation_xyz
x,y,z
-x,y,-z
-x,-y,-z
x,-y,z
1/2+x,1/2+y,z
1/2-x,1/2+y,-z
1/2-x,1/2-y,-z
1/2+x,1/2-y,z
loop_
_atom_site_type_symbol
_atom_site_label
_atom_site_fract_x
_atom_site_fract_y
_atom_site_fract_z
Si Si1 0.643023 0.878570 0.823161
Si Si2 0.983434 0.622274 0.168646
Si Si3 0.143919 0.624028 0.573388
Si Si4 0.492726 0.384084 0.926519
Si Si5 0.576775 0.814628 0.643614
Si Si6 0.672707 0.225576 0.041882
Si Si7 0.272296 0.625701 0.235579
Si Si8 0.331065 0.237740 0.742932
O O1 0.545334 0.854909 0.786869
O O2 0.605797 0.876458 0.726148
O O3 0.726356 0.784501 0.903188
O O4 0.686415 0.000000 0.870888
O O5 0.016836 0.500000 0.184973
O O6 0.084357 0.692340 0.234151
O O7 0.879501 0.643853 0.046265
O O8 0.155707 0.500000 0.561380
O O9 0.130894 0.623064 0.633361
O O10 0.242630 0.697573 0.635304
O O11 0.047027 0.682975 0.464052
O O12 0.491408 0.500000 0.892598
O O13 0.385062 0.324041 0.828583
O O14 0.500000 0.405463 0.000000
O O15 0.591783 0.319953 0.985829
O O16 0.619135 0.691534 0.679502
O O17 0.697190 0.161722 0.121646
O O18 0.299032 0.500000 0.251129
O O19 0.215716 0.645457 0.252359
#
# Coordination Sequence:
#
# PCOD8080748 Si02
#       8
#     8   8   8   8   8   8   8   8
#     4  10  19  33  52  74  98 130 165 207 249 291
#     4  10  21  34  49  68  99 138 174 203 237 282
#     4  10  18  33  56  80 102 125 152 201 258 305
#     4  10  18  29  45  72 104 130 157 200 253 300
#     4   9  19  33  53  79 101 123 160 202 252 301
#     4  10  19  32  49  73  98 131 169 208 243 294
#     4  10  19  32  50  72 100 131 165 202 246 288
#     4  10  20  33  47  73 100 133 167 201 240 295
#
# _framework density 17.636068999999999
#
# number of rings (size 3 to 8) (size 9 to 14) (size 15 to 20)
#    0.000    2.125    1.250    3.375    0.000    0.000 
#    0.000    8.125    0.000   10.500    0.000    0.000 
#    0.000    0.000    0.000    0.000    0.000    0.000 
#
# Total GULP energy -396691.480265 kJ/mol
# GULP energy per Si atom -12396.608758 kJ/mol
# Density = 1.759593 g / cm^3
# Si number density = 17.636069 Si / 1000 Ang^3
#
#
#
# Elastic Constant Matrix: (Units=GPa)
#
#
# Indices 1 2 3 4 5 6 
#
# 1 66.9370 26.1106 26.3187 0.0000 11.4600 0.0000
# 2 26.1106 103.2371 28.8600 0.0000 16.0906 0.0000
# 3 26.3187 28.8600 78.5575 0.0000 20.9008 0.0000
# 4 0.0000 0.0000 0.0000 17.6574 0.0000 0.8184
# 5 11.4600 16.0906 20.9008 0.0000 24.7676 0.0000
# 6 0.0000 0.0000 0.0000 0.8184 0.0000 20.6544
#
#
#
# Elastic Compliance Matrix: (Units=1/GPa)
#
#
# Indices 1 2 3 4 5 6 
#
# 1 0.018273 -0.002977 -0.004247 0.000000 -0.002937 0.000000
# 2 -0.002977 0.011727 -0.002128 0.000000 -0.004445 0.000000
# 3 -0.004247 -0.002128 0.018109 0.000000 -0.011934 0.000000
# 4 0.000000 0.000000 0.000000 0.056738 0.000000 -0.002248
# 5 -0.002937 -0.004445 -0.011934 0.000000 0.054693 0.000000
# 6 0.000000 0.000000 0.000000 -0.002248 0.000000 0.048505
#
#
# Mechanical properties :
#
#
# Convention : Reuss Voigt Hill
#
# Bulk Modulus (GPa) = 34.00650 45.70114 39.85382
# Shear Modulus (GPa) = 21.13702 23.77869 22.45786
#
# Velocity S-wave (km/s) = 3.46571 3.67590 3.57235
# Velocity P-wave (km/s) = 5.94467 6.63220 6.29782
#
# Compressibility (1/GPa) = 0.02940615
#
# Stress axis : x y z
#
# Youngs Moduli (GPa) = 54.72472 85.27256 55.21978
#
# Poissons Ratio (x) = 0.25382 0.23452
# Poissons Ratio (y) = 0.16289 0.11752
# Poissons Ratio (z) = 0.23241 0.18148
#
# Static dielectric constant tensor:
#      x y z
#    x 3.042670 0.000000 0.102890 
#    y 0.000000 3.418580 0.000000 
#    z 0.102890 0.000000 3.350260 
# 
# 
# High freq. dielectric constant tensor:
#      x y z
#    x 1.665870 0.000000 0.008710 
#    y 0.000000 1.688100 0.000000 
#    z 0.008710 0.000000 1.673140 
# 
# From -- ./inp_files/321311.got.cif
#   From: 2010.06.25/outbox.cif.g09.slc.cpg/sg12_161_cif.got.tgz:321311.got - 2010.06.28 00:19:55.
