data_PCOD8080293
_publ_section_title
;
Structure prediction by ZEFSAII (Michael W. Deem and Ramdas Pophale) SiO2 
 PCOD8080293
Probable space group: C 2/M
;
_chemical_formula_sum "Si O2"
_cell_formula_units_Z 64
_cell_length_a 27.256125
_cell_length_b 9.371428
_cell_length_c 20.074774
_cell_angle_alpha 90.000000
_cell_angle_beta 131.490526
_cell_angle_gamma 90.000000
_cell_volume 3840.963811
_symmetry_space_group_name_H-M "C 2/M"
_symmetry_group_IT_number 12
_symmetry_cell_setting 'monoclinic'
loop_
_space_group_symop_operation_xyz
x,y,z
-x,y,-z
-x,-y,-z
x,-y,z
1/2+x,1/2+y,z
1/2-x,1/2+y,-z
1/2-x,1/2-y,-z
1/2+x,1/2-y,z
loop_
_atom_site_type_symbol
_atom_site_label
_atom_site_fract_x
_atom_site_fract_y
_atom_site_fract_z
Si Si1 0.696038 0.157783 0.867371
Si Si2 0.179387 0.664480 0.174447
Si Si3 0.571465 0.666182 0.747824
Si Si4 0.056727 0.668377 0.601388
Si Si5 0.461459 0.164177 0.900751
Si Si6 0.700109 0.842820 0.712761
Si Si7 0.973033 0.161357 0.152632
Si Si8 0.834471 0.836101 0.970059
O O1 0.641596 0.273745 0.836085
O O2 0.705894 0.151412 0.796962
O O3 0.770002 0.199386 0.957829
O O4 0.674980 0.000000 0.874740
O O5 0.196667 0.500000 0.178850
O O6 0.116542 0.684397 0.165094
O O7 0.243479 0.738632 0.265221
O O8 0.159689 0.731710 0.086826
O O9 0.580851 0.500000 0.739120
O O10 0.544767 0.749239 0.659662
O O11 0.518963 0.687418 0.760620
O O12 0.056099 0.500000 0.616965
O O13 0.126240 0.711557 0.629997
O O14 0.000000 0.713980 0.500000
O O15 0.481242 0.238265 0.849780
O O16 0.481834 0.000000 0.913067
O O17 0.500000 0.229089 0.000000
O O18 0.711223 0.000000 0.691643
O O19 0.991748 0.000000 0.150492
O O20 0.896932 0.192373 0.071324
O O21 0.831218 0.000000 0.941795
#
# Coordination Sequence:
#
# PCOD8080293 Si02
#       8
#     8   8   8   8   8   8   8   8
#     4   8  15  28  44  61  86 123 161 191 223 268
#     4  10  18  28  44  66  93 121 155 201 242 272
#     4  10  20  32  45  68  98 122 151 192 234 277
#     4   9  18  34  55  76  97 123 153 182 221 282
#     4  10  20  33  46  65  91 121 164 211 244 272
#     4   8  15  28  46  69  95 120 149 185 225 276
#     4  10  21  33  45  63  90 125 163 199 236 279
#     4   9  17  29  43  60  85 121 163 198 228 268
#
# _framework density 16.662483999999999
#
# number of rings (size 3 to 8) (size 9 to 14) (size 15 to 20)
#    0.000    2.750    1.250    2.250    0.000    7.500 
#    0.000    0.000    0.000    0.000    0.000    0.875 
#    0.000    0.000    0.000    0.000    0.000    0.000 
#
# Total GULP energy -396582.178651 kJ/mol
# GULP energy per Si atom -12393.193083 kJ/mol
# Density = 1.662456 g / cm^3
# Si number density = 16.662484 Si / 1000 Ang^3
#
#
#
# Elastic Constant Matrix: (Units=GPa)
#
#
# Indices 1 2 3 4 5 6 
#
# 1 89.9022 56.7683 42.3545 0.0000 3.5140 0.0000
# 2 56.7683 87.0894 36.2297 0.0000 1.4280 0.0000
# 3 42.3545 36.2297 62.7378 0.0000 11.3362 0.0000
# 4 0.0000 0.0000 0.0000 16.9061 0.0000 4.4389
# 5 3.5140 1.4280 11.3362 0.0000 17.4419 0.0000
# 6 0.0000 0.0000 0.0000 4.4389 0.0000 28.9733
#
#
#
# Elastic Compliance Matrix: (Units=1/GPa)
#
#
# Indices 1 2 3 4 5 6 
#
# 1 0.022049 -0.010580 -0.009211 0.000000 0.002411 0.000000
# 2 -0.010580 0.020589 -0.005470 0.000000 0.004001 0.000000
# 3 -0.009211 -0.005470 0.028214 0.000000 -0.016034 0.000000
# 4 0.000000 0.000000 0.000000 0.061630 0.000000 -0.009442
# 5 0.002411 0.004001 -0.016034 0.000000 0.066941 0.000000
# 6 0.000000 0.000000 0.000000 -0.009442 0.000000 0.035961
#
#
# Mechanical properties :
#
#
# Convention : Reuss Voigt Hill
#
# Bulk Modulus (GPa) = 49.19010 56.71493 52.95251
# Shear Modulus (GPa) = 17.08328 19.62271 18.35300
#
# Velocity S-wave (km/s) = 3.20543 3.43543 3.32242
# Velocity P-wave (km/s) = 6.57916 7.06028 6.82396
#
# Compressibility (1/GPa) = 0.02032930
#
# Stress axis : x y z
#
# Youngs Moduli (GPa) = 45.35258 48.56976 35.44338
#
# Poissons Ratio (x) = 0.51388 0.32649
# Poissons Ratio (y) = 0.47984 0.19387
# Poissons Ratio (z) = 0.41776 0.26567
#
# Static dielectric constant tensor:
#      x y z
#    x 3.099390 0.000000 0.295990 
#    y 0.000000 3.167720 0.000000 
#    z 0.295990 0.000000 3.031020 
# 
# 
# High freq. dielectric constant tensor:
#      x y z
#    x 1.627320 0.000000 0.018870 
#    y 0.000000 1.646640 0.000000 
#    z 0.018870 0.000000 1.607040 
# 
# From -- ./inp_files/350971.got.cif
#   From: 2010.06.25/outbox.cif.g09.slc.cpg/sg12_176_cif.got.tgz:350971.got - 2010.06.28 00:19:55.
