data_PCOD8080123
_publ_section_title
;
Structure prediction by ZEFSAII (Michael W. Deem and Ramdas Pophale) SiO2 
 PCOD8080123
Probable space group: C 2/M
;
_chemical_formula_sum "Si O2"
_cell_formula_units_Z 64
_cell_length_a 24.991695
_cell_length_b 9.008620
_cell_length_c 17.782648
_cell_angle_alpha 90.000000
_cell_angle_beta 103.131697
_cell_angle_gamma 90.000000
_cell_volume 3898.905173
_symmetry_space_group_name_H-M "C 2/M"
_symmetry_group_IT_number 12
_symmetry_cell_setting 'monoclinic'
loop_
_space_group_symop_operation_xyz
x,y,z
-x,y,-z
-x,-y,-z
x,-y,z
1/2+x,1/2+y,z
1/2-x,1/2+y,-z
1/2-x,1/2-y,-z
1/2+x,1/2-y,z
loop_
_atom_site_type_symbol
_atom_site_label
_atom_site_fract_x
_atom_site_fract_y
_atom_site_fract_z
Si Si1 0.706145 0.824170 0.813937
Si Si2 0.194867 0.169968 0.500724
Si Si3 0.717941 0.325146 0.667472
Si Si4 0.487177 0.176798 0.078614
Si Si5 0.905416 0.670069 0.805095
Si Si6 0.866779 0.323811 0.072145
Si Si7 0.666720 0.673786 0.333278
Si Si8 0.814680 0.670673 0.901547
O O1 0.689003 0.751942 0.729121
O O2 0.662643 0.766469 0.861787
O O3 0.766869 0.774494 0.855837
O O4 0.704989 0.000000 0.805920
O O5 0.250000 0.250000 0.500000
O O6 0.178653 0.211011 0.581913
O O7 0.153013 0.204058 0.418342
O O8 0.210960 0.000000 0.505194
O O9 0.723524 0.500000 0.684633
O O10 0.779249 0.261600 0.676020
O O11 0.534126 0.226949 0.152196
O O12 0.428708 0.240197 0.088644
O O13 0.486026 0.000000 0.073160
O O14 0.500000 0.241959 0.000000
O O15 0.906632 0.500000 0.778314
O O16 0.885649 0.770300 0.729495
O O17 0.867062 0.688147 0.865162
O O18 0.869241 0.500000 0.070890
O O19 0.831665 0.269982 0.989188
O O20 0.676545 0.500000 0.321149
O O21 0.794505 0.500000 0.897312
#
# Coordination Sequence:
#
# PCOD8080123 Si02
#       8
#     8   8   8   8   8   8   8   8
#     4  11  21  30  43  67  97 126 154 186 229 273
#     4   8  16  28  43  63  87 119 150 180 219 269
#     4  10  18  30  46  64  90 122 157 187 217 265
#     4   9  15  28  49  69  87 114 156 200 231 259
#     4  10  18  27  47  73  92 117 154 190 226 268
#     4   9  18  31  46  66  91 121 160 199 228 263
#     4  10  18  29  45  67  96 121 145 181 231 278
#     4  10  18  30  47  66  91 122 156 190 224 269
#
# _framework density 16.414866
#
# number of rings (size 3 to 8) (size 9 to 14) (size 15 to 20)
#    0.000    2.375    2.500    1.500    0.000    1.000 
#    0.000    0.625    0.000    2.625    0.000    0.875 
#    0.000    7.000    0.000    0.000    0.000    0.000 
#
# Total GULP energy -396556.171724 kJ/mol
# GULP energy per Si atom -12392.380366 kJ/mol
# Density = 1.637750 g / cm^3
# Si number density = 16.414866 Si / 1000 Ang^3
#
#
#
# Elastic Constant Matrix: (Units=GPa)
#
#
# Indices 1 2 3 4 5 6 
#
# 1 49.7916 16.5836 37.0186 0.0000 -6.0867 0.0000
# 2 16.5836 48.3773 41.6995 0.0000 -2.4976 0.0000
# 3 37.0186 41.6995 156.8780 0.0000 -5.0599 0.0000
# 4 0.0000 0.0000 0.0000 22.0731 0.0000 -1.1362
# 5 -6.0867 -2.4976 -5.0599 0.0000 16.0006 0.0000
# 6 0.0000 0.0000 0.0000 -1.1362 0.0000 11.9531
#
#
#
# Elastic Compliance Matrix: (Units=1/GPa)
#
#
# Indices 1 2 3 4 5 6 
#
# 1 0.026009 -0.004465 -0.004702 0.000000 0.007710 0.000000
# 2 -0.004465 0.027641 -0.006273 0.000000 0.000632 0.000000
# 3 -0.004702 -0.006273 0.009156 0.000000 0.000127 0.000000
# 4 0.000000 0.000000 0.000000 0.045527 0.000000 0.004327
# 5 0.007710 0.000632 0.000127 0.000000 0.065570 0.000000
# 6 0.000000 0.000000 0.000000 0.004327 0.000000 0.084072
#
#
# Mechanical properties :
#
#
# Convention : Reuss Voigt Hill
#
# Bulk Modulus (GPa) = 31.32276 49.51673 40.41974
# Shear Modulus (GPa) = 16.69468 20.65502 18.67485
#
# Velocity S-wave (km/s) = 3.19258 3.55112 3.37661
# Velocity P-wave (km/s) = 5.71957 6.85895 6.31501
#
# Compressibility (1/GPa) = 0.03192567
#
# Stress axis : x y z
#
# Youngs Moduli (GPa) = 38.44821 36.17756 109.22393
#
# Poissons Ratio (x) = 0.16153 0.51356
# Poissons Ratio (y) = 0.17167 0.68520
# Poissons Ratio (z) = 0.18078 0.22695
#
# Static dielectric constant tensor:
#      x y z
#    x 2.943450 0.000000 -0.016920 
#    y 0.000000 2.929060 0.000000 
#    z -0.016920 0.000000 3.749370 
# 
# 
# High freq. dielectric constant tensor:
#      x y z
#    x 1.588490 0.000000 0.002490 
#    y 0.000000 1.615930 0.000000 
#    z 0.002490 0.000000 1.649920 
# 
# From -- ./inp_files/287518.got.cif
#   From: 2010.06.25/outbox.cif.g09.slc.cpg/sg12_144_cif.got.tgz:287518.got - 2010.06.28 00:19:55.
