data_PCOD8080844
_publ_section_title
;
Structure prediction by ZEFSAII (Michael W. Deem and Ramdas Pophale) SiO2 
 PCOD8080844
Probable space group: C 2/M
;
_chemical_formula_sum "Si O2"
_cell_formula_units_Z 56
_cell_length_a 27.243749
_cell_length_b 9.317388
_cell_length_c 14.451951
_cell_angle_alpha 90.000000
_cell_angle_beta 122.037115
_cell_angle_gamma 90.000000
_cell_volume 3109.797400
_symmetry_space_group_name_H-M "C 2/M"
_symmetry_group_IT_number 12
_symmetry_cell_setting 'monoclinic'
loop_
_space_group_symop_operation_xyz
x,y,z
-x,y,-z
-x,-y,-z
x,-y,z
1/2+x,1/2+y,z
1/2-x,1/2+y,-z
1/2-x,1/2-y,-z
1/2+x,1/2-y,z
loop_
_atom_site_type_symbol
_atom_site_label
_atom_site_fract_x
_atom_site_fract_y
_atom_site_fract_z
Si Si1 0.157295 0.669917 0.556790
Si Si2 0.657295 0.169917 0.757801
Si Si3 0.000000 0.670988 0.894639
Si Si4 0.212743 0.837450 0.320003
Si Si5 0.386139 0.829894 0.094097
Si Si6 0.287257 0.337450 0.894517
Si Si7 0.386139 0.829894 0.678181
O O1 0.160592 0.500000 0.567895
O O2 0.136319 0.731335 0.636319
O O3 0.222373 0.723197 0.599512
O O4 0.113874 0.715650 0.430720
O O5 0.613874 0.215650 0.797028
O O6 0.722373 0.223197 0.845233
O O7 0.660592 0.000000 0.753288
O O8 0.000000 0.500000 0.893986
O O9 0.056173 0.730928 0.896992
O O10 0.943827 0.730928 0.784646
O O11 0.000000 0.728949 0.000000
O O12 0.196179 0.832243 0.196179
O O13 0.170300 0.733641 0.331543
O O14 0.206483 0.000000 0.351350
O O15 0.382951 0.000000 0.079919
O O16 0.329700 0.766359 0.990942
O O17 0.293517 0.500000 0.938384
O O18 0.382951 0.000000 0.685983
#
# Coordination Sequence:
#
# PCOD8080844 Si02
#       7
#     8   8   8   8   8   8   8
#     4   8  15  28  45  66  91 115 141 179 225 264
#     4   8  15  28  45  66  91 115 141 179 225 264
#     4   9  18  30  42  62  92 117 141 181 224 253
#     4   9  17  29  45  66  92 117 140 176 226 267
#     4  10  18  29  47  66  86 118 153 180 212 257
#     4   9  17  29  45  66  92 117 140 176 226 267
#     4  10  18  29  47  66  86 118 153 180 212 257
#
# _framework density 18.007603
#
# number of rings (size 3 to 8) (size 9 to 14) (size 15 to 20)
#    0.000    3.000    0.000    3.429    0.000    1.714 
#    0.000    1.429    0.000    9.429    0.000    0.000 
#    0.000    2.286    0.000    0.000    0.000    0.000 
#
# Total GULP energy -346994.880789 kJ/mol
# GULP energy per Si atom -12392.674314 kJ/mol
# Density = 1.796662 g / cm^3
# Si number density = 18.007603 Si / 1000 Ang^3
#
#
#
# Elastic Constant Matrix: (Units=GPa)
#
#
# Indices 1 2 3 4 5 6 
#
# 1 122.2822 14.0023 78.0521 0.0000 -22.5836 0.0000
# 2 14.0023 17.1103 17.6595 0.0000 -3.6883 0.0000
# 3 78.0521 17.6595 153.0879 0.0000 -8.4842 0.0000
# 4 0.0000 0.0000 0.0000 15.7326 0.0000 1.0257
# 5 -22.5836 -3.6883 -8.4842 0.0000 19.0921 0.0000
# 6 0.0000 0.0000 0.0000 1.0257 0.0000 16.7497
#
#
#
# Elastic Compliance Matrix: (Units=1/GPa)
#
#
# Indices 1 2 3 4 5 6 
#
# 1 0.015573 -0.002485 -0.006827 0.000000 0.014907 0.000000
# 2 -0.002485 0.068521 -0.006220 0.000000 0.007534 0.000000
# 3 -0.006827 -0.006220 0.010474 0.000000 -0.004623 0.000000
# 4 0.000000 0.000000 0.000000 0.063817 0.000000 -0.003908
# 5 0.014907 0.007534 -0.004623 0.000000 0.069412 0.000000
# 6 0.000000 0.000000 0.000000 -0.003908 0.000000 0.059942
#
#
# Mechanical properties :
#
#
# Convention : Reuss Voigt Hill
#
# Bulk Modulus (GPa) = 15.74673 56.87868 36.31271
# Shear Modulus (GPa) = 14.70708 22.49933 18.60320
#
# Velocity S-wave (km/s) = 2.86092 3.53857 3.21764
# Velocity P-wave (km/s) = 4.43584 6.95340 5.83209
#
# Compressibility (1/GPa) = 0.06350525
#
# Stress axis : x y z
#
# Youngs Moduli (GPa) = 64.21249 14.59400 95.47087
#
# Poissons Ratio (x) = 0.03626 0.65181
# Poissons Ratio (y) = 0.15955 0.59382
# Poissons Ratio (z) = 0.43840 0.09077
#
# Static dielectric constant tensor:
#      x y z
#    x 3.470960 0.000000 -0.258300 
#    y 0.000000 2.849550 0.000000 
#    z -0.258300 0.000000 3.727090 
# 
# 
# High freq. dielectric constant tensor:
#      x y z
#    x 1.690660 0.000000 -0.016090 
#    y 0.000000 1.644170 0.000000 
#    z -0.016090 0.000000 1.706620 
# 
# From -- ./inp_files/104702.got.cif
#   From: 2010.06.25/outbox.cif.g09.slc.cpg/sg12_53_cif.got.tgz:104702.got - 2010.06.28 00:19:55.
