data_PCOD8080964
_publ_section_title
;
Structure prediction by ZEFSAII (Michael W. Deem and Ramdas Pophale) SiO2 
 PCOD8080964
Probable space group: C 2/M
;
_chemical_formula_sum "Si O2"
_cell_formula_units_Z 40
_cell_length_a 23.019872
_cell_length_b 14.591275
_cell_length_c 9.010666
_cell_angle_alpha 90.000000
_cell_angle_beta 130.811823
_cell_angle_gamma 90.000000
_cell_volume 2290.702610
_symmetry_space_group_name_H-M "C 2/M"
_symmetry_group_IT_number 12
_symmetry_cell_setting 'monoclinic'
loop_
_space_group_symop_operation_xyz
x,y,z
-x,y,-z
-x,-y,-z
x,-y,z
1/2+x,1/2+y,z
1/2-x,1/2+y,-z
1/2-x,1/2-y,-z
1/2+x,1/2-y,z
loop_
_atom_site_type_symbol
_atom_site_label
_atom_site_fract_x
_atom_site_fract_y
_atom_site_fract_z
Si Si1 0.196681 0.227948 0.274830
Si Si2 0.968983 0.107935 0.295724
Si Si3 0.297454 0.606521 0.971110
Si Si4 0.755853 0.396791 0.790612
Si Si5 0.389368 0.395081 0.662821
O O1 0.250000 0.250000 0.500000
O O2 0.240960 0.163630 0.227909
O O3 0.180407 0.326477 0.168854
O O4 0.123884 0.172514 0.219069
O O5 0.000000 0.152549 0.500000
O O6 0.027591 0.131834 0.261745
O O7 0.961404 0.000000 0.307034
O O8 0.884506 0.146207 0.120564
O O9 0.294247 0.500000 0.925394
O O10 0.254923 0.625866 0.054194
O O11 0.786708 0.500000 0.819981
O O12 0.674018 0.384136 0.572445
O O13 0.389081 0.500000 0.720880
#
# Coordination Sequence:
#
# PCOD8080964 Si02
#       5
#     8   8   8   8   8
#     4  10  20  30  41  63  96 127 155 186 224 263
#     4   9  15  26  46  70  96 123 147 175 221 280
#     4  10  18  29  48  71  93 122 153 183 222 274
#     4   9  17  30  47  64  89 124 159 190 220 258
#     4   9  16  28  45  68  98 125 146 178 226 275
#
# _framework density 17.461891999999999
#
# number of rings (size 3 to 8) (size 9 to 14) (size 15 to 20)
#    0.000    2.600    2.000    1.200    0.000    1.600 
#    0.000    3.000    0.000    0.000    0.000    2.800 
#    0.000    1.600    0.000    0.000    0.000    0.000 
#
# Total GULP energy -247811.896396 kJ/mol
# GULP energy per Si atom -12390.594820 kJ/mol
# Density = 1.742215 g / cm^3
# Si number density = 17.461892 Si / 1000 Ang^3
#
#
#
# Elastic Constant Matrix: (Units=GPa)
#
#
# Indices 1 2 3 4 5 6 
#
# 1 91.0337 68.3732 27.2233 0.0000 -21.4276 0.0000
# 2 68.3732 105.6095 35.9546 0.0000 -23.2770 0.0000
# 3 27.2233 35.9546 52.9535 0.0000 -22.5211 0.0000
# 4 0.0000 0.0000 0.0000 22.8208 0.0000 -15.3361
# 5 -21.4276 -23.2770 -22.5211 0.0000 26.4981 0.0000
# 6 0.0000 0.0000 0.0000 -15.3361 0.0000 28.0015
#
#
#
# Elastic Compliance Matrix: (Units=1/GPa)
#
#
# Indices 1 2 3 4 5 6 
#
# 1 0.022286 -0.013022 0.000288 0.000000 0.006828 0.000000
# 2 -0.013022 0.020524 -0.006345 0.000000 0.002106 0.000000
# 3 0.000288 -0.006345 0.032533 0.000000 0.022309 0.000000
# 4 0.000000 0.000000 0.000000 0.069341 0.000000 0.037977
# 5 0.006828 0.002106 0.022309 0.000000 0.064071 0.000000
# 6 0.000000 0.000000 0.000000 0.037977 0.000000 0.056512
#
#
# Mechanical properties :
#
#
# Convention : Reuss Voigt Hill
#
# Bulk Modulus (GPa) = 26.89248 56.96653 41.92951
# Shear Modulus (GPa) = 15.83188 23.33381 19.58285
#
# Velocity S-wave (km/s) = 3.01434 3.65947 3.35246
# Velocity P-wave (km/s) = 5.24872 7.10984 6.24895
#
# Compressibility (1/GPa) = 0.03718512
#
# Stress axis : x y z
#
# Youngs Moduli (GPa) = 44.87113 48.72454 30.73829
#
# Poissons Ratio (x) = 0.63447 -0.00885
# Poissons Ratio (y) = 0.58429 0.19504
# Poissons Ratio (z) = -0.01292 0.30916
#
# Static dielectric constant tensor:
#      x y z
#    x 3.352870 0.000000 -0.300980 
#    y 0.000000 3.439050 0.000000 
#    z -0.300980 0.000000 3.223260 
# 
# 
# High freq. dielectric constant tensor:
#      x y z
#    x 1.661580 0.000000 -0.041300 
#    y 0.000000 1.655740 0.000000 
#    z -0.041300 0.000000 1.661220 
# 
# From -- ./inp_files/60248.got.cif
#   From: 2010.06.25/outbox.cif.g09.slc.cpg/sg12_31_cif.got.tgz:60248.got - 2010.06.28 00:19:55.
