data_PCOD8080888
_publ_section_title
;
Structure prediction by ZEFSAII (Michael W. Deem and Ramdas Pophale) SiO2 
 PCOD8080888
Probable space group: C 2/M
;
_chemical_formula_sum "Si O2"
_cell_formula_units_Z 64
_cell_length_a 25.077607
_cell_length_b 8.653626
_cell_length_c 21.339485
_cell_angle_alpha 90.000000
_cell_angle_beta 127.259213
_cell_angle_gamma 90.000000
_cell_volume 3685.778197
_symmetry_space_group_name_H-M "C 2/M"
_symmetry_group_IT_number 12
_symmetry_cell_setting 'monoclinic'
loop_
_space_group_symop_operation_xyz
x,y,z
-x,y,-z
-x,-y,-z
x,-y,z
1/2+x,1/2+y,z
1/2-x,1/2+y,-z
1/2-x,1/2-y,-z
1/2+x,1/2-y,z
loop_
_atom_site_type_symbol
_atom_site_label
_atom_site_fract_x
_atom_site_fract_y
_atom_site_fract_z
Si Si1 0.350487 0.679987 0.077902
Si Si2 0.446993 0.320002 0.909272
Si Si3 0.780197 0.679710 0.665606
Si Si4 0.190559 0.820864 0.495876
Si Si5 0.245776 0.679835 0.897651
Si Si6 0.506257 0.179449 0.830256
Si Si7 0.399446 0.680994 0.672917
Si Si8 0.693082 0.820488 0.175487
O O1 0.343456 0.500000 0.087420
O O2 0.324018 0.772951 0.119476
O O3 0.426527 0.721981 0.117872
O O4 0.307288 0.726279 0.986485
O O5 0.451703 0.500000 0.895359
O O6 0.460306 0.219095 0.857134
O O7 0.373717 0.279420 0.882948
O O8 0.500000 0.274675 0.000000
O O9 0.799285 0.500000 0.668705
O O10 0.706947 0.716111 0.580789
O O11 0.838623 0.782542 0.677128
O O12 0.773385 0.719141 0.733806
O O13 0.250000 0.750000 0.500000
O O14 0.120723 0.766307 0.413306
O O15 0.193144 0.000000 0.484440
O O16 0.244831 0.500000 0.881312
O O17 0.253106 0.774011 0.838591
O O18 0.465414 0.223541 0.738581
O O19 0.524340 0.000000 0.842363
O O20 0.416362 0.500000 0.689796
O O21 0.674620 0.000000 0.156992
#
# Coordination Sequence:
#
# PCOD8080888 Si02
#       8
#     8   8   8   8   8   8   8   8
#     4  10  21  38  57  75  96 126 168 214 255 296
#     4  11  23  36  49  68  98 134 170 207 248 297
#     4   9  17  30  46  69 101 133 166 204 246 293
#     4   8  15  27  44  66  94 129 166 202 242 290
#     4  10  21  37  56  76  99 128 165 211 255 295
#     4  12  23  34  50  73 102 134 167 206 251 301
#     4  10  18  29  47  70  98 133 169 205 246 294
#     4  11  21  32  50  75 103 135 167 203 247 297
#
# _framework density 17.364038999999998
#
# number of rings (size 3 to 8) (size 9 to 14) (size 15 to 20)
#    0.000    1.875    1.250    3.750    0.000    6.500 
#    0.000    0.000    0.000    0.000    0.000    0.875 
#    0.000    7.000    0.000    0.000    0.000    0.000 
#
# Total GULP energy -396685.368212 kJ/mol
# GULP energy per Si atom -12396.417757 kJ/mol
# Density = 1.732452 g / cm^3
# Si number density = 17.364039 Si / 1000 Ang^3
#
#
#
# Elastic Constant Matrix: (Units=GPa)
#
#
# Indices 1 2 3 4 5 6 
#
# 1 51.4695 9.8484 14.3248 0.0000 -10.2052 0.0000
# 2 9.8484 44.7666 35.3634 0.0000 -4.5431 0.0000
# 3 14.3248 35.3634 91.5036 0.0000 -14.9401 0.0000
# 4 0.0000 0.0000 0.0000 20.6489 0.0000 1.3584
# 5 -10.2052 -4.5431 -14.9401 0.0000 18.8497 0.0000
# 6 0.0000 0.0000 0.0000 1.3584 0.0000 27.4113
#
#
#
# Elastic Compliance Matrix: (Units=1/GPa)
#
#
# Indices 1 2 3 4 5 6 
#
# 1 0.022381 -0.003538 -0.000341 0.000000 0.010994 0.000000
# 2 -0.003538 0.032810 -0.012805 0.000000 -0.004157 0.000000
# 3 -0.000341 -0.012805 0.017685 0.000000 0.010746 0.000000
# 4 0.000000 0.000000 0.000000 0.048587 0.000000 -0.002408
# 5 0.010994 -0.004157 0.010746 0.000000 0.066518 0.000000
# 6 0.000000 0.000000 0.000000 -0.002408 0.000000 0.036601
#
#
# Mechanical properties :
#
#
# Convention : Reuss Voigt Hill
#
# Bulk Modulus (GPa) = 25.31205 34.09034 29.70119
# Shear Modulus (GPa) = 18.44204 21.92885 20.18545
#
# Velocity S-wave (km/s) = 3.26250 3.55757 3.41322
# Velocity P-wave (km/s) = 5.36663 6.04569 5.71626
#
# Compressibility (1/GPa) = 0.03950688
#
# Stress axis : x y z
#
# Youngs Moduli (GPa) = 44.68122 30.47871 56.54454
#
# Poissons Ratio (x) = 0.10785 0.01930
# Poissons Ratio (y) = 0.15810 0.72404
# Poissons Ratio (z) = 0.01525 0.39027
#
# Static dielectric constant tensor:
#      x y z
#    x 2.867290 0.000000 -0.086510 
#    y 0.000000 3.227740 0.000000 
#    z -0.086510 0.000000 3.798000 
# 
# 
# High freq. dielectric constant tensor:
#      x y z
#    x 1.624990 0.000000 -0.005350 
#    y 0.000000 1.681780 0.000000 
#    z -0.005350 0.000000 1.682400 
# 
# From -- ./inp_files/324317.got.cif
#   From: 2010.06.25/outbox.cif.g09.slc.cpg/sg12_163_cif.got.tgz:324317.got - 2010.06.28 00:19:55.
