data_PCOD8080709
_publ_section_title
;
Structure prediction by ZEFSAII (Michael W. Deem and Ramdas Pophale) SiO2 
 PCOD8080709
Probable space group: C 2/M
;
_chemical_formula_sum "Si O2"
_cell_formula_units_Z 64
_cell_length_a 30.086999
_cell_length_b 9.121823
_cell_length_c 30.734892
_cell_angle_alpha 90.000000
_cell_angle_beta 28.715546
_cell_angle_gamma 90.000000
_cell_volume 4052.758954
_symmetry_space_group_name_H-M "C 2/M"
_symmetry_group_IT_number 12
_symmetry_cell_setting 'monoclinic'
loop_
_space_group_symop_operation_xyz
x,y,z
-x,y,-z
-x,-y,-z
x,-y,z
1/2+x,1/2+y,z
1/2-x,1/2+y,-z
1/2-x,1/2-y,-z
1/2+x,1/2-y,z
loop_
_atom_site_type_symbol
_atom_site_label
_atom_site_fract_x
_atom_site_fract_y
_atom_site_fract_z
Si Si1 0.527803 0.826719 0.081089
Si Si2 0.519138 0.673344 0.413718
Si Si3 0.184049 0.672324 0.878343
Si Si4 0.124075 0.171347 0.074223
Si Si5 0.165755 0.331198 0.122415
Si Si6 0.357892 0.326418 0.611316
Si Si7 0.658151 0.173878 0.802564
Si Si8 0.631597 0.828679 0.249635
O O1 0.548881 0.749291 0.108513
O O2 0.429275 0.764802 0.148982
O O3 0.526033 0.000000 0.090012
O O4 0.603814 0.782144 0.980289
O O5 0.524144 0.500000 0.401031
O O6 0.593231 0.725660 0.386225
O O7 0.417053 0.722148 0.518216
O O8 0.541773 0.758495 0.349818
O O9 0.205601 0.500000 0.861348
O O10 0.151136 0.722139 0.858814
O O11 0.276619 0.755732 0.810832
O O12 0.112904 0.231845 0.132710
O O13 0.103953 0.000000 0.091649
O O14 0.225836 0.210095 0.968774
O O15 0.154288 0.500000 0.118482
O O16 0.121108 0.297903 0.207381
O O17 0.356624 0.500000 0.614022
O O18 0.253302 0.263998 0.699466
O O19 0.656623 0.000000 0.801359
O O20 0.636621 0.000000 0.255129
#
# Coordination Sequence:
#
# PCOD8080709 Si02
#       8
#     8   8   8   8   8   8   8   8
#     4  10  19  29  46  69  93 123 159 193 226 262
#     4   9  16  28  47  68  89 119 156 192 228 269
#     4  10  18  29  45  65  92 126 163 193 213 255
#     4  10  19  32  48  66  90 119 151 189 230 272
#     4   9  19  33  47  64  89 119 152 187 227 277
#     4   8  14  26  46  68  90 118 156 196 226 257
#     4   9  16  28  46  68  92 123 162 196 220 255
#     4  11  20  30  45  68  96 123 148 185 235 278
#
# _framework density 15.791712
#
# number of rings (size 3 to 8) (size 9 to 14) (size 15 to 20)
#    0.000    2.500    2.500    1.875    0.000    3.000 
#    0.000    1.875    0.000    1.500    0.000    0.875 
#    0.000    0.000    0.000    0.000    0.000    0.000 
#
# Total GULP energy -396735.765715 kJ/mol
# GULP energy per Si atom -12397.992679 kJ/mol
# Density = 1.575577 g / cm^3
# Si number density = 15.791712 Si / 1000 Ang^3
#
#
#
# Elastic Constant Matrix: (Units=GPa)
#
#
# Indices 1 2 3 4 5 6 
#
# 1 103.1819 34.7083 50.4485 -0.0019 4.0603 -0.0031
# 2 34.7083 37.7281 26.8778 0.0046 6.6023 -0.0101
# 3 50.4485 26.8778 95.7070 -0.0044 10.8477 -0.0038
# 4 -0.0019 0.0046 -0.0044 16.5368 -0.0004 5.0443
# 5 4.0603 6.6023 10.8477 -0.0004 20.2310 0.0049
# 6 -0.0031 -0.0101 -0.0038 5.0443 0.0049 21.2198
#
#
#
# Elastic Compliance Matrix: (Units=1/GPa)
#
#
# Indices 1 2 3 4 5 6 
#
# 1 0.016204 -0.011447 -0.005729 0.000005 0.003556 -0.000006
# 2 -0.011447 0.041969 -0.004749 -0.000022 -0.008853 0.000025
# 3 -0.005729 -0.004749 0.015434 0.000005 -0.005576 0.000000
# 4 0.000005 -0.000022 0.000005 0.065199 0.000009 -0.015499
# 5 0.003556 -0.008853 -0.005576 0.000009 0.054594 -0.000019
# 6 -0.000006 0.000025 0.000000 -0.015499 -0.000019 0.050810
#
#
# Mechanical properties :
#
#
# Convention : Reuss Voigt Hill
#
# Bulk Modulus (GPa) = 33.60715 51.18736 42.39725
# Shear Modulus (GPa) = 16.77970 19.90302 18.34136
#
# Velocity S-wave (km/s) = 3.26324 3.55399 3.41171
# Velocity P-wave (km/s) = 5.96037 7.02321 6.51351
#
# Compressibility (1/GPa) = 0.02975558
#
# Stress axis : x y z
#
# Youngs Moduli (GPa) = 61.71489 23.82729 64.79099
#
# Poissons Ratio (x) = 0.27276 0.37121
# Poissons Ratio (y) = 0.70646 0.30769
# Poissons Ratio (z) = 0.35359 0.11315
#
# Static dielectric constant tensor:
#      x y z
#    x 2.969480 -0.000020 0.004830 
#    y -0.000020 2.790420 0.000030 
#    z 0.004830 0.000030 3.270580 
# 
# 
# High freq. dielectric constant tensor:
#      x y z
#    x 1.589490 0.000000 0.010790 
#    y 0.000000 1.585350 0.000000 
#    z 0.010790 0.000000 1.599210 
# 
# From -- ./inp_files/384564.got.cif
#   From: 2010.06.25/outbox.cif.g09.slc.cpg/sg12_193_cif.got.tgz:384564.got - 2010.06.28 00:19:55.
