data_PCOD8080471
_publ_section_title
;
Structure prediction by ZEFSAII (Michael W. Deem and Ramdas Pophale) SiO2 
 PCOD8080471
Probable space group: C 2/M
;
_chemical_formula_sum "Si O2"
_cell_formula_units_Z 56
_cell_length_a 28.298246
_cell_length_b 9.417699
_cell_length_c 13.023948
_cell_angle_alpha 90.000000
_cell_angle_beta 53.279678
_cell_angle_gamma 90.000000
_cell_volume 2782.178419
_symmetry_space_group_name_H-M "C 2/M"
_symmetry_group_IT_number 12
_symmetry_cell_setting 'monoclinic'
loop_
_space_group_symop_operation_xyz
x,y,z
-x,y,-z
-x,-y,-z
x,-y,z
1/2+x,1/2+y,z
1/2-x,1/2+y,-z
1/2-x,1/2-y,-z
1/2+x,1/2-y,z
loop_
_atom_site_type_symbol
_atom_site_label
_atom_site_fract_x
_atom_site_fract_y
_atom_site_fract_z
Si Si1 0.864060 0.336371 0.689080
Si Si2 0.924733 0.337363 0.408046
Si Si3 0.739395 0.339361 0.792061
Si Si4 0.395494 0.667480 0.022286
Si Si5 0.559508 0.164130 0.224765
Si Si6 0.099796 0.657613 0.785517
Si Si7 0.263277 0.846136 0.388643
O O1 0.883664 0.500000 0.658695
O O2 0.885773 0.268434 0.551367
O O3 0.793330 0.322010 0.803244
O O4 0.898339 0.269948 0.741486
O O5 0.905177 0.500000 0.420058
O O6 0.913339 0.270244 0.309095
O O7 0.992831 0.321396 0.350681
O O8 0.738546 0.500000 0.749636
O O9 0.673689 0.301222 0.915618
O O10 0.762243 0.233347 0.676019
O O11 0.407969 0.500000 0.009230
O O12 0.418685 0.734326 0.099559
O O13 0.433515 0.741297 0.885240
O O14 0.575160 0.000000 0.178526
O O15 0.069178 0.500000 0.835896
O O16 0.168080 0.633585 0.712101
O O17 0.250000 0.750000 0.500000
O O18 0.232359 0.000000 0.439470
#
# Coordination Sequence:
#
# PCOD8080471 Si02
#       7
#     8   8   8   8   8   8   8
#     4   9  17  32  55  81 105 131 169 216 261 303
#     4   9  17  31  54  82 105 128 167 218 263 301
#     4   9  18  33  52  73 100 135 172 211 255 302
#     4  10  21  36  52  74 106 140 173 210 256 307
#     4  10  20  34  55  79 103 135 174 214 254 303
#     4   9  18  33  53  75 101 134 172 214 256 302
#     4  10  18  28  46  73 104 136 168 207 256 308
#
# _framework density 20.128112999999999
#
# number of rings (size 3 to 8) (size 9 to 14) (size 15 to 20)
#    0.000    2.571    0.000    2.143    0.000    6.286 
#    0.000    4.286    0.000    3.429    0.000    0.000 
#    0.000    0.000    0.000    0.000    0.000    0.000 
#
# Total GULP energy -346898.447401 kJ/mol
# GULP energy per Si atom -12389.230264 kJ/mol
# Density = 2.008230 g / cm^3
# Si number density = 20.128113 Si / 1000 Ang^3
#
#
#
# Elastic Constant Matrix: (Units=GPa)
#
#
# Indices 1 2 3 4 5 6 
#
# 1 60.1505 -2.4521 -3.9248 0.0000 13.6529 0.0000
# 2 -2.4521 69.5605 19.8799 0.0000 3.2025 0.0000
# 3 -3.9248 19.8799 67.8082 0.0000 13.7142 0.0000
# 4 0.0000 0.0000 0.0000 17.0733 0.0000 0.3899
# 5 13.6529 3.2025 13.7142 0.0000 31.5007 0.0000
# 6 0.0000 0.0000 0.0000 0.3899 0.0000 16.3344
#
#
#
# Elastic Compliance Matrix: (Units=1/GPa)
#
#
# Indices 1 2 3 4 5 6 
#
# 1 0.018995 0.000265 0.002952 0.000000 -0.009545 0.000000
# 2 0.000265 0.015700 -0.004651 0.000000 0.000314 0.000000
# 3 0.002952 -0.004651 0.018033 0.000000 -0.008657 0.000000
# 4 0.000000 0.000000 0.000000 0.058603 0.000000 -0.001399
# 5 -0.009545 0.000314 -0.008657 0.000000 0.039619 0.000000
# 6 0.000000 0.000000 0.000000 -0.001399 0.000000 0.061254
#
#
# Mechanical properties :
#
#
# Convention : Reuss Voigt Hill
#
# Bulk Modulus (GPa) = 20.05588 24.94725 22.50156
# Shear Modulus (GPa) = 21.58043 25.24944 23.41494
#
# Velocity S-wave (km/s) = 3.27793 3.54564 3.41441
# Velocity P-wave (km/s) = 4.93074 5.40215 5.17182
#
# Compressibility (1/GPa) = 0.04986069
#
# Stress axis : x y z
#
# Youngs Moduli (GPa) = 52.64577 63.69381 55.45418
#
# Poissons Ratio (x) = -0.01690 -0.16371
# Poissons Ratio (y) = -0.01397 0.25792
# Poissons Ratio (z) = -0.15541 0.29624
#
# Static dielectric constant tensor:
#      x y z
#    x 3.720190 0.000000 -0.620100 
#    y 0.000000 3.687760 0.000000 
#    z -0.620100 0.000000 17.376110 
# 
# 
# High freq. dielectric constant tensor:
#      x y z
#    x 1.791770 0.000000 0.001390 
#    y 0.000000 1.749060 0.000000 
#    z 0.001390 0.000000 1.772700 
# 
# From -- ./inp_files/187189.got.cif
#   From: 2010.06.25/outbox.cif.g09.slc.cpg/sg12_94_cif.got.tgz:187189.got - 2010.06.28 00:19:55.
