data_PCOD8080387
_publ_section_title
;
Structure prediction by ZEFSAII (Michael W. Deem and Ramdas Pophale) SiO2 
 PCOD8080387
Probable space group: C 2/M
;
_chemical_formula_sum "Si O2"
_cell_formula_units_Z 48
_cell_length_a 28.316967
_cell_length_b 8.920790
_cell_length_c 12.098008
_cell_angle_alpha 90.000000
_cell_angle_beta 69.293767
_cell_angle_gamma 90.000000
_cell_volume 2858.668990
_symmetry_space_group_name_H-M "C 2/M"
_symmetry_group_IT_number 12
_symmetry_cell_setting 'monoclinic'
loop_
_space_group_symop_operation_xyz
x,y,z
-x,y,-z
-x,-y,-z
x,-y,z
1/2+x,1/2+y,z
1/2-x,1/2+y,-z
1/2-x,1/2-y,-z
1/2+x,1/2-y,z
loop_
_atom_site_type_symbol
_atom_site_label
_atom_site_fract_x
_atom_site_fract_y
_atom_site_fract_z
Si Si1 0.280467 0.323389 0.573090
Si Si2 0.329490 0.324949 0.938278
Si Si3 0.886018 0.324020 0.528935
Si Si4 0.758580 0.326200 0.155872
Si Si5 0.983632 0.830803 0.387174
Si Si6 0.418286 0.824379 0.749619
O O1 0.284705 0.500000 0.552366
O O2 0.250000 0.250000 0.500000
O O3 0.336104 0.256525 0.528701
O O4 0.250815 0.283840 0.709756
O O5 0.340992 0.500000 0.934431
O O6 0.291388 0.283112 0.871027
O O7 0.381600 0.238619 0.874355
O O8 0.305908 0.270445 0.073729
O O9 0.881067 0.500000 0.513356
O O10 0.932015 0.262128 0.416641
O O11 0.894925 0.284443 0.649701
O O12 0.771644 0.500000 0.128427
O O13 0.000000 0.828910 0.500000
O O14 0.027310 0.752660 0.279068
O O15 0.975395 0.000000 0.351509
O O16 0.425527 0.000000 0.758745
#
# Coordination Sequence:
#
# PCOD8080387 Si02
#       6
#     8   8   8   8   8   8
#     4  11  22  36  52  71  97 130 169 207 245 288
#     4  10  18  29  48  71  97 128 162 198 243 295
#     4  10  19  31  47  68  96 129 164 202 244 289
#     4   9  19  33  47  67  96 128 162 201 245 290
#     4   9  17  28  44  66  95 128 161 197 241 291
#     4  10  18  28  45  70 100 130 161 196 241 295
#
# _framework density 16.791031
#
# number of rings (size 3 to 8) (size 9 to 14) (size 15 to 20)
#    0.000    2.167    1.667    2.500    0.000    5.333 
#    0.000    0.000    0.000    0.000    0.000    1.167 
#    0.000    9.333    0.000    0.000    0.000    0.000 
#
# Total GULP energy -297661.739543 kJ/mol
# GULP energy per Si atom -12402.572481 kJ/mol
# Density = 1.675281 g / cm^3
# Si number density = 16.791031 Si / 1000 Ang^3
#
#
#
# Elastic Constant Matrix: (Units=GPa)
#
#
# Indices 1 2 3 4 5 6 
#
# 1 91.0080 57.0887 60.5471 0.0000 -23.1525 0.0000
# 2 57.0887 92.8194 51.9746 0.0000 -16.6111 0.0000
# 3 60.5471 51.9746 93.5639 0.0000 -23.2490 0.0000
# 4 0.0000 0.0000 0.0000 28.3027 0.0000 -9.1395
# 5 -23.1525 -16.6111 -23.2490 0.0000 31.9277 0.0000
# 6 0.0000 0.0000 0.0000 -9.1395 0.0000 31.4424
#
#
#
# Elastic Compliance Matrix: (Units=1/GPa)
#
#
# Indices 1 2 3 4 5 6 
#
# 1 0.024116 -0.008482 -0.009334 0.000000 0.006278 0.000000
# 2 -0.008482 0.018750 -0.004921 0.000000 0.000020 0.000000
# 3 -0.009334 -0.004921 0.020931 0.000000 0.005912 0.000000
# 4 0.000000 0.000000 0.000000 0.038992 0.000000 0.011334
# 5 0.006278 0.000020 0.005912 0.000000 0.040189 0.000000
# 6 0.000000 0.000000 0.000000 0.011334 0.000000 0.035099
#
#
# Mechanical properties :
#
#
# Convention : Reuss Voigt Hill
#
# Bulk Modulus (GPa) = 54.58094 68.51248 61.54671
# Shear Modulus (GPa) = 21.77128 25.51995 23.64562
#
# Velocity S-wave (km/s) = 3.60474 3.90276 3.75671
# Velocity P-wave (km/s) = 7.06414 7.82306 7.45327
#
# Compressibility (1/GPa) = 0.01832142
#
# Stress axis : x y z
#
# Youngs Moduli (GPa) = 41.46630 53.33272 47.77572
#
# Poissons Ratio (x) = 0.45239 0.44594
# Poissons Ratio (y) = 0.35174 0.23513
# Poissons Ratio (z) = 0.38705 0.26248
#
# Static dielectric constant tensor:
#      x y z
#    x 2.956840 0.000000 -0.314670 
#    y 0.000000 3.274270 0.000000 
#    z -0.314670 0.000000 3.013820 
# 
# 
# High freq. dielectric constant tensor:
#      x y z
#    x 1.621510 0.000000 -0.039020 
#    y 0.000000 1.664960 0.000000 
#    z -0.039020 0.000000 1.625260 
# 
# From -- ./inp_files/172073.got.cif
#   From: 2010.06.25/outbox.cif.g09.slc.cpg/sg12_87_cif.got.tgz:172073.got - 2010.06.28 00:19:55.
