data_PCOD8080195
_publ_section_title
;
Structure prediction by ZEFSAII (Michael W. Deem and Ramdas Pophale) SiO2 
 PCOD8080195
Probable space group: C 2/M
;
_chemical_formula_sum "Si O2"
_cell_formula_units_Z 56
_cell_length_a 25.805806
_cell_length_b 9.195946
_cell_length_c 19.448324
_cell_angle_alpha 90.000000
_cell_angle_beta 131.417942
_cell_angle_gamma 90.000000
_cell_volume 3461.000482
_symmetry_space_group_name_H-M "C 2/M"
_symmetry_group_IT_number 12
_symmetry_cell_setting 'monoclinic'
loop_
_space_group_symop_operation_xyz
x,y,z
-x,y,-z
-x,-y,-z
x,-y,z
1/2+x,1/2+y,z
1/2-x,1/2+y,-z
1/2-x,1/2-y,-z
1/2+x,1/2-y,z
loop_
_atom_site_type_symbol
_atom_site_label
_atom_site_fract_x
_atom_site_fract_y
_atom_site_fract_z
Si Si1 0.892070 0.672346 0.902071
Si Si2 0.997355 0.671951 0.108683
Si Si3 0.260091 0.326948 0.212156
Si Si4 0.698772 0.328617 0.903664
Si Si5 0.459305 0.671698 0.211237
Si Si6 0.507382 0.327404 0.398631
Si Si7 0.392353 0.327134 0.401628
O O1 0.889513 0.500000 0.902605
O O2 0.814986 0.739590 0.835222
O O3 0.932034 0.719607 0.867963
O O4 0.932923 0.725564 0.005694
O O5 0.994756 0.500000 0.118327
O O6 0.995594 0.751426 0.179486
O O7 0.256681 0.500000 0.210800
O O8 0.283950 0.274798 0.157973
O O9 0.315253 0.268768 0.317370
O O10 0.709715 0.500000 0.920195
O O11 0.620732 0.283275 0.853255
O O12 0.750000 0.250000 0.000000
O O13 0.466853 0.500000 0.209174
O O14 0.500302 0.729988 0.314665
O O15 0.501880 0.500000 0.392486
O O16 0.444101 0.266476 0.388682
O O17 0.579878 0.278047 0.498376
O O18 0.392332 0.500000 0.397423
#
# Coordination Sequence:
#
# PCOD8080195 Si02
#       7
#     8   8   8   8   8   8   8
#     4   8  15  27  43  59  78 106 146 185 208 232
#     4   9  17  30  45  61  81 112 148 178 205 240
#     4   9  14  23  40  62  83 105 136 177 214 242
#     4  10  19  28  40  62  90 114 135 163 206 255
#     4  10  18  28  42  64  91 113 134 168 211 254
#     4   8  13  22  36  58  87 111 132 165 208 252
#     4   8  12  20  37  59  83 109 136 168 208 248
#
# _framework density 16.180292999999999
#
# number of rings (size 3 to 8) (size 9 to 14) (size 15 to 20)
#    0.000    3.143    1.429    2.571    0.000    1.714 
#    0.000    1.429    0.000    1.714    0.000    3.000 
#    0.000    0.000    0.000    0.000    0.000    0.000 
#
# Total GULP energy -346952.531263 kJ/mol
# GULP energy per Si atom -12391.161831 kJ/mol
# Density = 1.614347 g / cm^3
# Si number density = 16.180293 Si / 1000 Ang^3
#
#
#
# Elastic Constant Matrix: (Units=GPa)
#
#
# Indices 1 2 3 4 5 6 
#
# 1 110.5844 17.3967 75.2040 0.0000 -7.8663 0.0000
# 2 17.3967 12.3143 20.4746 0.0000 -4.6962 0.0000
# 3 75.2040 20.4746 157.2813 0.0000 -8.2586 0.0000
# 4 0.0000 0.0000 0.0000 14.5977 0.0000 -4.9841
# 5 -7.8663 -4.6962 -8.2586 0.0000 27.4881 0.0000
# 6 0.0000 0.0000 0.0000 -4.9841 0.0000 18.9079
#
#
#
# Elastic Compliance Matrix: (Units=1/GPa)
#
#
# Indices 1 2 3 4 5 6 
#
# 1 0.014580 -0.011268 -0.005473 0.000000 0.000603 0.000000
# 2 -0.011268 0.117828 -0.009208 0.000000 0.014139 0.000000
# 3 -0.005473 -0.009208 0.010169 0.000000 -0.000084 0.000000
# 4 0.000000 0.000000 0.000000 0.075279 0.000000 0.019843
# 5 0.000603 0.014139 -0.000084 0.000000 0.038942 0.000000
# 6 0.000000 0.000000 0.000000 0.019843 0.000000 0.058119
#
#
# Mechanical properties :
#
#
# Convention : Reuss Voigt Hill
#
# Bulk Modulus (GPa) = 11.02799 56.25896 33.64348
# Shear Modulus (GPa) = 12.59310 23.33906 17.96608
#
# Velocity S-wave (km/s) = 2.79283 3.80206 3.33583
# Velocity P-wave (km/s) = 4.15094 7.35661 5.97286
#
# Compressibility (1/GPa) = 0.09067832
#
# Stress axis : x y z
#
# Youngs Moduli (GPa) = 68.58490 8.48696 98.33515
#
# Poissons Ratio (x) = 0.09563 0.53820
# Poissons Ratio (y) = 0.77283 0.90550
# Poissons Ratio (z) = 0.37537 0.07815
#
# Static dielectric constant tensor:
#      x y z
#    x 3.156020 0.000000 0.131840 
#    y 0.000000 2.487700 0.000000 
#    z 0.131840 0.000000 3.492100 
# 
# 
# High freq. dielectric constant tensor:
#      x y z
#    x 1.610110 0.000000 0.000180 
#    y 0.000000 1.561630 0.000000 
#    z 0.000180 0.000000 1.633430 
# 
# From -- ./inp_files/323567.got.cif
#   From: 2010.06.25/outbox.cif.g09.slc.cpg/sg12_162_cif.got.tgz:323567.got - 2010.06.28 00:19:55.
