data_PCOD8080190
_publ_section_title
;
Structure prediction by ZEFSAII (Michael W. Deem and Ramdas Pophale) SiO2 
 PCOD8080190
Probable space group: C 2/M
;
_chemical_formula_sum "Si O2"
_cell_formula_units_Z 64
_cell_length_a 30.926673
_cell_length_b 9.155653
_cell_length_c 20.823040
_cell_angle_alpha 90.000000
_cell_angle_beta 136.265428
_cell_angle_gamma 90.000000
_cell_volume 4076.100205
_symmetry_space_group_name_H-M "C 2/M"
_symmetry_group_IT_number 12
_symmetry_cell_setting 'monoclinic'
loop_
_space_group_symop_operation_xyz
x,y,z
-x,y,-z
-x,-y,-z
x,-y,z
1/2+x,1/2+y,z
1/2-x,1/2+y,-z
1/2-x,1/2-y,-z
1/2+x,1/2-y,z
loop_
_atom_site_type_symbol
_atom_site_label
_atom_site_fract_x
_atom_site_fract_y
_atom_site_fract_z
Si Si1 0.206219 0.831106 0.403738
Si Si2 0.994781 0.826875 0.893928
Si Si3 0.539227 0.829278 0.400557
Si Si4 0.772710 0.173858 0.716864
Si Si5 0.861441 0.670841 0.383405
Si Si6 0.066089 0.169354 0.298928
Si Si7 0.050848 0.164868 0.610258
Si Si8 0.902345 0.173683 0.903200
O O1 0.250000 0.750000 0.500000
O O2 0.219254 0.766967 0.346849
O O3 0.134521 0.805182 0.344116
O O4 0.224234 0.000000 0.425772
O O5 0.982968 0.775447 0.808243
O O6 0.941520 0.764468 0.884603
O O7 0.989094 0.000000 0.889235
O O8 0.063326 0.776591 0.993639
O O9 0.597151 0.795492 0.509516
O O10 0.556811 0.769796 0.350157
O O11 0.476334 0.750324 0.357638
O O12 0.525090 0.000000 0.381410
O O13 0.708125 0.231492 0.677824
O O14 0.830989 0.231945 0.822626
O O15 0.771781 0.000000 0.714018
O O16 0.862336 0.500000 0.368085
O O17 0.886901 0.755698 0.348462
O O18 0.055504 0.000000 0.306189
O O19 0.000000 0.168007 0.500000
O O20 0.067447 0.000000 0.648531
O O21 0.901713 0.000000 0.898636
#
# Coordination Sequence:
#
# PCOD8080190 Si02
#       8
#     8   8   8   8   8   8   8   8
#     4  10  19  29  40  57  86 122 154 180 207 245
#     4   8  13  22  38  62  87 110 141 185 226 253
#     4  10  19  30  44  63  88 118 149 177 210 257
#     4   9  15  25  40  60  86 117 148 177 212 254
#     4   9  17  28  43  63  88 116 146 178 212 255
#     4  10  18  28  42  63  89 116 147 183 220 253
#     4   9  17  30  47  65  85 110 142 181 222 257
#     4   8  12  21  39  61  85 111 143 183 222 255
#
# _framework density 15.701283
#
# number of rings (size 3 to 8) (size 9 to 14) (size 15 to 20)
#    0.000    2.875    1.250    2.250    0.000    3.500 
#    0.000    0.625    0.000    0.000    0.000    4.375 
#    0.000    0.000    0.000    0.000    0.000    0.000 
#
# Total GULP energy -396620.998660 kJ/mol
# GULP energy per Si atom -12394.406208 kJ/mol
# Density = 1.566555 g / cm^3
# Si number density = 15.701283 Si / 1000 Ang^3
#
#
#
# Elastic Constant Matrix: (Units=GPa)
#
#
# Indices 1 2 3 4 5 6 
#
# 1 93.9121 37.0526 37.7703 0.0000 22.0580 0.0000
# 2 37.0526 47.4380 28.7844 0.0000 2.7628 0.0000
# 3 37.7703 28.7844 93.7462 0.0000 17.8077 0.0000
# 4 0.0000 0.0000 0.0000 10.9980 0.0000 -2.3913
# 5 22.0580 2.7628 17.8077 0.0000 12.7783 0.0000
# 6 0.0000 0.0000 0.0000 -2.3913 0.0000 23.1182
#
#
#
# Elastic Compliance Matrix: (Units=1/GPa)
#
#
# Indices 1 2 3 4 5 6 
#
# 1 0.031513 -0.024780 0.005750 0.000000 -0.057053 0.000000
# 2 -0.024780 0.045926 -0.014085 0.000000 0.052475 0.000000
# 3 0.005750 -0.014085 0.019016 0.000000 -0.033380 0.000000
# 4 0.000000 0.000000 0.000000 0.093018 0.000000 0.009622
# 5 -0.057053 0.052475 -0.033380 0.000000 0.211916 0.000000
# 6 0.000000 0.000000 0.000000 0.009622 0.000000 0.044251
#
#
# Mechanical properties :
#
#
# Convention : Reuss Voigt Hill
#
# Bulk Modulus (GPa) = 33.08691 49.14564 41.11628
# Shear Modulus (GPa) = 9.57952 18.14484 13.86218
#
# Velocity S-wave (km/s) = 2.47272 3.40314 2.97454
# Velocity P-wave (km/s) = 5.41026 6.84180 6.16770
#
# Compressibility (1/GPa) = 0.03022343
#
# Stress axis : x y z
#
# Youngs Moduli (GPa) = 31.73262 21.77424 52.58641
#
# Poissons Ratio (x) = 0.53957 -0.30235
# Poissons Ratio (y) = 0.78634 0.74070
# Poissons Ratio (z) = -0.18245 0.30670
#
# Static dielectric constant tensor:
#      x y z
#    x 3.038700 0.000000 0.096150 
#    y 0.000000 2.744210 0.000000 
#    z 0.096150 0.000000 3.292520 
# 
# 
# High freq. dielectric constant tensor:
#      x y z
#    x 1.594240 0.000000 0.004040 
#    y 0.000000 1.570540 0.000000 
#    z 0.004040 0.000000 1.588850 
# 
# From -- ./inp_files/326794.got.cif
#   From: 2010.06.25/outbox.cif.g09.slc.cpg/sg12_164_cif.got.tgz:326794.got - 2010.06.28 00:19:55.
