data_PCOD8080434
_publ_section_title
;
Structure prediction by ZEFSAII (Michael W. Deem and Ramdas Pophale) SiO2 
 PCOD8080434
Probable space group: C 2/M
;
_chemical_formula_sum "Si O2"
_cell_formula_units_Z 56
_cell_length_a 27.501048
_cell_length_b 9.150554
_cell_length_c 13.796731
_cell_angle_alpha 90.000000
_cell_angle_beta 81.192745
_cell_angle_gamma 90.000000
_cell_volume 3431.007243
_symmetry_space_group_name_H-M "C 2/M"
_symmetry_group_IT_number 12
_symmetry_cell_setting 'monoclinic'
loop_
_space_group_symop_operation_xyz
x,y,z
-x,y,-z
-x,-y,-z
x,-y,z
1/2+x,1/2+y,z
1/2-x,1/2+y,-z
1/2-x,1/2-y,-z
1/2+x,1/2-y,z
loop_
_atom_site_type_symbol
_atom_site_label
_atom_site_fract_x
_atom_site_fract_y
_atom_site_fract_z
Si Si1 0.945095 0.664977 0.976911
Si Si2 0.587818 0.328824 0.834404
Si Si3 0.518854 0.330717 0.208254
Si Si4 0.265518 0.668471 0.591290
Si Si5 0.358508 0.829100 0.541354
Si Si6 0.660003 0.165686 0.676910
Si Si7 0.045933 0.831079 0.418390
O O1 0.925754 0.500000 0.972518
O O2 0.909861 0.750813 0.061788
O O3 0.944239 0.740705 0.871965
O O4 0.000000 0.671177 0.000000
O O5 0.592562 0.500000 0.850644
O O6 0.537783 0.287630 0.793373
O O7 0.633378 0.276043 0.756740
O O8 0.527342 0.500000 0.182480
O O9 0.531071 0.290469 0.314154
O O10 0.277194 0.500000 0.564614
O O11 0.250000 0.750000 0.500000
O O12 0.315067 0.746783 0.614955
O O13 0.218867 0.680811 0.678047
O O14 0.353689 0.792698 0.429112
O O15 0.410202 0.772661 0.563520
O O16 0.353596 0.000000 0.563313
O O17 0.642786 0.000000 0.703707
O O18 0.000000 0.795279 0.500000
O O19 0.061804 0.000000 0.423464
#
# Coordination Sequence:
#
# PCOD8080434 Si02
#       7
#     8   8   8   8   8   8   8
#     4   9  17  29  45  64  88 118 150 186 229 273
#     4  10  18  28  46  69  92 119 150 187 229 272
#     4   9  18  31  45  64  91 122 157 191 222 264
#     4   9  17  30  47  66  90 120 153 190 231 274
#     4  10  20  32  46  66  93 125 159 193 228 270
#     4   9  18  30  44  66  94 120 148 186 230 272
#     4  10  20  33  48  67  93 126 161 193 226 266
#
# _framework density 16.321738
#
# number of rings (size 3 to 8) (size 9 to 14) (size 15 to 20)
#    0.000    2.571    0.000    3.429    0.000    7.714 
#    0.000    0.000    0.000    0.000    0.000    1.000 
#    0.000    0.000    0.000    0.000    0.000    0.000 
#
# Total GULP energy -347159.695897 kJ/mol
# GULP energy per Si atom -12398.560568 kJ/mol
# Density = 1.628459 g / cm^3
# Si number density = 16.321738 Si / 1000 Ang^3
#
#
#
# Elastic Constant Matrix: (Units=GPa)
#
#
# Indices 1 2 3 4 5 6 
#
# 1 76.0030 50.2453 45.7240 0.0000 -12.0363 0.0000
# 2 50.2453 108.6949 62.9906 0.0000 -12.4632 0.0000
# 3 45.7240 62.9906 108.5145 0.0000 -8.2319 0.0000
# 4 0.0000 0.0000 0.0000 30.0073 0.0000 -4.8775
# 5 -12.0363 -12.4632 -8.2319 0.0000 18.4573 0.0000
# 6 0.0000 0.0000 0.0000 -4.8775 0.0000 27.9041
#
#
#
# Elastic Compliance Matrix: (Units=1/GPa)
#
#
# Indices 1 2 3 4 5 6 
#
# 1 0.021367 -0.006213 -0.004821 0.000000 0.007588 0.000000
# 2 -0.006213 0.016338 -0.006558 0.000000 0.004055 0.000000
# 3 -0.004821 -0.006558 0.014986 0.000000 -0.000888 0.000000
# 4 0.000000 0.000000 0.000000 0.034300 0.000000 0.005995
# 5 0.007588 0.004055 -0.000888 0.000000 0.061470 0.000000
# 6 0.000000 0.000000 0.000000 0.005995 0.000000 0.036885
#
#
# Mechanical properties :
#
#
# Convention : Reuss Voigt Hill
#
# Bulk Modulus (GPa) = 57.12206 67.90357 62.51281
# Shear Modulus (GPa) = 22.08822 24.22390 23.15606
#
# Velocity S-wave (km/s) = 3.68271 3.85665 3.77068
# Velocity P-wave (km/s) = 7.29086 7.84379 7.57238
#
# Compressibility (1/GPa) = 0.01750637
#
# Stress axis : x y z
#
# Youngs Moduli (GPa) = 46.80130 61.20829 66.72805
#
# Poissons Ratio (x) = 0.38030 0.32170
# Poissons Ratio (y) = 0.29078 0.43761
# Poissons Ratio (z) = 0.22563 0.40141
#
# Static dielectric constant tensor:
#      x y z
#    x 3.919140 0.000000 -0.366290 
#    y 0.000000 3.229020 0.000000 
#    z -0.366290 0.000000 3.068860 
# 
# 
# High freq. dielectric constant tensor:
#      x y z
#    x 1.601890 0.000000 -0.018800 
#    y 0.000000 1.641930 0.000000 
#    z -0.018800 0.000000 1.612470 
# 
# From -- ./inp_files/243053.got.cif
#   From: 2010.06.25/outbox.cif.g09.slc.cpg/sg12_122_cif.got.tgz:243053.got - 2010.06.28 00:19:55.
