data_PCOD8080718
_publ_section_title
;
Structure prediction by ZEFSAII (Michael W. Deem and Ramdas Pophale) SiO2 
 PCOD8080718
Probable space group: C 2/M
;
_chemical_formula_sum "Si O2"
_cell_formula_units_Z 56
_cell_length_a 28.828199
_cell_length_b 9.096110
_cell_length_c 17.227545
_cell_angle_alpha 90.000000
_cell_angle_beta 130.581383
_cell_angle_gamma 90.000000
_cell_volume 3430.950926
_symmetry_space_group_name_H-M "C 2/M"
_symmetry_group_IT_number 12
_symmetry_cell_setting 'monoclinic'
loop_
_space_group_symop_operation_xyz
x,y,z
-x,y,-z
-x,-y,-z
x,-y,z
1/2+x,1/2+y,z
1/2-x,1/2+y,-z
1/2-x,1/2-y,-z
1/2+x,1/2-y,z
loop_
_atom_site_type_symbol
_atom_site_label
_atom_site_fract_x
_atom_site_fract_y
_atom_site_fract_z
Si Si1 0.233074 0.328725 0.860074
Si Si2 0.783387 0.825154 0.607306
Si Si3 0.048361 0.167314 0.881110
Si Si4 0.839500 0.169006 0.093928
Si Si5 0.580759 0.667827 0.216663
Si Si6 0.266774 0.169675 0.746239
Si Si7 0.908931 0.333290 0.923678
O O1 0.224699 0.500000 0.833304
O O2 0.177506 0.273955 0.853419
O O3 0.228438 0.240754 0.774480
O O4 0.297038 0.296250 0.973123
O O5 0.750000 0.750000 0.500000
O O6 0.854927 0.778006 0.677811
O O7 0.753978 0.760350 0.653816
O O8 0.774099 0.000000 0.595011
O O9 0.090022 0.204147 0.851567
O O10 0.975665 0.187937 0.783877
O O11 0.062064 0.000000 0.921667
O O12 0.065890 0.271754 0.969632
O O13 0.830374 0.000000 0.109652
O O14 0.589027 0.500000 0.200593
O O15 0.561869 0.752743 0.118279
O O16 0.336750 0.185674 0.845080
O O17 0.247372 0.000000 0.713326
O O18 0.929674 0.500000 0.939692
#
# Coordination Sequence:
#
# PCOD8080718 Si02
#       7
#     8   8   8   8   8   8   8
#     4  10  18  29  45  66  92 125 163 199 233 269
#     4  10  20  35  53  73  95 119 152 194 240 284
#     4  10  18  30  45  63  90 127 163 190 223 268
#     4   9  18  29  43  63  92 128 163 197 229 266
#     4   9  19  32  47  65  89 122 157 190 226 277
#     4  10  19  31  48  69  95 126 159 194 234 278
#     4  10  19  28  41  64  94 125 157 192 227 267
#
# _framework density 16.322005999999998
#
# number of rings (size 3 to 8) (size 9 to 14) (size 15 to 20)
#    0.000    2.286    1.429    2.143    0.000    5.143 
#    0.000    0.000    0.000    0.000    0.000    1.000 
#    0.000    8.000    0.000    0.000    0.000    0.000 
#
# Total GULP energy -347140.423082 kJ/mol
# GULP energy per Si atom -12397.872253 kJ/mol
# Density = 1.628486 g / cm^3
# Si number density = 16.322006 Si / 1000 Ang^3
#
#
#
# Elastic Constant Matrix: (Units=GPa)
#
#
# Indices 1 2 3 4 5 6 
#
# 1 107.4268 42.8450 38.3195 0.0000 -12.4364 0.0000
# 2 42.8450 81.7892 40.3919 0.0000 -8.8817 0.0000
# 3 38.3195 40.3919 70.6000 0.0000 -12.8627 0.0000
# 4 0.0000 0.0000 0.0000 24.8941 0.0000 -7.2060
# 5 -12.4364 -8.8817 -12.8627 0.0000 15.0220 0.0000
# 6 0.0000 0.0000 0.0000 -7.2060 0.0000 23.5132
#
#
#
# Elastic Compliance Matrix: (Units=1/GPa)
#
#
# Indices 1 2 3 4 5 6 
#
# 1 0.012943 -0.004484 -0.003543 0.000000 0.005030 0.000000
# 2 -0.004484 0.018648 -0.008179 0.000000 0.000310 0.000000
# 3 -0.003543 -0.008179 0.022928 0.000000 0.011863 0.000000
# 4 0.000000 0.000000 0.000000 0.044081 0.000000 0.013509
# 5 0.005030 0.000310 0.011863 0.000000 0.081075 0.000000
# 6 0.000000 0.000000 0.000000 0.013509 0.000000 0.046669
#
#
# Mechanical properties :
#
#
# Convention : Reuss Voigt Hill
#
# Bulk Modulus (GPa) = 45.23369 55.88096 50.55732
# Shear Modulus (GPa) = 18.78806 21.90316 20.34561
#
# Velocity S-wave (km/s) = 3.39645 3.66723 3.53443
# Velocity P-wave (km/s) = 6.56922 7.22788 6.90641
#
# Compressibility (1/GPa) = 0.02210742
#
# Stress axis : x y z
#
# Youngs Moduli (GPa) = 77.25980 53.62386 43.61463
#
# Poissons Ratio (x) = 0.24046 0.15454
# Poissons Ratio (y) = 0.34645 0.35671
# Poissons Ratio (z) = 0.27375 0.43858
#
# Static dielectric constant tensor:
#      x y z
#    x 3.258920 0.000000 0.024400 
#    y 0.000000 3.193560 0.000000 
#    z 0.024400 0.000000 2.736090 
# 
# 
# High freq. dielectric constant tensor:
#      x y z
#    x 1.631370 0.000000 -0.005320 
#    y 0.000000 1.640670 0.000000 
#    z -0.005320 0.000000 1.578230 
# 
# From -- ./inp_files/244299.got.cif
#   From: 2010.06.25/outbox.cif.g09.slc.cpg/sg12_123_cif.got.tgz:244299.got - 2010.06.28 00:19:55.
