data_PCOD8080497
_publ_section_title
;
Structure prediction by ZEFSAII (Michael W. Deem and Ramdas Pophale) SiO2 
 PCOD8080497
Probable space group: C 2/M
;
_chemical_formula_sum "Si O2"
_cell_formula_units_Z 56
_cell_length_a 29.020585
_cell_length_b 8.985638
_cell_length_c 13.622855
_cell_angle_alpha 90.000000
_cell_angle_beta 75.507861
_cell_angle_gamma 90.000000
_cell_volume 3439.380400
_symmetry_space_group_name_H-M "C 2/M"
_symmetry_group_IT_number 12
_symmetry_cell_setting 'monoclinic'
loop_
_space_group_symop_operation_xyz
x,y,z
-x,y,-z
-x,-y,-z
x,-y,z
1/2+x,1/2+y,z
1/2-x,1/2+y,-z
1/2-x,1/2-y,-z
1/2+x,1/2-y,z
loop_
_atom_site_type_symbol
_atom_site_label
_atom_site_fract_x
_atom_site_fract_y
_atom_site_fract_z
Si Si1 0.892381 0.176422 0.771554
Si Si2 0.984902 0.175628 0.611950
Si Si3 0.534911 0.675661 0.781172
Si Si4 0.553408 0.829006 0.089110
Si Si5 0.392733 0.169076 0.138414
Si Si6 0.299504 0.825979 0.858999
Si Si7 0.703364 0.174604 0.911723
O O1 0.931387 0.225914 0.669356
O O2 0.908561 0.238450 0.867698
O O3 0.841176 0.247229 0.773769
O O4 0.887885 0.000000 0.780370
O O5 0.000000 0.249640 0.500000
O O6 0.022431 0.223767 0.676203
O O7 0.985774 0.000000 0.601230
O O8 0.530207 0.500000 0.797524
O O9 0.498337 0.756206 0.873915
O O10 0.587989 0.730364 0.781618
O O11 0.552200 0.000000 0.125616
O O12 0.569244 0.819204 0.968783
O O13 0.341339 0.227135 0.129798
O O14 0.388308 0.000000 0.177697
O O15 0.249147 0.763222 0.848299
O O16 0.301525 0.000000 0.837558
O O17 0.306802 0.786301 0.969523
O O18 0.712859 0.000000 0.895551
#
# Coordination Sequence:
#
# PCOD8080497 Si02
#       7
#     8   8   8   8   8   8   8
#     4  10  18  28  47  71  92 119 154 192 230 270
#     4   8  16  32  50  68  91 117 148 188 232 277
#     4  10  20  30  44  68  90 115 153 191 227 270
#     4  10  18  30  44  61  89 126 158 183 220 267
#     4  10  19  31  44  61  90 128 157 181 221 268
#     4  10  18  30  45  65  92 124 157 190 228 265
#     4   9  18  31  44  62  89 125 164 190 216 261
#
# _framework density 16.282004000000001
#
# number of rings (size 3 to 8) (size 9 to 14) (size 15 to 20)
#    0.000    2.429    1.429    3.000    0.000    4.000 
#    0.000    0.000    0.000   15.429    0.000    1.000 
#    0.000    0.000    0.000    0.000    0.000    0.000 
#
# Total GULP energy -347121.963247 kJ/mol
# GULP energy per Si atom -12397.212973 kJ/mol
# Density = 1.624495 g / cm^3
# Si number density = 16.282004 Si / 1000 Ang^3
#
#
#
# Elastic Constant Matrix: (Units=GPa)
#
#
# Indices 1 2 3 4 5 6 
#
# 1 142.4483 50.3206 54.5311 0.0000 -2.8950 0.0000
# 2 50.3206 65.7334 31.8051 0.0000 -4.9794 0.0000
# 3 54.5311 31.8051 66.9548 0.0000 -1.3326 0.0000
# 4 0.0000 0.0000 0.0000 10.3933 0.0000 -1.5344
# 5 -2.8950 -4.9794 -1.3326 0.0000 12.7334 0.0000
# 6 0.0000 0.0000 0.0000 -1.5344 0.0000 33.2372
#
#
#
# Elastic Compliance Matrix: (Units=1/GPa)
#
#
# Indices 1 2 3 4 5 6 
#
# 1 0.011594 -0.005615 -0.006781 0.000000 -0.000269 0.000000
# 2 -0.005615 0.023070 -0.006245 0.000000 0.007091 0.000000
# 3 -0.006781 -0.006245 0.023394 0.000000 -0.001535 0.000000
# 4 0.000000 0.000000 0.000000 0.096876 0.000000 0.004472
# 5 -0.000269 0.007091 -0.001535 0.000000 0.081085 0.000000
# 6 0.000000 0.000000 0.000000 0.004472 0.000000 0.030293
#
#
# Mechanical properties :
#
#
# Convention : Reuss Voigt Hill
#
# Bulk Modulus (GPa) = 48.12988 60.93891 54.53439
# Shear Modulus (GPa) = 16.10214 20.50476 18.30345
#
# Velocity S-wave (km/s) = 3.14817 3.55258 3.35648
# Velocity P-wave (km/s) = 6.54515 7.37131 6.97048
#
# Compressibility (1/GPa) = 0.02077712
#
# Stress axis : x y z
#
# Youngs Moduli (GPa) = 86.25242 43.34642 42.74653
#
# Poissons Ratio (x) = 0.24339 0.28985
# Poissons Ratio (y) = 0.48431 0.26693
# Poissons Ratio (z) = 0.58485 0.27068
#
# Static dielectric constant tensor:
#      x y z
#    x 3.261090 0.000000 -0.073480 
#    y 0.000000 3.035150 0.000000 
#    z -0.073480 0.000000 2.924940 
# 
# 
# High freq. dielectric constant tensor:
#      x y z
#    x 1.633120 0.000000 -0.005460 
#    y 0.000000 1.625850 0.000000 
#    z -0.005460 0.000000 1.575890 
# 
# From -- ./inp_files/247739.got.cif
#   From: 2010.06.25/outbox.cif.g09.slc.cpg/sg12_124_cif.got.tgz:247739.got - 2010.06.28 00:19:55.
