data_PCOD8080822
_publ_section_title
;
Structure prediction by ZEFSAII (Michael W. Deem and Ramdas Pophale) SiO2 
 PCOD8080822
Probable space group: C 2/M
;
_chemical_formula_sum "Si O2"
_cell_formula_units_Z 64
_cell_length_a 23.662107
_cell_length_b 13.646666
_cell_length_c 25.015315
_cell_angle_alpha 90.000000
_cell_angle_beta 28.278859
_cell_angle_gamma 90.000000
_cell_volume 3826.902220
_symmetry_space_group_name_H-M "C 2/M"
_symmetry_group_IT_number 12
_symmetry_cell_setting 'monoclinic'
loop_
_space_group_symop_operation_xyz
x,y,z
-x,y,-z
-x,-y,-z
x,-y,z
1/2+x,1/2+y,z
1/2-x,1/2+y,-z
1/2-x,1/2-y,-z
1/2+x,1/2-y,z
loop_
_atom_site_type_symbol
_atom_site_label
_atom_site_fract_x
_atom_site_fract_y
_atom_site_fract_z
Si Si1 0.303144 0.884819 0.278459
Si Si2 0.806436 0.609078 0.923639
Si Si3 0.542539 0.114774 0.023147
Si Si4 0.954381 0.610376 0.334546
Si Si5 0.766766 0.115462 0.548618
Si Si6 0.481724 0.702922 0.665084
Si Si7 0.754834 0.302879 0.078224
Si Si8 0.100907 0.889922 0.371905
O O1 0.439849 0.860926 0.151649
O O2 0.265206 0.837310 0.366787
O O3 0.220206 0.845366 0.299299
O O4 0.279126 0.000000 0.300772
O O5 0.758476 0.500000 0.949445
O O6 0.734202 0.688858 0.948735
O O7 0.947519 0.615189 0.794282
O O8 0.789541 0.626896 0.000571
O O9 0.575353 0.000000 0.995160
O O10 0.500000 0.148562 0.000000
O O11 0.657928 0.176969 0.944461
O O12 0.942466 0.500000 0.367087
O O13 0.829946 0.650814 0.414220
O O14 0.991492 0.680885 0.352430
O O15 0.899140 0.143181 0.419810
O O16 0.755840 0.000000 0.562804
O O17 0.379968 0.671671 0.791955
O O18 0.437970 0.683517 0.641938
O O19 0.000000 0.894511 0.500000
O O20 0.121201 0.000000 0.331497
#
# Coordination Sequence:
#
# PCOD8080822 Si02
#       8
#     8   8   8   8   8   8   8   8
#     4   9  17  29  46  67  93 127 157 181 225 283
#     4   9  18  34  52  69  93 125 159 197 236 276
#     4  10  19  30  45  68  99 128 155 193 236 277
#     4   9  19  34  50  67  91 124 164 198 227 271
#     4  10  18  29  46  70  96 122 152 188 232 284
#     4  11  20  30  47  71  99 124 155 192 236 277
#     4  10  20  31  48  74  97 122 159 195 234 283
#     4  10  18  30  46  70 100 123 148 185 231 286
#
# _framework density 16.723710000000001
#
# number of rings (size 3 to 8) (size 9 to 14) (size 15 to 20)
#    0.000    2.250    1.250    2.625    0.000    5.000 
#    0.000    0.000    0.000    0.750    0.000    0.875 
#    0.000    0.000    0.000    0.000    0.000    0.000 
#
# Total GULP energy -396738.563942 kJ/mol
# GULP energy per Si atom -12398.080123 kJ/mol
# Density = 1.668565 g / cm^3
# Si number density = 16.723710 Si / 1000 Ang^3
#
#
#
# Elastic Constant Matrix: (Units=GPa)
#
#
# Indices 1 2 3 4 5 6 
#
# 1 103.7476 53.2721 35.9600 0.0000 -8.6388 0.0001
# 2 53.2721 60.6070 24.3290 0.0002 -4.5786 0.0001
# 3 35.9600 24.3290 74.3107 0.0006 -7.6056 0.0002
# 4 0.0000 0.0002 0.0006 17.2845 -0.0001 -4.2707
# 5 -8.6388 -4.5786 -7.6056 -0.0001 27.6671 -0.0002
# 6 0.0001 0.0001 0.0002 -4.2707 -0.0002 20.3959
#
#
#
# Elastic Compliance Matrix: (Units=1/GPa)
#
#
# Indices 1 2 3 4 5 6 
#
# 1 0.018789 -0.014720 -0.004036 0.000000 0.002321 0.000000
# 2 -0.014720 0.030587 -0.002926 0.000000 -0.000339 0.000000
# 3 -0.004036 -0.002926 0.016658 -0.000001 0.002835 0.000000
# 4 0.000000 0.000000 -0.000001 0.061012 0.000000 0.012775
# 5 0.002321 -0.000339 0.002835 0.000000 0.037592 0.000000
# 6 0.000000 0.000000 0.000000 0.012775 0.000000 0.051704
#
#
# Mechanical properties :
#
#
# Convention : Reuss Voigt Hill
#
# Bulk Modulus (GPa) = 44.10715 51.75416 47.93065
# Shear Modulus (GPa) = 18.70827 21.40980 20.05903
#
# Velocity S-wave (km/s) = 3.34828 3.58188 3.46705
# Velocity P-wave (km/s) = 6.43267 6.93687 6.68952
#
# Compressibility (1/GPa) = 0.02267206
#
# Stress axis : x y z
#
# Youngs Moduli (GPa) = 53.22207 32.69360 60.03193
#
# Poissons Ratio (x) = 0.48125 0.24226
# Poissons Ratio (y) = 0.78343 0.17563
# Poissons Ratio (z) = 0.21478 0.09565
#
# Static dielectric constant tensor:
#      x y z
#    x 3.248000 0.000000 -0.055080 
#    y 0.000000 2.974960 0.000000 
#    z -0.055080 0.000000 3.285290 
# 
# 
# High freq. dielectric constant tensor:
#      x y z
#    x 1.637660 0.000000 -0.004800 
#    y 0.000000 1.607620 0.000000 
#    z -0.004800 0.000000 1.659000 
# 
# From -- ./inp_files/367794.got.cif
#   From: 2010.06.25/outbox.cif.g09.slc.cpg/sg12_184_cif.got.tgz:367794.got - 2010.06.28 00:19:55.
