data_PCOD8080598
_publ_section_title
;
Structure prediction by ZEFSAII (Michael W. Deem and Ramdas Pophale) SiO2 
 PCOD8080598
Probable space group: C 2/M
;
_chemical_formula_sum "Si O2"
_cell_formula_units_Z 56
_cell_length_a 10.504236
_cell_length_b 27.962394
_cell_length_c 15.755218
_cell_angle_alpha 90.000000
_cell_angle_beta 35.012296
_cell_angle_gamma 90.000000
_cell_volume 2655.141161
_symmetry_space_group_name_H-M "C 2/M"
_symmetry_group_IT_number 12
_symmetry_cell_setting 'monoclinic'
loop_
_space_group_symop_operation_xyz
x,y,z
-x,y,-z
-x,-y,-z
x,-y,z
1/2+x,1/2+y,z
1/2-x,1/2+y,-z
1/2-x,1/2-y,-z
1/2+x,1/2-y,z
loop_
_atom_site_type_symbol
_atom_site_label
_atom_site_fract_x
_atom_site_fract_y
_atom_site_fract_z
Si Si1 0.322566 0.602940 0.170657
Si Si2 0.289818 0.287535 0.174439
Si Si3 0.458409 0.879195 0.122961
Si Si4 0.533502 0.775010 0.156993
Si Si5 0.832371 0.947827 0.924168
Si Si6 0.421210 0.553049 0.687106
Si Si7 0.079193 0.443575 0.548902
O O1 0.287834 0.658454 0.207246
O O2 0.429121 0.577197 0.194376
O O3 0.081385 0.578846 0.290776
O O4 0.500000 0.591815 0.000000
O O5 0.316290 0.254549 0.244251
O O6 0.067740 0.274972 0.240984
O O7 0.500000 0.278032 0.000000
O O8 0.496092 0.829176 0.148525
O O9 0.221961 0.903995 0.277505
O O10 0.500000 0.870956 0.000000
O O11 0.640274 0.914072 0.065613
O O12 0.750000 0.750000 0.000000
O O13 0.799103 0.954763 0.842790
O O14 0.822976 0.000000 0.973987
O O15 0.411978 0.500000 0.646334
O O16 0.672044 0.571498 0.561225
O O17 0.057901 0.500000 0.560952
O O18 0.000000 0.423534 0.500000
#
# Coordination Sequence:
#
# PCOD8080598 Si02
#       7
#     8   8   8   8   8   8   8
#     4  11  21  33  53  83 112 146 190 248 304 350
#     4   9  19  33  52  79 113 144 187 241 296 354
#     4  10  18  28  49  80 111 147 193 243 292 347
#     4  10  18  33  53  79 114 152 189 242 298 358
#     4  10  18  29  47  75 114 148 185 238 288 338
#     4   9  18  32  50  76 110 153 199 239 285 348
#     4  10  19  35  55  78 114 158 201 243 289 350
#
# _framework density 21.091158
#
# number of rings (size 3 to 8) (size 9 to 14) (size 15 to 20)
#    0.000    2.143    1.429    4.714    0.000    4.000 
#    0.000    0.000    0.000    4.286    0.000    9.000 
#    0.000    0.000    0.000    0.000    0.000    0.000 
#
# Total GULP energy -346871.116875 kJ/mol
# GULP energy per Si atom -12388.254174 kJ/mol
# Density = 2.104315 g / cm^3
# Si number density = 21.091158 Si / 1000 Ang^3
#
#
#
# Elastic Constant Matrix: (Units=GPa)
#
#
# Indices 1 2 3 4 5 6 
#
# 1 92.9344 61.6885 22.8737 0.0000 -32.2151 0.0000
# 2 61.6885 126.5953 46.5621 0.0000 -33.2841 0.0000
# 3 22.8737 46.5621 102.5280 0.0000 -31.5323 0.0000
# 4 0.0000 0.0000 0.0000 18.0497 0.0000 -12.9671
# 5 -32.2151 -33.2841 -31.5323 0.0000 29.4255 0.0000
# 6 0.0000 0.0000 0.0000 -12.9671 0.0000 34.6719
#
#
#
# Elastic Compliance Matrix: (Units=1/GPa)
#
#
# Indices 1 2 3 4 5 6 
#
# 1 0.021153 -0.006571 0.004626 0.000000 0.020683 0.000000
# 2 -0.006571 0.013507 -0.003254 0.000000 0.004596 0.000000
# 3 0.004626 -0.003254 0.015848 0.000000 0.018366 0.000000
# 4 0.000000 0.000000 0.000000 0.075757 0.000000 0.028333
# 5 0.020683 0.004596 0.018366 0.000000 0.081507 0.000000
# 6 0.000000 0.000000 0.000000 0.028333 0.000000 0.039438
#
#
# Mechanical properties :
#
#
# Convention : Reuss Voigt Hill
#
# Bulk Modulus (GPa) = 24.93249 64.92291 44.92770
# Shear Modulus (GPa) = 18.45161 29.15831 23.80496
#
# Velocity S-wave (km/s) = 2.96100 3.72222 3.36321
# Velocity P-wave (km/s) = 4.85149 7.02297 6.03569
#
# Compressibility (1/GPa) = 0.04010831
#
# Stress axis : x y z
#
# Youngs Moduli (GPa) = 47.27432 74.03738 63.10071
#
# Poissons Ratio (x) = 0.48652 -0.29190
# Poissons Ratio (y) = 0.31065 0.20535
# Poissons Ratio (z) = -0.21869 0.24094
#
# Static dielectric constant tensor:
#      x y z
#    x 4.241410 0.000000 -0.363900 
#    y 0.000000 3.960570 0.000000 
#    z -0.363900 0.000000 3.478200 
# 
# 
# High freq. dielectric constant tensor:
#      x y z
#    x 1.823240 0.000000 -0.032110 
#    y 0.000000 1.830590 0.000000 
#    z -0.032110 0.000000 1.780530 
# 
# From -- ./inp_files/307201.got.cif
#   From: 2010.06.25/outbox.cif.g09.slc.cpg/sg12_154_cif.got.tgz:307201.got - 2010.06.28 00:19:55.
