data_PCOD8080289
_publ_section_title
;
Structure prediction by ZEFSAII (Michael W. Deem and Ramdas Pophale) SiO2 
 PCOD8080289
Probable space group: C 2/M
;
_chemical_formula_sum "Si O2"
_cell_formula_units_Z 64
_cell_length_a 34.121121
_cell_length_b 14.459592
_cell_length_c 9.315410
_cell_angle_alpha 90.000000
_cell_angle_beta 123.600263
_cell_angle_gamma 90.000000
_cell_volume 3828.105665
_symmetry_space_group_name_H-M "C 2/M"
_symmetry_group_IT_number 12
_symmetry_cell_setting 'monoclinic'
loop_
_space_group_symop_operation_xyz
x,y,z
-x,y,-z
-x,-y,-z
x,-y,z
1/2+x,1/2+y,z
1/2-x,1/2+y,-z
1/2-x,1/2-y,-z
1/2+x,1/2-y,z
loop_
_atom_site_type_symbol
_atom_site_label
_atom_site_fract_x
_atom_site_fract_y
_atom_site_fract_z
Si Si1 0.178085 0.400938 0.268460
Si Si2 0.636998 0.712211 0.857215
Si Si3 0.319248 0.103437 0.058626
Si Si4 0.263318 0.654445 0.597611
Si Si5 0.953537 0.107067 0.987924
Si Si6 0.953346 0.892979 0.323827
Si Si7 0.637454 0.291018 0.196649
Si Si8 0.228748 0.893012 0.066218
O O1 0.150880 0.500000 0.228465
O O2 0.227266 0.417240 0.453380
O O3 0.146994 0.315545 0.267285
O O4 0.191229 0.381889 0.130272
O O5 0.642862 0.818862 0.815532
O O6 0.589622 0.667189 0.697071
O O7 0.631513 0.707742 0.015443
O O8 0.682768 0.653832 0.903114
O O9 0.270359 0.120768 0.038446
O O10 0.338830 0.000000 0.131510
O O11 0.250000 0.750000 0.500000
O O12 0.318896 0.640720 0.674072
O O13 0.256542 0.655869 0.755429
O O14 0.961122 0.124637 0.171383
O O15 0.942449 0.000000 0.933818
O O16 0.910485 0.167697 0.835012
O O17 0.000000 0.140195 0.000000
O O18 0.000000 0.860408 0.500000
O O19 0.942015 0.000000 0.331872
O O20 0.217668 0.000000 0.075348
#
# Coordination Sequence:
#
# PCOD8080289 Si02
#       8
#     8   8   8   8   8   8   8   8
#     4   9  16  28  44  62  87 117 146 177 212 249
#     4   9  16  28  46  64  85 115 148 178 213 260
#     4   9  18  30  44  64  90 120 152 183 215 254
#     4   9  17  28  42  63  89 117 149 179 211 253
#     4   9  17  30  47  64  83 108 137 173 217 260
#     4   9  17  30  47  66  86 107 137 177 220 266
#     4   8  16  28  43  63  84 110 145 176 206 256
#     4  10  18  28  44  66  91 120 151 181 216 259
#
# _framework density 16.718451000000002
#
# number of rings (size 3 to 8) (size 9 to 14) (size 15 to 20)
#    0.000    3.000    0.000    1.875    0.000    3.500 
#    0.000    3.750    0.000    5.250    0.000    0.000 
#    0.000    0.000    0.000    0.000    0.000    0.000 
#
# Total GULP energy -396464.939354 kJ/mol
# GULP energy per Si atom -12389.529355 kJ/mol
# Density = 1.668040 g / cm^3
# Si number density = 16.718451 Si / 1000 Ang^3
#
#
#
# Elastic Constant Matrix: (Units=GPa)
#
#
# Indices 1 2 3 4 5 6 
#
# 1 101.7898 60.9661 35.7457 0.0000 23.8592 0.0000
# 2 60.9661 107.3262 38.5017 0.0000 22.0832 0.0000
# 3 35.7457 38.5017 64.0950 0.0000 23.2114 0.0000
# 4 0.0000 0.0000 0.0000 16.5493 0.0000 4.1840
# 5 23.8592 22.0832 23.2114 0.0000 25.2942 0.0000
# 6 0.0000 0.0000 0.0000 4.1840 0.0000 27.2645
#
#
#
# Elastic Compliance Matrix: (Units=1/GPa)
#
#
# Indices 1 2 3 4 5 6 
#
# 1 0.016611 -0.007084 -0.002358 0.000000 -0.007320 0.000000
# 2 -0.007084 0.015478 -0.004303 0.000000 -0.002883 0.000000
# 3 -0.002358 -0.004303 0.025964 0.000000 -0.017845 0.000000
# 4 0.000000 0.000000 0.000000 0.062865 0.000000 -0.009647
# 5 -0.007320 -0.002883 -0.017845 0.000000 0.065332 0.000000
# 6 0.000000 0.000000 0.000000 -0.009647 0.000000 0.038158
#
#
# Mechanical properties :
#
#
# Convention : Reuss Voigt Hill
#
# Bulk Modulus (GPa) = 32.71833 60.40422 46.56127
# Shear Modulus (GPa) = 19.07783 23.02145 21.04964
#
# Velocity S-wave (km/s) = 3.38172 3.71483 3.55218
# Velocity P-wave (km/s) = 5.90429 7.38977 6.68840
#
# Compressibility (1/GPa) = 0.03056391
#
# Stress axis : x y z
#
# Youngs Moduli (GPa) = 60.20241 64.60779 38.51478
#
# Poissons Ratio (x) = 0.45766 0.09080
# Poissons Ratio (y) = 0.42645 0.16574
# Poissons Ratio (z) = 0.14193 0.27802
#
# Static dielectric constant tensor:
#      x y z
#    x 3.082490 0.000000 0.212040 
#    y 0.000000 3.577510 0.000000 
#    z 0.212040 0.000000 3.285600 
# 
# 
# High freq. dielectric constant tensor:
#      x y z
#    x 1.621040 0.000000 0.004740 
#    y 0.000000 1.650360 0.000000 
#    z 0.004740 0.000000 1.623070 
# 
# From -- ./inp_files/111665.got.cif
#   From: 2010.06.25/outbox.cif.g09.slc.cpg/sg12_56_cif.got.tgz:111665.got - 2010.06.28 00:19:55.
