data_PCOD8080304
_publ_section_title
;
Structure prediction by ZEFSAII (Michael W. Deem and Ramdas Pophale) SiO2 
 PCOD8080304
Probable space group: C 2/M
;
_chemical_formula_sum "Si O2"
_cell_formula_units_Z 48
_cell_length_a 19.352659
_cell_length_b 9.509886
_cell_length_c 15.946829
_cell_angle_alpha 90.000000
_cell_angle_beta 75.573439
_cell_angle_gamma 90.000000
_cell_volume 2842.336321
_symmetry_space_group_name_H-M "C 2/M"
_symmetry_group_IT_number 12
_symmetry_cell_setting 'monoclinic'
loop_
_space_group_symop_operation_xyz
x,y,z
-x,y,-z
-x,-y,-z
x,-y,z
1/2+x,1/2+y,z
1/2-x,1/2+y,-z
1/2-x,1/2-y,-z
1/2+x,1/2-y,z
loop_
_atom_site_type_symbol
_atom_site_label
_atom_site_fract_x
_atom_site_fract_y
_atom_site_fract_z
Si Si1 0.094419 0.158926 0.648040
Si Si2 0.658115 0.837587 0.769769
Si Si3 0.550496 0.335092 0.225128
Si Si4 0.984290 0.664447 0.098913
Si Si5 0.815693 0.835389 0.715476
Si Si6 0.190039 0.837131 0.470920
O O1 0.145489 0.255833 0.687797
O O2 0.115330 0.179024 0.544269
O O3 0.011539 0.196007 0.688005
O O4 0.109193 0.000000 0.673076
O O5 0.598817 0.799483 0.857295
O O6 0.737758 0.800577 0.778523
O O7 0.653820 0.000000 0.746522
O O8 0.556046 0.500000 0.201592
O O9 0.535710 0.251801 0.144068
O O10 0.623287 0.271912 0.242719
O O11 0.000456 0.500000 0.106965
O O12 0.000000 0.712962 0.000000
O O13 0.821484 0.775516 0.619012
O O14 0.830682 0.000000 0.706367
O O15 0.250000 0.750000 0.500000
O O16 0.214319 0.000000 0.459824
#
# Coordination Sequence:
#
# PCOD8080304 Si02
#       6
#     8   8   8   8   8   8
#     4   9  17  28  44  67  92 120 154 192 224 257
#     4   9  16  29  49  67  88 121 155 184 222 274
#     4   9  18  32  48  68  95 121 149 186 230 274
#     4   9  18  33  52  71  90 116 151 188 227 276
#     4   9  17  29  46  68  93 123 154 186 226 268
#     4  10  18  28  44  67  93 122 158 191 220 258
#
# _framework density 16.887516000000002
#
# number of rings (size 3 to 8) (size 9 to 14) (size 15 to 20)
#    0.000    2.833    1.667    0.000    0.000    1.000 
#    0.000    5.833    0.000    0.000    0.000    5.833 
#    0.000    0.000    0.000    0.000    0.000    0.000 
#
# Total GULP energy -297487.858740 kJ/mol
# GULP energy per Si atom -12395.327448 kJ/mol
# Density = 1.684908 g / cm^3
# Si number density = 16.887516 Si / 1000 Ang^3
#
#
#
# Elastic Constant Matrix: (Units=GPa)
#
#
# Indices 1 2 3 4 5 6 
#
# 1 148.1523 39.2238 71.8502 0.0000 9.4951 0.0000
# 2 39.2238 37.0790 32.6489 0.0000 4.8799 0.0000
# 3 71.8502 32.6489 129.1195 0.0000 2.8976 0.0000
# 4 0.0000 0.0000 0.0000 20.2479 0.0000 2.4643
# 5 9.4951 4.8799 2.8976 0.0000 20.3065 0.0000
# 6 0.0000 0.0000 0.0000 2.4643 0.0000 20.9676
#
#
#
# Elastic Compliance Matrix: (Units=1/GPa)
#
#
# Indices 1 2 3 4 5 6 
#
# 1 0.010918 -0.007588 -0.004096 0.000000 -0.002697 0.000000
# 2 -0.007588 0.041021 -0.006028 0.000000 -0.005450 0.000000
# 3 -0.004096 -0.006028 0.011510 0.000000 0.001722 0.000000
# 4 0.000000 0.000000 0.000000 0.050104 0.000000 -0.005889
# 5 -0.002697 -0.005450 0.001722 0.000000 0.051570 0.000000
# 6 0.000000 0.000000 0.000000 -0.005889 0.000000 0.048385
#
#
# Mechanical properties :
#
#
# Convention : Reuss Voigt Hill
#
# Bulk Modulus (GPa) = 35.68247 66.86629 51.27438
# Shear Modulus (GPa) = 19.35921 23.67959 21.51940
#
# Velocity S-wave (km/s) = 3.38947 3.74865 3.57358
# Velocity P-wave (km/s) = 6.04098 7.64314 6.88879
#
# Compressibility (1/GPa) = 0.02802496
#
# Stress axis : x y z
#
# Youngs Moduli (GPa) = 91.58965 24.37766 86.88224
#
# Poissons Ratio (x) = 0.18497 0.35591
# Poissons Ratio (y) = 0.69497 0.52371
# Poissons Ratio (z) = 0.37519 0.14695
#
# Static dielectric constant tensor:
#      x y z
#    x 3.301060 0.000000 -0.169500 
#    y 0.000000 3.026760 0.000000 
#    z -0.169500 0.000000 3.212440 
# 
# 
# High freq. dielectric constant tensor:
#      x y z
#    x 1.646740 0.000000 -0.016910 
#    y 0.000000 1.632290 0.000000 
#    z -0.016910 0.000000 1.643480 
# 
# From -- ./inp_files/212745.got.cif
#   From: 2010.06.25/outbox.cif.g09.slc.cpg/sg12_107_cif.got.tgz:212745.got - 2010.06.28 00:19:55.
