data_PCOD8080847
_publ_section_title
;
Structure prediction by ZEFSAII (Michael W. Deem and Ramdas Pophale) SiO2 
 PCOD8080847
Probable space group: C 2/M
;
_chemical_formula_sum "Si O2"
_cell_formula_units_Z 64
_cell_length_a 28.438847
_cell_length_b 17.934062
_cell_length_c 25.061237
_cell_angle_alpha 90.000000
_cell_angle_beta 160.823860
_cell_angle_gamma 90.000000
_cell_volume 4198.491614
_symmetry_space_group_name_H-M "C 2/M"
_symmetry_group_IT_number 12
_symmetry_cell_setting 'monoclinic'
loop_
_space_group_symop_operation_xyz
x,y,z
-x,y,-z
-x,-y,-z
x,-y,z
1/2+x,1/2+y,z
1/2-x,1/2+y,-z
1/2-x,1/2-y,-z
1/2+x,1/2-y,z
loop_
_atom_site_type_symbol
_atom_site_label
_atom_site_fract_x
_atom_site_fract_y
_atom_site_fract_z
Si Si1 0.941174 0.706091 0.749416
Si Si2 0.033012 0.324603 0.679697
Si Si3 0.645058 0.327685 0.006389
Si Si4 0.585311 0.414089 0.836685
Si Si5 0.084440 0.416216 0.540816
Si Si6 0.882876 0.084288 0.914080
Si Si7 0.095532 0.586856 0.851169
Si Si8 0.620008 0.703399 0.422842
O O1 0.788882 0.690208 0.614732
O O2 0.909926 0.750291 0.662232
O O3 0.044173 0.754663 0.898000
O O4 0.022383 0.628941 0.822686
O O5 0.033852 0.380778 0.730247
O O6 0.939330 0.364852 0.535101
O O7 0.950767 0.247986 0.604192
O O8 0.191757 0.304025 0.830012
O O9 0.593070 0.384892 0.905508
O O10 0.635423 0.365515 0.053539
O O11 0.546068 0.500000 0.797947
O O12 0.458946 0.375661 0.667685
O O13 0.733921 0.399785 0.964871
O O14 0.026935 0.500000 0.466786
O O15 0.247976 0.417077 0.731239
O O16 0.000000 0.381466 0.500000
O O17 0.921617 0.000000 0.974079
O O18 0.000000 0.118877 0.000000
O O19 0.056279 0.500000 0.812867
#
# Coordination Sequence:
#
# PCOD8080847 Si02
#       8
#     8   8   8   8   8   8   8   8
#     4   9  18  30  43  62  90 118 146 183 224 270
#     4  10  18  29  47  66  88 120 155 188 222 259
#     4  10  18  30  47  64  88 122 155 185 223 264
#     4   9  17  29  47  67  88 116 151 187 222 266
#     4  10  19  31  46  65  90 119 154 192 223 254
#     4  10  21  33  44  63  92 123 154 189 225 260
#     4   9  17  29  46  67  90 117 150 184 222 269
#     4   9  18  30  43  63  89 116 148 185 224 266
#
# _framework density 15.24357
#
# number of rings (size 3 to 8) (size 9 to 14) (size 15 to 20)
#    0.000    2.500    1.250    1.500    1.750    4.500 
#    0.000    0.000    0.000    0.000    0.000    0.000 
#    0.000    2.000    0.000    0.125    0.000    0.000 
#
# Total GULP energy -396727.283804 kJ/mol
# GULP energy per Si atom -12397.727619 kJ/mol
# Density = 1.520887 g / cm^3
# Si number density = 15.243570 Si / 1000 Ang^3
#
#
#
# Elastic Constant Matrix: (Units=GPa)
#
#
# Indices 1 2 3 4 5 6 
#
# 1 78.3971 47.2440 46.7456 0.0060 11.1359 0.0043
# 2 47.2440 95.8342 52.5371 0.0103 6.6780 0.0070
# 3 46.7456 52.5371 86.2113 0.0102 12.7073 0.0117
# 4 0.0060 0.0103 0.0102 30.1898 0.0071 -6.8173
# 5 11.1359 6.6780 12.7073 0.0071 25.1665 0.0050
# 6 0.0043 0.0070 0.0117 -6.8173 0.0050 29.4843
#
#
#
# Elastic Compliance Matrix: (Units=1/GPa)
#
#
# Indices 1 2 3 4 5 6 
#
# 1 0.021439 -0.006371 -0.007123 0.000002 -0.004199 0.000002
# 2 -0.006371 0.017575 -0.007545 -0.000003 0.001966 -0.000001
# 3 -0.007123 -0.007545 0.020852 -0.000003 -0.005375 -0.000005
# 4 0.000002 -0.000003 -0.000003 0.034949 -0.000010 0.008081
# 5 -0.004199 0.001966 -0.005375 -0.000010 0.043786 -0.000007
# 6 0.000002 -0.000001 -0.000005 0.008081 -0.000007 0.035785
#
#
# Mechanical properties :
#
#
# Convention : Reuss Voigt Hill
#
# Bulk Modulus (GPa) = 56.22181 61.49954 58.86068
# Shear Modulus (GPa) = 22.48276 24.56251 23.52263
#
# Velocity S-wave (km/s) = 3.84461 4.01850 3.93252
# Velocity P-wave (km/s) = 7.52798 7.87168 7.70174
#
# Compressibility (1/GPa) = 0.01778669
#
# Stress axis : x y z
#
# Youngs Moduli (GPa) = 46.64453 56.89900 47.95731
#
# Poissons Ratio (x) = 0.36252 0.34159
# Poissons Ratio (y) = 0.29719 0.36185
# Poissons Ratio (z) = 0.33224 0.42932
#
# Static dielectric constant tensor:
#      x y z
#    x 2.786830 -0.000010 0.226630 
#    y -0.000010 2.884060 -0.000020 
#    z 0.226630 -0.000020 2.988060 
# 
# 
# High freq. dielectric constant tensor:
#      x y z
#    x 1.562960 0.000000 0.021470 
#    y 0.000000 1.568320 0.000000 
#    z 0.021470 0.000000 1.587990 
# 
# From -- ./inp_files/97697.got.cif
#   From: 2010.06.25/outbox.cif.g09.slc.cpg/sg12_49_cif.got.tgz:97697.got - 2010.06.28 00:19:55.
