data_PCOD8080813
_publ_section_title
;
Structure prediction by ZEFSAII (Michael W. Deem and Ramdas Pophale) SiO2 
 PCOD8080813
Probable space group: C 2/M
;
_chemical_formula_sum "Si O2"
_cell_formula_units_Z 56
_cell_length_a 19.342838
_cell_length_b 9.141054
_cell_length_c 31.093188
_cell_angle_alpha 90.000000
_cell_angle_beta 35.065830
_cell_angle_gamma 90.000000
_cell_volume 3158.528311
_symmetry_space_group_name_H-M "C 2/M"
_symmetry_group_IT_number 12
_symmetry_cell_setting 'monoclinic'
loop_
_space_group_symop_operation_xyz
x,y,z
-x,y,-z
-x,-y,-z
x,-y,z
1/2+x,1/2+y,z
1/2-x,1/2+y,-z
1/2-x,1/2-y,-z
1/2+x,1/2-y,z
loop_
_atom_site_type_symbol
_atom_site_label
_atom_site_fract_x
_atom_site_fract_y
_atom_site_fract_z
Si Si1 0.817416 0.828583 0.756091
Si Si2 0.649575 0.168425 0.687387
Si Si3 0.222995 0.330855 0.447728
Si Si4 0.093121 0.168024 0.199408
Si Si5 0.896879 0.330267 0.191809
Si Si6 0.357352 0.330314 0.921920
Si Si7 0.567041 0.670041 0.591713
O O1 0.816230 0.792911 0.807716
O O2 0.696720 0.765632 0.795634
O O3 0.938215 0.766343 0.672329
O O4 0.817461 0.000000 0.747636
O O5 0.755793 0.255133 0.609231
O O6 0.520862 0.228404 0.738312
O O7 0.665822 0.190237 0.730015
O O8 0.656690 0.000000 0.670223
O O9 0.195585 0.500000 0.454226
O O10 0.341110 0.303532 0.416115
O O11 0.107336 0.259076 0.529195
O O12 0.161027 0.193090 0.119819
O O13 0.048024 0.000000 0.226561
O O14 0.930160 0.500000 0.166911
O O15 0.017115 0.236305 0.126250
O O16 0.355595 0.500000 0.935253
O O17 0.250000 0.250000 0.000000
O O18 0.561571 0.500000 0.582112
#
# Coordination Sequence:
#
# PCOD8080813 Si02
#       7
#     8   8   8   8   8   8   8
#     4   9  16  32  54  75  99 128 167 210 250 294
#     4  10  18  29  47  73 100 129 167 208 250 298
#     4  10  18  29  46  69  97 131 172 215 253 291
#     4   9  17  32  54  77  97 128 169 207 243 286
#     4   9  19  34  54  77 102 131 163 203 250 298
#     4  10  20  35  57  80 105 132 163 200 241 292
#     4   9  17  29  47  70  96 127 166 215 258 291
#
# _framework density 17.729775
#
# number of rings (size 3 to 8) (size 9 to 14) (size 15 to 20)
#    0.000    2.571    1.429    1.286    0.000    1.714 
#    0.000    2.857    0.000    8.571    0.000    0.000 
#    0.000    0.000    0.000    0.000    0.000    0.000 
#
# Total GULP energy -347179.936310 kJ/mol
# GULP energy per Si atom -12399.283440 kJ/mol
# Density = 1.768942 g / cm^3
# Si number density = 17.729775 Si / 1000 Ang^3
#
#
#
# Elastic Constant Matrix: (Units=GPa)
#
#
# Indices 1 2 3 4 5 6 
#
# 1 118.5887 41.0381 56.8062 0.0013 -1.6650 0.0381
# 2 41.0381 85.6854 57.1942 0.0011 3.6486 0.0191
# 3 56.8062 57.1942 124.8468 0.0027 2.5003 -0.0012
# 4 0.0013 0.0011 0.0027 31.4817 -0.0013 1.8681
# 5 -1.6650 3.6486 2.5003 -0.0013 19.2213 0.0001
# 6 0.0381 0.0191 -0.0012 1.8681 0.0001 18.5858
#
#
#
# Elastic Compliance Matrix: (Units=1/GPa)
#
#
# Indices 1 2 3 4 5 6 
#
# 1 0.011321 -0.002943 -0.003844 0.000001 0.002039 -0.000021
# 2 -0.002943 0.017669 -0.006701 0.000001 -0.002737 -0.000013
# 3 -0.003844 -0.006701 0.012843 -0.000002 -0.000732 0.000016
# 4 0.000001 0.000001 -0.000002 0.031955 0.000002 -0.003212
# 5 0.002039 -0.002737 -0.000732 0.000002 0.052817 -0.000002
# 6 -0.000021 -0.000013 0.000016 -0.003212 -0.000002 0.054127
#
#
# Mechanical properties :
#
#
# Convention : Reuss Voigt Hill
#
# Bulk Modulus (GPa) = 67.30220 71.02198 69.16209
# Shear Modulus (GPa) = 23.51170 25.46327 24.48748
#
# Velocity S-wave (km/s) = 3.64553 3.79382 3.72041
# Velocity P-wave (km/s) = 7.46742 7.70297 7.58611
#
# Compressibility (1/GPa) = 0.01485835
#
# Stress axis : x y z
#
# Youngs Moduli (GPa) = 88.33300 56.59501 77.86375
#
# Poissons Ratio (x) = 0.16658 0.29927
# Poissons Ratio (y) = 0.25999 0.52173
# Poissons Ratio (z) = 0.33951 0.37922
#
# Static dielectric constant tensor:
#      x y z
#    x 3.331140 -0.000010 0.116180 
#    y -0.000010 3.249200 0.000010 
#    z 0.116180 0.000010 3.261400 
# 
# 
# High freq. dielectric constant tensor:
#      x y z
#    x 1.669540 0.000000 0.013600 
#    y 0.000000 1.677890 0.000000 
#    z 0.013600 0.000000 1.680120 
# 
# From -- ./inp_files/281745.got.cif
#   From: 2010.06.25/outbox.cif.g09.slc.cpg/sg12_141_cif.got.tgz:281745.got - 2010.06.28 00:19:55.
