data_PCOD8080229
_publ_section_title
;
Structure prediction by ZEFSAII (Michael W. Deem and Ramdas Pophale) SiO2 
 PCOD8080229
Probable space group: C 2/M
;
_chemical_formula_sum "Si O2"
_cell_formula_units_Z 64
_cell_length_a 26.113512
_cell_length_b 14.604034
_cell_length_c 13.410415
_cell_angle_alpha 90.000000
_cell_angle_beta 139.599271
_cell_angle_gamma 90.000000
_cell_volume 3314.684418
_symmetry_space_group_name_H-M "C 2/M"
_symmetry_group_IT_number 12
_symmetry_cell_setting 'monoclinic'
loop_
_space_group_symop_operation_xyz
x,y,z
-x,y,-z
-x,-y,-z
x,-y,z
1/2+x,1/2+y,z
1/2-x,1/2+y,-z
1/2-x,1/2-y,-z
1/2+x,1/2-y,z
loop_
_atom_site_type_symbol
_atom_site_label
_atom_site_fract_x
_atom_site_fract_y
_atom_site_fract_z
Si Si1 0.564203 0.248275 0.170213
Si Si2 0.006903 0.224671 0.306783
Si Si3 0.917035 0.100959 0.434585
Si Si4 0.329838 0.900013 0.593304
Si Si5 0.142093 0.107432 0.856200
Si Si6 0.420710 0.102424 0.520163
Si Si7 0.235512 0.607332 0.802252
Si Si8 0.325693 0.394419 0.745261
O O1 0.524467 0.267228 0.217073
O O2 0.635594 0.175852 0.281684
O O3 0.595410 0.342005 0.168887
O O4 0.500000 0.205959 0.000000
O O5 0.079477 0.169362 0.466857
O O6 0.007045 0.325008 0.361853
O O7 0.924375 0.172746 0.195202
O O8 0.850864 0.126747 0.252551
O O9 0.000000 0.104017 0.500000
O O10 0.899956 0.000000 0.452187
O O11 0.374309 0.899274 0.554484
O O12 0.237709 0.880960 0.437451
O O13 0.340579 0.000000 0.659253
O O14 0.119137 0.000000 0.839879
O O15 0.225934 0.130837 0.032938
O O16 0.356632 0.138572 0.342098
O O17 0.453828 0.000000 0.544006
O O18 0.232750 0.500000 0.777035
O O19 0.291144 0.648139 0.797216
O O20 0.349313 0.500000 0.794127
#
# Coordination Sequence:
#
# PCOD8080229 Si02
#       8
#     8   8   8   8   8   8   8   8
#     4  11  21  28  40  66  93 113 136 175 223 256
#     4  10  18  28  43  64  88 114 140 174 216 252
#     4   8  15  28  45  63  84 112 143 171 203 252
#     4   8  16  32  48  58  76 114 158 184 198 235
#     4   9  16  28  48  69  86 108 140 176 211 250
#     4   8  15  28  45  64  84 110 145 179 210 243
#     4   8  14  27  46  65  86 112 143 177 207 240
#     4   9  17  29  44  62  88 120 145 166 201 256
#
# _framework density 19.308021
#
# number of rings (size 3 to 8) (size 9 to 14) (size 15 to 20)
#    0.000    3.125    0.000    3.750    0.000    1.500 
#    0.000    0.625    0.000    3.375    0.000    1.750 
#    0.000    0.000    0.000    0.000    0.000    0.000 
#
# Total GULP energy -396496.899627 kJ/mol
# GULP energy per Si atom -12390.528113 kJ/mol
# Density = 1.926408 g / cm^3
# Si number density = 19.308021 Si / 1000 Ang^3
#
#
#
# Elastic Constant Matrix: (Units=GPa)
#
#
# Indices 1 2 3 4 5 6 
#
# 1 19.6849 6.2033 15.4864 0.0000 -11.8917 0.0000
# 2 6.2033 68.9892 30.7617 0.0000 -7.2341 0.0000
# 3 15.4864 30.7617 98.9204 0.0000 -23.7065 0.0000
# 4 0.0000 0.0000 0.0000 24.6486 0.0000 0.2853
# 5 -11.8917 -7.2341 -23.7065 0.0000 25.9102 0.0000
# 6 0.0000 0.0000 0.0000 0.2853 0.0000 10.7555
#
#
#
# Elastic Compliance Matrix: (Units=1/GPa)
#
#
# Indices 1 2 3 4 5 6 
#
# 1 0.071853 -0.001745 -0.003740 0.000000 0.029068 0.000000
# 2 -0.001745 0.016871 -0.005170 0.000000 -0.000821 0.000000
# 3 -0.003740 -0.005170 0.014788 0.000000 0.010370 0.000000
# 4 0.000000 0.000000 0.000000 0.040583 0.000000 -0.001077
# 5 0.029068 -0.000821 0.010370 0.000000 0.061195 0.000000
# 6 0.000000 0.000000 0.000000 -0.001077 0.000000 0.093004
#
#
# Mechanical properties :
#
#
# Convention : Reuss Voigt Hill
#
# Bulk Modulus (GPa) = 12.16523 32.49969 22.33246
# Shear Modulus (GPa) = 14.40906 21.27239 17.84072
#
# Velocity S-wave (km/s) = 2.73476 3.32285 3.04304
# Velocity P-wave (km/s) = 4.03562 5.62054 4.89268
#
# Compressibility (1/GPa) = 0.08220151
#
# Stress axis : x y z
#
# Youngs Moduli (GPa) = 13.91735 59.27284 67.62438
#
# Poissons Ratio (x) = 0.10344 0.25290
# Poissons Ratio (y) = 0.02429 0.34962
# Poissons Ratio (z) = 0.05205 0.30644
#
# Static dielectric constant tensor:
#      x y z
#    x 2.965210 0.000000 -0.220160 
#    y 0.000000 3.700310 0.000000 
#    z -0.220160 0.000000 3.851300 
# 
# 
# High freq. dielectric constant tensor:
#      x y z
#    x 1.697460 0.000000 -0.016450 
#    y 0.000000 1.747050 0.000000 
#    z -0.016450 0.000000 1.757580 
# 
# From -- ./inp_files/246380.got.cif
#   From: 2010.06.25/outbox.cif.g09.slc.cpg/sg12_124_cif.got.tgz:246380.got - 2010.06.28 00:19:55.
