data_PCOD8080636
_publ_section_title
;
Structure prediction by ZEFSAII (Michael W. Deem and Ramdas Pophale) SiO2 
 PCOD8080636
Probable space group: C 2/M
;
_chemical_formula_sum "Si O2"
_cell_formula_units_Z 64
_cell_length_a 23.031175
_cell_length_b 9.448380
_cell_length_c 23.325985
_cell_angle_alpha 90.000000
_cell_angle_beta 53.291660
_cell_angle_gamma 90.000000
_cell_volume 4069.294968
_symmetry_space_group_name_H-M "C 2/M"
_symmetry_group_IT_number 12
_symmetry_cell_setting 'monoclinic'
loop_
_space_group_symop_operation_xyz
x,y,z
-x,y,-z
-x,-y,-z
x,-y,z
1/2+x,1/2+y,z
1/2-x,1/2+y,-z
1/2-x,1/2-y,-z
1/2+x,1/2-y,z
loop_
_atom_site_type_symbol
_atom_site_label
_atom_site_fract_x
_atom_site_fract_y
_atom_site_fract_z
Si Si1 0.560876 0.658909 0.512738
Si Si2 0.095056 0.332270 0.889237
Si Si3 0.152325 0.332301 0.204761
Si Si4 0.769330 0.166685 0.225272
Si Si5 0.654246 0.156347 0.384268
Si Si6 0.321247 0.831353 0.939778
Si Si7 0.033955 0.342006 0.357801
Si Si8 0.434458 0.166987 0.966555
O O1 0.500000 0.659902 0.500000
O O2 0.581207 0.500000 0.518691
O O3 0.633756 0.733984 0.446489
O O4 0.532283 0.739913 0.586172
O O5 0.107232 0.500000 0.876513
O O6 0.155835 0.251203 0.817529
O O7 0.017470 0.284331 0.909062
O O8 0.098005 0.280248 0.953705
O O9 0.152134 0.500000 0.210522
O O10 0.221130 0.276001 0.200295
O O11 0.157638 0.281410 0.136385
O O12 0.076122 0.279285 0.277168
O O13 0.728483 0.201624 0.309013
O O14 0.784448 0.000000 0.210486
O O15 0.591074 0.150595 0.375148
O O16 0.662676 0.000000 0.406624
O O17 0.385529 0.777946 0.943215
O O18 0.308708 0.000000 0.950767
O O19 0.250000 0.750000 0.000000
O O20 0.003189 0.500000 0.364309
O O21 0.434140 0.000000 0.969029
#
# Coordination Sequence:
#
# PCOD8080636 Si02
#       8
#     8   8   8   8   8   8   8   8
#     4   9  15  21  31  50  74  98 127 161 189 216
#     4   9  16  28  43  57  76 105 137 164 194 236
#     4   8  15  26  40  57  78 104 134 165 196 236
#     4   9  16  26  39  58  81 103 130 165 201 232
#     4   8  14  23  34  48  71 102 129 152 185 232
#     4  10  18  29  44  61  81 105 133 166 201 234
#     4   8  13  23  36  48  67 100 133 155 184 229
#     4   8  16  29  43  58  78 105 135 164 196 237
#
# _framework density 15.727539999999999
#
# number of rings (size 3 to 8) (size 9 to 14) (size 15 to 20)
#    0.000    3.375    0.000    3.375    0.000    2.000 
#    0.000    4.375    0.000    0.000    0.000    0.000 
#    0.000    1.000    0.000    2.000    0.000    2.625 
#
# Total GULP energy -396581.402374 kJ/mol
# GULP energy per Si atom -12393.168824 kJ/mol
# Density = 1.569174 g / cm^3
# Si number density = 15.727540 Si / 1000 Ang^3
#
#
#
# Elastic Constant Matrix: (Units=GPa)
#
#
# Indices 1 2 3 4 5 6 
#
# 1 63.3442 25.9163 49.1876 -0.0002 -8.5859 -0.0023
# 2 25.9163 65.8076 61.7924 -0.0007 -11.3835 -0.0042
# 3 49.1876 61.7924 147.4707 0.0002 -17.8068 0.0001
# 4 -0.0002 -0.0007 0.0002 25.7888 0.0002 -8.0549
# 5 -8.5859 -11.3835 -17.8068 0.0002 18.8672 -0.0002
# 6 -0.0023 -0.0042 0.0001 -8.0549 -0.0002 12.9626
#
#
#
# Elastic Compliance Matrix: (Units=1/GPa)
#
#
# Indices 1 2 3 4 5 6 
#
# 1 0.021760 -0.002614 -0.005820 0.000001 0.002832 0.000004
# 2 -0.002614 0.025958 -0.009319 0.000004 0.005676 0.000011
# 3 -0.005820 -0.009319 0.013124 -0.000002 0.004115 -0.000005
# 4 0.000001 0.000004 -0.000002 0.048115 0.000001 0.029899
# 5 0.002832 0.005676 0.004115 0.000001 0.061599 0.000004
# 6 0.000004 0.000011 -0.000005 0.029899 0.000004 0.095724
#
#
# Mechanical properties :
#
#
# Convention : Reuss Voigt Hill
#
# Bulk Modulus (GPa) = 39.47302 61.15724 50.31513
# Shear Modulus (GPa) = 16.11689 20.83879 18.47784
#
# Velocity S-wave (km/s) = 3.20465 3.64399 3.43136
# Velocity P-wave (km/s) = 6.23262 7.52826 6.91087
#
# Compressibility (1/GPa) = 0.02533376
#
# Stress axis : x y z
#
# Youngs Moduli (GPa) = 45.95623 38.52365 76.19483
#
# Poissons Ratio (x) = 0.10071 0.44349
# Poissons Ratio (y) = 0.12014 0.71009
# Poissons Ratio (z) = 0.26749 0.35902
#
# Static dielectric constant tensor:
#      x y z
#    x 2.876970 0.000000 0.019840 
#    y 0.000000 2.864320 0.000000 
#    z 0.019840 0.000000 3.307800 
# 
# 
# High freq. dielectric constant tensor:
#      x y z
#    x 1.549450 0.000000 -0.012630 
#    y 0.000000 1.583350 0.000000 
#    z -0.012630 0.000000 1.615060 
# 
# From -- ./inp_files/348521.got.cif
#   From: 2010.06.25/outbox.cif.g09.slc.cpg/sg12_175_cif.got.tgz:348521.got - 2010.06.28 00:19:55.
