data_PCOD8080144
_publ_section_title
;
Structure prediction by ZEFSAII (Michael W. Deem and Ramdas Pophale) SiO2 
 PCOD8080144
Probable space group: C 2/M
;
_chemical_formula_sum "Si O2"
_cell_formula_units_Z 48
_cell_length_a 21.785881
_cell_length_b 31.952120
_cell_length_c 5.245942
_cell_angle_alpha 90.000000
_cell_angle_beta 114.415000
_cell_angle_gamma 90.000000
_cell_volume 3325.172969
_symmetry_space_group_name_H-M "C 2/M"
_symmetry_group_IT_number 12
_symmetry_cell_setting 'monoclinic'
loop_
_space_group_symop_operation_xyz
x,y,z
-x,y,-z
-x,-y,-z
x,-y,z
1/2+x,1/2+y,z
1/2-x,1/2+y,-z
1/2-x,1/2-y,-z
1/2+x,1/2-y,z
loop_
_atom_site_type_symbol
_atom_site_label
_atom_site_fract_x
_atom_site_fract_y
_atom_site_fract_z
Si Si1 0.638909 0.668238 0.320737
Si Si2 0.072347 0.048617 0.840006
Si Si3 0.710741 0.313765 0.940861
Si Si4 0.576854 0.583619 0.344592
Si Si5 0.149891 0.721942 0.817966
Si Si6 0.421917 0.759919 0.806777
O O1 0.693839 0.665246 0.641097
O O2 0.584460 0.632275 0.286587
O O3 0.598880 0.711534 0.243623
O O4 0.677070 0.661022 0.117769
O O5 0.112377 0.070044 0.672158
O O6 0.001289 0.072217 0.753662
O O7 0.061025 0.000000 0.765241
O O8 0.110952 0.056522 0.173217
O O9 0.682454 0.267307 0.879895
O O10 0.791468 0.312585 0.117718
O O11 0.097007 0.718073 0.493705
O O12 0.114527 0.714864 0.028977
O O13 0.500000 0.762859 0.000000
#
# Coordination Sequence:
#
# PCOD8080144 Si02
#       6
#     8   8   8   8   8   8
#     4  10  19  28  40  61  77  99 120 167 216 240
#     4  10  19  31  43  55  74 109 138 157 192 247
#     4   9  17  30  43  54  73  96 136 154 189 252
#     4  10  18  28  41  57  75  96 125 167 202 238
#     4   9  17  30  43  54  70 105 127 157 189 237
#     4  10  19  28  40  59  81  97 124 159 208 256
#
# _framework density 14.435339000000001
#
# number of rings (size 3 to 8) (size 9 to 14) (size 15 to 20)
#    0.000    2.333    0.000    5.000    2.333    4.000 
#    6.000    0.000    0.000    0.000    0.000    0.000 
#    0.000    0.000    0.000    0.000    0.000    0.000 
#
# Total GULP energy -297368.946835 kJ/mol
# GULP energy per Si atom -12390.372785 kJ/mol
# Density = 1.440248 g / cm^3
# Si number density = 14.435339 Si / 1000 Ang^3
#
#
#
# Elastic Constant Matrix: (Units=GPa)
#
#
# Indices 1 2 3 4 5 6 
#
# 1 61.6885 20.6788 39.1933 0.0000 -9.4383 0.0000
# 2 20.6788 30.5936 8.0908 0.0000 -2.1291 0.0000
# 3 39.1933 8.0908 108.0988 0.0000 -19.7155 0.0000
# 4 0.0000 0.0000 0.0000 14.5132 0.0000 -5.9139
# 5 -9.4383 -2.1291 -19.7155 0.0000 35.2361 0.0000
# 6 0.0000 0.0000 0.0000 -5.9139 0.0000 15.8069
#
#
#
# Elastic Compliance Matrix: (Units=1/GPa)
#
#
# Indices 1 2 3 4 5 6 
#
# 1 0.027128 -0.016017 -0.008339 0.000000 0.001633 0.000000
# 2 -0.016017 0.042819 0.002552 0.000000 -0.000275 0.000000
# 3 -0.008339 0.002552 0.013034 0.000000 0.005213 0.000000
# 4 0.000000 0.000000 0.000000 0.081297 0.000000 0.030416
# 5 0.001633 -0.000275 0.005213 0.000000 0.031718 0.000000
# 6 0.000000 0.000000 0.000000 0.030416 0.000000 0.074643
#
#
# Mechanical properties :
#
#
# Convention : Reuss Voigt Hill
#
# Bulk Modulus (GPa) = 25.39827 37.36742 31.38284
# Shear Modulus (GPa) = 15.27324 21.93910 18.60617
#
# Velocity S-wave (km/s) = 3.25629 3.90271 3.59406
# Velocity P-wave (km/s) = 5.63654 6.80077 6.24584
#
# Compressibility (1/GPa) = 0.03937276
#
# Stress axis : x y z
#
# Youngs Moduli (GPa) = 36.86287 23.35431 76.72192
#
# Poissons Ratio (x) = 0.37407 0.63979
# Poissons Ratio (y) = 0.59043 -0.19582
# Poissons Ratio (z) = 0.30740 -0.05961
#
# Static dielectric constant tensor:
#      x y z
#    x 3.117880 0.000000 -1.043570 
#    y 0.000000 2.525890 0.000000 
#    z -1.043570 0.000000 4.617130 
# 
# 
# High freq. dielectric constant tensor:
#      x y z
#    x 1.526940 0.000000 -0.035950 
#    y 0.000000 1.504130 0.000000 
#    z -0.035950 0.000000 1.571800 
# 
# From -- ./inp_files/17891.got.cif
#   From: 2010.06.25/outbox.cif.g09.slc.cpg/sg12_9_cif.got.tgz:17891.got - 2010.06.28 00:19:55.
