data_PCOD8080521
_publ_section_title
;
Structure prediction by ZEFSAII (Michael W. Deem and Ramdas Pophale) SiO2 
 PCOD8080521
Probable space group: C 2/M
;
_chemical_formula_sum "Si O2"
_cell_formula_units_Z 40
_cell_length_a 24.243760
_cell_length_b 9.391693
_cell_length_c 21.192156
_cell_angle_alpha 90.000000
_cell_angle_beta 29.986791
_cell_angle_gamma 90.000000
_cell_volume 2411.657039
_symmetry_space_group_name_H-M "C 2/M"
_symmetry_group_IT_number 12
_symmetry_cell_setting 'monoclinic'
loop_
_space_group_symop_operation_xyz
x,y,z
-x,y,-z
-x,-y,-z
x,-y,z
1/2+x,1/2+y,z
1/2-x,1/2+y,-z
1/2-x,1/2-y,-z
1/2+x,1/2-y,z
loop_
_atom_site_type_symbol
_atom_site_label
_atom_site_fract_x
_atom_site_fract_y
_atom_site_fract_z
Si Si1 0.495270 0.664522 0.606757
Si Si2 0.404123 0.835167 0.806380
Si Si3 0.321727 0.664060 0.672725
Si Si4 0.847068 0.163848 0.979914
Si Si5 0.884127 0.833024 0.085731
O O1 0.480028 0.500000 0.641062
O O2 0.490755 0.761815 0.673302
O O3 0.398879 0.711277 0.654336
O O4 0.613445 0.689087 0.456909
O O5 0.414154 0.761490 0.864628
O O6 0.434600 0.000000 0.783429
O O7 0.282970 0.811122 0.898188
O O8 0.288736 0.500000 0.712894
O O9 0.211631 0.756660 0.780118
O O10 0.878020 0.000000 0.936265
O O11 0.882281 0.213193 0.014553
O O12 0.863832 0.000000 0.112824
O O13 0.000000 0.784964 0.000000
#
# Coordination Sequence:
#
# PCOD8080521 Si02
#       5
#     8   8   8   8   8
#     4   9  17  30  48  71 100 129 154 194 245 290
#     4  10  18  28  47  73  97 125 158 197 241 287
#     4   9  18  31  48  71  98 128 162 194 237 289
#     4   9  18  31  45  67  98 129 158 192 240 287
#     4  10  20  34  51  71  98 130 163 198 236 281
#
# _framework density 16.586106999999998
#
# number of rings (size 3 to 8) (size 9 to 14) (size 15 to 20)
#    0.000    2.600    2.000    1.800    0.000    2.800 
#    0.000    2.000    0.000    1.200    0.000    0.000 
#    0.000    0.000    0.000    0.000    0.000    0.000 
#
# Total GULP energy -248034.293425 kJ/mol
# GULP energy per Si atom -12401.714671 kJ/mol
# Density = 1.654836 g / cm^3
# Si number density = 16.586107 Si / 1000 Ang^3
#
#
#
# Elastic Constant Matrix: (Units=GPa)
#
#
# Indices 1 2 3 4 5 6 
#
# 1 76.3911 35.1074 47.2208 0.0002 7.0667 -0.0002
# 2 35.1074 76.1623 60.8833 -0.0014 12.2312 0.0007
# 3 47.2208 60.8833 109.1534 -0.0018 10.9411 0.0009
# 4 0.0002 -0.0014 -0.0018 34.8907 0.0005 5.3629
# 5 7.0667 12.2312 10.9411 0.0005 28.1011 -0.0002
# 6 -0.0002 0.0007 0.0009 5.3629 -0.0002 20.7401
#
#
#
# Elastic Compliance Matrix: (Units=1/GPa)
#
#
# Indices 1 2 3 4 5 6 
#
# 1 0.018485 -0.003732 -0.005840 -0.000001 -0.000750 0.000001
# 2 -0.003732 0.025256 -0.011931 0.000001 -0.005409 -0.000001
# 3 -0.005840 -0.011931 0.018393 0.000001 -0.000500 -0.000001
# 4 -0.000001 0.000001 0.000001 0.029847 -0.000001 -0.007718
# 5 -0.000750 -0.005409 -0.000500 -0.000001 0.038323 0.000001
# 6 0.000001 -0.000001 -0.000001 -0.007718 0.000001 0.050211
#
#
# Mechanical properties :
#
#
# Convention : Reuss Voigt Hill
#
# Bulk Modulus (GPa) = 52.27760 60.90329 56.59044
# Shear Modulus (GPa) = 21.74893 24.64607 23.19750
#
# Velocity S-wave (km/s) = 3.62508 3.85898 3.74386
# Velocity P-wave (km/s) = 7.00778 7.52694 7.27199
#
# Compressibility (1/GPa) = 0.01912865
#
# Stress axis : x y z
#
# Youngs Moduli (GPa) = 54.09796 39.59477 54.36982
#
# Poissons Ratio (x) = 0.14776 0.31752
# Poissons Ratio (y) = 0.20188 0.64866
# Poissons Ratio (z) = 0.31594 0.47239
#
# Static dielectric constant tensor:
#      x y z
#    x 2.943090 0.000000 0.166900 
#    y 0.000000 3.068920 0.000000 
#    z 0.166900 0.000000 3.001520 
# 
# 
# High freq. dielectric constant tensor:
#      x y z
#    x 1.610680 0.000000 0.023780 
#    y 0.000000 1.640980 0.000000 
#    z 0.023780 0.000000 1.631590 
# 
# From -- ./inp_files/110226.got.cif
#   From: 2010.06.25/outbox.cif.g09.slc.cpg/sg12_56_cif.got.tgz:110226.got - 2010.06.28 00:19:55.
