data_PCOD8080440
_publ_section_title
;
Structure prediction by ZEFSAII (Michael W. Deem and Ramdas Pophale) SiO2 
 PCOD8080440
Probable space group: C 2/M
;
_chemical_formula_sum "Si O2"
_cell_formula_units_Z 56
_cell_length_a 23.470006
_cell_length_b 9.210324
_cell_length_c 18.975133
_cell_angle_alpha 90.000000
_cell_angle_beta 128.225145
_cell_angle_gamma 90.000000
_cell_volume 3222.302828
_symmetry_space_group_name_H-M "C 2/M"
_symmetry_group_IT_number 12
_symmetry_cell_setting 'monoclinic'
loop_
_space_group_symop_operation_xyz
x,y,z
-x,y,-z
-x,-y,-z
x,-y,z
1/2+x,1/2+y,z
1/2-x,1/2+y,-z
1/2-x,1/2-y,-z
1/2+x,1/2-y,z
loop_
_atom_site_type_symbol
_atom_site_label
_atom_site_fract_x
_atom_site_fract_y
_atom_site_fract_z
Si Si1 0.751214 0.168969 0.163755
Si Si2 0.621992 0.835631 0.803365
Si Si3 0.978425 0.827738 0.861725
Si Si4 0.379007 0.170694 0.033425
Si Si5 0.162702 0.670167 0.230167
Si Si6 0.691653 0.835294 0.411398
Si Si7 0.466754 0.165162 0.711219
O O1 0.828798 0.240521 0.209793
O O2 0.725983 0.208018 0.223423
O O3 0.762929 0.000000 0.163032
O O4 0.692362 0.224856 0.062059
O O5 0.630802 0.790405 0.891851
O O6 0.537126 0.814287 0.714975
O O7 0.647186 0.000000 0.812180
O O8 0.908827 0.759364 0.848074
O O9 0.971443 0.785614 0.774800
O O10 0.053079 0.758213 0.947804
O O11 0.979818 0.000000 0.873377
O O12 0.392679 0.000000 0.032263
O O13 0.143116 0.500000 0.213405
O O14 0.188913 0.718017 0.328113
O O15 0.750000 0.750000 0.500000
O O16 0.611563 0.815995 0.386232
O O17 0.717419 0.000000 0.433410
O O18 0.470485 0.000000 0.746673
#
# Coordination Sequence:
#
# PCOD8080440 Si02
#       7
#     8   8   8   8   8   8   8
#     4  10  20  32  48  67  90 127 169 198 227 273
#     4   9  17  30  48  68  94 125 157 195 237 270
#     4  10  18  28  46  70  93 120 158 203 237 269
#     4   9  18  32  47  65  92 128 164 197 236 279
#     4   9  19  35  49  65  95 130 155 184 235 292
#     4   9  17  31  53  76  96 116 145 186 232 283
#     4   8  16  32  50  69  96 128 153 182 232 285
#
# _framework density 17.378875000000001
#
# number of rings (size 3 to 8) (size 9 to 14) (size 15 to 20)
#    0.000    2.857    0.000    3.429    0.000    6.286 
#    0.000    2.857    0.000    0.857    0.000    6.000 
#    0.000    0.000    0.000    0.000    0.000    0.000 
#
# Total GULP energy -346990.262327 kJ/mol
# GULP energy per Si atom -12392.509369 kJ/mol
# Density = 1.733932 g / cm^3
# Si number density = 17.378875 Si / 1000 Ang^3
#
#
#
# Elastic Constant Matrix: (Units=GPa)
#
#
# Indices 1 2 3 4 5 6 
#
# 1 137.4106 51.5804 63.9531 0.0000 21.6504 0.0000
# 2 51.5804 63.2583 32.0624 0.0000 9.9086 0.0000
# 3 63.9531 32.0624 71.4021 0.0000 22.9287 0.0000
# 4 0.0000 0.0000 0.0000 23.5465 0.0000 7.3656
# 5 21.6504 9.9086 22.9287 0.0000 22.7344 0.0000
# 6 0.0000 0.0000 0.0000 7.3656 0.0000 30.6967
#
#
#
# Elastic Compliance Matrix: (Units=1/GPa)
#
#
# Indices 1 2 3 4 5 6 
#
# 1 0.014425 -0.006760 -0.009495 0.000000 -0.001216 0.000000
# 2 -0.006760 0.023638 -0.004909 0.000000 0.001085 0.000000
# 3 -0.009495 -0.004909 0.031241 0.000000 -0.020326 0.000000
# 4 0.000000 0.000000 0.000000 0.045915 0.000000 -0.011017
# 5 -0.001216 0.001085 -0.020326 0.000000 0.065171 0.000000
# 6 0.000000 0.000000 0.000000 -0.011017 0.000000 0.035220
#
#
# Mechanical properties :
#
#
# Convention : Reuss Voigt Hill
#
# Bulk Modulus (GPa) = 37.06701 63.02921 50.04811
# Shear Modulus (GPa) = 18.73161 23.69388 21.21275
#
# Velocity S-wave (km/s) = 3.28661 3.69639 3.49751
# Velocity P-wave (km/s) = 5.98143 7.38676 6.72092
#
# Compressibility (1/GPa) = 0.02697817
#
# Stress axis : x y z
#
# Youngs Moduli (GPa) = 69.32237 42.30527 32.00948
#
# Poissons Ratio (x) = 0.28596 0.30392
# Poissons Ratio (y) = 0.46858 0.15712
# Poissons Ratio (z) = 0.65820 0.20766
#
# Static dielectric constant tensor:
#      x y z
#    x 3.351090 0.000000 0.262460 
#    y 0.000000 3.083350 0.000000 
#    z 0.262460 0.000000 3.038230 
# 
# 
# High freq. dielectric constant tensor:
#      x y z
#    x 1.669620 0.000000 0.025860 
#    y 0.000000 1.662780 0.000000 
#    z 0.025860 0.000000 1.637570 
# 
# From -- ./inp_files/280943.got.cif
#   From: 2010.06.25/outbox.cif.g09.slc.cpg/sg12_141_cif.got.tgz:280943.got - 2010.06.28 00:19:55.
