data_PCOD8080986
_publ_section_title
;
Structure prediction by ZEFSAII (Michael W. Deem and Ramdas Pophale) SiO2 
 PCOD8080986
Probable space group: C 2/M
;
_chemical_formula_sum "Si O2"
_cell_formula_units_Z 48
_cell_length_a 27.793332
_cell_length_b 9.072270
_cell_length_c 11.354726
_cell_angle_alpha 90.000000
_cell_angle_beta 76.661429
_cell_angle_gamma 90.000000
_cell_volume 2785.843383
_symmetry_space_group_name_H-M "C 2/M"
_symmetry_group_IT_number 12
_symmetry_cell_setting 'monoclinic'
loop_
_space_group_symop_operation_xyz
x,y,z
-x,y,-z
-x,-y,-z
x,-y,z
1/2+x,1/2+y,z
1/2-x,1/2+y,-z
1/2-x,1/2-y,-z
1/2+x,1/2-y,z
loop_
_atom_site_type_symbol
_atom_site_label
_atom_site_fract_x
_atom_site_fract_y
_atom_site_fract_z
Si Si1 0.910362 0.673167 0.719465
Si Si2 0.175169 0.171329 0.094080
Si Si3 0.706867 0.173061 0.594801
Si Si4 0.279566 0.170669 0.144595
Si Si5 0.507634 0.333758 0.634470
Si Si6 0.103820 0.327735 0.543141
O O1 0.914179 0.500000 0.737620
O O2 0.870741 0.739554 0.830136
O O3 0.963395 0.743872 0.720583
O O4 0.894203 0.712206 0.595818
O O5 0.222022 0.200925 0.151436
O O6 0.161529 0.000000 0.095849
O O7 0.186230 0.229234 0.957059
O O8 0.750000 0.250000 0.500000
O O9 0.709409 0.220007 0.729117
O O10 0.654681 0.226063 0.572257
O O11 0.713913 0.000000 0.575189
O O12 0.292695 0.000000 0.114591
O O13 0.500000 0.330507 0.500000
O O14 0.507870 0.500000 0.683380
O O15 0.559821 0.257502 0.634618
O O16 0.094407 0.500000 0.567503
#
# Coordination Sequence:
#
# PCOD8080986 Si02
#       6
#     8   8   8   8   8   8
#     4  10  18  29  48  72  98 126 157 194 237 284
#     4  10  19  31  49  71  95 124 161 202 237 275
#     4  10  20  33  50  72  99 129 160 193 231 281
#     4   9  19  34  49  68  96 129 161 194 236 281
#     4   9  17  29  46  69  96 125 158 196 236 278
#     4   9  18  31  47  70  99 129 158 191 235 284
#
# _framework density 17.229970999999999
#
# number of rings (size 3 to 8) (size 9 to 14) (size 15 to 20)
#    0.000    2.500    0.000    2.500    0.000    4.667 
#    0.000    0.000    0.000    1.000    0.000    7.000 
#    0.000    0.000    0.000    0.000    0.000    0.000 
#
# Total GULP energy -297663.729916 kJ/mol
# GULP energy per Si atom -12402.655413 kJ/mol
# Density = 1.719075 g / cm^3
# Si number density = 17.229971 Si / 1000 Ang^3
#
#
#
# Elastic Constant Matrix: (Units=GPa)
#
#
# Indices 1 2 3 4 5 6 
#
# 1 136.7852 60.0679 71.2747 0.0000 -18.2466 0.0000
# 2 60.0679 87.8395 53.1721 0.0000 -17.5630 0.0000
# 3 71.2747 53.1721 91.6615 0.0000 -14.9439 0.0000
# 4 0.0000 0.0000 0.0000 30.0127 0.0000 -10.2195
# 5 -18.2466 -17.5630 -14.9439 0.0000 30.0585 0.0000
# 6 0.0000 0.0000 0.0000 -10.2195 0.0000 30.2499
#
#
#
# Elastic Compliance Matrix: (Units=1/GPa)
#
#
# Indices 1 2 3 4 5 6 
#
# 1 0.013389 -0.004103 -0.007723 0.000000 0.001891 0.000000
# 2 -0.004103 0.019731 -0.007380 0.000000 0.005369 0.000000
# 3 -0.007723 -0.007380 0.021469 0.000000 0.001673 0.000000
# 4 0.000000 0.000000 0.000000 0.037650 0.000000 0.012720
# 5 0.001891 0.005369 0.001673 0.000000 0.038385 0.000000
# 6 0.000000 0.000000 0.000000 0.012720 0.000000 0.037355
#
#
# Mechanical properties :
#
#
# Convention : Reuss Voigt Hill
#
# Bulk Modulus (GPa) = 61.81544 76.14619 68.98081
# Shear Modulus (GPa) = 23.60913 26.84899 25.22906
#
# Velocity S-wave (km/s) = 3.70569 3.95178 3.83071
# Velocity P-wave (km/s) = 7.36641 8.06920 7.72580
#
# Compressibility (1/GPa) = 0.01617719
#
# Stress axis : x y z
#
# Youngs Moduli (GPa) = 74.68984 50.68144 46.57972
#
# Poissons Ratio (x) = 0.20794 0.35971
# Poissons Ratio (y) = 0.30645 0.34376
# Poissons Ratio (z) = 0.57679 0.37403
#
# Static dielectric constant tensor:
#      x y z
#    x 3.284340 0.000000 -0.070020 
#    y 0.000000 3.280050 0.000000 
#    z -0.070020 0.000000 3.033740 
# 
# 
# High freq. dielectric constant tensor:
#      x y z
#    x 1.662270 0.000000 -0.018020 
#    y 0.000000 1.673180 0.000000 
#    z -0.018020 0.000000 1.645290 
# 
# From -- ./inp_files/172083.got.cif
#   From: 2010.06.25/outbox.cif.g09.slc.cpg/sg12_87_cif.got.tgz:172083.got - 2010.06.28 00:19:55.
