data_PCOD8080527
_publ_section_title
;
Structure prediction by ZEFSAII (Michael W. Deem and Ramdas Pophale) SiO2 
 PCOD8080527
Probable space group: C 2/M
;
_chemical_formula_sum "Si O2"
_cell_formula_units_Z 52
_cell_length_a 18.613947
_cell_length_b 17.583488
_cell_length_c 12.980323
_cell_angle_alpha 90.000000
_cell_angle_beta 40.832071
_cell_angle_gamma 90.000000
_cell_volume 2777.814844
_symmetry_space_group_name_H-M "C 2/M"
_symmetry_group_IT_number 12
_symmetry_cell_setting 'monoclinic'
loop_
_space_group_symop_operation_xyz
x,y,z
-x,y,-z
-x,-y,-z
x,-y,z
1/2+x,1/2+y,z
1/2-x,1/2+y,-z
1/2-x,1/2-y,-z
1/2+x,1/2-y,z
loop_
_atom_site_type_symbol
_atom_site_label
_atom_site_fract_x
_atom_site_fract_y
_atom_site_fract_z
Si Si1 0.711930 0.087719 0.645067
Si Si2 0.710955 0.912559 0.877061
Si Si3 0.157643 0.839109 0.084816
Si Si4 0.000000 0.198993 0.500000
Si Si5 0.997758 0.412770 0.241310
Si Si6 0.545922 0.587451 0.636084
Si Si7 0.373460 0.194088 0.769466
O O1 0.715306 0.122715 0.756947
O O2 0.615698 0.123791 0.679250
O O3 0.829070 0.097247 0.459093
O O4 0.679442 0.000000 0.694646
O O5 0.799585 0.869024 0.850492
O O6 0.748955 0.000000 0.834352
O O7 0.588863 0.903952 0.053863
O O8 0.129415 0.749994 0.127286
O O9 0.046468 0.887302 0.178991
O O10 0.252708 0.847171 0.894051
O O11 0.036937 0.145326 0.551521
O O12 0.098559 0.256887 0.361640
O O13 0.982332 0.500000 0.291578
O O14 0.033089 0.368091 0.306519
O O15 0.526575 0.500000 0.623336
#
# Coordination Sequence:
#
# PCOD8080527 Si02
#       7
#     8   8   8   4   8   8   8
#     4   9  16  25  40  66  95 118 145 183 227 275
#     4   9  15  24  42  66  92 121 149 182 228 280
#     4   9  17  29  44  66  95 123 148 181 228 280
#     4  10  19  32  47  68  96 124 154 190 227 266
#     4   9  17  29  43  60  86 122 160 192 222 262
#     4  10  18  28  47  74  98 119 144 180 232 287
#     4   9  18  31  46  63  89 124 158 190 226 263
#
# _framework density 18.719750000000001
#
# number of rings (size 3 to 8) (size 9 to 14) (size 15 to 20)
#    0.000    2.769    0.000    3.000    0.000    3.692 
#    0.000    3.462    0.000    0.000    0.000    3.231 
#    0.000    3.692    0.000    0.000    0.000   36.769 
#
# Total GULP energy -322098.211907 kJ/mol
# GULP energy per Si atom -12388.392766 kJ/mol
# Density = 1.867714 g / cm^3
# Si number density = 18.719750 Si / 1000 Ang^3
#
#
#
# Elastic Constant Matrix: (Units=GPa)
#
#
# Indices 1 2 3 4 5 6 
#
# 1 35.1485 27.1951 25.7648 0.0000 -24.6438 0.0000
# 2 27.1951 72.3266 35.6981 0.0000 -8.9956 0.0000
# 3 25.7648 35.6981 95.4279 0.0000 -25.2062 0.0000
# 4 0.0000 0.0000 0.0000 32.1010 0.0000 -2.1576
# 5 -24.6438 -8.9956 -25.2062 0.0000 27.5499 0.0000
# 6 0.0000 0.0000 0.0000 -2.1576 0.0000 6.2693
#
#
#
# Elastic Compliance Matrix: (Units=1/GPa)
#
#
# Indices 1 2 3 4 5 6 
#
# 1 0.133145 -0.040481 0.009445 0.000000 0.114524 0.000000
# 2 -0.040481 0.029267 -0.009309 0.000000 -0.035172 0.000000
# 3 0.009445 -0.009309 0.016932 0.000000 0.020901 0.000000
# 4 0.000000 0.000000 0.000000 0.031889 0.000000 0.010975
# 5 0.114524 -0.035172 0.020901 0.000000 0.146380 0.000000
# 6 0.000000 0.000000 0.000000 0.010975 0.000000 0.163284
#
#
# Mechanical properties :
#
#
# Convention : Reuss Voigt Hill
#
# Bulk Modulus (GPa) = 10.13634 42.24655 26.19144
# Shear Modulus (GPa) = 7.88057 20.80038 14.34047
#
# Velocity S-wave (km/s) = 2.05400 3.33700 2.77078
# Velocity P-wave (km/s) = 3.32442 6.12081 4.92525
#
# Compressibility (1/GPa) = 0.09865497
#
# Stress axis : x y z
#
# Youngs Moduli (GPa) = 7.51063 34.16774 59.05942
#
# Poissons Ratio (x) = 1.38314 -0.55784
# Poissons Ratio (y) = 0.30404 0.54979
# Poissons Ratio (z) = -0.07094 0.31807
#
# Static dielectric constant tensor:
#      x y z
#    x 3.092080 0.000000 -0.443610 
#    y 0.000000 3.513480 0.000000 
#    z -0.443610 0.000000 3.720280 
# 
# 
# High freq. dielectric constant tensor:
#      x y z
#    x 1.670460 0.000000 -0.044210 
#    y 0.000000 1.718500 0.000000 
#    z -0.044210 0.000000 1.728510 
# 
# From -- ./inp_files/234054.got.cif
#   From: 2010.06.25/outbox.cif.g09.slc.cpg/sg12_118_cif.got.tgz:234054.got - 2010.06.28 00:19:55.
