data_PCOD8080118
_publ_section_title
;
Structure prediction by ZEFSAII (Michael W. Deem and Ramdas Pophale) SiO2 
 PCOD8080118
Probable space group: C 2/M
;
_chemical_formula_sum "Si O2"
_cell_formula_units_Z 64
_cell_length_a 24.460309
_cell_length_b 9.280947
_cell_length_c 16.774194
_cell_angle_alpha 90.000000
_cell_angle_beta 93.911621
_cell_angle_gamma 90.000000
_cell_volume 3799.119968
_symmetry_space_group_name_H-M "C 2/M"
_symmetry_group_IT_number 12
_symmetry_cell_setting 'monoclinic'
loop_
_space_group_symop_operation_xyz
x,y,z
-x,y,-z
-x,-y,-z
x,-y,z
1/2+x,1/2+y,z
1/2-x,1/2+y,-z
1/2-x,1/2-y,-z
1/2+x,1/2-y,z
loop_
_atom_site_type_symbol
_atom_site_label
_atom_site_fract_x
_atom_site_fract_y
_atom_site_fract_z
Si Si1 0.409095 0.328238 0.136872
Si Si2 0.713971 0.164193 0.600253
Si Si3 0.116925 0.828454 0.041348
Si Si4 0.704522 0.329485 0.170287
Si Si5 0.322478 0.167719 0.229419
Si Si6 0.467730 0.670400 0.838237
Si Si7 0.880438 0.831036 0.704728
Si Si8 0.321685 0.833541 0.574772
O O1 0.406109 0.500000 0.143113
O O2 0.372669 0.259456 0.201906
O O3 0.470746 0.269051 0.155020
O O4 0.387634 0.271513 0.049077
O O5 0.678934 0.193694 0.675890
O O6 0.674724 0.190316 0.520165
O O7 0.765342 0.269534 0.602931
O O8 0.736587 0.000000 0.602771
O O9 0.174504 0.775094 0.086251
O O10 0.066354 0.768275 0.089458
O O11 0.114505 0.000000 0.042160
O O12 0.706431 0.500000 0.171318
O O13 0.766434 0.271095 0.183498
O O14 0.669193 0.280858 0.242944
O O15 0.331084 0.000000 0.209887
O O16 0.469196 0.500000 0.846993
O O17 0.437705 0.712897 0.752524
O O18 0.873420 0.745958 0.620884
O O19 0.878688 0.000000 0.686694
O O20 0.323663 0.000000 0.598067
#
# Coordination Sequence:
#
# PCOD8080118 Si02
#       8
#     8   8   8   8   8   8   8   8
#     4  10  19  30  46  71  95 116 154 203 236 258
#     4   9  18  32  47  65  93 129 157 178 215 280
#     4   8  14  26  47  71  91 114 151 199 237 265
#     4   8  14  26  45  66  88 121 158 182 214 276
#     4  10  19  32  47  62  91 132 161 176 211 284
#     4   8  15  28  49  71  90 119 157 193 230 275
#     4   9  15  28  49  69  91 122 155 184 225 280
#     4  10  18  27  46  75  98 113 144 194 238 265
#
# _framework density 16.846007
#
# number of rings (size 3 to 8) (size 9 to 14) (size 15 to 20)
#    0.000    3.000    1.250    2.250    0.000    3.000 
#    0.000    0.625    0.000    5.250    0.000    5.250 
#    0.000    0.000    0.000    0.000    0.000    0.000 
#
# Total GULP energy -396612.816963 kJ/mol
# GULP energy per Si atom -12394.150530 kJ/mol
# Density = 1.680766 g / cm^3
# Si number density = 16.846007 Si / 1000 Ang^3
#
#
#
# Elastic Constant Matrix: (Units=GPa)
#
#
# Indices 1 2 3 4 5 6 
#
# 1 80.7802 24.5032 57.6096 0.0000 -0.8333 0.0000
# 2 24.5032 40.0585 40.2683 0.0000 5.1710 0.0000
# 3 57.6096 40.2683 126.6467 0.0000 13.5379 0.0000
# 4 0.0000 0.0000 0.0000 21.4434 0.0000 -1.4677
# 5 -0.8333 5.1710 13.5379 0.0000 22.4670 0.0000
# 6 0.0000 0.0000 0.0000 -1.4677 0.0000 20.1559
#
#
#
# Elastic Compliance Matrix: (Units=1/GPa)
#
#
# Indices 1 2 3 4 5 6 
#
# 1 0.019720 -0.004690 -0.008201 0.000000 0.006753 0.000000
# 2 -0.004690 0.037854 -0.009569 0.000000 -0.003121 0.000000
# 3 -0.008201 -0.009569 0.015462 0.000000 -0.007419 0.000000
# 4 0.000000 0.000000 0.000000 0.046868 0.000000 0.003413
# 5 0.006753 -0.003121 -0.007419 0.000000 0.049949 0.000000
# 6 0.000000 0.000000 0.000000 0.003413 0.000000 0.049862
#
#
# Mechanical properties :
#
#
# Convention : Reuss Voigt Hill
#
# Bulk Modulus (GPa) = 35.56669 54.69417 45.13043
# Shear Modulus (GPa) = 18.24768 21.15356 19.70062
#
# Velocity S-wave (km/s) = 3.29478 3.54743 3.42344
# Velocity P-wave (km/s) = 5.96932 7.02258 6.51726
#
# Compressibility (1/GPa) = 0.02811619
#
# Stress axis : x y z
#
# Youngs Moduli (GPa) = 50.70927 26.41699 64.67486
#
# Poissons Ratio (x) = 0.12391 0.53039
# Poissons Ratio (y) = 0.23785 0.61887
# Poissons Ratio (z) = 0.41586 0.25278
#
# Static dielectric constant tensor:
#      x y z
#    x 3.246830 0.000000 0.325490 
#    y 0.000000 2.778250 0.000000 
#    z 0.325490 0.000000 3.373840 
# 
# 
# High freq. dielectric constant tensor:
#      x y z
#    x 1.631020 0.000000 0.021960 
#    y 0.000000 1.610130 0.000000 
#    z 0.021960 0.000000 1.654470 
# 
# From -- ./inp_files/287691.got.cif
#   From: 2010.06.25/outbox.cif.g09.slc.cpg/sg12_144_cif.got.tgz:287691.got - 2010.06.28 00:19:55.
