data_PCOD8080955
_publ_section_title
;
Structure prediction by ZEFSAII (Michael W. Deem and Ramdas Pophale) SiO2 
 PCOD8080955
Probable space group: C 2/M
;
_chemical_formula_sum "Si O2"
_cell_formula_units_Z 64
_cell_length_a 20.477161
_cell_length_b 9.495190
_cell_length_c 23.385132
_cell_angle_alpha 90.000000
_cell_angle_beta 123.461017
_cell_angle_gamma 90.000000
_cell_volume 3793.283076
_symmetry_space_group_name_H-M "C 2/M"
_symmetry_group_IT_number 12
_symmetry_cell_setting 'monoclinic'
loop_
_space_group_symop_operation_xyz
x,y,z
-x,y,-z
-x,-y,-z
x,-y,z
1/2+x,1/2+y,z
1/2-x,1/2+y,-z
1/2-x,1/2-y,-z
1/2+x,1/2-y,z
loop_
_atom_site_type_symbol
_atom_site_label
_atom_site_fract_x
_atom_site_fract_y
_atom_site_fract_z
Si Si1 0.675203 0.835119 0.673923
Si Si2 0.455673 0.335643 0.328095
Si Si3 0.132989 0.835997 0.433293
Si Si4 0.328455 0.337126 0.035342
Si Si5 0.280726 0.163793 0.432000
Si Si6 0.143914 0.159803 0.826170
Si Si7 0.269833 0.336651 0.828367
Si Si8 0.915141 0.166004 0.966537
O O1 0.596395 0.750289 0.651357
O O2 0.707958 0.789771 0.628091
O O3 0.744909 0.796140 0.751888
O O4 0.654482 0.000000 0.666122
O O5 0.446467 0.500000 0.338419
O O6 0.545786 0.287660 0.374546
O O7 0.428441 0.300677 0.250187
O O8 0.191796 0.802581 0.408974
O O9 0.157648 0.750492 0.501065
O O10 0.135740 0.000000 0.450339
O O11 0.306585 0.500000 0.014318
O O12 0.378644 0.319453 0.118252
O O13 0.250000 0.250000 0.000000
O O14 0.379528 0.275057 0.008251
O O15 0.299921 0.000000 0.449619
O O16 0.217879 0.256577 0.849368
O O17 0.169917 0.000000 0.826517
O O18 0.255126 0.500000 0.832827
O O19 0.360146 0.296903 0.885267
O O20 0.925133 0.000000 0.977325
O O21 0.000000 0.237733 0.000000
#
# Coordination Sequence:
#
# PCOD8080955 Si02
#       8
#     8   8   8   8   8   8   8   8
#     4   9  18  31  48  71  94 121 155 189 229 274
#     4   9  18  32  48  69  96 122 151 190 231 271
#     4   9  18  33  51  69  93 124 155 188 228 273
#     4  10  18  29  48  70  91 120 157 192 227 270
#     4   9  18  33  50  69  94 122 155 190 226 272
#     4   9  17  29  46  69  93 119 152 190 231 270
#     4   9  16  29  48  67  91 123 154 186 228 275
#     4   9  17  29  44  67  96 121 150 190 231 270
#
# _framework density 16.871926999999999
#
# number of rings (size 3 to 8) (size 9 to 14) (size 15 to 20)
#    0.000    2.875    1.250    0.000    0.000    1.500 
#    2.250    2.500    0.000    1.500    0.000    0.000 
#    0.000    0.000    0.000    0.000    0.000    0.000 
#
# Total GULP energy -396663.824384 kJ/mol
# GULP energy per Si atom -12395.744512 kJ/mol
# Density = 1.683353 g / cm^3
# Si number density = 16.871927 Si / 1000 Ang^3
#
#
#
# Elastic Constant Matrix: (Units=GPa)
#
#
# Indices 1 2 3 4 5 6 
#
# 1 134.2678 37.9862 90.5395 0.0000 6.8831 0.0000
# 2 37.9862 34.6082 37.4222 0.0000 2.3000 0.0000
# 3 90.5395 37.4222 126.9986 0.0000 1.6088 0.0000
# 4 0.0000 0.0000 0.0000 20.8635 0.0000 -0.2864
# 5 6.8831 2.3000 1.6088 0.0000 33.1332 0.0000
# 6 0.0000 0.0000 0.0000 -0.2864 0.0000 21.9377
#
#
#
# Elastic Compliance Matrix: (Units=1/GPa)
#
#
# Indices 1 2 3 4 5 6 
#
# 1 0.015728 -0.007362 -0.009014 0.000000 -0.002319 0.000000
# 2 -0.007362 0.046035 -0.008300 0.000000 -0.001263 0.000000
# 3 -0.009014 -0.008300 0.016725 0.000000 0.001637 0.000000
# 4 0.000000 0.000000 0.000000 0.047939 0.000000 0.000626
# 5 -0.002319 -0.001263 0.001637 0.000000 0.030671 0.000000
# 6 0.000000 0.000000 0.000000 0.000626 0.000000 0.045592
#
#
# Mechanical properties :
#
#
# Convention : Reuss Voigt Hill
#
# Bulk Modulus (GPa) = 34.32266 69.75228 52.03747
# Shear Modulus (GPa) = 19.10192 23.84866 21.47529
#
# Velocity S-wave (km/s) = 3.36843 3.76375 3.57156
# Velocity P-wave (km/s) = 5.95950 7.76658 6.92226
#
# Compressibility (1/GPa) = 0.02913527
#
# Stress axis : x y z
#
# Youngs Moduli (GPa) = 63.58210 21.72278 59.78954
#
# Poissons Ratio (x) = 0.15992 0.53893
# Poissons Ratio (y) = 0.46809 0.49627
# Poissons Ratio (z) = 0.57312 0.18031
#
# Static dielectric constant tensor:
#      x y z
#    x 3.244740 0.000000 -0.019710 
#    y 0.000000 3.053860 0.000000 
#    z -0.019710 0.000000 3.397080 
# 
# 
# High freq. dielectric constant tensor:
#      x y z
#    x 1.636100 0.000000 -0.002280 
#    y 0.000000 1.635200 0.000000 
#    z -0.002280 0.000000 1.660690 
# 
# From -- ./inp_files/320734.got.cif
#   From: 2010.06.25/outbox.cif.g09.slc.cpg/sg12_161_cif.got.tgz:320734.got - 2010.06.28 00:19:55.
