data_PCOD8080677
_publ_section_title
;
Structure prediction by ZEFSAII (Michael W. Deem and Ramdas Pophale) SiO2 
 PCOD8080677
Probable space group: C 2/M
;
_chemical_formula_sum "Si O2"
_cell_formula_units_Z 48
_cell_length_a 12.674615
_cell_length_b 19.770972
_cell_length_c 12.811065
_cell_angle_alpha 90.000000
_cell_angle_beta 62.375458
_cell_angle_gamma 90.000000
_cell_volume 2844.357818
_symmetry_space_group_name_H-M "C 2/M"
_symmetry_group_IT_number 12
_symmetry_cell_setting 'monoclinic'
loop_
_space_group_symop_operation_xyz
x,y,z
-x,y,-z
-x,-y,-z
x,-y,z
1/2+x,1/2+y,z
1/2-x,1/2+y,-z
1/2-x,1/2-y,-z
1/2+x,1/2-y,z
loop_
_atom_site_type_symbol
_atom_site_label
_atom_site_fract_x
_atom_site_fract_y
_atom_site_fract_z
Si Si1 0.299596 0.665716 0.710396
Si Si2 0.002263 0.424351 0.324058
Si Si3 0.492561 0.427139 0.379702
Si Si4 0.381581 0.801442 0.612588
Si Si5 0.918592 0.422496 0.136415
Si Si6 0.746301 0.127825 0.501490
O O1 0.414349 0.627738 0.704960
O O2 0.325398 0.745582 0.717385
O O3 0.185694 0.633617 0.820211
O O4 0.285278 0.660226 0.592689
O O5 0.050099 0.500000 0.326444
O O6 0.999229 0.410955 0.201640
O O7 0.868501 0.419925 0.430916
O O8 0.088960 0.369759 0.337048
O O9 0.500000 0.429276 0.500000
O O10 0.529883 0.500000 0.316601
O O11 0.357978 0.413183 0.404494
O O12 0.500000 0.773214 0.500000
O O13 0.283346 0.814872 0.569194
O O14 0.867759 0.500000 0.160684
O O15 0.000000 0.409220 0.000000
#
# Coordination Sequence:
#
# PCOD8080677 Si02
#       6
#     8   8   8   8   8   8
#     4  10  18  29  44  67  94 119 149 184 224 271
#     4   9  18  31  47  68  92 119 156 195 225 262
#     4   9  16  25  39  61  89 118 146 178 215 259
#     4  10  19  29  44  67  97 129 152 177 218 270
#     4   9  18  34  54  70  85 112 152 198 240 270
#     4   9  17  27  44  65  93 127 155 177 211 266
#
# _framework density 16.875513999999999
#
# number of rings (size 3 to 8) (size 9 to 14) (size 15 to 20)
#    0.000    2.667    0.000    3.000    0.000   10.333 
#    0.000    0.833    0.000    0.000    0.000    0.000 
#    0.000    6.000    0.000    0.000    0.000    0.000 
#
# Total GULP energy -297430.029617 kJ/mol
# GULP energy per Si atom -12392.917901 kJ/mol
# Density = 1.683710 g / cm^3
# Si number density = 16.875514 Si / 1000 Ang^3
#
#
#
# Elastic Constant Matrix: (Units=GPa)
#
#
# Indices 1 2 3 4 5 6 
#
# 1 84.3432 47.7575 27.7716 0.0000 -9.9919 0.0000
# 2 47.7575 128.3425 41.5463 0.0000 -14.3727 0.0000
# 3 27.7716 41.5463 69.1586 0.0000 -6.3724 0.0000
# 4 0.0000 0.0000 0.0000 18.3734 0.0000 -4.2623
# 5 -9.9919 -14.3727 -6.3724 0.0000 11.4107 0.0000
# 6 0.0000 0.0000 0.0000 -4.2623 0.0000 19.8822
#
#
#
# Elastic Compliance Matrix: (Units=1/GPa)
#
#
# Indices 1 2 3 4 5 6 
#
# 1 0.016133 -0.004129 -0.003347 0.000000 0.007056 0.000000
# 2 -0.004129 0.011797 -0.004631 0.000000 0.008657 0.000000
# 3 -0.003347 -0.004631 0.018743 0.000000 0.001703 0.000000
# 4 0.000000 0.000000 0.000000 0.057275 0.000000 0.012279
# 5 0.007056 0.008657 0.001703 0.000000 0.105670 0.000000
# 6 0.000000 0.000000 0.000000 0.012279 0.000000 0.052929
#
#
# Mechanical properties :
#
#
# Convention : Reuss Voigt Hill
#
# Bulk Modulus (GPa) = 44.53050 57.33278 50.93164
# Shear Modulus (GPa) = 16.99253 20.91784 18.95519
#
# Velocity S-wave (km/s) = 3.17666 3.52453 3.35511
# Velocity P-wave (km/s) = 6.31663 7.11412 6.72721
#
# Compressibility (1/GPa) = 0.02245652
#
# Stress axis : x y z
#
# Youngs Moduli (GPa) = 61.98646 84.76898 53.35430
#
# Poissons Ratio (x) = 0.35003 0.17860
# Poissons Ratio (y) = 0.25596 0.24708
# Poissons Ratio (z) = 0.20750 0.39256
#
# Static dielectric constant tensor:
#      x y z
#    x 3.268070 0.000000 -0.041270 
#    y 0.000000 3.258550 0.000000 
#    z -0.041270 0.000000 2.763260 
# 
# 
# High freq. dielectric constant tensor:
#      x y z
#    x 1.649820 0.000000 -0.006920 
#    y 0.000000 1.660620 0.000000 
#    z -0.006920 0.000000 1.591350 
# 
# From -- ./inp_files/132448.got.cif
#   From: 2010.06.25/outbox.cif.g09.slc.cpg/sg12_67_cif.got.tgz:132448.got - 2010.06.28 00:19:55.
