data_PCOD8080901
_publ_section_title
;
Structure prediction by ZEFSAII (Michael W. Deem and Ramdas Pophale) SiO2 
 PCOD8080901
Probable space group: C 2/M
;
_chemical_formula_sum "Si O2"
_cell_formula_units_Z 56
_cell_length_a 19.425627
_cell_length_b 8.892543
_cell_length_c 24.118861
_cell_angle_alpha 90.000000
_cell_angle_beta 132.108937
_cell_angle_gamma 90.000000
_cell_volume 3090.910003
_symmetry_space_group_name_H-M "C 2/M"
_symmetry_group_IT_number 12
_symmetry_cell_setting 'monoclinic'
loop_
_space_group_symop_operation_xyz
x,y,z
-x,y,-z
-x,-y,-z
x,-y,z
1/2+x,1/2+y,z
1/2-x,1/2+y,-z
1/2-x,1/2-y,-z
1/2+x,1/2-y,z
loop_
_atom_site_type_symbol
_atom_site_label
_atom_site_fract_x
_atom_site_fract_y
_atom_site_fract_z
Si Si1 0.294029 0.827220 0.939506
Si Si2 0.567674 0.324043 0.582254
Si Si3 0.726608 0.822143 0.292268
Si Si4 0.755223 0.177076 0.811921
Si Si5 0.875124 0.328019 0.096781
Si Si6 0.950793 0.326346 0.737171
Si Si7 0.058583 0.175689 0.702076
O O1 0.317766 0.728607 0.898033
O O2 0.193537 0.784261 0.909319
O O3 0.291041 0.000000 0.919690
O O4 0.371836 0.798006 0.028758
O O5 0.500000 0.247083 0.500000
O O6 0.570932 0.500000 0.572552
O O7 0.672900 0.262247 0.632956
O O8 0.529074 0.288695 0.622830
O O9 0.701628 0.746392 0.220325
O O10 0.650722 0.776077 0.296915
O O11 0.727950 0.000000 0.282663
O O12 0.650980 0.233987 0.767536
O O13 0.754838 0.000000 0.806514
O O14 0.844217 0.500000 0.092649
O O15 0.978639 0.296906 0.174060
O O16 0.951616 0.500000 0.719650
O O17 0.975298 0.227467 0.696788
O O18 0.079158 0.000000 0.720908
#
# Coordination Sequence:
#
# PCOD8080901 Si02
#       7
#     8   8   8   8   8   8   8
#     4  10  18  29  47  71  97 128 171 215 253 297
#     4   8  15  31  54  77 100 129 167 206 242 289
#     4   9  19  34  53  75 100 133 170 204 248 302
#     4  11  20  32  50  72  99 132 171 214 257 296
#     4   9  18  30  46  70  99 132 167 209 257 296
#     4  10  19  33  51  74 104 134 165 206 253 300
#     4  10  19  31  52  78 100 130 170 206 245 297
#
# _framework density 18.117642
#
# number of rings (size 3 to 8) (size 9 to 14) (size 15 to 20)
#    0.000    2.429    1.429    3.000    0.000    1.143 
#    0.000    1.429    0.000   15.000    0.000    0.000 
#    0.000    0.000    0.000    0.000    0.000    0.000 
#
# Total GULP energy -347158.324819 kJ/mol
# GULP energy per Si atom -12398.511601 kJ/mol
# Density = 1.807641 g / cm^3
# Si number density = 18.117642 Si / 1000 Ang^3
#
#
#
# Elastic Constant Matrix: (Units=GPa)
#
#
# Indices 1 2 3 4 5 6 
#
# 1 110.0233 34.8293 45.2491 0.0000 -6.8017 0.0000
# 2 34.8293 64.8127 27.7520 0.0000 -6.9673 0.0000
# 3 45.2491 27.7520 109.9336 0.0000 -9.5108 0.0000
# 4 0.0000 0.0000 0.0000 15.1707 0.0000 -5.2333
# 5 -6.8017 -6.9673 -9.5108 0.0000 20.5096 0.0000
# 6 0.0000 0.0000 0.0000 -5.2333 0.0000 25.7882
#
#
#
# Elastic Compliance Matrix: (Units=1/GPa)
#
#
# Indices 1 2 3 4 5 6 
#
# 1 0.012215 -0.004894 -0.003736 0.000000 0.000656 0.000000
# 2 -0.004894 0.019583 -0.002598 0.000000 0.003825 0.000000
# 3 -0.003736 -0.002598 0.011571 0.000000 0.003244 0.000000
# 4 0.000000 0.000000 0.000000 0.070878 0.000000 0.014384
# 5 0.000656 0.003825 0.003244 0.000000 0.051779 0.000000
# 6 0.000000 0.000000 0.000000 0.014384 0.000000 0.041696
#
#
# Mechanical properties :
#
#
# Convention : Reuss Voigt Hill
#
# Bulk Modulus (GPa) = 47.81804 55.60337 51.71070
# Shear Modulus (GPa) = 21.08382 24.08965 22.58673
#
# Velocity S-wave (km/s) = 3.41503 3.65036 3.53465
# Velocity P-wave (km/s) = 6.48076 6.96589 6.72770
#
# Compressibility (1/GPa) = 0.02091261
#
# Stress axis : x y z
#
# Youngs Moduli (GPa) = 81.86535 51.06525 86.42656
#
# Poissons Ratio (x) = 0.24992 0.32285
# Poissons Ratio (y) = 0.40066 0.22455
# Poissons Ratio (z) = 0.30581 0.13268
#
# Static dielectric constant tensor:
#      x y z
#    x 3.192350 0.000000 -0.095660 
#    y 0.000000 3.205420 0.000000 
#    z -0.095660 0.000000 3.615840 
# 
# 
# High freq. dielectric constant tensor:
#      x y z
#    x 1.679640 0.000000 -0.016550 
#    y 0.000000 1.689690 0.000000 
#    z -0.016550 0.000000 1.698920 
# 
# From -- ./inp_files/342032.got.cif
#   From: 2010.06.25/outbox.cif.g09.slc.cpg/sg12_172_cif.got.tgz:342032.got - 2010.06.28 00:19:55.
