data_PCOD8080401
_publ_section_title
;
Structure prediction by ZEFSAII (Michael W. Deem and Ramdas Pophale) SiO2 
 PCOD8080401
Probable space group: C 2/M
;
_chemical_formula_sum "Si O2"
_cell_formula_units_Z 48
_cell_length_a 24.166832
_cell_length_b 8.838954
_cell_length_c 21.548882
_cell_angle_alpha 90.000000
_cell_angle_beta 38.047084
_cell_angle_gamma 90.000000
_cell_volume 2836.898064
_symmetry_space_group_name_H-M "C 2/M"
_symmetry_group_IT_number 12
_symmetry_cell_setting 'monoclinic'
loop_
_space_group_symop_operation_xyz
x,y,z
-x,y,-z
-x,-y,-z
x,-y,z
1/2+x,1/2+y,z
1/2-x,1/2+y,-z
1/2-x,1/2-y,-z
1/2+x,1/2-y,z
loop_
_atom_site_type_symbol
_atom_site_label
_atom_site_fract_x
_atom_site_fract_y
_atom_site_fract_z
Si Si1 0.865115 0.822511 0.231136
Si Si2 0.385819 0.825477 0.662244
Si Si3 0.967298 0.667168 0.958521
Si Si4 0.791688 0.322733 0.172477
Si Si5 0.085178 0.324624 0.506635
Si Si6 0.741267 0.678494 0.440787
O O1 0.814283 0.770267 0.214306
O O2 0.821958 0.741216 0.327939
O O3 0.971404 0.782133 0.134898
O O4 0.852985 0.000000 0.249533
O O5 0.307676 0.724218 0.762314
O O6 0.480404 0.787583 0.611634
O O7 0.391588 0.786363 0.584647
O O8 0.361573 0.000000 0.693452
O O9 0.976667 0.500000 0.920507
O O10 0.862413 0.717367 0.054682
O O11 0.000000 0.662671 0.000000
O O12 0.796942 0.500000 0.183734
O O13 0.105781 0.500000 0.502382
O O14 0.144324 0.220507 0.498613
O O15 0.749851 0.500000 0.437870
O O16 0.750000 0.750000 0.500000
#
# Coordination Sequence:
#
# PCOD8080401 Si02
#       6
#     8   8   8   8   8   8
#     4  11  20  31  47  68  96 128 164 204 244 291
#     4   9  17  29  49  72 101 133 161 197 244 293
#     4   8  16  29  43  64  96 129 160 197 241 289
#     4  10  18  28  45  71 101 131 163 198 241 292
#     4   9  18  33  49  71  99 130 164 202 244 289
#     4  12  24  37  53  72  96 130 168 207 246 289
#
# _framework density 16.919889999999999
#
# number of rings (size 3 to 8) (size 9 to 14) (size 15 to 20)
#    0.000    2.167    1.667    5.500    0.000    4.333 
#    0.000    1.667    0.000    0.000    0.000    1.167 
#    0.000    0.000    0.000    0.000    0.000    0.000 
#
# Total GULP energy -297528.424507 kJ/mol
# GULP energy per Si atom -12397.017688 kJ/mol
# Density = 1.688138 g / cm^3
# Si number density = 16.919890 Si / 1000 Ang^3
#
#
#
# Elastic Constant Matrix: (Units=GPa)
#
#
# Indices 1 2 3 4 5 6 
#
# 1 60.9454 43.9941 51.3522 -0.0014 -8.4983 0.0006
# 2 43.9941 117.9784 59.9387 -0.0065 -7.8158 0.0018
# 3 51.3522 59.9387 123.4809 -0.0033 -28.1294 0.0017
# 4 -0.0014 -0.0065 -0.0033 30.2206 0.0026 -5.3502
# 5 -8.4983 -7.8158 -28.1294 0.0026 28.2231 -0.0005
# 6 0.0006 0.0018 0.0017 -5.3502 -0.0005 23.5261
#
#
#
# Elastic Compliance Matrix: (Units=1/GPa)
#
#
# Indices 1 2 3 4 5 6 
#
# 1 0.028311 -0.005904 -0.009494 -0.000001 -0.002573 0.000000
# 2 -0.005904 0.012683 -0.004277 0.000002 -0.002528 0.000000
# 3 -0.009494 -0.004277 0.017080 -0.000001 0.012980 -0.000001
# 4 -0.000001 0.000002 -0.000001 0.034478 -0.000003 0.007841
# 5 -0.002573 -0.002528 0.012980 -0.000003 0.046894 0.000000
# 6 0.000000 0.000000 -0.000001 0.007841 0.000000 0.044289
#
#
# Mechanical properties :
#
#
# Convention : Reuss Voigt Hill
#
# Bulk Modulus (GPa) = 53.40898 68.10831 60.75865
# Shear Modulus (GPa) = 21.80302 26.20195 24.00249
#
# Velocity S-wave (km/s) = 3.59361 3.93948 3.77051
# Velocity P-wave (km/s) = 6.98949 7.81239 7.41237
#
# Compressibility (1/GPa) = 0.01872344
#
# Stress axis : x y z
#
# Youngs Moduli (GPa) = 35.32218 78.84362 58.54944
#
# Poissons Ratio (x) = 0.46551 0.55585
# Poissons Ratio (y) = 0.20855 0.25043
# Poissons Ratio (z) = 0.33534 0.33723
#
# Static dielectric constant tensor:
#      x y z
#    x 1.386940 -0.000060 -0.698240 
#    y -0.000060 3.174740 0.000000 
#    z -0.698240 0.000000 3.457970 
# 
# 
# High freq. dielectric constant tensor:
#      x y z
#    x 1.603540 0.000000 -0.036270 
#    y 0.000000 1.657980 0.000000 
#    z -0.036270 0.000000 1.657040 
# 
# From -- ./inp_files/323503.got.cif
#   From: 2010.06.25/outbox.cif.g09.slc.cpg/sg12_162_cif.got.tgz:323503.got - 2010.06.28 00:19:55.
