data_PCOD8080577
_publ_section_title
;
Structure prediction by ZEFSAII (Michael W. Deem and Ramdas Pophale) SiO2 
 PCOD8080577
Probable space group: C 2/M
;
_chemical_formula_sum "Si O2"
_cell_formula_units_Z 56
_cell_length_a 14.171319
_cell_length_b 17.981831
_cell_length_c 13.549866
_cell_angle_alpha 90.000000
_cell_angle_beta 116.605187
_cell_angle_gamma 90.000000
_cell_volume 3087.250960
_symmetry_space_group_name_H-M "C 2/M"
_symmetry_group_IT_number 12
_symmetry_cell_setting 'monoclinic'
loop_
_space_group_symop_operation_xyz
x,y,z
-x,y,-z
-x,-y,-z
x,-y,z
1/2+x,1/2+y,z
1/2-x,1/2+y,-z
1/2-x,1/2-y,-z
1/2+x,1/2-y,z
loop_
_atom_site_type_symbol
_atom_site_label
_atom_site_fract_x
_atom_site_fract_y
_atom_site_fract_z
Si Si1 0.465847 0.081988 0.207385
Si Si2 0.057846 0.719837 0.158417
Si Si3 0.424396 0.877958 0.550562
Si Si4 0.194289 0.916153 0.369434
Si Si5 0.269070 0.414691 0.843230
Si Si6 0.361595 0.734425 0.600452
Si Si7 0.352422 0.278673 0.991302
O O1 0.507803 0.137519 0.143391
O O2 0.545995 0.079478 0.336316
O O3 0.352490 0.107441 0.196548
O O4 0.459591 0.000000 0.156981
O O5 0.135093 0.737781 0.284969
O O6 0.127325 0.723735 0.092025
O O7 0.957434 0.776852 0.108670
O O8 0.500000 0.904957 0.500000
O O9 0.308277 0.904113 0.469241
O O10 0.439940 0.787776 0.574755
O O11 0.200068 0.900100 0.255636
O O12 0.116588 0.855034 0.385774
O O13 0.153676 0.000000 0.371734
O O14 0.291011 0.500000 0.882700
O O15 0.339459 0.362937 0.946811
O O16 0.250000 0.750000 0.500000
O O17 0.250000 0.250000 0.000000
#
# Coordination Sequence:
#
# PCOD8080577 Si02
#       7
#     8   8   8   8   8   8   8
#     4  10  19  32  51  79 111 139 175 225 279 328
#     4  10  21  36  55  80 104 145 188 217 272 328
#     4  10  18  28  48  78 109 138 175 216 268 329
#     4  10  18  30  49  75 106 138 172 220 273 314
#     4  10  19  32  52  78 108 137 175 231 276 310
#     4   9  19  34  51  76 109 137 175 221 263 321
#     4  11  21  37  56  75 108 146 185 219 266 321
#
# _framework density 18.139115
#
# number of rings (size 3 to 8) (size 9 to 14) (size 15 to 20)
#    0.000    2.000    4.286    0.429    0.000    0.571 
#    0.000    4.286    0.000    0.429    0.000    0.000 
#    0.000    0.000    0.000    0.000    0.000    0.000 
#
# Total GULP energy -346919.523899 kJ/mol
# GULP energy per Si atom -12389.982996 kJ/mol
# Density = 1.809783 g / cm^3
# Si number density = 18.139115 Si / 1000 Ang^3
#
#
#
# Elastic Constant Matrix: (Units=GPa)
#
#
# Indices 1 2 3 4 5 6 
#
# 1 56.9249 20.5322 20.2406 0.0000 -3.2379 0.0000
# 2 20.5322 126.9977 25.6614 0.0000 -2.5945 0.0000
# 3 20.2406 25.6614 97.5730 0.0000 3.0215 0.0000
# 4 0.0000 0.0000 0.0000 24.1984 0.0000 1.1531
# 5 -3.2379 -2.5945 3.0215 0.0000 17.1476 0.0000
# 6 0.0000 0.0000 0.0000 1.1531 0.0000 24.6197
#
#
#
# Elastic Compliance Matrix: (Units=1/GPa)
#
#
# Indices 1 2 3 4 5 6 
#
# 1 0.019958 -0.002410 -0.003631 0.000000 0.004044 0.000000
# 2 -0.002410 0.008654 -0.001812 0.000000 0.001174 0.000000
# 3 -0.003631 -0.001812 0.011572 0.000000 -0.002999 0.000000
# 4 0.000000 0.000000 0.000000 0.041417 0.000000 -0.001940
# 5 0.004044 0.001174 -0.002999 0.000000 0.059787 0.000000
# 6 0.000000 0.000000 0.000000 -0.001940 0.000000 0.040709
#
#
# Mechanical properties :
#
#
# Convention : Reuss Voigt Hill
#
# Bulk Modulus (GPa) = 40.85762 46.04045 43.44903
# Shear Modulus (GPa) = 24.27628 27.53057 25.90343
#
# Velocity S-wave (km/s) = 3.66230 3.90005 3.78304
# Velocity P-wave (km/s) = 6.36056 6.76147 6.56408
#
# Compressibility (1/GPa) = 0.02447524
#
# Stress axis : x y z
#
# Youngs Moduli (GPa) = 50.10636 115.55330 86.41902
#
# Poissons Ratio (x) = 0.27851 0.31382
# Poissons Ratio (y) = 0.12077 0.15662
# Poissons Ratio (z) = 0.18195 0.20942
#
# Static dielectric constant tensor:
#      x y z
#    x 2.951940 0.000000 0.111690 
#    y 0.000000 3.748450 0.000000 
#    z 0.111690 0.000000 3.380860 
# 
# 
# High freq. dielectric constant tensor:
#      x y z
#    x 1.664040 0.000000 0.001480 
#    y 0.000000 1.710390 0.000000 
#    z 0.001480 0.000000 1.709910 
# 
# From -- ./inp_files/215848.got.cif
#   From: 2010.06.25/outbox.cif.g09.slc.cpg/sg12_108_cif.got.tgz:215848.got - 2010.06.28 00:19:55.
