data_PCOD8080299
_publ_section_title
;
Structure prediction by ZEFSAII (Michael W. Deem and Ramdas Pophale) SiO2 
 PCOD8080299
Probable space group: C 2/M
;
_chemical_formula_sum "Si O2"
_cell_formula_units_Z 56
_cell_length_a 23.338629
_cell_length_b 9.391877
_cell_length_c 19.055273
_cell_angle_alpha 90.000000
_cell_angle_beta 52.568486
_cell_angle_gamma 90.000000
_cell_volume 3316.709270
_symmetry_space_group_name_H-M "C 2/M"
_symmetry_group_IT_number 12
_symmetry_cell_setting 'monoclinic'
loop_
_space_group_symop_operation_xyz
x,y,z
-x,y,-z
-x,-y,-z
x,-y,z
1/2+x,1/2+y,z
1/2-x,1/2+y,-z
1/2-x,1/2-y,-z
1/2+x,1/2-y,z
loop_
_atom_site_type_symbol
_atom_site_label
_atom_site_fract_x
_atom_site_fract_y
_atom_site_fract_z
Si Si1 0.053491 0.157827 0.167043
Si Si2 0.521528 0.832683 0.324048
Si Si3 0.065696 0.839657 0.504299
Si Si4 0.353319 0.840308 0.660213
Si Si5 0.277068 0.339083 0.153997
Si Si6 0.936411 0.168650 0.999383
Si Si7 0.783275 0.154570 0.916696
O O1 0.018496 0.268038 0.247648
O O2 0.053846 0.224205 0.087802
O O3 0.133847 0.133512 0.131561
O O4 0.015745 0.000000 0.196758
O O5 0.455862 0.755759 0.413218
O O6 0.597437 0.803110 0.307712
O O7 0.505710 0.000000 0.330161
O O8 0.132878 0.767508 0.413994
O O9 0.000000 0.844385 0.500000
O O10 0.086718 0.000000 0.512327
O O11 0.266676 0.834971 0.739931
O O12 0.374805 0.000000 0.620270
O O13 0.274660 0.500000 0.124444
O O14 0.228707 0.231197 0.147084
O O15 0.360150 0.286266 0.092275
O O16 0.941720 0.000000 0.993632
O O17 0.000000 0.234179 0.000000
O O18 0.745146 0.000000 0.944391
O O19 0.750000 0.250000 0.000000
#
# Coordination Sequence:
#
# PCOD8080299 Si02
#       7
#     8   8   8   8   8   8   8
#     4  10  19  30  46  68  94 123 160 198 233 279
#     4  10  18  28  44  66  95 127 157 188 232 282
#     4   9  17  28  42  62  94 129 159 187 221 273
#     4   9  17  27  42  65  95 126 156 189 228 278
#     4  10  18  31  48  70  96 125 161 197 235 281
#     4   9  18  33  51  69  92 125 164 202 237 279
#     4  11  20  29  44  67  95 124 156 195 239 284
#
# _framework density 16.884205999999999
#
# number of rings (size 3 to 8) (size 9 to 14) (size 15 to 20)
#    0.000    2.286    2.857    1.286    0.000    3.429 
#    0.000    0.000    0.000    1.714    0.000    1.000 
#    0.000    0.000    0.000    0.000    0.000    0.000 
#
# Total GULP energy -346908.005104 kJ/mol
# GULP energy per Si atom -12389.571611 kJ/mol
# Density = 1.684578 g / cm^3
# Si number density = 16.884206 Si / 1000 Ang^3
#
#
#
# Elastic Constant Matrix: (Units=GPa)
#
#
# Indices 1 2 3 4 5 6 
#
# 1 64.4785 23.8630 40.6525 0.0003 1.0786 -0.0002
# 2 23.8630 102.6077 62.1718 0.0013 4.4341 -0.0011
# 3 40.6525 62.1718 132.3670 0.0003 2.9128 -0.0003
# 4 0.0003 0.0013 0.0003 29.1642 0.0001 1.8800
# 5 1.0786 4.4341 2.9128 0.0001 8.5662 0.0000
# 6 -0.0002 -0.0011 -0.0003 1.8800 0.0000 8.2520
#
#
#
# Elastic Compliance Matrix: (Units=1/GPa)
#
#
# Indices 1 2 3 4 5 6 
#
# 1 0.019349 -0.001258 -0.005352 0.000000 0.000035 0.000000
# 2 -0.001258 0.013913 -0.006039 -0.000001 -0.004990 0.000002
# 3 -0.005352 -0.006039 0.012041 0.000000 -0.000295 -0.000001
# 4 0.000000 -0.000001 0.000000 0.034800 0.000000 -0.007928
# 5 0.000035 -0.004990 -0.000295 0.000000 0.119417 -0.000001
# 6 0.000000 0.000002 -0.000001 -0.007928 -0.000001 0.122990
#
#
# Mechanical properties :
#
#
# Convention : Reuss Voigt Hill
#
# Bulk Modulus (GPa) = 49.98805 61.42532 55.70668
# Shear Modulus (GPa) = 14.10535 20.71419 17.40977
#
# Velocity S-wave (km/s) = 2.89349 3.50643 3.21460
# Velocity P-wave (km/s) = 6.39013 7.26998 6.84421
#
# Compressibility (1/GPa) = 0.02000478
#
# Stress axis : x y z
#
# Youngs Moduli (GPa) = 51.68348 71.87513 83.04809
#
# Poissons Ratio (x) = 0.09045 0.44447
# Poissons Ratio (y) = 0.06504 0.50149
# Poissons Ratio (z) = 0.27661 0.43402
#
# Static dielectric constant tensor:
#      x y z
#    x 2.744430 0.000000 -0.017840 
#    y 0.000000 3.248810 0.000000 
#    z -0.017840 0.000000 3.234760 
# 
# 
# High freq. dielectric constant tensor:
#      x y z
#    x 1.584790 0.000000 0.001700 
#    y 0.000000 1.650470 0.000000 
#    z 0.001700 0.000000 1.659540 
# 
# From -- ./inp_files/281609.got.cif
#   From: 2010.06.25/outbox.cif.g09.slc.cpg/sg12_141_cif.got.tgz:281609.got - 2010.06.28 00:19:55.
