data_PCOD8080294
_publ_section_title
;
Structure prediction by ZEFSAII (Michael W. Deem and Ramdas Pophale) SiO2 
 PCOD8080294
Probable space group: C 2/M
;
_chemical_formula_sum "Si O2"
_cell_formula_units_Z 64
_cell_length_a 19.277928
_cell_length_b 9.351022
_cell_length_c 23.571811
_cell_angle_alpha 90.000000
_cell_angle_beta 59.497930
_cell_angle_gamma 90.000000
_cell_volume 3661.200633
_symmetry_space_group_name_H-M "C 2/M"
_symmetry_group_IT_number 12
_symmetry_cell_setting 'monoclinic'
loop_
_space_group_symop_operation_xyz
x,y,z
-x,y,-z
-x,-y,-z
x,-y,z
1/2+x,1/2+y,z
1/2-x,1/2+y,-z
1/2-x,1/2-y,-z
1/2+x,1/2-y,z
loop_
_atom_site_type_symbol
_atom_site_label
_atom_site_fract_x
_atom_site_fract_y
_atom_site_fract_z
Si Si1 0.392169 0.165219 0.777691
Si Si2 0.563617 0.838220 0.524125
Si Si3 0.314300 0.164604 0.272180
Si Si4 0.673436 0.337231 0.405373
Si Si5 0.491596 0.166012 0.171302
Si Si6 0.282994 0.336705 0.177318
Si Si7 0.458378 0.331918 0.074317
Si Si8 0.550503 0.666136 0.354734
O O1 0.435352 0.209165 0.818110
O O2 0.296542 0.188306 0.827652
O O3 0.423649 0.265893 0.715127
O O4 0.411177 0.000000 0.754120
O O5 0.500000 0.835585 0.500000
O O6 0.646182 0.766756 0.467369
O O7 0.529844 0.747041 0.590657
O O8 0.581670 0.000000 0.536517
O O9 0.266369 0.198439 0.350494
O O10 0.408423 0.203735 0.238875
O O11 0.272549 0.249587 0.239013
O O12 0.302151 0.000000 0.261314
O O13 0.663373 0.500000 0.430826
O O14 0.621293 0.312303 0.370518
O O15 0.499864 0.255990 0.110530
O O16 0.494271 0.000000 0.153541
O O17 0.290932 0.500000 0.192985
O O18 0.363536 0.291213 0.109869
O O19 0.472509 0.500000 0.075559
O O20 0.500000 0.274265 0.000000
O O21 0.529916 0.500000 0.354274
#
# Coordination Sequence:
#
# PCOD8080294 Si02
#       8
#     8   8   8   8   8   8   8   8
#     4  10  19  31  47  70  99 127 156 194 240 285
#     4   9  17  27  40  62  92 124 157 196 241 287
#     4   9  16  29  47  68  93 122 158 198 239 281
#     4   9  16  26  42  65  91 118 154 199 242 282
#     4   9  19  33  50  72  99 128 157 192 235 284
#     4   9  17  29  48  71  95 124 158 195 233 277
#     4   9  18  34  54  74  97 127 161 195 231 273
#     4  10  18  28  44  66  93 125 158 195 241 286
#
# _framework density 17.480605000000001
#
# number of rings (size 3 to 8) (size 9 to 14) (size 15 to 20)
#    0.000    2.750    1.250    0.750    0.000    3.250 
#    0.000    0.625    0.000    0.750    0.000    0.000 
#    0.000    0.000    0.000    0.000    0.000    0.000 
#
# Total GULP energy -396720.091783 kJ/mol
# GULP energy per Si atom -12397.502868 kJ/mol
# Density = 1.744082 g / cm^3
# Si number density = 17.480605 Si / 1000 Ang^3
#
#
#
# Elastic Constant Matrix: (Units=GPa)
#
#
# Indices 1 2 3 4 5 6 
#
# 1 87.0518 33.8242 41.5342 0.0001 -4.0856 0.0004
# 2 33.8242 79.3144 54.8708 0.0001 -2.7232 0.0008
# 3 41.5342 54.8708 114.6024 0.0000 -13.0301 0.0001
# 4 0.0001 0.0001 0.0000 29.8340 0.0000 1.0672
# 5 -4.0856 -2.7232 -13.0301 0.0000 17.2004 0.0001
# 6 0.0004 0.0008 0.0001 1.0672 0.0001 17.6831
#
#
#
# Elastic Compliance Matrix: (Units=1/GPa)
#
#
# Indices 1 2 3 4 5 6 
#
# 1 0.014635 -0.003863 -0.003423 0.000000 0.000271 0.000000
# 2 -0.003863 0.020156 -0.008745 0.000000 -0.004351 -0.000001
# 3 -0.003423 -0.008745 0.015214 0.000000 0.009328 0.000000
# 4 0.000000 0.000000 0.000000 0.033591 0.000000 -0.002027
# 5 0.000271 -0.004351 0.009328 0.000000 0.064580 0.000000
# 6 0.000000 -0.000001 0.000000 -0.002027 0.000000 0.056674
#
#
# Mechanical properties :
#
#
# Convention : Reuss Voigt Hill
#
# Bulk Modulus (GPa) = 55.73765 60.15857 57.94811
# Shear Modulus (GPa) = 20.58508 22.99278 21.78893
#
# Velocity S-wave (km/s) = 3.43533 3.63068 3.53436
# Velocity P-wave (km/s) = 6.90579 7.21561 7.06240
#
# Compressibility (1/GPa) = 0.01794120
#
# Stress axis : x y z
#
# Youngs Moduli (GPa) = 68.33121 49.61218 65.72814
#
# Poissons Ratio (x) = 0.19168 0.22500
# Poissons Ratio (y) = 0.26400 0.57481
# Poissons Ratio (z) = 0.23391 0.43387
#
# Static dielectric constant tensor:
#      x y z
#    x 3.145850 0.000000 -0.295730 
#    y 0.000000 3.306520 0.000000 
#    z -0.295730 0.000000 3.226710 
# 
# 
# High freq. dielectric constant tensor:
#      x y z
#    x 1.648710 0.000000 -0.022850 
#    y 0.000000 1.678550 0.000000 
#    z -0.022850 0.000000 1.664860 
# 
# From -- ./inp_files/345516.got.cif
#   From: 2010.06.25/outbox.cif.g09.slc.cpg/sg12_173_cif.got.tgz:345516.got - 2010.06.28 00:19:55.
