data_PCOD8080925
_publ_section_title
;
Structure prediction by ZEFSAII (Michael W. Deem and Ramdas Pophale) SiO2 
 PCOD8080925
Probable space group: C 2/M
;
_chemical_formula_sum "Si O2"
_cell_formula_units_Z 56
_cell_length_a 29.819160
_cell_length_b 11.160246
_cell_length_c 15.409858
_cell_angle_alpha 90.000000
_cell_angle_beta 34.130253
_cell_angle_gamma 90.000000
_cell_volume 2877.329600
_symmetry_space_group_name_H-M "C 2/M"
_symmetry_group_IT_number 12
_symmetry_cell_setting 'monoclinic'
loop_
_space_group_symop_operation_xyz
x,y,z
-x,y,-z
-x,-y,-z
x,-y,z
1/2+x,1/2+y,z
1/2-x,1/2+y,-z
1/2-x,1/2-y,-z
1/2+x,1/2-y,z
loop_
_atom_site_type_symbol
_atom_site_label
_atom_site_fract_x
_atom_site_fract_y
_atom_site_fract_z
Si Si1 0.524577 0.774099 0.054450
Si Si2 0.445365 0.364410 0.716509
Si Si3 0.121209 0.868218 0.357303
Si Si4 0.628025 0.363684 0.655276
Si Si5 0.337942 0.207036 0.562324
Si Si6 0.326399 0.367696 0.231691
Si Si7 0.987880 0.369317 0.746245
O O1 0.463694 0.667671 0.176172
O O2 0.517933 0.873820 0.139853
O O3 0.500000 0.829342 0.000000
O O4 0.614785 0.724811 0.909532
O O5 0.426304 0.500000 0.785824
O O6 0.534167 0.368885 0.538853
O O7 0.384586 0.334599 0.735196
O O8 0.439751 0.250209 0.791100
O O9 0.174261 0.774244 0.325782
O O10 0.159714 0.000000 0.304275
O O11 0.631319 0.500000 0.622327
O O12 0.662217 0.297482 0.517457
O O13 0.682365 0.334179 0.652304
O O14 0.259762 0.126376 0.676206
O O15 0.419710 0.131807 0.432062
O O16 0.364603 0.500000 0.164054
O O17 0.954107 0.500000 0.767609
#
# Coordination Sequence:
#
# PCOD8080925 Si02
#       7
#     8   8   8   8   8   8   8
#     4   9  19  34  51  69  92 128 172 210 242 283
#     4   8  15  29  50  73  97 129 167 205 243 286
#     4   8  14  27  47  72  99 126 162 206 245 287
#     4   9  17  30  49  71  95 128 171 214 247 282
#     4  10  18  29  47  73 103 132 160 197 251 306
#     4  10  19  31  46  68 100 133 168 208 249 293
#     4  10  20  33  50  75 105 132 161 201 251 303
#
# _framework density 19.462491
#
# number of rings (size 3 to 8) (size 9 to 14) (size 15 to 20)
#    0.000    2.857    0.000    2.571    0.000    6.000 
#    0.000    7.857    0.000    1.714    0.000    0.000 
#    0.000    0.000    0.000    0.000    0.000    0.000 
#
# Total GULP energy -346867.532575 kJ/mol
# GULP energy per Si atom -12388.126163 kJ/mol
# Density = 1.941819 g / cm^3
# Si number density = 19.462491 Si / 1000 Ang^3
#
#
#
# Elastic Constant Matrix: (Units=GPa)
#
#
# Indices 1 2 3 4 5 6 
#
# 1 96.1502 49.0331 19.5170 0.0000 9.3081 0.0000
# 2 49.0331 119.2277 16.8111 0.0000 12.9918 0.0000
# 3 19.5170 16.8111 34.9386 0.0000 3.4245 0.0000
# 4 0.0000 0.0000 0.0000 5.4759 0.0000 -1.5965
# 5 9.3081 12.9918 3.4245 0.0000 19.9331 0.0000
# 6 0.0000 0.0000 0.0000 -1.5965 0.0000 22.4518
#
#
#
# Elastic Compliance Matrix: (Units=1/GPa)
#
#
# Indices 1 2 3 4 5 6 
#
# 1 0.014184 -0.004797 -0.005363 0.000000 -0.002576 0.000000
# 2 -0.004797 0.011185 -0.002245 0.000000 -0.004664 0.000000
# 3 -0.005363 -0.002245 0.032862 0.000000 -0.001678 0.000000
# 4 0.000000 0.000000 0.000000 0.186484 0.000000 0.013261
# 5 -0.002576 -0.004664 -0.001678 0.000000 0.054699 0.000000
# 6 0.000000 0.000000 0.000000 0.013261 0.000000 0.045483
#
#
# Mechanical properties :
#
#
# Convention : Reuss Voigt Hill
#
# Bulk Modulus (GPa) = 29.92059 46.78210 38.35134
# Shear Modulus (GPa) = 13.12861 20.56918 16.84889
#
# Velocity S-wave (km/s) = 2.60005 3.25447 2.94549
# Velocity P-wave (km/s) = 4.94171 6.18153 5.59606
#
# Compressibility (1/GPa) = 0.03342181
#
# Stress axis : x y z
#
# Youngs Moduli (GPa) = 70.49956 89.40760 30.43006
#
# Poissons Ratio (x) = 0.42885 0.16320
# Poissons Ratio (y) = 0.33815 0.06832
# Poissons Ratio (z) = 0.37810 0.20073
#
# Static dielectric constant tensor:
#      x y z
#    x 3.839720 0.000000 0.205310 
#    y 0.000000 3.522740 0.000000 
#    z 0.205310 0.000000 3.118230 
# 
# 
# High freq. dielectric constant tensor:
#      x y z
#    x 1.756120 0.000000 0.013740 
#    y 0.000000 1.749600 0.000000 
#    z 0.013740 0.000000 1.711850 
# 
# From -- ./inp_files/245605.got.cif
#   From: 2010.06.25/outbox.cif.g09.slc.cpg/sg12_123_cif.got.tgz:245605.got - 2010.06.28 00:19:55.
