data_PCOD8080870
_publ_section_title
;
Structure prediction by ZEFSAII (Michael W. Deem and Ramdas Pophale) SiO2 
 PCOD8080870
Probable space group: C 2/M
;
_chemical_formula_sum "Si O2"
_cell_formula_units_Z 64
_cell_length_a 23.213032
_cell_length_b 9.277493
_cell_length_c 17.204904
_cell_angle_alpha 90.000000
_cell_angle_beta 94.425754
_cell_angle_gamma 90.000000
_cell_volume 3694.178113
_symmetry_space_group_name_H-M "C 2/M"
_symmetry_group_IT_number 12
_symmetry_cell_setting 'monoclinic'
loop_
_space_group_symop_operation_xyz
x,y,z
-x,y,-z
-x,-y,-z
x,-y,z
1/2+x,1/2+y,z
1/2-x,1/2+y,-z
1/2-x,1/2-y,-z
1/2+x,1/2-y,z
loop_
_atom_site_type_symbol
_atom_site_label
_atom_site_fract_x
_atom_site_fract_y
_atom_site_fract_z
Si Si1 0.683753 0.329221 0.285748
Si Si2 0.970915 0.341423 0.327964
Si Si3 0.298542 0.669187 0.256211
Si Si4 0.988055 0.671336 0.083989
Si Si5 0.615987 0.334210 0.594998
Si Si6 0.614367 0.838809 0.825765
Si Si7 0.429344 0.828585 0.770355
Si Si8 0.194174 0.168123 0.465314
O O1 0.686260 0.500000 0.272399
O O2 0.739369 0.256058 0.253863
O O3 0.629078 0.261604 0.237154
O O4 0.679535 0.289508 0.376071
O O5 0.978733 0.500000 0.364357
O O6 0.944602 0.244168 0.393742
O O7 0.927229 0.346352 0.252089
O O8 0.032317 0.285385 0.301389
O O9 0.286512 0.500000 0.244564
O O10 0.334208 0.703622 0.337851
O O11 0.333453 0.728154 0.184860
O O12 0.988532 0.500000 0.082078
O O13 0.037811 0.722675 0.148250
O O14 0.924162 0.720154 0.106165
O O15 0.000000 0.737541 0.000000
O O16 0.600131 0.500000 0.597052
O O17 0.639396 0.287570 0.512853
O O18 0.638817 0.000000 0.844970
O O19 0.417304 0.000000 0.769685
O O20 0.250000 0.250000 0.500000
O O21 0.207682 0.000000 0.476365
#
# Coordination Sequence:
#
# PCOD8080870 Si02
#       8
#     8   8   8   8   8   8   8   8
#     4  11  22  33  48  69  96 131 166 201 244 292
#     4   8  15  28  46  67  91 123 158 193 236 282
#     4  10  18  29  47  69  95 127 163 203 243 285
#     4   8  14  28  54  83 104 126 157 194 238 285
#     4   9  17  29  46  68  91 117 156 205 249 284
#     4   8  14  26  46  73 101 123 153 197 236 281
#     4   9  18  33  51  72 100 129 160 197 235 287
#     4  10  20  33  47  67  94 124 163 207 249 289
#
# _framework density 17.324558
#
# number of rings (size 3 to 8) (size 9 to 14) (size 15 to 20)
#    0.000    2.875    1.250    2.250    0.000    2.000 
#    0.000    2.500    0.000    6.000    0.000    0.000 
#    0.000    0.000    0.000    0.000    0.000    0.000 
#
# Total GULP energy -396657.873859 kJ/mol
# GULP energy per Si atom -12395.558558 kJ/mol
# Density = 1.728513 g / cm^3
# Si number density = 17.324558 Si / 1000 Ang^3
#
#
#
# Elastic Constant Matrix: (Units=GPa)
#
#
# Indices 1 2 3 4 5 6 
#
# 1 114.9322 55.3209 57.5270 0.0000 -22.9327 0.0000
# 2 55.3209 64.2371 33.2355 0.0000 -8.6315 0.0000
# 3 57.5270 33.2355 87.8139 0.0000 -22.1380 0.0000
# 4 0.0000 0.0000 0.0000 14.6355 0.0000 -3.7390
# 5 -22.9327 -8.6315 -22.1380 0.0000 26.5109 0.0000
# 6 0.0000 0.0000 0.0000 -3.7390 0.0000 32.0852
#
#
#
# Elastic Compliance Matrix: (Units=1/GPa)
#
#
# Indices 1 2 3 4 5 6 
#
# 1 0.019159 -0.012405 -0.005948 0.000000 0.007567 0.000000
# 2 -0.012405 0.027392 -0.003417 0.000000 -0.004666 0.000000
# 3 -0.005948 -0.003417 0.019000 0.000000 0.009608 0.000000
# 4 0.000000 0.000000 0.000000 0.070424 0.000000 0.008207
# 5 0.007567 -0.004666 0.009608 0.000000 0.050770 0.000000
# 6 0.000000 0.000000 0.000000 0.008207 0.000000 0.032123
#
#
# Mechanical properties :
#
#
# Convention : Reuss Voigt Hill
#
# Bulk Modulus (GPa) = 45.43416 62.12778 53.78097
# Shear Modulus (GPa) = 18.53606 22.70632 20.62119
#
# Velocity S-wave (km/s) = 3.27453 3.62421 3.45380
# Velocity P-wave (km/s) = 6.37016 7.31110 6.85679
#
# Compressibility (1/GPa) = 0.02200987
#
# Stress axis : x y z
#
# Youngs Moduli (GPa) = 52.19447 36.50758 52.63238
#
# Poissons Ratio (x) = 0.45289 0.31308
# Poissons Ratio (y) = 0.64749 0.17982
# Poissons Ratio (z) = 0.31047 0.12473
#
# Static dielectric constant tensor:
#      x y z
#    x 3.096670 0.000000 0.119870 
#    y 0.000000 3.169050 0.000000 
#    z 0.119870 0.000000 1.909790 
# 
# 
# High freq. dielectric constant tensor:
#      x y z
#    x 1.665690 0.000000 -0.027410 
#    y 0.000000 1.657020 0.000000 
#    z -0.027410 0.000000 1.641870 
# 
# From -- ./inp_files/287614.got.cif
#   From: 2010.06.25/outbox.cif.g09.slc.cpg/sg12_144_cif.got.tgz:287614.got - 2010.06.28 00:19:55.
