data_PCOD8080044
_publ_section_title
;
Structure prediction by ZEFSAII (Michael W. Deem and Ramdas Pophale) SiO2 
 PCOD8080044
Probable space group: C 2/M
;
_chemical_formula_sum "Si O2"
_cell_formula_units_Z 56
_cell_length_a 16.489818
_cell_length_b 19.670424
_cell_length_c 10.417417
_cell_angle_alpha 90.000000
_cell_angle_beta 68.689429
_cell_angle_gamma 90.000000
_cell_volume 3147.968589
_symmetry_space_group_name_H-M "C 2/M"
_symmetry_group_IT_number 12
_symmetry_cell_setting 'monoclinic'
loop_
_space_group_symop_operation_xyz
x,y,z
-x,y,-z
-x,-y,-z
x,-y,z
1/2+x,1/2+y,z
1/2-x,1/2+y,-z
1/2-x,1/2-y,-z
1/2+x,1/2-y,z
loop_
_atom_site_type_symbol
_atom_site_label
_atom_site_fract_x
_atom_site_fract_y
_atom_site_fract_z
Si Si1 0.894265 0.679969 0.430468
Si Si2 0.773528 0.574616 0.820475
Si Si3 0.758234 0.575022 0.534153
Si Si4 0.917678 0.830457 0.723524
Si Si5 0.414003 0.420044 0.972248
Si Si6 0.414173 0.820206 0.723995
Si Si7 0.616387 0.669928 0.537737
O O1 0.826211 0.623478 0.419959
O O2 0.904917 0.679115 0.576891
O O3 0.856876 0.755528 0.422464
O O4 0.984638 0.662143 0.305585
O O5 0.788962 0.500000 0.875340
O O6 0.789330 0.567625 0.661070
O O7 0.846169 0.627806 0.831281
O O8 0.674098 0.598467 0.900288
O O9 0.754542 0.500000 0.472223
O O10 0.664378 0.610476 0.587196
O O11 0.900518 0.885643 0.842142
O O12 0.895876 0.755150 0.790121
O O13 0.860937 0.841446 0.626657
O O14 0.015681 0.837393 0.621786
O O15 0.424330 0.500000 0.943514
O O16 0.500000 0.393121 0.000000
#
# Coordination Sequence:
#
# PCOD8080044 Si02
#       7
#     8   8   8   8   8   8   8
#     4   8  15  28  45  65  92 121 144 178 229 269
#     4   9  18  30  45  66  92 122 150 181 223 262
#     4  10  18  27  43  69  95 119 150 182 216 264
#     4   9  18  31  48  67  87 117 151 183 222 264
#     4  10  20  33  47  65  92 122 149 180 221 267
#     4   8  15  29  47  67  89 114 150 188 220 263
#     4   9  17  30  46  66  92 117 145 184 227 265
#
# _framework density 17.789249999999999
#
# number of rings (size 3 to 8) (size 9 to 14) (size 15 to 20)
#    0.000    3.000    0.000    3.000    0.000    3.429 
#    0.000    4.286    0.000    0.000    0.000    0.000 
#    0.000    4.000    0.000    0.000    0.000    0.000 
#
# Total GULP energy -346894.365986 kJ/mol
# GULP energy per Si atom -12389.084499 kJ/mol
# Density = 1.774876 g / cm^3
# Si number density = 17.789250 Si / 1000 Ang^3
#
#
#
# Elastic Constant Matrix: (Units=GPa)
#
#
# Indices 1 2 3 4 5 6 
#
# 1 61.4383 51.8589 14.3843 0.0000 -14.0545 0.0000
# 2 51.8589 116.6963 25.1808 0.0000 -11.7592 0.0000
# 3 14.3843 25.1808 41.5978 0.0000 -10.9442 0.0000
# 4 0.0000 0.0000 0.0000 20.4251 0.0000 -3.5307
# 5 -14.0545 -11.7592 -10.9442 0.0000 17.8764 0.0000
# 6 0.0000 0.0000 0.0000 -3.5307 0.0000 31.7664
#
#
#
# Elastic Compliance Matrix: (Units=1/GPa)
#
#
# Indices 1 2 3 4 5 6 
#
# 1 0.029697 -0.011806 0.001165 0.000000 0.016295 0.000000
# 2 -0.011806 0.014724 -0.005632 0.000000 -0.003044 0.000000
# 3 0.001165 -0.005632 0.031364 0.000000 0.016413 0.000000
# 4 0.000000 0.000000 0.000000 0.049918 0.000000 0.005548
# 5 0.016295 -0.003044 0.016413 0.000000 0.076797 0.000000
# 6 0.000000 0.000000 0.000000 0.005548 0.000000 0.032096
#
#
# Mechanical properties :
#
#
# Convention : Reuss Voigt Hill
#
# Bulk Modulus (GPa) = 23.12717 44.73115 33.92916
# Shear Modulus (GPa) = 17.75846 22.56747 20.16297
#
# Velocity S-wave (km/s) = 3.16297 3.56561 3.37031
# Velocity P-wave (km/s) = 5.13498 6.49238 5.85316
#
# Compressibility (1/GPa) = 0.04323920
#
# Stress axis : x y z
#
# Youngs Moduli (GPa) = 33.67358 67.91476 31.88361
#
# Poissons Ratio (x) = 0.80183 -0.03714
# Poissons Ratio (y) = 0.39756 0.17955
# Poissons Ratio (z) = -0.03923 0.38246
#
# Static dielectric constant tensor:
#      x y z
#    x 3.400240 0.000000 -0.063390 
#    y 0.000000 3.724800 0.000000 
#    z -0.063390 0.000000 3.217610 
# 
# 
# High freq. dielectric constant tensor:
#      x y z
#    x 1.676940 0.000000 -0.024680 
#    y 0.000000 1.694590 0.000000 
#    z -0.024680 0.000000 1.643720 
# 
# From -- ./inp_files/157714.got.cif
#   From: 2010.06.25/outbox.cif.g09.slc.cpg/sg12_79_cif.got.tgz:157714.got - 2010.06.28 00:19:55.
