data_PCOD8080297
_publ_section_title
;
Structure prediction by ZEFSAII (Michael W. Deem and Ramdas Pophale) SiO2 
 PCOD8080297
Probable space group: C 2/M
;
_chemical_formula_sum "Si O2"
_cell_formula_units_Z 56
_cell_length_a 19.226528
_cell_length_b 9.000690
_cell_length_c 20.435082
_cell_angle_alpha 90.000000
_cell_angle_beta 56.872024
_cell_angle_gamma 90.000000
_cell_volume 2961.508353
_symmetry_space_group_name_H-M "C 2/M"
_symmetry_group_IT_number 12
_symmetry_cell_setting 'monoclinic'
loop_
_space_group_symop_operation_xyz
x,y,z
-x,y,-z
-x,-y,-z
x,-y,z
1/2+x,1/2+y,z
1/2-x,1/2+y,-z
1/2-x,1/2-y,-z
1/2+x,1/2-y,z
loop_
_atom_site_type_symbol
_atom_site_label
_atom_site_fract_x
_atom_site_fract_y
_atom_site_fract_z
Si Si1 0.309493 0.328072 0.018393
Si Si2 0.431203 0.672124 0.589869
Si Si3 0.996162 0.172145 0.928934
Si Si4 0.232915 0.674973 0.324523
Si Si5 0.963121 0.672923 0.710233
Si Si6 0.919093 0.824800 0.245622
Si Si7 0.777712 0.671185 0.813408
O O1 0.286104 0.500000 0.030192
O O2 0.287884 0.261284 0.101267
O O3 0.250000 0.250000 0.000000
O O4 0.403769 0.300472 0.949765
O O5 0.500000 0.696319 0.500000
O O6 0.417474 0.500000 0.613476
O O7 0.345519 0.740078 0.603345
O O8 0.463186 0.754391 0.638519
O O9 0.056207 0.235606 0.840470
O O10 0.018586 0.000000 0.926963
O O11 0.000000 0.247007 0.000000
O O12 0.213108 0.500000 0.336259
O O13 0.322216 0.709038 0.311095
O O14 0.236827 0.744334 0.249437
O O15 0.984983 0.500000 0.690936
O O16 0.029845 0.746581 0.723622
O O17 0.872276 0.695277 0.789244
O O18 0.937914 0.000000 0.238367
O O19 0.756564 0.500000 0.814135
#
# Coordination Sequence:
#
# PCOD8080297 Si02
#       7
#     8   8   8   8   8   8   8
#     4  10  18  28  44  66  94 128 168 214 258 297
#     4  10  21  38  60  84 107 129 160 207 258 310
#     4   9  17  29  48  73 100 136 180 221 260 301
#     4   9  18  33  54  77 102 136 172 206 250 305
#     4  10  20  34  54  78 106 141 176 211 256 310
#     4  10  19  32  51  77 109 141 178 221 259 301
#     4   8  15  29  47  67  93 129 173 215 253 297
#
# _framework density 18.909282000000001
#
# number of rings (size 3 to 8) (size 9 to 14) (size 15 to 20)
#    0.000    2.571    0.000    3.429    0.000    5.143 
#    0.000    3.571    0.000    3.429    0.000    0.000 
#    0.000    0.000    0.000    0.000    0.000    0.000 
#
# Total GULP energy -346937.335828 kJ/mol
# GULP energy per Si atom -12390.619137 kJ/mol
# Density = 1.886624 g / cm^3
# Si number density = 18.909282 Si / 1000 Ang^3
#
#
#
# Elastic Constant Matrix: (Units=GPa)
#
#
# Indices 1 2 3 4 5 6 
#
# 1 93.3593 43.0702 29.5260 -0.0001 -3.7845 -0.0002
# 2 43.0702 63.4342 36.7401 -0.0002 -6.3511 -0.0003
# 3 29.5260 36.7401 85.6534 0.0000 -13.4021 -0.0001
# 4 -0.0001 -0.0002 0.0000 19.0786 0.0000 1.3608
# 5 -3.7845 -6.3511 -13.4021 0.0000 26.3565 0.0000
# 6 -0.0002 -0.0003 -0.0001 1.3608 0.0000 30.9659
#
#
#
# Elastic Compliance Matrix: (Units=1/GPa)
#
#
# Indices 1 2 3 4 5 6 
#
# 1 0.015692 -0.010017 -0.001236 0.000000 -0.000789 0.000000
# 2 -0.010017 0.027377 -0.008130 0.000000 0.001025 0.000000
# 3 -0.001236 -0.008130 0.016572 0.000000 0.006290 0.000000
# 4 0.000000 0.000000 0.000000 0.052580 0.000000 -0.002311
# 5 -0.000789 0.001025 0.006290 0.000000 0.041274 0.000000
# 6 0.000000 0.000000 0.000000 -0.002311 0.000000 0.032395
#
#
# Mechanical properties :
#
#
# Convention : Reuss Voigt Hill
#
# Bulk Modulus (GPa) = 47.90322 51.23550 49.56936
# Shear Modulus (GPa) = 21.58772 24.15425 22.87099
#
# Velocity S-wave (km/s) = 3.38249 3.57792 3.48158
# Velocity P-wave (km/s) = 6.37520 6.65003 6.51406
#
# Compressibility (1/GPa) = 0.02087542
#
# Stress axis : x y z
#
# Youngs Moduli (GPa) = 63.72858 36.52694 60.34172
#
# Poissons Ratio (x) = 0.36591 0.07457
# Poissons Ratio (y) = 0.63840 0.49055
# Poissons Ratio (z) = 0.07875 0.29695
#
# Static dielectric constant tensor:
#      x y z
#    x 3.427390 0.000000 -0.332150 
#    y 0.000000 3.209430 0.000000 
#    z -0.332150 0.000000 0.842160 
# 
# 
# High freq. dielectric constant tensor:
#      x y z
#    x 1.739900 0.000000 -0.009850 
#    y 0.000000 1.698350 0.000000 
#    z -0.009850 0.000000 1.731690 
# 
# From -- ./inp_files/313790.got.cif
#   From: 2010.06.25/outbox.cif.g09.slc.cpg/sg12_157_cif.got.tgz:313790.got - 2010.06.28 00:19:55.
