data_PCOD8080509
_publ_section_title
;
Structure prediction by ZEFSAII (Michael W. Deem and Ramdas Pophale) SiO2 
 PCOD8080509
Probable space group: C 2/M
;
_chemical_formula_sum "Si O2"
_cell_formula_units_Z 56
_cell_length_a 20.790527
_cell_length_b 9.011924
_cell_length_c 18.586179
_cell_angle_alpha 90.000000
_cell_angle_beta 122.914731
_cell_angle_gamma 90.000000
_cell_volume 2923.368635
_symmetry_space_group_name_H-M "C 2/M"
_symmetry_group_IT_number 12
_symmetry_cell_setting 'monoclinic'
loop_
_space_group_symop_operation_xyz
x,y,z
-x,y,-z
-x,-y,-z
x,-y,z
1/2+x,1/2+y,z
1/2-x,1/2+y,-z
1/2-x,1/2-y,-z
1/2+x,1/2-y,z
loop_
_atom_site_type_symbol
_atom_site_label
_atom_site_fract_x
_atom_site_fract_y
_atom_site_fract_z
Si Si1 0.667155 0.678975 0.935872
Si Si2 0.157382 0.161848 0.497218
Si Si3 0.785543 0.161187 0.627082
Si Si4 0.069015 0.335225 0.246496
Si Si5 0.037878 0.669039 0.950096
Si Si6 0.422446 0.823699 0.244511
Si Si7 0.507956 0.326306 0.587996
O O1 0.671234 0.500000 0.938214
O O2 0.608032 0.731730 0.962501
O O3 0.641077 0.738851 0.841522
O O4 0.750000 0.750000 0.000000
O O5 0.201665 0.148822 0.449902
O O6 0.205507 0.251631 0.586541
O O7 0.073883 0.228567 0.430054
O O8 0.145272 0.000000 0.525242
O O9 0.855945 0.235547 0.710097
O O10 0.775134 0.000000 0.655878
O O11 0.095343 0.500000 0.284538
O O12 0.033593 0.331039 0.146441
O O13 0.004968 0.278139 0.262778
O O14 0.068394 0.500000 0.979267
O O15 0.000000 0.733891 0.000000
O O16 0.425361 0.764655 0.328944
O O17 0.406826 0.000000 0.231089
O O18 0.500000 0.282873 0.500000
O O19 0.524435 0.500000 0.609994
#
# Coordination Sequence:
#
# PCOD8080509 Si02
#       7
#     8   8   8   8   8   8   8
#     4  11  22  38  62  89 118 150 193 242 291 349
#     4   9  18  31  46  68  99 131 166 209 257 306
#     4  10  18  28  47  72  97 128 167 212 256 302
#     4   9  17  30  51  77 104 137 174 217 265 319
#     4   9  19  37  59  85 117 151 187 229 283 344
#     4  10  20  35  56  81 109 142 186 232 280 335
#     4  10  20  35  54  76 105 143 185 227 274 328
#
# _framework density 19.155984
#
# number of rings (size 3 to 8) (size 9 to 14) (size 15 to 20)
#    0.000    2.286    1.429    3.000    0.000    4.000 
#    0.000    1.429    0.000    3.429    0.000    0.000 
#    0.000    0.000    0.000    0.000    0.000    0.000 
#
# Total GULP energy -346949.130337 kJ/mol
# GULP energy per Si atom -12391.040369 kJ/mol
# Density = 1.911238 g / cm^3
# Si number density = 19.155984 Si / 1000 Ang^3
#
#
#
# Elastic Constant Matrix: (Units=GPa)
#
#
# Indices 1 2 3 4 5 6 
#
# 1 47.5788 35.4860 45.3483 0.0000 2.4301 0.0000
# 2 35.4860 113.1890 64.1704 0.0000 14.4705 0.0000
# 3 45.3483 64.1704 127.0556 0.0000 9.6930 0.0000
# 4 0.0000 0.0000 0.0000 33.9633 0.0000 6.4891
# 5 2.4301 14.4705 9.6930 0.0000 31.1612 0.0000
# 6 0.0000 0.0000 0.0000 6.4891 0.0000 19.5024
#
#
#
# Elastic Compliance Matrix: (Units=1/GPa)
#
#
# Indices 1 2 3 4 5 6 
#
# 1 0.034227 -0.005681 -0.009572 0.000000 0.002946 0.000000
# 2 -0.005681 0.013802 -0.004597 0.000000 -0.004536 0.000000
# 3 -0.009572 -0.004597 0.013714 0.000000 -0.001385 0.000000
# 4 0.000000 0.000000 0.000000 0.031442 0.000000 -0.010462
# 5 0.002946 -0.004536 -0.001385 0.000000 0.034399 0.000000
# 6 0.000000 0.000000 0.000000 -0.010462 0.000000 0.054757
#
#
# Mechanical properties :
#
#
# Convention : Reuss Voigt Hill
#
# Bulk Modulus (GPa) = 45.36365 64.20363 54.78364
# Shear Modulus (GPa) = 21.79697 26.44661 24.12179
#
# Velocity S-wave (km/s) = 3.37689 3.71966 3.55241
# Velocity P-wave (km/s) = 6.23996 7.21366 6.74440
#
# Compressibility (1/GPa) = 0.02204408
#
# Stress axis : x y z
#
# Youngs Moduli (GPa) = 29.21636 72.45350 72.91558
#
# Poissons Ratio (x) = 0.41158 0.69795
# Poissons Ratio (y) = 0.16597 0.33521
# Poissons Ratio (z) = 0.27966 0.33308
#
# Static dielectric constant tensor:
#      x y z
#    x 3.300520 0.000000 0.081130 
#    y 0.000000 3.699970 0.000000 
#    z 0.081130 0.000000 3.525350 
# 
# 
# High freq. dielectric constant tensor:
#      x y z
#    x 1.714980 0.000000 0.010680 
#    y 0.000000 1.745910 0.000000 
#    z 0.010680 0.000000 1.748260 
# 
# From -- ./inp_files/288489.got.cif
#   From: 2010.06.25/outbox.cif.g09.slc.cpg/sg12_145_cif.got.tgz:288489.got - 2010.06.28 00:19:55.
