data_PCOD8080862
_publ_section_title
;
Structure prediction by ZEFSAII (Michael W. Deem and Ramdas Pophale) SiO2 
 PCOD8080862
Probable space group: C 2/M
;
_chemical_formula_sum "Si O2"
_cell_formula_units_Z 48
_cell_length_a 22.692171
_cell_length_b 8.904418
_cell_length_c 15.955862
_cell_angle_alpha 90.000000
_cell_angle_beta 59.578496
_cell_angle_gamma 90.000000
_cell_volume 2780.175254
_symmetry_space_group_name_H-M "C 2/M"
_symmetry_group_IT_number 12
_symmetry_cell_setting 'monoclinic'
loop_
_space_group_symop_operation_xyz
x,y,z
-x,y,-z
-x,-y,-z
x,-y,z
1/2+x,1/2+y,z
1/2-x,1/2+y,-z
1/2-x,1/2-y,-z
1/2+x,1/2-y,z
loop_
_atom_site_type_symbol
_atom_site_label
_atom_site_fract_x
_atom_site_fract_y
_atom_site_fract_z
Si Si1 0.268295 0.825191 0.356030
Si Si2 0.997513 0.321486 0.407287
Si Si3 0.650789 0.174936 0.537278
Si Si4 0.627596 0.824472 0.217935
Si Si5 0.815783 0.675862 0.992510
Si Si6 0.773347 0.822063 0.179395
O O1 0.324485 0.791137 0.386620
O O2 0.194573 0.766938 0.438463
O O3 0.293214 0.737159 0.256339
O O4 0.262783 0.000000 0.339438
O O5 0.002586 0.500000 0.403979
O O6 0.927269 0.270688 0.413851
O O7 0.000000 0.258707 0.500000
O O8 0.061039 0.250948 0.309473
O O9 0.659139 0.000000 0.508424
O O10 0.697512 0.761788 0.209223
O O11 0.627255 0.000000 0.236566
O O12 0.624349 0.794853 0.119468
O O13 0.803851 0.500000 0.014785
O O14 0.828639 0.754561 0.073111
O O15 0.750000 0.750000 0.000000
O O16 0.778541 0.000000 0.172999
#
# Coordination Sequence:
#
# PCOD8080862 Si02
#       6
#     8   8   8   8   8   8
#     4  10  19  30  45  66  92 119 148 185 225 265
#     4   9  15  25  45  70  92 115 146 182 218 261
#     4   9  18  31  47  67  90 118 151 183 219 266
#     4   8  15  26  43  68  93 116 145 184 224 262
#     4   9  16  27  43  66  95 122 150 185 226 268
#     4  10  18  29  47  69  90 116 153 190 227 268
#
# _framework density 17.265097999999998
#
# number of rings (size 3 to 8) (size 9 to 14) (size 15 to 20)
#    0.000    2.833    0.000    3.500    0.000    3.333 
#    0.000    0.000    0.000   10.500    0.000    7.000 
#    0.000    0.000    0.000    0.000    0.000    0.000 
#
# Total GULP energy -297467.070415 kJ/mol
# GULP energy per Si atom -12394.461267 kJ/mol
# Density = 1.722580 g / cm^3
# Si number density = 17.265098 Si / 1000 Ang^3
#
#
#
# Elastic Constant Matrix: (Units=GPa)
#
#
# Indices 1 2 3 4 5 6 
#
# 1 72.6049 17.7886 50.6925 0.0000 -1.7724 0.0000
# 2 17.7886 60.3217 46.1131 0.0000 6.5666 0.0000
# 3 50.6925 46.1131 159.6913 0.0000 6.9972 0.0000
# 4 0.0000 0.0000 0.0000 29.0855 0.0000 4.1090
# 5 -1.7724 6.5666 6.9972 0.0000 24.2186 0.0000
# 6 0.0000 0.0000 0.0000 4.1090 0.0000 15.4959
#
#
#
# Elastic Compliance Matrix: (Units=1/GPa)
#
#
# Indices 1 2 3 4 5 6 
#
# 1 0.018013 -0.001526 -0.005422 0.000000 0.003299 0.000000
# 2 -0.001526 0.021802 -0.005618 0.000000 -0.004400 0.000000
# 3 -0.005422 -0.005618 0.009679 0.000000 -0.001670 0.000000
# 4 0.000000 0.000000 0.000000 0.035720 0.000000 -0.009472
# 5 0.003299 -0.004400 -0.001670 0.000000 0.043207 0.000000
# 6 0.000000 0.000000 0.000000 -0.009472 0.000000 0.067045
#
#
# Mechanical properties :
#
#
# Convention : Reuss Voigt Hill
#
# Bulk Modulus (GPa) = 41.04966 57.97847 49.51406
# Shear Modulus (GPa) = 21.86091 25.62824 23.74458
#
# Velocity S-wave (km/s) = 3.56222 3.85697 3.71252
# Velocity P-wave (km/s) = 6.38333 7.31363 6.86426
#
# Compressibility (1/GPa) = 0.02436074
#
# Stress axis : x y z
#
# Youngs Moduli (GPa) = 55.51484 45.86787 103.31920
#
# Poissons Ratio (x) = 0.07001 0.56019
# Poissons Ratio (y) = 0.08473 0.58048
# Poissons Ratio (z) = 0.30100 0.25770
#
# Static dielectric constant tensor:
#      x y z
#    x 3.074250 0.000000 -0.039940 
#    y 0.000000 3.069550 0.000000 
#    z -0.039940 0.000000 3.749690 
# 
# 
# High freq. dielectric constant tensor:
#      x y z
#    x 1.630330 0.000000 0.009370 
#    y 0.000000 1.645160 0.000000 
#    z 0.009370 0.000000 1.682500 
# 
# From -- ./inp_files/229854.got.cif
#   From: 2010.06.25/outbox.cif.g09.slc.cpg/sg12_115_cif.got.tgz:229854.got - 2010.06.28 00:19:55.
