data_PCOD8080076
_publ_section_title
;
Structure prediction by ZEFSAII (Michael W. Deem and Ramdas Pophale) SiO2 
 PCOD8080076
Probable space group: C 2/M
;
_chemical_formula_sum "Si O2"
_cell_formula_units_Z 64
_cell_length_a 23.260227
_cell_length_b 9.188767
_cell_length_c 17.285023
_cell_angle_alpha 90.000000
_cell_angle_beta 77.025577
_cell_angle_gamma 90.000000
_cell_volume 3600.060469
_symmetry_space_group_name_H-M "C 2/M"
_symmetry_group_IT_number 12
_symmetry_cell_setting 'monoclinic'
loop_
_space_group_symop_operation_xyz
x,y,z
-x,y,-z
-x,-y,-z
x,-y,z
1/2+x,1/2+y,z
1/2-x,1/2+y,-z
1/2-x,1/2-y,-z
1/2+x,1/2-y,z
loop_
_atom_site_type_symbol
_atom_site_label
_atom_site_fract_x
_atom_site_fract_y
_atom_site_fract_z
Si Si1 0.961715 0.826667 0.779458
Si Si2 0.318576 0.670538 0.404078
Si Si3 0.133578 0.166262 0.312458
Si Si4 0.373913 0.672743 0.932349
Si Si5 0.183030 0.329780 0.439012
Si Si6 0.226491 0.165881 0.150314
Si Si7 0.592968 0.326939 0.754395
Si Si8 0.652805 0.672885 0.891065
O O1 0.925268 0.779174 0.714372
O O2 0.929537 0.765410 0.866773
O O3 0.027988 0.763726 0.755347
O O4 0.962194 0.000000 0.783541
O O5 0.327363 0.500000 0.416798
O O6 0.251416 0.705812 0.400422
O O7 0.336853 0.755111 0.475572
O O8 0.360623 0.729505 0.323187
O O9 0.142258 0.268122 0.383537
O O10 0.189379 0.179945 0.239704
O O11 0.126191 0.000000 0.342588
O O12 0.377368 0.500000 0.929729
O O13 0.312894 0.720459 0.910052
O O14 0.374960 0.731716 0.019973
O O15 0.171718 0.500000 0.450026
O O16 0.281731 0.270140 0.140863
O O17 0.247406 0.000000 0.131522
O O18 0.592015 0.500000 0.753876
O O19 0.612113 0.270447 0.833286
O O20 0.656583 0.500000 0.890495
#
# Coordination Sequence:
#
# PCOD8080076 Si02
#       8
#     8   8   8   8   8   8   8   8
#     4   8  15  29  47  67  92 122 156 192 228 266
#     4   9  18  32  48  69  97 123 148 182 225 274
#     4   9  17  30  49  69  90 121 158 190 222 268
#     4   8  15  27  43  66  95 123 153 191 230 268
#     4  10  19  31  50  74  97 119 145 182 229 277
#     4   9  17  29  44  65  95 127 155 184 224 275
#     4   9  17  29  46  68  93 120 153 194 232 265
#     4  10  18  27  44  71  97 120 151 193 235 269
#
# _framework density 17.777479
#
# number of rings (size 3 to 8) (size 9 to 14) (size 15 to 20)
#    0.000    3.000    0.000    3.000    0.000    2.500 
#    0.000    3.750    0.000    6.000    0.000    0.875 
#    0.000    0.000    0.000    0.000    0.000    0.000 
#
# Total GULP energy -396705.949200 kJ/mol
# GULP energy per Si atom -12397.060912 kJ/mol
# Density = 1.773702 g / cm^3
# Si number density = 17.777479 Si / 1000 Ang^3
#
#
#
# Elastic Constant Matrix: (Units=GPa)
#
#
# Indices 1 2 3 4 5 6 
#
# 1 119.2893 21.1352 74.3718 0.0000 10.6349 0.0000
# 2 21.1352 28.5840 33.5528 0.0000 7.2305 0.0000
# 3 74.3718 33.5528 129.7299 0.0000 25.1586 0.0000
# 4 0.0000 0.0000 0.0000 15.9063 0.0000 -0.3149
# 5 10.6349 7.2305 25.1586 0.0000 22.0573 0.0000
# 6 0.0000 0.0000 0.0000 -0.3149 0.0000 17.8480
#
#
#
# Elastic Compliance Matrix: (Units=1/GPa)
#
#
# Indices 1 2 3 4 5 6 
#
# 1 0.013227 -0.001371 -0.007805 0.000000 0.002974 0.000000
# 2 -0.001371 0.050455 -0.011793 0.000000 -0.002427 0.000000
# 3 -0.007805 -0.011793 0.017660 0.000000 -0.012514 0.000000
# 4 0.000000 0.000000 0.000000 0.062890 0.000000 0.001109
# 5 0.002974 -0.002427 -0.012514 0.000000 0.058971 0.000000
# 6 0.000000 0.000000 0.000000 0.001109 0.000000 0.056048
#
#
# Mechanical properties :
#
#
# Convention : Reuss Voigt Hill
#
# Bulk Modulus (GPa) = 25.37795 59.52473 42.45134
# Shear Modulus (GPa) = 15.90721 21.06522 18.48621
#
# Velocity S-wave (km/s) = 2.99456 3.44603 3.22820
# Velocity P-wave (km/s) = 5.12473 7.02776 6.15029
#
# Compressibility (1/GPa) = 0.03940429
#
# Stress axis : x y z
#
# Youngs Moduli (GPa) = 75.60464 19.81965 56.62621
#
# Poissons Ratio (x) = 0.02716 0.44197
# Poissons Ratio (y) = 0.10362 0.66779
# Poissons Ratio (z) = 0.59009 0.23373
#
# Static dielectric constant tensor:
#      x y z
#    x 3.405900 0.000000 0.021820 
#    y 0.000000 2.879810 0.000000 
#    z 0.021820 0.000000 3.499200 
# 
# 
# High freq. dielectric constant tensor:
#      x y z
#    x 1.681610 0.000000 0.007050 
#    y 0.000000 1.643700 0.000000 
#    z 0.007050 0.000000 1.695420 
# 
# From -- ./inp_files/287589.got.cif
#   From: 2010.06.25/outbox.cif.g09.slc.cpg/sg12_144_cif.got.tgz:287589.got - 2010.06.28 00:19:55.
