data_PCOD8080244
_publ_section_title
;
Structure prediction by ZEFSAII (Michael W. Deem and Ramdas Pophale) SiO2 
 PCOD8080244
Probable space group: C 2/M
;
_chemical_formula_sum "Si O2"
_cell_formula_units_Z 56
_cell_length_a 32.078461
_cell_length_b 9.063574
_cell_length_c 16.135657
_cell_angle_alpha 90.000000
_cell_angle_beta 130.358908
_cell_angle_gamma 90.000000
_cell_volume 3574.837525
_symmetry_space_group_name_H-M "C 2/M"
_symmetry_group_IT_number 12
_symmetry_cell_setting 'monoclinic'
loop_
_space_group_symop_operation_xyz
x,y,z
-x,y,-z
-x,-y,-z
x,-y,z
1/2+x,1/2+y,z
1/2-x,1/2+y,-z
1/2-x,1/2-y,-z
1/2+x,1/2-y,z
loop_
_atom_site_type_symbol
_atom_site_label
_atom_site_fract_x
_atom_site_fract_y
_atom_site_fract_z
Si Si1 0.731259 0.172366 0.102092
Si Si2 0.699881 0.331804 0.397942
Si Si3 0.431248 0.169849 0.325469
Si Si4 0.443587 0.830550 0.531333
Si Si5 0.352491 0.327467 0.508218
Si Si6 0.747222 0.326320 0.294092
Si Si7 0.332749 0.671724 0.118767
O O1 0.728052 0.250396 0.185921
O O2 0.790140 0.205124 0.137495
O O3 0.720522 0.000000 0.099393
O O4 0.683517 0.238799 0.983930
O O5 0.716091 0.500000 0.427131
O O6 0.750000 0.250000 0.500000
O O7 0.648263 0.297879 0.392086
O O8 0.697580 0.293694 0.296705
O O9 0.492379 0.197470 0.371545
O O10 0.427123 0.211205 0.416690
O O11 0.392172 0.276268 0.223742
O O12 0.414071 0.000000 0.289991
O O13 0.411041 0.727308 0.552544
O O14 0.428878 0.000000 0.530225
O O15 0.345654 0.500000 0.479064
O O16 0.304435 0.240572 0.399264
O O17 0.755803 0.500000 0.289967
O O18 0.334160 0.500000 0.098167
#
# Coordination Sequence:
#
# PCOD8080244 Si02
#       7
#     8   8   8   8   8   8   8
#     4  10  20  32  46  66  90 116 147 181 217 258
#     4   8  16  28  41  60  87 117 146 177 215 258
#     4   9  18  32  47  63  88 119 149 183 218 255
#     4   9  18  31  46  65  88 118 152 180 215 260
#     4  10  18  28  43  65  92 119 148 182 218 257
#     4  10  18  29  45  64  89 120 150 180 216 260
#     4  10  20  32  46  65  89 117 148 181 217 258
#
# _framework density 15.665048000000001
#
# number of rings (size 3 to 8) (size 9 to 14) (size 15 to 20)
#    0.000    2.571    0.000    3.429    0.000    6.286 
#    0.000    1.429    0.000    0.000    0.000    1.000 
#    0.000    8.000    0.000    0.000    0.000    0.000 
#
# Total GULP energy -347015.611915 kJ/mol
# GULP energy per Si atom -12393.414711 kJ/mol
# Density = 1.562939 g / cm^3
# Si number density = 15.665048 Si / 1000 Ang^3
#
#
#
# Elastic Constant Matrix: (Units=GPa)
#
#
# Indices 1 2 3 4 5 6 
#
# 1 107.0306 53.1678 50.2417 0.0000 -18.0902 0.0000
# 2 53.1678 84.4924 49.8783 0.0000 -12.2271 0.0000
# 3 50.2417 49.8783 88.7031 0.0000 -9.2163 0.0000
# 4 0.0000 0.0000 0.0000 28.6166 0.0000 0.2268
# 5 -18.0902 -12.2271 -9.2163 0.0000 24.8315 0.0000
# 6 0.0000 0.0000 0.0000 0.2268 0.0000 25.8057
#
#
#
# Elastic Compliance Matrix: (Units=1/GPa)
#
#
# Indices 1 2 3 4 5 6 
#
# 1 0.015765 -0.006124 -0.004791 0.000000 0.006692 0.000000
# 2 -0.006124 0.020772 -0.007918 0.000000 0.002828 0.000000
# 3 -0.004791 -0.007918 0.018380 0.000000 -0.000567 0.000000
# 4 0.000000 0.000000 0.000000 0.034947 0.000000 -0.000307
# 5 0.006692 0.002828 -0.000567 0.000000 0.046328 0.000000
# 6 0.000000 0.000000 0.000000 -0.000307 0.000000 0.038754
#
#
# Mechanical properties :
#
#
# Convention : Reuss Voigt Hill
#
# Bulk Modulus (GPa) = 57.96150 65.20018 61.58084
# Shear Modulus (GPa) = 22.89765 24.31334 23.60550
#
# Velocity S-wave (km/s) = 3.82737 3.94391 3.88608
# Velocity P-wave (km/s) = 7.52413 7.90260 7.71569
#
# Compressibility (1/GPa) = 0.01725283
#
# Stress axis : x y z
#
# Youngs Moduli (GPa) = 63.43186 48.14072 54.40587
#
# Poissons Ratio (x) = 0.29481 0.26063
# Poissons Ratio (y) = 0.38845 0.43079
# Poissons Ratio (z) = 0.30387 0.38118
#
# Static dielectric constant tensor:
#      x y z
#    x 3.384720 0.000000 -0.300050 
#    y 0.000000 3.054680 0.000000 
#    z -0.300050 0.000000 2.801550 
# 
# 
# High freq. dielectric constant tensor:
#      x y z
#    x 1.596800 0.000000 -0.016080 
#    y 0.000000 1.615700 0.000000 
#    z -0.016080 0.000000 1.572960 
# 
# From -- ./inp_files/237426.got.cif
#   From: 2010.06.25/outbox.cif.g09.slc.cpg/sg12_119_cif.got.tgz:237426.got - 2010.06.28 00:19:55.
