data_PCOD8080877
_publ_section_title
;
Structure prediction by ZEFSAII (Michael W. Deem and Ramdas Pophale) SiO2 
 PCOD8080877
Probable space group: C 2/M
;
_chemical_formula_sum "Si O2"
_cell_formula_units_Z 64
_cell_length_a 19.460378
_cell_length_b 16.915302
_cell_length_c 12.438647
_cell_angle_alpha 90.000000
_cell_angle_beta 120.848165
_cell_angle_gamma 90.000000
_cell_volume 3515.274281
_symmetry_space_group_name_H-M "C 2/M"
_symmetry_group_IT_number 12
_symmetry_cell_setting 'monoclinic'
loop_
_space_group_symop_operation_xyz
x,y,z
-x,y,-z
-x,-y,-z
x,-y,z
1/2+x,1/2+y,z
1/2-x,1/2+y,-z
1/2-x,1/2-y,-z
1/2+x,1/2-y,z
loop_
_atom_site_type_symbol
_atom_site_label
_atom_site_fract_x
_atom_site_fract_y
_atom_site_fract_z
Si Si1 0.663024 0.411031 0.715955
Si Si2 0.016222 0.196869 0.637259
Si Si3 0.661191 0.093382 0.066987
Si Si4 0.704305 0.905723 0.512807
Si Si5 0.586923 0.090577 0.595116
Si Si6 0.366880 0.590729 0.553084
Si Si7 0.565345 0.851662 0.801249
Si Si8 0.402609 0.908869 0.761463
O O1 0.637205 0.500000 0.723149
O O2 0.594889 0.355640 0.707795
O O3 0.745794 0.389163 0.839189
O O4 0.672674 0.401586 0.595919
O O5 0.032926 0.268517 0.731613
O O6 0.000000 0.222197 0.500000
O O7 0.942536 0.147589 0.626643
O O8 0.611397 0.124965 0.130431
O O9 0.645807 0.000000 0.030950
O O10 0.634124 0.149792 0.946838
O O11 0.659004 0.870850 0.582442
O O12 0.797874 0.881111 0.582014
O O13 0.656563 0.869110 0.373019
O O14 0.700057 0.000000 0.507839
O O15 0.500000 0.130086 0.500000
O O16 0.605475 0.100865 0.735003
O O17 0.582274 0.000000 0.556910
O O18 0.393593 0.500000 0.595866
O O19 0.493162 0.899837 0.796115
O O20 0.379302 0.000000 0.749905
#
# Coordination Sequence:
#
# PCOD8080877 Si02
#       8
#     8   8   8   8   8   8   8   8
#     4   9  17  34  58  80 100 126 171 227 272 304
#     4  10  22  35  50  76 106 141 175 209 261 316
#     4  10  20  34  56  82 103 132 177 221 259 302
#     4   9  16  28  52  79 100 128 170 219 265 300
#     4  10  18  29  47  70 102 144 180 207 246 302
#     4   9  16  33  58  80 101 126 170 228 272 303
#     4  12  22  32  46  72 114 148 171 199 247 315
#     4  10  18  32  53  77 102 134 176 220 258 296
#
# _framework density 18.20626
#
# number of rings (size 3 to 8) (size 9 to 14) (size 15 to 20)
#    0.000    2.125    2.500    2.250    0.000    3.000 
#    0.000    1.875    0.000    1.500    0.000    0.000 
#    0.000    9.000    0.000    0.000    0.000    0.000 
#
# Total GULP energy -396593.197812 kJ/mol
# GULP energy per Si atom -12393.537432 kJ/mol
# Density = 1.816482 g / cm^3
# Si number density = 18.206260 Si / 1000 Ang^3
#
#
#
# Elastic Constant Matrix: (Units=GPa)
#
#
# Indices 1 2 3 4 5 6 
#
# 1 147.5398 34.3617 62.7189 0.0000 -5.8963 0.0000
# 2 34.3617 47.0552 34.5449 0.0000 4.9493 0.0000
# 3 62.7189 34.5449 114.2918 0.0000 -5.5112 0.0000
# 4 0.0000 0.0000 0.0000 23.7612 0.0000 1.4326
# 5 -5.8963 4.9493 -5.5112 0.0000 25.4689 0.0000
# 6 0.0000 0.0000 0.0000 1.4326 0.0000 17.2084
#
#
#
# Elastic Compliance Matrix: (Units=1/GPa)
#
#
# Indices 1 2 3 4 5 6 
#
# 1 0.009496 -0.004399 -0.003773 0.000000 0.002237 0.000000
# 2 -0.004399 0.030710 -0.007281 0.000000 -0.008562 0.000000
# 3 -0.003773 -0.007281 0.013185 0.000000 0.003394 0.000000
# 4 0.000000 0.000000 0.000000 0.042298 0.000000 -0.003521
# 5 0.002237 -0.008562 0.003394 0.000000 0.042180 0.000000
# 6 0.000000 0.000000 0.000000 -0.003521 0.000000 0.058404
#
#
# Mechanical properties :
#
#
# Convention : Reuss Voigt Hill
#
# Bulk Modulus (GPa) = 44.47768 63.57087 54.02428
# Shear Modulus (GPa) = 21.30621 25.10512 23.20566
#
# Velocity S-wave (km/s) = 3.42463 3.71742 3.57402
# Velocity P-wave (km/s) = 6.33406 7.30879 6.83882
#
# Compressibility (1/GPa) = 0.02248319
#
# Stress axis : x y z
#
# Youngs Moduli (GPa) = 105.30871 32.56287 75.84647
#
# Poissons Ratio (x) = 0.14326 0.28620
# Poissons Ratio (y) = 0.46329 0.55222
# Poissons Ratio (z) = 0.39737 0.23708
#
# Static dielectric constant tensor:
#      x y z
#    x 3.574690 0.000000 -0.076700 
#    y 0.000000 3.060080 0.000000 
#    z -0.076700 0.000000 3.245630 
# 
# 
# High freq. dielectric constant tensor:
#      x y z
#    x 1.718780 0.000000 -0.000540 
#    y 0.000000 1.674140 0.000000 
#    z -0.000540 0.000000 1.682540 
# 
# From -- ./inp_files/168507.got.cif
#   From: 2010.06.25/outbox.cif.g09.slc.cpg/sg12_85_cif.got.tgz:168507.got - 2010.06.28 00:19:55.
