data_PCOD8080491
_publ_section_title
;
Structure prediction by ZEFSAII (Michael W. Deem and Ramdas Pophale) SiO2 
 PCOD8080491
Probable space group: C 2/M
;
_chemical_formula_sum "Si O2"
_cell_formula_units_Z 48
_cell_length_a 21.483629
_cell_length_b 25.178692
_cell_length_c 17.779339
_cell_angle_alpha 90.000000
_cell_angle_beta 161.626356
_cell_angle_gamma 90.000000
_cell_volume 3031.516115
_symmetry_space_group_name_H-M "C 2/M"
_symmetry_group_IT_number 12
_symmetry_cell_setting 'monoclinic'
loop_
_space_group_symop_operation_xyz
x,y,z
-x,y,-z
-x,-y,-z
x,-y,z
1/2+x,1/2+y,z
1/2-x,1/2+y,-z
1/2-x,1/2-y,-z
1/2+x,1/2-y,z
loop_
_atom_site_type_symbol
_atom_site_label
_atom_site_fract_x
_atom_site_fract_y
_atom_site_fract_z
Si Si1 0.490997 0.835771 0.626982
Si Si2 0.072655 0.221702 0.503268
Si Si3 0.500000 0.087552 0.500000
Si Si4 0.000000 0.760926 0.000000
Si Si5 0.136254 0.194775 0.877279
Si Si6 0.921807 0.833652 0.775218
Si Si7 0.928778 0.941808 0.001450
O O1 0.513719 0.780303 0.609262
O O2 0.451536 0.879046 0.518839
O O3 0.312650 0.833080 0.481731
O O4 0.692635 0.847947 0.904972
O O5 0.310909 0.222940 0.772599
O O6 0.000000 0.199834 0.500000
O O7 0.981698 0.182409 0.335225
O O8 0.307722 0.052319 0.265711
O O9 0.033634 0.799812 0.967620
O O10 0.970767 0.194715 0.752727
O O11 0.250000 0.250000 0.000000
O O12 0.998174 0.894572 0.860738
O O13 0.013835 0.000000 0.123142
O O14 0.000000 0.926991 0.000000
#
# Coordination Sequence:
#
# PCOD8080491 Si02
#       7
#     8   8   4   4   8   8   8
#     4  10  19  29  50  66  91 130 163 197 235 288
#     4  10  19  30  44  65  90 122 158 202 234 278
#     4  12  17  32  50  68  92 138 166 194 237 278
#     4  10  18  28  47  64  88 130 159 194 232 286
#     4  10  21  31  46  68  94 123 166 207 235 285
#     4  11  19  33  47  68  95 130 164 199 241 277
#     4  11  21  31  47  72  96 127 170 204 233 280
#
# _framework density 15.833660999999999
#
# number of rings (size 3 to 8) (size 9 to 14) (size 15 to 20)
#    0.000    1.500    5.000    3.250    0.000    7.333 
#    0.000    0.000    0.000    0.000    0.000    0.000 
#    0.000    0.667    0.000    2.750    0.000    0.333 
#
# Total GULP energy -297472.360124 kJ/mol
# GULP energy per Si atom -12394.681672 kJ/mol
# Density = 1.579762 g / cm^3
# Si number density = 15.833661 Si / 1000 Ang^3
#
#
#
# Elastic Constant Matrix: (Units=GPa)
#
#
# Indices 1 2 3 4 5 6 
#
# 1 123.6460 25.8934 45.0552 -0.0002 2.0910 0.0001
# 2 25.8934 35.3384 8.5244 -0.0003 -2.6838 -0.0001
# 3 45.0552 8.5244 102.0848 -0.0029 -0.6290 -0.0003
# 4 -0.0002 -0.0003 -0.0029 13.2443 -0.0007 2.1315
# 5 2.0910 -2.6838 -0.6290 -0.0007 31.0032 0.0002
# 6 0.0001 -0.0001 -0.0003 2.1315 0.0002 1.0933
#
#
#
# Elastic Compliance Matrix: (Units=1/GPa)
#
#
# Indices 1 2 3 4 5 6 
#
# 1 0.011225 -0.007287 -0.004355 -0.000001 -0.001476 -0.000001
# 2 -0.007287 0.033797 0.000415 0.000000 0.003426 0.000003
# 3 -0.004355 0.000415 0.011687 0.000003 0.000567 -0.000002
# 4 -0.000001 0.000000 0.000003 0.110026 0.000004 -0.214507
# 5 -0.001476 0.003426 0.000567 0.000004 0.032662 -0.000014
# 6 -0.000001 0.000003 -0.000002 -0.214507 -0.000014 1.332887
#
#
# Mechanical properties :
#
#
# Convention : Reuss Voigt Hill
#
# Bulk Modulus (GPa) = 29.19227 46.66837 37.93032
# Shear Modulus (GPa) = 3.19253 21.17458 12.18356
#
# Velocity S-wave (km/s) = 1.42150 3.66090 2.77694
# Velocity P-wave (km/s) = 4.60121 6.88533 5.85572
#
# Compressibility (1/GPa) = 0.03425564
#
# Stress axis : x y z
#
# Youngs Moduli (GPa) = 89.08337 29.58834 85.56742
#
# Poissons Ratio (x) = 0.21560 0.37264
# Poissons Ratio (y) = 0.64913 -0.03551
# Poissons Ratio (z) = 0.38796 -0.01228
#
# Static dielectric constant tensor:
#      x y z
#    x 3.070070 0.000000 -0.050360 
#    y 0.000000 2.667730 0.000000 
#    z -0.050360 0.000000 3.391760 
# 
# 
# High freq. dielectric constant tensor:
#      x y z
#    x 1.603760 0.000000 0.021730 
#    y 0.000000 1.553920 0.000000 
#    z 0.021730 0.000000 1.618830 
# 
# From -- ./inp_files/286582.got.cif
#   From: 2010.06.25/outbox.cif.g09.slc.cpg/sg12_144_cif.got.tgz:286582.got - 2010.06.28 00:19:55.
