data_PCOD8080823
_publ_section_title
;
Structure prediction by ZEFSAII (Michael W. Deem and Ramdas Pophale) SiO2 
 PCOD8080823
Probable space group: C 2/M
;
_chemical_formula_sum "Si O2"
_cell_formula_units_Z 48
_cell_length_a 22.874658
_cell_length_b 9.020143
_cell_length_c 20.826358
_cell_angle_alpha 90.000000
_cell_angle_beta 133.390753
_cell_angle_gamma 90.000000
_cell_volume 3122.682913
_symmetry_space_group_name_H-M "C 2/M"
_symmetry_group_IT_number 12
_symmetry_cell_setting 'monoclinic'
loop_
_space_group_symop_operation_xyz
x,y,z
-x,y,-z
-x,-y,-z
x,-y,z
1/2+x,1/2+y,z
1/2-x,1/2+y,-z
1/2-x,1/2-y,-z
1/2+x,1/2-y,z
loop_
_atom_site_type_symbol
_atom_site_label
_atom_site_fract_x
_atom_site_fract_y
_atom_site_fract_z
Si Si1 0.529126 0.335836 0.785720
Si Si2 0.857622 0.172230 0.622138
Si Si3 0.815501 0.672056 0.461869
Si Si4 0.182750 0.674360 0.906824
Si Si5 0.135177 0.834628 0.752896
Si Si6 0.090382 0.176349 0.579407
O O1 0.539628 0.500000 0.824398
O O2 0.436832 0.281929 0.722969
O O3 0.594251 0.224397 0.867209
O O4 0.548695 0.343708 0.723829
O O5 0.855801 0.271616 0.557471
O O6 0.780282 0.201818 0.608169
O O7 0.862275 0.000000 0.604894
O O8 0.835893 0.500000 0.469416
O O9 0.849295 0.759886 0.427214
O O10 0.192130 0.500000 0.917973
O O11 0.193002 0.730033 0.840392
O O12 0.250000 0.750000 0.000000
O O13 0.121455 0.766614 0.672126
O O14 0.173198 0.000000 0.777159
O O15 0.000000 0.235836 0.500000
O O16 0.091859 0.000000 0.577474
#
# Coordination Sequence:
#
# PCOD8080823 Si02
#       6
#     8   8   8   8   8   8
#     4   8  15  29  47  64  86 117 151 185 223 272
#     4   9  17  32  47  61  88 126 159 190 231 278
#     4  10  20  29  43  67  92 119 158 201 232 262
#     4  10  18  29  46  70  97 119 145 185 234 279
#     4   8  16  29  45  65  89 120 155 186 221 272
#     4  10  19  32  47  63  89 130 164 186 226 281
#
# _framework density 15.371396000000001
#
# number of rings (size 3 to 8) (size 9 to 14) (size 15 to 20)
#    1.000    1.833    0.000    2.500    0.000    5.000 
#    0.000    0.000    0.000    0.000    0.000    1.167 
#    0.000    9.333    0.000    0.000    0.000    0.000 
#
# Total GULP energy -297342.490564 kJ/mol
# GULP energy per Si atom -12389.270440 kJ/mol
# Density = 1.533641 g / cm^3
# Si number density = 15.371396 Si / 1000 Ang^3
#
#
#
# Elastic Constant Matrix: (Units=GPa)
#
#
# Indices 1 2 3 4 5 6 
#
# 1 65.6369 26.3923 46.6192 0.0000 6.6326 0.0000
# 2 26.3923 66.7346 51.3206 0.0000 6.8573 0.0000
# 3 46.6192 51.3206 118.5834 0.0000 12.7500 0.0000
# 4 0.0000 0.0000 0.0000 24.6029 0.0000 0.3503
# 5 6.6326 6.8573 12.7500 0.0000 23.8780 0.0000
# 6 0.0000 0.0000 0.0000 0.3503 0.0000 22.8965
#
#
#
# Elastic Compliance Matrix: (Units=1/GPa)
#
#
# Indices 1 2 3 4 5 6 
#
# 1 0.021575 -0.002971 -0.007048 0.000000 -0.001376 0.000000
# 2 -0.002971 0.022909 -0.008623 0.000000 -0.001149 0.000000
# 3 -0.007048 -0.008623 0.015340 0.000000 -0.003757 0.000000
# 4 0.000000 0.000000 0.000000 0.040654 0.000000 -0.000622
# 5 -0.001376 -0.001149 -0.003757 0.000000 0.044598 0.000000
# 6 0.000000 0.000000 0.000000 -0.000622 0.000000 0.043684
#
#
# Mechanical properties :
#
#
# Convention : Reuss Voigt Hill
#
# Bulk Modulus (GPa) = 44.36666 55.51324 49.93995
# Shear Modulus (GPa) = 21.40798 22.71700 22.06249
#
# Velocity S-wave (km/s) = 3.73596 3.84848 3.79264
# Velocity P-wave (km/s) = 6.89461 7.47936 7.19293
#
# Compressibility (1/GPa) = 0.02253945
#
# Stress axis : x y z
#
# Youngs Moduli (GPa) = 46.34988 43.65073 65.19083
#
# Poissons Ratio (x) = 0.12968 0.45948
# Poissons Ratio (y) = 0.13770 0.56215
# Poissons Ratio (z) = 0.32668 0.37640
#
# Static dielectric constant tensor:
#      x y z
#    x 2.800420 0.000000 0.120250 
#    y 0.000000 2.911800 0.000000 
#    z 0.120250 0.000000 2.807650 
# 
# 
# High freq. dielectric constant tensor:
#      x y z
#    x 1.563890 0.000000 0.014110 
#    y 0.000000 1.590730 0.000000 
#    z 0.014110 0.000000 1.572250 
# 
# From -- ./inp_files/323423.got.cif
#   From: 2010.06.25/outbox.cif.g09.slc.cpg/sg12_162_cif.got.tgz:323423.got - 2010.06.28 00:19:55.
