data_PCOD8080075
_publ_section_title
;
Structure prediction by ZEFSAII (Michael W. Deem and Ramdas Pophale) SiO2 
 PCOD8080075
Probable space group: C 2/M
;
_chemical_formula_sum "Si O2"
_cell_formula_units_Z 40
_cell_length_a 17.502170
_cell_length_b 13.162843
_cell_length_c 15.956248
_cell_angle_alpha 90.000000
_cell_angle_beta 144.686574
_cell_angle_gamma 90.000000
_cell_volume 2124.892287
_symmetry_space_group_name_H-M "C 2/M"
_symmetry_group_IT_number 12
_symmetry_cell_setting 'monoclinic'
loop_
_space_group_symop_operation_xyz
x,y,z
-x,y,-z
-x,-y,-z
x,-y,z
1/2+x,1/2+y,z
1/2-x,1/2+y,-z
1/2-x,1/2-y,-z
1/2+x,1/2-y,z
loop_
_atom_site_type_symbol
_atom_site_label
_atom_site_fract_x
_atom_site_fract_y
_atom_site_fract_z
Si Si1 0.525408 0.249533 0.826595
Si Si2 0.094233 0.617245 0.412508
Si Si3 0.175821 0.613967 0.762882
Si Si4 0.667708 0.382237 0.251840
Si Si5 0.740149 0.614321 0.971097
O O1 0.411500 0.187291 0.675552
O O2 0.460779 0.314288 0.843656
O O3 0.635553 0.170592 0.961710
O O4 0.603057 0.325881 0.831447
O O5 0.066779 0.500000 0.361425
O O6 0.234105 0.628558 0.581722
O O7 0.974854 0.654772 0.366748
O O8 0.167310 0.500000 0.720702
O O9 0.264982 0.667216 0.770959
O O10 0.242945 0.619508 0.913387
O O11 0.622790 0.500000 0.200569
O O12 0.730574 0.500000 0.928203
#
# Coordination Sequence:
#
# PCOD8080075 Si02
#       5
#     8   8   8   8   8
#     4  10  18  28  44  67  92 118 149 180 216 261
#     4   9  17  30  46  66  93 121 146 175 216 264
#     4   8  15  28  45  65  91 119 141 172 224 273
#     4  10  18  27  44  71  97 116 140 178 221 266
#     4   9  18  32  47  64  89 119 149 182 221 263
#
# _framework density 18.824482
#
# number of rings (size 3 to 8) (size 9 to 14) (size 15 to 20)
#    0.000    2.800    0.000    3.600    0.000    3.200 
#    0.000    3.000    0.000    0.000    0.000   61.600 
#    0.000   59.200    0.000    0.000    0.000    0.000 
#
# Total GULP energy -247800.632242 kJ/mol
# GULP energy per Si atom -12390.031612 kJ/mol
# Density = 1.878164 g / cm^3
# Si number density = 18.824482 Si / 1000 Ang^3
#
#
#
# Elastic Constant Matrix: (Units=GPa)
#
#
# Indices 1 2 3 4 5 6 
#
# 1 77.6624 26.8959 1.9287 -0.0001 16.3057 0.0000
# 2 26.8959 97.8627 10.7234 0.0000 11.7578 0.0000
# 3 1.9287 10.7234 32.5606 -0.0001 9.9759 0.0000
# 4 -0.0001 0.0000 -0.0001 18.6758 0.0000 11.1300
# 5 16.3057 11.7578 9.9759 0.0000 18.9771 0.0000
# 6 0.0000 0.0000 0.0000 11.1300 0.0000 28.4218
#
#
#
# Elastic Compliance Matrix: (Units=1/GPa)
#
#
# Indices 1 2 3 4 5 6 
#
# 1 0.017103 -0.003408 0.004726 0.000000 -0.015068 0.000000
# 2 -0.003408 0.011812 -0.002793 0.000000 -0.002922 0.000000
# 3 0.004726 -0.002793 0.038222 0.000000 -0.022422 0.000000
# 4 0.000000 0.000000 0.000000 0.069846 0.000000 -0.027352
# 5 -0.015068 -0.002922 -0.022422 0.000000 0.079239 0.000000
# 6 0.000000 0.000000 0.000000 -0.027352 0.000000 0.045895
#
#
# Mechanical properties :
#
#
# Convention : Reuss Voigt Hill
#
# Bulk Modulus (GPa) = 15.57967 31.90907 23.74437
# Shear Modulus (GPa) = 17.45431 24.45078 20.95255
#
# Velocity S-wave (km/s) = 3.04832 3.60791 3.33986
# Velocity P-wave (km/s) = 4.54796 5.86035 5.24536
#
# Compressibility (1/GPa) = 0.06418621
#
# Stress axis : x y z
#
# Youngs Moduli (GPa) = 58.47033 84.65877 26.16321
#
# Poissons Ratio (x) = 0.28850 -0.12364
# Poissons Ratio (y) = 0.19926 0.07307
# Poissons Ratio (z) = -0.27632 0.23645
#
# Static dielectric constant tensor:
#      x y z
#    x 3.299580 0.000000 0.220390 
#    y 0.000000 3.580920 0.000000 
#    z 0.220390 0.000000 3.295400 
# 
# 
# High freq. dielectric constant tensor:
#      x y z
#    x 1.706660 0.000000 0.029850 
#    y 0.000000 1.717560 0.000000 
#    z 0.029850 0.000000 1.717060 
# 
# From -- ./inp_files/72353.got.cif
#   From: 2010.06.25/outbox.cif.g09.slc.cpg/sg12_37_cif.got.tgz:72353.got - 2010.06.28 00:19:55.
