data_PCOD8080033
_publ_section_title
;
Structure prediction by ZEFSAII (Michael W. Deem and Ramdas Pophale) SiO2 
 PCOD8080033
Probable space group: C 2/M
;
_chemical_formula_sum "Si O2"
_cell_formula_units_Z 56
_cell_length_a 27.809710
_cell_length_b 8.785054
_cell_length_c 17.630636
_cell_angle_alpha 90.000000
_cell_angle_beta 128.098010
_cell_angle_gamma 90.000000
_cell_volume 3389.686823
_symmetry_space_group_name_H-M "C 2/M"
_symmetry_group_IT_number 12
_symmetry_cell_setting 'monoclinic'
loop_
_space_group_symop_operation_xyz
x,y,z
-x,y,-z
-x,-y,-z
x,-y,z
1/2+x,1/2+y,z
1/2-x,1/2+y,-z
1/2-x,1/2-y,-z
1/2+x,1/2-y,z
loop_
_atom_site_type_symbol
_atom_site_label
_atom_site_fract_x
_atom_site_fract_y
_atom_site_fract_z
Si Si1 0.040107 0.175349 0.209332
Si Si2 0.527255 0.820399 0.350942
Si Si3 0.070596 0.328189 0.090176
Si Si4 0.183913 0.320204 0.926765
Si Si5 0.099609 0.178433 0.724751
Si Si6 0.571005 0.167862 0.550084
Si Si7 0.399670 0.675320 0.029839
O O1 0.058092 0.263613 0.303557
O O2 0.079803 0.246987 0.180036
O O3 0.058141 0.000000 0.234995
O O4 0.968640 0.196964 0.124526
O O5 0.463424 0.734988 0.300522
O O6 0.574753 0.780559 0.465511
O O7 0.513791 0.000000 0.335269
O O8 0.095749 0.500000 0.119080
O O9 0.108218 0.235244 0.063648
O O10 0.000000 0.327089 0.000000
O O11 0.188727 0.500000 0.927078
O O12 0.155539 0.258523 0.821170
O O13 0.250000 0.250000 0.000000
O O14 0.142936 0.274773 0.958309
O O15 0.104481 0.216004 0.639590
O O16 0.104428 0.000000 0.742441
O O17 0.500000 0.160650 0.500000
O O18 0.600002 0.000000 0.589441
O O19 0.379465 0.500000 0.013715
#
# Coordination Sequence:
#
# PCOD8080033 Si02
#       7
#     8   8   8   8   8   8   8
#     4  10  18  27  43  66  94 123 155 191 228 274
#     4  10  18  28  44  65  92 124 157 189 226 275
#     4   9  17  28  43  63  88 120 156 187 225 275
#     4  12  24  37  52  68  90 120 159 200 237 276
#     4  11  20  31  46  65  89 119 154 192 234 276
#     4   8  16  29  43  62  87 119 154 187 226 273
#     4  10  19  32  47  65  90 119 154 193 234 275
#
# _framework density 16.520702
#
# number of rings (size 3 to 8) (size 9 to 14) (size 15 to 20)
#    0.000    2.000    1.429    5.143    0.000    6.000 
#    0.000    0.000    0.000    0.000    0.000    0.000 
#    0.000    1.143    0.000    4.286    0.000    6.571 
#
# Total GULP energy -347176.923964 kJ/mol
# GULP energy per Si atom -12399.175856 kJ/mol
# Density = 1.648310 g / cm^3
# Si number density = 16.520702 Si / 1000 Ang^3
#
#
#
# Elastic Constant Matrix: (Units=GPa)
#
#
# Indices 1 2 3 4 5 6 
#
# 1 47.0899 38.8013 48.5216 0.0000 -26.5110 0.0000
# 2 38.8013 138.5056 55.3987 0.0000 -16.1191 0.0000
# 3 48.5216 55.3987 94.3573 0.0000 -29.1354 0.0000
# 4 0.0000 0.0000 0.0000 25.0159 0.0000 -7.5042
# 5 -26.5110 -16.1191 -29.1354 0.0000 33.1972 0.0000
# 6 0.0000 0.0000 0.0000 -7.5042 0.0000 26.4000
#
#
#
# Elastic Compliance Matrix: (Units=1/GPa)
#
#
# Indices 1 2 3 4 5 6 
#
# 1 0.064313 -0.006546 -0.019686 0.000000 0.030904 0.000000
# 2 -0.006546 0.010106 -0.003657 0.000000 -0.003531 0.000000
# 3 -0.019686 -0.003657 0.023958 0.000000 0.003530 0.000000
# 4 0.000000 0.000000 0.000000 0.043701 0.000000 0.012422
# 5 0.030904 -0.003531 0.003530 0.000000 0.056187 0.000000
# 6 0.000000 0.000000 0.000000 0.012422 0.000000 0.041410
#
#
# Mechanical properties :
#
#
# Convention : Reuss Voigt Hill
#
# Bulk Modulus (GPa) = 25.90778 62.82178 44.36478
# Shear Modulus (GPa) = 16.00925 26.07135 21.04030
#
# Velocity S-wave (km/s) = 3.11632 3.97684 3.57259
# Velocity P-wave (km/s) = 5.35394 7.69387 6.62798
#
# Compressibility (1/GPa) = 0.03859844
#
# Stress axis : x y z
#
# Youngs Moduli (GPa) = 15.54890 98.95435 41.73920
#
# Poissons Ratio (x) = 0.64780 0.82168
# Poissons Ratio (y) = 0.10179 0.15264
# Poissons Ratio (z) = 0.30610 0.36187
#
# Static dielectric constant tensor:
#      x y z
#    x 2.972070 0.000000 -0.478650 
#    y 0.000000 3.255360 0.000000 
#    z -0.478650 0.000000 3.187390 
# 
# 
# High freq. dielectric constant tensor:
#      x y z
#    x 1.600730 0.000000 -0.048600 
#    y 0.000000 1.654800 0.000000 
#    z -0.048600 0.000000 1.612720 
# 
# From -- ./inp_files/288164.got.cif
#   From: 2010.06.25/outbox.cif.g09.slc.cpg/sg12_145_cif.got.tgz:288164.got - 2010.06.28 00:19:55.
