data_PCOD8080987
_publ_section_title
;
Structure prediction by ZEFSAII (Michael W. Deem and Ramdas Pophale) SiO2 
 PCOD8080987
Probable space group: C 2/M
;
_chemical_formula_sum "Si O2"
_cell_formula_units_Z 64
_cell_length_a 20.214101
_cell_length_b 9.157257
_cell_length_c 32.570868
_cell_angle_alpha 90.000000
_cell_angle_beta 144.225001
_cell_angle_gamma 90.000000
_cell_volume 3524.607290
_symmetry_space_group_name_H-M "C 2/M"
_symmetry_group_IT_number 12
_symmetry_cell_setting 'monoclinic'
loop_
_space_group_symop_operation_xyz
x,y,z
-x,y,-z
-x,-y,-z
x,-y,z
1/2+x,1/2+y,z
1/2-x,1/2+y,-z
1/2-x,1/2-y,-z
1/2+x,1/2-y,z
loop_
_atom_site_type_symbol
_atom_site_label
_atom_site_fract_x
_atom_site_fract_y
_atom_site_fract_z
Si Si1 0.093529 0.669703 0.804384
Si Si2 0.461503 0.330193 0.671519
Si Si3 0.581574 0.168503 0.211680
Si Si4 0.792277 0.328688 0.433442
Si Si5 0.579015 0.335231 0.923748
Si Si6 0.740739 0.834706 0.058286
Si Si7 0.177756 0.170033 0.634422
Si Si8 0.543398 0.669434 0.425559
O O1 0.121079 0.500000 0.813031
O O2 0.207298 0.749722 0.876753
O O3 0.056584 0.736386 0.742385
O O4 0.992692 0.697799 0.785512
O O5 0.489190 0.500000 0.691922
O O6 0.339350 0.290477 0.628347
O O7 0.467141 0.285777 0.626975
O O8 0.536323 0.261966 0.150540
O O9 0.708487 0.220418 0.285223
O O10 0.576378 0.000000 0.195968
O O11 0.813964 0.500000 0.442906
O O12 0.841246 0.258190 0.416849
O O13 0.856763 0.264225 0.504982
O O14 0.552816 0.500000 0.924542
O O15 0.670881 0.332557 0.934181
O O16 0.625848 0.245639 0.986319
O O17 0.711590 0.000000 0.056542
O O18 0.074762 0.206126 0.612384
O O19 0.184707 0.000000 0.626231
O O20 0.575559 0.500000 0.446577
#
# Coordination Sequence:
#
# PCOD8080987 Si02
#       8
#     8   8   8   8   8   8   8   8
#     4  10  18  29  48  72  98 130 167 208 249 296
#     4  10  21  36  52  74 101 133 169 208 254 303
#     4   9  17  29  46  69  96 127 165 204 246 294
#     4  11  22  35  54  77 102 129 164 211 260 306
#     4   9  16  25  40  65  97 131 165 201 245 293
#     4   9  16  26  41  64  98 134 165 202 246 293
#     4  10  20  36  55  75  99 133 172 209 250 301
#     4  10  22  38  55  73  99 133 171 210 251 303
#
# _framework density 18.158052000000001
#
# number of rings (size 3 to 8) (size 9 to 14) (size 15 to 20)
#    0.000    2.250    1.250    2.250    0.000    7.000 
#    0.000    0.000    0.000    0.000    0.000    0.875 
#    0.000    7.000    0.000    0.000    0.000    0.000 
#
# Total GULP energy -396907.086756 kJ/mol
# GULP energy per Si atom -12403.346461 kJ/mol
# Density = 1.811672 g / cm^3
# Si number density = 18.158052 Si / 1000 Ang^3
#
#
#
# Elastic Constant Matrix: (Units=GPa)
#
#
# Indices 1 2 3 4 5 6 
#
# 1 34.1183 30.3846 18.2289 0.0000 -9.6018 -0.0001
# 2 30.3846 109.2665 76.3994 0.0002 -17.6376 -0.0006
# 3 18.2289 76.3994 140.4068 0.0000 -25.1328 0.0000
# 4 0.0000 0.0002 0.0000 40.4626 0.0000 -4.5338
# 5 -9.6018 -17.6376 -25.1328 0.0000 11.8309 0.0000
# 6 -0.0001 -0.0006 0.0000 -4.5338 0.0000 15.1927
#
#
#
# Elastic Compliance Matrix: (Units=1/GPa)
#
#
# Indices 1 2 3 4 5 6 
#
# 1 0.045783 -0.011901 0.006466 0.000000 0.033150 0.000000
# 2 -0.011901 0.018348 -0.008506 0.000000 -0.000374 0.000001
# 3 0.006466 -0.008506 0.015459 0.000000 0.025406 0.000000
# 4 0.000000 0.000000 0.000000 0.025569 0.000000 0.007630
# 5 0.033150 -0.000374 0.025406 0.000000 0.164842 0.000000
# 6 0.000000 0.000001 0.000000 0.007630 0.000000 0.068098
#
#
# Mechanical properties :
#
#
# Convention : Reuss Voigt Hill
#
# Bulk Modulus (GPa) = 19.33943 59.31305 39.32624
# Shear Modulus (GPa) = 13.04742 24.08249 18.56496
#
# Velocity S-wave (km/s) = 2.68348 3.64575 3.20098
# Velocity P-wave (km/s) = 4.50279 7.10336 5.94697
#
# Compressibility (1/GPa) = 0.05170782
#
# Stress axis : x y z
#
# Youngs Moduli (GPa) = 21.84203 54.50154 64.68882
#
# Poissons Ratio (x) = 0.64863 -0.41825
# Poissons Ratio (y) = 0.25994 0.55022
# Poissons Ratio (z) = -0.14122 0.46357
#
# Static dielectric constant tensor:
#      x y z
#    x 2.943370 0.000000 -0.041070 
#    y 0.000000 3.397970 0.000000 
#    z -0.041070 0.000000 3.508940 
# 
# 
# High freq. dielectric constant tensor:
#      x y z
#    x 1.654370 0.000000 -0.007520 
#    y 0.000000 1.709520 0.000000 
#    z -0.007520 0.000000 1.719180 
# 
# From -- ./inp_files/378394.got.cif
#   From: 2010.06.25/outbox.cif.g09.slc.cpg/sg12_190_cif.got.tgz:378394.got - 2010.06.28 00:19:55.
