data_PCOD8080733
_publ_section_title
;
Structure prediction by ZEFSAII (Michael W. Deem and Ramdas Pophale) SiO2 
 PCOD8080733
Probable space group: C 2/M
;
_chemical_formula_sum "Si O2"
_cell_formula_units_Z 48
_cell_length_a 23.788251
_cell_length_b 9.258129
_cell_length_c 14.938333
_cell_angle_alpha 90.000000
_cell_angle_beta 119.364746
_cell_angle_gamma 90.000000
_cell_volume 2867.233689
_symmetry_space_group_name_H-M "C 2/M"
_symmetry_group_IT_number 12
_symmetry_cell_setting 'monoclinic'
loop_
_space_group_symop_operation_xyz
x,y,z
-x,y,-z
-x,-y,-z
x,-y,z
1/2+x,1/2+y,z
1/2-x,1/2+y,-z
1/2-x,1/2-y,-z
1/2+x,1/2-y,z
loop_
_atom_site_type_symbol
_atom_site_label
_atom_site_fract_x
_atom_site_fract_y
_atom_site_fract_z
Si Si1 0.439674 0.329951 0.641477
Si Si2 0.421043 0.668414 0.239144
Si Si3 0.696630 0.331411 0.399694
Si Si4 0.893150 0.165008 0.419076
Si Si5 0.771134 0.664860 0.288536
Si Si6 0.292928 0.171226 0.106015
O O1 0.439366 0.500000 0.652774
O O2 0.507846 0.278131 0.738949
O O3 0.375277 0.267181 0.638681
O O4 0.440296 0.287842 0.536543
O O5 0.407105 0.500000 0.205133
O O6 0.425271 0.693119 0.348880
O O7 0.365750 0.768106 0.153523
O O8 0.700511 0.500000 0.429108
O O9 0.750000 0.250000 0.500000
O O10 0.708346 0.310882 0.301763
O O11 0.827481 0.250398 0.381121
O O12 0.873263 0.000000 0.415248
O O13 0.793075 0.500000 0.303824
O O14 0.761935 0.714354 0.178175
O O15 0.293428 0.000000 0.089577
O O16 0.250000 0.250000 0.000000
#
# Coordination Sequence:
#
# PCOD8080733 Si02
#       6
#     8   8   8   8   8   8
#     4   9  16  26  43  67  96 129 160 187 218 266
#     4   9  17  29  46  69  95 122 154 192 233 274
#     4  10  18  29  45  67  97 132 163 189 218 263
#     4   9  15  25  43  66  93 126 160 189 219 264
#     4   9  18  30  45  68  97 123 153 194 234 270
#     4  10  20  35  53  72  91 115 151 198 247 287
#
# _framework density 16.740874999999999
#
# number of rings (size 3 to 8) (size 9 to 14) (size 15 to 20)
#    0.000    2.667    1.667    1.000    0.000    2.667 
#    0.000    1.667    0.000    5.000    0.000    7.000 
#    0.000    0.000    0.000    0.000    0.000    0.000 
#
# Total GULP energy -297333.045510 kJ/mol
# GULP energy per Si atom -12388.876896 kJ/mol
# Density = 1.670277 g / cm^3
# Si number density = 16.740875 Si / 1000 Ang^3
#
#
#
# Elastic Constant Matrix: (Units=GPa)
#
#
# Indices 1 2 3 4 5 6 
#
# 1 105.0238 33.1085 60.7735 0.0000 21.9415 0.0000
# 2 33.1085 46.2509 39.0143 0.0000 9.6736 0.0000
# 3 60.7735 39.0143 106.3356 0.0000 19.9445 0.0000
# 4 0.0000 0.0000 0.0000 21.9327 0.0000 3.1770
# 5 21.9415 9.6736 19.9445 0.0000 20.3793 0.0000
# 6 0.0000 0.0000 0.0000 3.1770 0.0000 18.4764
#
#
#
# Elastic Compliance Matrix: (Units=1/GPa)
#
#
# Indices 1 2 3 4 5 6 
#
# 1 0.016430 -0.004844 -0.005789 0.000000 -0.009725 0.000000
# 2 -0.004844 0.033071 -0.009062 0.000000 -0.001613 0.000000
# 3 -0.005789 -0.009062 0.017223 0.000000 -0.006321 0.000000
# 4 0.000000 0.000000 0.000000 0.046759 0.000000 -0.008040
# 5 -0.009725 -0.001613 -0.006321 0.000000 0.066492 0.000000
# 6 0.000000 0.000000 0.000000 -0.008040 0.000000 0.055506
#
#
# Mechanical properties :
#
#
# Convention : Reuss Voigt Hill
#
# Bulk Modulus (GPa) = 36.58558 58.15589 47.37074
# Shear Modulus (GPa) = 17.60665 20.47195 19.03930
#
# Velocity S-wave (km/s) = 3.24654 3.50075 3.37604
# Velocity P-wave (km/s) = 5.99623 7.15225 6.59960
#
# Compressibility (1/GPa) = 0.02733317
#
# Stress axis : x y z
#
# Youngs Moduli (GPa) = 60.86265 30.23804 58.06069
#
# Poissons Ratio (x) = 0.14649 0.33611
# Poissons Ratio (y) = 0.29484 0.52617
# Poissons Ratio (z) = 0.35233 0.27403
#
# Static dielectric constant tensor:
#      x y z
#    x 3.723190 0.000000 0.179770 
#    y 0.000000 3.042360 0.000000 
#    z 0.179770 0.000000 3.059660 
# 
# 
# High freq. dielectric constant tensor:
#      x y z
#    x 1.648110 0.000000 0.007750 
#    y 0.000000 1.627540 0.000000 
#    z 0.007750 0.000000 1.618910 
# 
# From -- ./inp_files/287261.got.cif
#   From: 2010.06.25/outbox.cif.g09.slc.cpg/sg12_144_cif.got.tgz:287261.got - 2010.06.28 00:19:55.
