data_PCOD8080410
_publ_section_title
;
Structure prediction by ZEFSAII (Michael W. Deem and Ramdas Pophale) SiO2 
 PCOD8080410
Probable space group: C 2/M
;
_chemical_formula_sum "Si O2"
_cell_formula_units_Z 64
_cell_length_a 24.606217
_cell_length_b 8.858574
_cell_length_c 19.111365
_cell_angle_alpha 90.000000
_cell_angle_beta 64.904403
_cell_angle_gamma 90.000000
_cell_volume 3772.571302
_symmetry_space_group_name_H-M "C 2/M"
_symmetry_group_IT_number 12
_symmetry_cell_setting 'monoclinic'
loop_
_space_group_symop_operation_xyz
x,y,z
-x,y,-z
-x,-y,-z
x,-y,z
1/2+x,1/2+y,z
1/2-x,1/2+y,-z
1/2-x,1/2-y,-z
1/2+x,1/2-y,z
loop_
_atom_site_type_symbol
_atom_site_label
_atom_site_fract_x
_atom_site_fract_y
_atom_site_fract_z
Si Si1 0.113135 0.822408 0.911575
Si Si2 0.949806 0.674559 0.184788
Si Si3 0.303406 0.325482 0.928572
Si Si4 0.370836 0.677480 0.334316
Si Si5 0.807466 0.174536 0.499984
Si Si6 0.745789 0.175526 0.666034
Si Si7 0.737571 0.827449 0.827167
Si Si8 0.917137 0.675151 0.931080
O O1 0.085392 0.766380 0.854698
O O2 0.182877 0.779513 0.878653
O O3 0.106001 0.000000 0.920571
O O4 0.077651 0.749098 0.995472
O O5 0.933547 0.500000 0.183875
O O6 0.927614 0.732907 0.272484
O O7 0.020545 0.702732 0.142569
O O8 0.306836 0.500000 0.948267
O O9 0.291572 0.304027 0.852327
O O10 0.366175 0.248597 0.911431
O O11 0.250000 0.250000 0.000000
O O12 0.381611 0.500000 0.318060
O O13 0.364821 0.723523 0.420934
O O14 0.310645 0.723623 0.325552
O O15 0.750000 0.250000 0.500000
O O16 0.805286 0.210269 0.584862
O O17 0.799267 0.000000 0.490416
O O18 0.762847 0.214263 0.736555
O O19 0.727354 0.000000 0.668028
O O20 0.714209 0.000000 0.842230
O O21 0.902438 0.500000 0.949075
#
# Coordination Sequence:
#
# PCOD8080410 Si02
#       8
#     8   8   8   8   8   8   8   8
#     4  12  23  34  53  77 102 131 165 209 254 300
#     4  11  23  37  52  71 100 137 172 207 250 304
#     4  11  22  36  55  76 100 131 168 213 258 298
#     4  10  18  28  45  72 103 131 164 205 246 293
#     4   8  15  26  42  67  98 131 163 197 240 292
#     4   9  16  29  48  69  99 136 167 197 242 301
#     4  10  20  33  52  75 102 135 169 203 247 301
#     4  11  24  40  55  71  96 133 175 214 252 300
#
# _framework density 16.964558
#
# number of rings (size 3 to 8) (size 9 to 14) (size 15 to 20)
#    0.000    1.750    2.500    3.000    0.000    4.500 
#    0.000    0.000    0.000    0.000    0.000    0.875 
#    0.000    7.000    0.000    0.000    0.000    0.000 
#
# Total GULP energy -396627.935589 kJ/mol
# GULP energy per Si atom -12394.622987 kJ/mol
# Density = 1.692595 g / cm^3
# Si number density = 16.964558 Si / 1000 Ang^3
#
#
#
# Elastic Constant Matrix: (Units=GPa)
#
#
# Indices 1 2 3 4 5 6 
#
# 1 55.3866 31.3546 35.5430 0.0000 -8.5283 0.0001
# 2 31.3546 91.1933 49.4228 0.0001 -8.5215 0.0007
# 3 35.5430 49.4228 154.2642 0.0000 -4.4772 0.0000
# 4 0.0000 0.0001 0.0000 24.4654 0.0000 -2.1294
# 5 -8.5283 -8.5215 -4.4772 0.0000 17.3756 0.0000
# 6 0.0001 0.0007 0.0000 -2.1294 0.0000 22.3985
#
#
#
# Elastic Compliance Matrix: (Units=1/GPa)
#
#
# Indices 1 2 3 4 5 6 
#
# 1 0.024998 -0.005827 -0.003647 0.000000 0.008472 0.000000
# 2 -0.005827 0.015161 -0.003408 0.000000 0.003698 0.000000
# 3 -0.003647 -0.003408 0.008377 0.000000 -0.001303 0.000000
# 4 0.000000 0.000000 0.000000 0.041215 0.000000 0.003918
# 5 0.008472 0.003698 -0.001303 0.000000 0.063188 0.000000
# 6 0.000000 0.000000 0.000000 0.003918 0.000000 0.045018
#
#
# Mechanical properties :
#
#
# Convention : Reuss Voigt Hill
#
# Bulk Modulus (GPa) = 43.91056 59.27609 51.59332
# Shear Modulus (GPa) = 21.61582 25.14949 23.38265
#
# Velocity S-wave (km/s) = 3.57343 3.85447 3.71661
# Velocity P-wave (km/s) = 6.55483 7.40447 6.99257
#
# Compressibility (1/GPa) = 0.02277357
#
# Stress axis : x y z
#
# Youngs Moduli (GPa) = 40.00241 65.95699 119.38082
#
# Poissons Ratio (x) = 0.38432 0.43539
# Poissons Ratio (y) = 0.23309 0.40679
# Poissons Ratio (z) = 0.14589 0.22475
#
# Static dielectric constant tensor:
#      x y z
#    x 2.890160 0.000000 0.097610 
#    y 0.000000 3.298320 0.000000 
#    z 0.097610 0.000000 3.846040 
# 
# 
# High freq. dielectric constant tensor:
#      x y z
#    x 1.605680 0.000000 0.005050 
#    y 0.000000 1.667010 0.000000 
#    z 0.005050 0.000000 1.671750 
# 
# From -- ./inp_files/323666.got.cif
#   From: 2010.06.25/outbox.cif.g09.slc.cpg/sg12_162_cif.got.tgz:323666.got - 2010.06.28 00:19:55.
