data_PCOD8080065
_publ_section_title
;
Structure prediction by ZEFSAII (Michael W. Deem and Ramdas Pophale) SiO2 
 PCOD8080065
Probable space group: C 2/M
;
_chemical_formula_sum "Si O2"
_cell_formula_units_Z 56
_cell_length_a 32.891309
_cell_length_b 14.017758
_cell_length_c 9.446531
_cell_angle_alpha 90.000000
_cell_angle_beta 126.449413
_cell_angle_gamma 90.000000
_cell_volume 3503.436607
_symmetry_space_group_name_H-M "C 2/M"
_symmetry_group_IT_number 12
_symmetry_cell_setting 'monoclinic'
loop_
_space_group_symop_operation_xyz
x,y,z
-x,y,-z
-x,-y,-z
x,-y,z
1/2+x,1/2+y,z
1/2-x,1/2+y,-z
1/2-x,1/2-y,-z
1/2+x,1/2-y,z
loop_
_atom_site_type_symbol
_atom_site_label
_atom_site_fract_x
_atom_site_fract_y
_atom_site_fract_z
Si Si1 0.227577 0.107694 0.916509
Si Si2 0.868508 0.609703 0.972600
Si Si3 0.211426 0.610925 0.427341
Si Si4 0.138570 0.712435 0.468557
Si Si5 0.190924 0.893437 0.526652
Si Si6 0.168859 0.709495 0.842099
Si Si7 0.057254 0.610604 0.116778
O O1 0.222428 0.112441 0.736924
O O2 0.188392 0.181953 0.907092
O O3 0.216799 0.000000 0.949835
O O4 0.284478 0.136559 0.072549
O O5 0.863489 0.500000 0.011889
O O6 0.822397 0.640022 0.776900
O O7 0.920544 0.626140 0.994394
O O8 0.868142 0.678986 0.107266
O O9 0.204303 0.500000 0.442934
O O10 0.191024 0.664635 0.523706
O O11 0.269919 0.636283 0.517374
O O12 0.142795 0.823596 0.430806
O O13 0.135777 0.702114 0.631345
O O14 0.088431 0.668444 0.298456
O O15 0.170168 0.000000 0.458230
O O16 0.060590 0.500000 0.167426
O O17 0.000000 0.648037 0.000000
#
# Coordination Sequence:
#
# PCOD8080065 Si02
#       7
#     8   8   8   8   8   8   8
#     4   9  17  28  41  61  96 133 154 174 211 261
#     4   9  16  28  48  66  88 123 152 175 216 275
#     4   9  16  27  42  62  91 126 153 176 215 267
#     4  10  19  28  45  68  90 114 150 195 225 254
#     4   9  16  28  44  63  90 125 158 178 208 264
#     4  10  18  27  44  68  91 121 156 185 215 253
#     4   9  19  36  53  67  86 115 148 185 236 285
#
# _framework density 15.984306
#
# number of rings (size 3 to 8) (size 9 to 14) (size 15 to 20)
#    0.000    2.714    1.429    2.143    0.000    2.286 
#    0.000    0.714    0.000    3.000    0.000    0.000 
#    0.000    4.571    0.000    0.000    0.000    0.000 
#
# Total GULP energy -347127.083353 kJ/mol
# GULP energy per Si atom -12397.395834 kJ/mol
# Density = 1.594792 g / cm^3
# Si number density = 15.984306 Si / 1000 Ang^3
#
#
#
# Elastic Constant Matrix: (Units=GPa)
#
#
# Indices 1 2 3 4 5 6 
#
# 1 77.4281 41.5302 40.4474 0.0000 0.2430 0.0000
# 2 41.5302 85.8842 38.8373 0.0000 1.9008 0.0000
# 3 40.4474 38.8373 58.2949 0.0000 3.9555 0.0000
# 4 0.0000 0.0000 0.0000 20.3535 0.0000 -0.9828
# 5 0.2430 1.9008 3.9555 0.0000 22.1719 0.0000
# 6 0.0000 0.0000 0.0000 -0.9828 0.0000 20.6896
#
#
#
# Elastic Compliance Matrix: (Units=1/GPa)
#
#
# Indices 1 2 3 4 5 6 
#
# 1 0.021943 -0.005304 -0.011849 0.000000 0.002328 0.000000
# 2 -0.005304 0.017953 -0.008280 0.000000 -0.000004 0.000000
# 3 -0.011849 -0.008280 0.031213 0.000000 -0.004729 0.000000
# 4 0.000000 0.000000 0.000000 0.049244 0.000000 0.002339
# 5 0.002328 -0.000004 -0.004729 0.000000 0.045921 0.000000
# 6 0.000000 0.000000 0.000000 0.002339 0.000000 0.048445
#
#
# Mechanical properties :
#
#
# Convention : Reuss Voigt Hill
#
# Bulk Modulus (GPa) = 49.40256 51.47077 50.43666
# Shear Modulus (GPa) = 18.35999 19.36249 18.86124
#
# Velocity S-wave (km/s) = 3.39282 3.48421 3.43882
# Velocity P-wave (km/s) = 6.80605 6.96111 6.88401
#
# Compressibility (1/GPa) = 0.02024187
#
# Stress axis : x y z
#
# Youngs Moduli (GPa) = 45.57365 55.70175 32.03810
#
# Poissons Ratio (x) = 0.29543 0.37962
# Poissons Ratio (y) = 0.24172 0.26528
# Poissons Ratio (z) = 0.54000 0.46122
#
# Static dielectric constant tensor:
#      x y z
#    x 2.934980 0.000000 -0.146470 
#    y 0.000000 3.207050 0.000000 
#    z -0.146470 0.000000 2.767340 
# 
# 
# High freq. dielectric constant tensor:
#      x y z
#    x 1.588530 0.000000 -0.021170 
#    y 0.000000 1.617650 0.000000 
#    z -0.021170 0.000000 1.586790 
# 
# From -- ./inp_files/96515.got.cif
#   From: 2010.06.25/outbox.cif.g09.slc.cpg/sg12_49_cif.got.tgz:96515.got - 2010.06.28 00:19:55.
