data_PCOD8080127
_publ_section_title
;
Structure prediction by ZEFSAII (Michael W. Deem and Ramdas Pophale) SiO2 
 PCOD8080127
Probable space group: C 2/M
;
_chemical_formula_sum "Si O2"
_cell_formula_units_Z 64
_cell_length_a 24.442153
_cell_length_b 9.170495
_cell_length_c 20.955608
_cell_angle_alpha 90.000000
_cell_angle_beta 51.359546
_cell_angle_gamma 90.000000
_cell_volume 3668.832631
_symmetry_space_group_name_H-M "C 2/M"
_symmetry_group_IT_number 12
_symmetry_cell_setting 'monoclinic'
loop_
_space_group_symop_operation_xyz
x,y,z
-x,y,-z
-x,-y,-z
x,-y,z
1/2+x,1/2+y,z
1/2-x,1/2+y,-z
1/2-x,1/2-y,-z
1/2+x,1/2-y,z
loop_
_atom_site_type_symbol
_atom_site_label
_atom_site_fract_x
_atom_site_fract_y
_atom_site_fract_z
Si Si1 0.981916 0.830523 0.159682
Si Si2 0.140671 0.331758 0.569480
Si Si3 0.127804 0.667201 0.190081
Si Si4 0.621054 0.170408 0.047839
Si Si5 0.269074 0.331801 0.393478
Si Si6 0.166038 0.828025 0.783026
Si Si7 0.008904 0.831532 0.697836
Si Si8 0.718988 0.328915 0.879274
O O1 0.911911 0.771227 0.176406
O O2 0.973131 0.803662 0.241312
O O3 0.995747 0.000000 0.135080
O O4 0.046157 0.739392 0.084233
O O5 0.124379 0.500000 0.595030
O O6 0.187676 0.311723 0.471541
O O7 0.182182 0.268879 0.599271
O O8 0.067861 0.247469 0.612322
O O9 0.104632 0.500000 0.214390
O O10 0.198322 0.701254 0.177194
O O11 0.066773 0.766094 0.264284
O O12 0.139887 0.705034 0.107193
O O13 0.681462 0.243100 0.962714
O O14 0.618246 0.000000 0.035221
O O15 0.293026 0.500000 0.386294
O O16 0.279594 0.283352 0.312451
O O17 0.192368 0.764319 0.831091
O O18 0.163538 0.000000 0.790426
O O19 0.008417 0.000000 0.680060
O O20 0.702795 0.500000 0.899141
#
# Coordination Sequence:
#
# PCOD8080127 Si02
#       8
#     8   8   8   8   8   8   8   8
#     4   9  17  31  50  70  94 126 162 196 236 288
#     4  10  18  27  47  76 104 129 156 196 241 285
#     4   9  19  34  51  73  97 122 161 208 248 283
#     4  10  20  33  49  70  99 125 154 204 251 290
#     4   9  17  31  48  71 102 132 162 194 234 286
#     4   9  17  32  52  71  96 129 165 200 234 283
#     4  10  18  30  51  74  99 129 161 199 242 288
#     4  10  20  34  53  72  92 126 167 204 241 286
#
# _framework density 17.444240000000001
#
# number of rings (size 3 to 8) (size 9 to 14) (size 15 to 20)
#    0.000    2.500    1.250    1.500    0.000    2.500 
#    0.000    3.750    0.000    0.750    0.000    5.250 
#    0.000    0.000    0.000    0.000    0.000    0.000 
#
# Total GULP energy -396818.463147 kJ/mol
# GULP energy per Si atom -12400.576973 kJ/mol
# Density = 1.740454 g / cm^3
# Si number density = 17.444240 Si / 1000 Ang^3
#
#
#
# Elastic Constant Matrix: (Units=GPa)
#
#
# Indices 1 2 3 4 5 6 
#
# 1 90.8571 29.5774 25.6093 -0.0032 -13.8994 0.0025
# 2 29.5774 75.7291 38.7864 -0.0036 -17.2995 0.0039
# 3 25.6093 38.7864 61.5137 -0.0030 -21.1532 0.0030
# 4 -0.0032 -0.0036 -0.0030 27.7474 0.0001 -8.2055
# 5 -13.8994 -17.2995 -21.1532 0.0001 23.3791 -0.0002
# 6 0.0025 0.0039 0.0030 -8.2055 -0.0002 19.8661
#
#
#
# Elastic Compliance Matrix: (Units=1/GPa)
#
#
# Indices 1 2 3 4 5 6 
#
# 1 0.013221 -0.003201 -0.002319 0.000001 0.003394 0.000000
# 2 -0.003201 0.020656 -0.010293 0.000001 0.004069 -0.000002
# 3 -0.002319 -0.010293 0.029932 0.000001 0.018087 -0.000002
# 4 0.000001 0.000001 0.000001 0.041054 0.000002 0.016957
# 5 0.003394 0.004069 0.018087 0.000002 0.064167 -0.000002
# 6 0.000000 -0.000002 -0.000002 0.016957 -0.000002 0.057341
#
#
# Mechanical properties :
#
#
# Convention : Reuss Voigt Hill
#
# Bulk Modulus (GPa) = 31.07129 46.22734 38.64932
# Shear Modulus (GPa) = 18.60650 23.14030 20.87340
#
# Velocity S-wave (km/s) = 3.26947 3.64611 3.46291
# Velocity P-wave (km/s) = 5.66595 6.65455 6.18005
#
# Compressibility (1/GPa) = 0.03218405
#
# Stress axis : x y z
#
# Youngs Moduli (GPa) = 75.63687 48.41157 33.40955
#
# Poissons Ratio (x) = 0.15495 0.07748
# Poissons Ratio (y) = 0.24210 0.34387
# Poissons Ratio (z) = 0.17540 0.49828
#
# Static dielectric constant tensor:
#      x y z
#    x 3.230800 -0.000010 -0.113330 
#    y -0.000010 3.187610 0.000000 
#    z -0.113330 0.000000 3.319880 
# 
# 
# High freq. dielectric constant tensor:
#      x y z
#    x 1.653720 0.000000 -0.021320 
#    y 0.000000 1.666460 0.000000 
#    z -0.021320 0.000000 1.672090 
# 
# From -- ./inp_files/324091.got.cif
#   From: 2010.06.25/outbox.cif.g09.slc.cpg/sg12_163_cif.got.tgz:324091.got - 2010.06.28 00:19:55.
