data_PCOD8080834
_publ_section_title
;
Structure prediction by ZEFSAII (Michael W. Deem and Ramdas Pophale) SiO2 
 PCOD8080834
Probable space group: C 2/M
;
_chemical_formula_sum "Si O2"
_cell_formula_units_Z 56
_cell_length_a 22.563611
_cell_length_b 8.667310
_cell_length_c 21.624428
_cell_angle_alpha 90.000000
_cell_angle_beta 49.174756
_cell_angle_gamma 90.000000
_cell_volume 3200.113383
_symmetry_space_group_name_H-M "C 2/M"
_symmetry_group_IT_number 12
_symmetry_cell_setting 'monoclinic'
loop_
_space_group_symop_operation_xyz
x,y,z
-x,y,-z
-x,-y,-z
x,-y,z
1/2+x,1/2+y,z
1/2-x,1/2+y,-z
1/2-x,1/2-y,-z
1/2+x,1/2-y,z
loop_
_atom_site_type_symbol
_atom_site_label
_atom_site_fract_x
_atom_site_fract_y
_atom_site_fract_z
Si Si1 0.874835 0.680905 0.262116
Si Si2 0.874195 0.175257 0.074849
Si Si3 0.063668 0.183300 0.536488
Si Si4 0.756542 0.319327 0.237863
Si Si5 0.502746 0.326079 0.899069
Si Si6 0.099558 0.317861 0.384293
Si Si7 0.665997 0.184023 0.573652
O O1 0.871428 0.500000 0.263923
O O2 0.809373 0.742896 0.258877
O O3 0.962778 0.729667 0.181875
O O4 0.855896 0.743843 0.342994
O O5 0.800512 0.282725 0.142974
O O6 0.936582 0.182911 0.086735
O O7 0.844959 0.000000 0.085517
O O8 0.918187 0.235006 0.982141
O O9 0.109760 0.258145 0.447408
O O10 0.101134 0.245415 0.573365
O O11 0.973339 0.232743 0.597741
O O12 0.071479 0.000000 0.526847
O O13 0.738960 0.500000 0.254652
O O14 0.676111 0.224934 0.293157
O O15 0.492327 0.500000 0.882890
O O16 0.084890 0.500000 0.393975
O O17 0.750000 0.250000 0.500000
O O18 0.666582 0.000000 0.568473
#
# Coordination Sequence:
#
# PCOD8080834 Si02
#       7
#     8   8   8   8   8   8   8
#     4   9  19  31  45  67  98 130 162 198 239 284
#     4   8  14  25  40  63  93 126 159 196 238 283
#     4  11  22  37  54  73  97 126 161 203 244 288
#     4  10  18  29  46  72 101 130 162 199 241 285
#     4   8  14  25  42  62  90 125 162 197 235 283
#     4  11  21  35  54  74  96 126 161 200 244 292
#     4  11  22  36  52  73 100 132 166 202 242 288
#
# _framework density 17.499379999999999
#
# number of rings (size 3 to 8) (size 9 to 14) (size 15 to 20)
#    0.000    2.286    0.000    6.000    0.000    3.429 
#    0.000    2.857    0.000    0.000    0.000    1.000 
#    0.000    0.000    0.000    0.000    0.000    0.000 
#
# Total GULP energy -347096.762614 kJ/mol
# GULP energy per Si atom -12396.312951 kJ/mol
# Density = 1.745955 g / cm^3
# Si number density = 17.499380 Si / 1000 Ang^3
#
#
#
# Elastic Constant Matrix: (Units=GPa)
#
#
# Indices 1 2 3 4 5 6 
#
# 1 48.6536 10.3765 37.9408 0.0001 -0.6521 0.0001
# 2 10.3765 54.6474 24.7065 -0.0004 -0.4314 0.0005
# 3 37.9408 24.7065 148.3132 0.0000 -10.3260 0.0000
# 4 0.0001 -0.0004 0.0000 33.3555 0.0000 -4.3656
# 5 -0.6521 -0.4314 -10.3260 0.0000 19.4229 0.0000
# 6 0.0001 0.0005 0.0000 -4.3656 0.0000 22.2385
#
#
#
# Elastic Compliance Matrix: (Units=1/GPa)
#
#
# Indices 1 2 3 4 5 6 
#
# 1 0.026020 -0.002022 -0.006503 0.000000 -0.002628 0.000000
# 2 -0.002022 0.019981 -0.002892 0.000000 -0.001162 0.000000
# 3 -0.006503 -0.002892 0.009209 0.000000 0.004613 0.000000
# 4 0.000000 0.000000 0.000000 0.030771 0.000000 0.006041
# 5 -0.002628 -0.001162 0.004613 0.000000 0.053824 0.000000
# 6 0.000000 0.000000 0.000000 0.006041 0.000000 0.046153
#
#
# Mechanical properties :
#
#
# Convention : Reuss Voigt Hill
#
# Bulk Modulus (GPa) = 30.88557 44.18467 37.53512
# Shear Modulus (GPa) = 22.77033 26.90940 24.83987
#
# Velocity S-wave (km/s) = 3.61114 3.92565 3.77167
# Velocity P-wave (km/s) = 5.92241 6.77139 6.36108
#
# Compressibility (1/GPa) = 0.03237757
#
# Stress axis : x y z
#
# Youngs Moduli (GPa) = 38.43166 50.04639 108.59000
#
# Poissons Ratio (x) = 0.10118 0.70612
# Poissons Ratio (y) = 0.07769 0.31407
# Poissons Ratio (z) = 0.24991 0.14475
#
# Static dielectric constant tensor:
#      x y z
#    x 2.988650 0.000000 -0.028520 
#    y 0.000000 3.291980 0.000000 
#    z -0.028520 0.000000 3.809420 
# 
# 
# High freq. dielectric constant tensor:
#      x y z
#    x 1.626530 0.000000 -0.014020 
#    y 0.000000 1.680990 0.000000 
#    z -0.014020 0.000000 1.691550 
# 
# From -- ./inp_files/319686.got.cif
#   From: 2010.06.25/outbox.cif.g09.slc.cpg/sg12_160_cif.got.tgz:319686.got - 2010.06.28 00:19:55.
