data_PCOD8080182
_publ_section_title
;
Structure prediction by ZEFSAII (Michael W. Deem and Ramdas Pophale) SiO2 
 PCOD8080182
Probable space group: C 2/M
;
_chemical_formula_sum "Si O2"
_cell_formula_units_Z 64
_cell_length_a 10.332155
_cell_length_b 24.657466
_cell_length_c 20.297777
_cell_angle_alpha 90.000000
_cell_angle_beta 129.120579
_cell_angle_gamma 90.000000
_cell_volume 4011.887185
_symmetry_space_group_name_H-M "C 2/M"
_symmetry_group_IT_number 12
_symmetry_cell_setting 'monoclinic'
loop_
_space_group_symop_operation_xyz
x,y,z
-x,y,-z
-x,-y,-z
x,-y,z
1/2+x,1/2+y,z
1/2-x,1/2+y,-z
1/2-x,1/2-y,-z
1/2+x,1/2-y,z
loop_
_atom_site_type_symbol
_atom_site_label
_atom_site_fract_x
_atom_site_fract_y
_atom_site_fract_z
Si Si1 0.996867 0.564479 0.186493
Si Si2 0.962766 0.365088 0.565327
Si Si3 0.430966 0.630409 0.550679
Si Si4 0.554715 0.747522 0.443314
Si Si5 0.461364 0.564355 0.171499
Si Si6 0.835142 0.435447 0.269552
Si Si7 0.368953 0.564288 0.285364
Si Si8 0.640126 0.064627 0.994562
O O1 0.994592 0.500000 0.184741
O O2 0.911850 0.586028 0.225759
O O3 0.896742 0.586799 0.090692
O O4 0.185669 0.586335 0.244757
O O5 0.768154 0.374495 0.515964
O O6 0.017117 0.304250 0.609020
O O7 0.000000 0.371589 0.500000
O O8 0.068720 0.409192 0.638486
O O9 0.500000 0.620789 0.500000
O O10 0.495673 0.688562 0.602579
O O11 0.498145 0.583379 0.618617
O O12 0.500000 0.744820 0.500000
O O13 0.750000 0.750000 0.500000
O O14 0.454315 0.500000 0.171043
O O15 0.643541 0.584134 0.207960
O O16 0.420137 0.587462 0.230540
O O17 0.322105 0.586049 0.075487
O O18 0.850946 0.500000 0.282331
O O19 0.370742 0.500000 0.285476
O O20 0.635043 0.000000 0.993219
O O21 0.500000 0.086638 0.000000
#
# Coordination Sequence:
#
# PCOD8080182 Si02
#       8
#     8   8   8   8   8   8   8   8
#     4   9  17  28  42  61  88 117 141 174 216 256
#     4  10  19  32  47  60  83 119 150 177 216 259
#     4  10  19  30  45  64  85 111 148 187 215 248
#     4   8  16  30  46  62  78 103 144 189 222 245
#     4   9  17  28  42  61  86 115 146 178 208 251
#     4  10  20  30  40  62  93 117 142 178 216 255
#     4  10  18  28  42  62  89 117 144 175 212 255
#     4   9  14  25  45  63  81 113 150 174 208 258
#
# _framework density 15.952593
#
# number of rings (size 3 to 8) (size 9 to 14) (size 15 to 20)
#    0.000    2.625    1.250    1.500    0.000    1.500 
#    0.000    2.500    0.000    0.000    0.000    0.000 
#    0.000    6.000    0.000    0.000    0.000    0.000 
#
# Total GULP energy -396488.805475 kJ/mol
# GULP energy per Si atom -12390.275171 kJ/mol
# Density = 1.591628 g / cm^3
# Si number density = 15.952593 Si / 1000 Ang^3
#
#
#
# Elastic Constant Matrix: (Units=GPa)
#
#
# Indices 1 2 3 4 5 6 
#
# 1 118.7572 15.5441 37.2618 0.0000 6.5659 0.0000
# 2 15.5441 27.0236 23.2868 0.0000 1.3217 0.0000
# 3 37.2618 23.2868 95.2014 0.0000 4.6358 0.0000
# 4 0.0000 0.0000 0.0000 1.5554 0.0000 1.5206
# 5 6.5659 1.3217 4.6358 0.0000 27.7931 0.0000
# 6 0.0000 0.0000 0.0000 1.5206 0.0000 9.6594
#
#
#
# Elastic Compliance Matrix: (Units=1/GPa)
#
#
# Indices 1 2 3 4 5 6 
#
# 1 0.009859 -0.002957 -0.003054 0.000000 -0.001679 0.000000
# 2 -0.002957 0.047778 -0.010538 0.000000 0.000184 0.000000
# 3 -0.003054 -0.010538 0.014334 0.000000 -0.001168 0.000000
# 4 0.000000 0.000000 0.000000 0.759869 0.000000 -0.119622
# 5 -0.001679 0.000184 -0.001168 0.000000 0.036563 0.000000
# 6 0.000000 0.000000 0.000000 -0.119622 0.000000 0.122357
#
#
# Mechanical properties :
#
#
# Convention : Reuss Voigt Hill
#
# Bulk Modulus (GPa) = 25.72541 43.68530 34.70535
# Shear Modulus (GPa) = 4.82246 18.79422 11.80834
#
# Velocity S-wave (km/s) = 1.74056 3.43611 2.72364
# Velocity P-wave (km/s) = 4.49451 6.57164 5.62970
#
# Compressibility (1/GPa) = 0.03887207
#
# Stress axis : x y z
#
# Youngs Moduli (GPa) = 101.43493 20.93025 69.76524
#
# Poissons Ratio (x) = 0.06190 0.21303
# Poissons Ratio (y) = 0.29997 0.73520
# Poissons Ratio (z) = 0.30973 0.22057
#
# Static dielectric constant tensor:
#      x y z
#    x 3.419500 0.000000 0.060330 
#    y 0.000000 2.938620 0.000000 
#    z 0.060330 0.000000 2.974810 
# 
# 
# High freq. dielectric constant tensor:
#      x y z
#    x 1.637580 0.000000 0.004050 
#    y 0.000000 1.565760 0.000000 
#    z 0.004050 0.000000 1.597260 
# 
# From -- ./inp_files/302682.got.cif
#   From: 2010.06.25/outbox.cif.g09.slc.cpg/sg12_152_cif.got.tgz:302682.got - 2010.06.28 00:19:55.
