data_PCOD8080851
_publ_section_title
;
Structure prediction by ZEFSAII (Michael W. Deem and Ramdas Pophale) SiO2 
 PCOD8080851
Probable space group: C 2/M
;
_chemical_formula_sum "Si O2"
_cell_formula_units_Z 56
_cell_length_a 19.948388
_cell_length_b 9.419630
_cell_length_c 28.347023
_cell_angle_alpha 90.000000
_cell_angle_beta 37.577898
_cell_angle_gamma 90.000000
_cell_volume 3248.363718
_symmetry_space_group_name_H-M "C 2/M"
_symmetry_group_IT_number 12
_symmetry_cell_setting 'monoclinic'
loop_
_space_group_symop_operation_xyz
x,y,z
-x,y,-z
-x,-y,-z
x,-y,z
1/2+x,1/2+y,z
1/2-x,1/2+y,-z
1/2-x,1/2-y,-z
1/2+x,1/2-y,z
loop_
_atom_site_type_symbol
_atom_site_label
_atom_site_fract_x
_atom_site_fract_y
_atom_site_fract_z
Si Si1 0.156193 0.165385 0.198505
Si Si2 0.962139 0.832801 0.372498
Si Si3 0.853528 0.664002 0.958528
Si Si4 0.423696 0.667875 0.500032
Si Si5 0.389671 0.831837 0.042091
Si Si6 0.175874 0.666355 0.626132
Si Si7 0.024501 0.338724 0.200040
O O1 0.283723 0.211789 0.133081
O O2 0.112023 0.240753 0.176824
O O3 0.083235 0.205326 0.284782
O O4 0.147857 0.000000 0.192344
O O5 0.965951 0.783121 0.424820
O O6 0.868260 0.750290 0.395300
O O7 0.935610 0.000000 0.383180
O O8 0.819328 0.500000 0.980170
O O9 0.959038 0.684971 0.865071
O O10 0.750000 0.750000 0.000000
O O11 0.883165 0.725671 0.992778
O O12 0.500000 0.732711 0.500000
O O13 0.429400 0.500000 0.501092
O O14 0.296921 0.719245 0.574241
O O15 0.401689 0.000000 0.035270
O O16 0.500000 0.759403 0.000000
O O17 0.178052 0.500000 0.611450
O O18 0.099071 0.698559 0.714317
O O19 0.051395 0.500000 0.199415
#
# Coordination Sequence:
#
# PCOD8080851 Si02
#       7
#     8   8   8   8   8   8   8
#     4   9  16  28  46  67  89 115 149 186 223 261
#     4   9  17  29  48  71  89 114 153 188 219 261
#     4  10  18  29  47  67  89 117 150 185 221 262
#     4   9  17  30  46  67  96 122 145 180 225 268
#     4   9  17  29  43  63  91 119 146 181 224 264
#     4   9  17  30  48  68  91 118 148 183 223 264
#     4   9  17  28  44  69  91 112 147 187 223 260
#
# _framework density 17.239449
#
# number of rings (size 3 to 8) (size 9 to 14) (size 15 to 20)
#    0.000    2.857    1.429    0.429    0.000    0.000 
#    2.571    0.000    0.000    3.429    0.000    0.000 
#    0.000    0.000    0.000    0.000    0.000    0.000 
#
# Total GULP energy -346952.348295 kJ/mol
# GULP energy per Si atom -12391.155296 kJ/mol
# Density = 1.720021 g / cm^3
# Si number density = 17.239449 Si / 1000 Ang^3
#
#
#
# Elastic Constant Matrix: (Units=GPa)
#
#
# Indices 1 2 3 4 5 6 
#
# 1 141.4993 26.3028 89.1414 -0.0001 -8.6231 0.0001
# 2 26.3028 24.2177 23.4497 -0.0002 -1.8785 0.0004
# 3 89.1414 23.4497 145.8417 0.0000 -6.6073 0.0000
# 4 -0.0001 -0.0002 0.0000 16.8540 0.0000 -0.0165
# 5 -8.6231 -1.8785 -6.6073 0.0000 29.5493 0.0000
# 6 0.0001 0.0004 0.0000 -0.0165 0.0000 17.7681
#
#
#
# Elastic Compliance Matrix: (Units=1/GPa)
#
#
# Indices 1 2 3 4 5 6 
#
# 1 0.012590 -0.007299 -0.006441 0.000000 0.001770 0.000000
# 2 -0.007299 0.053193 -0.004076 0.000001 0.000340 -0.000001
# 3 -0.006441 -0.004076 0.011468 0.000000 0.000426 0.000000
# 4 0.000000 0.000001 0.000000 0.059333 0.000000 0.000055
# 5 0.001770 0.000340 0.000426 0.000000 0.034475 0.000000
# 6 0.000000 -0.000001 0.000000 0.000055 0.000000 0.056281
#
#
# Mechanical properties :
#
#
# Convention : Reuss Voigt Hill
#
# Bulk Modulus (GPa) = 24.02801 65.48294 44.75548
# Shear Modulus (GPa) = 18.06060 24.34527 21.20293
#
# Velocity S-wave (km/s) = 3.24023 3.76198 3.51081
# Velocity P-wave (km/s) = 5.28837 7.54565 6.51551
#
# Compressibility (1/GPa) = 0.04161810
#
# Stress axis : x y z
#
# Youngs Moduli (GPa) = 79.42983 18.79944 87.19609
#
# Poissons Ratio (x) = 0.13723 0.56165
# Poissons Ratio (y) = 0.57979 0.35540
# Poissons Ratio (z) = 0.51163 0.07662
#
# Static dielectric constant tensor:
#      x y z
#    x 2.263390 0.000000 -0.516360 
#    y 0.000000 2.970280 0.000000 
#    z -0.516360 0.000000 3.415450 
# 
# 
# High freq. dielectric constant tensor:
#      x y z
#    x 1.644010 0.000000 0.005450 
#    y 0.000000 1.631220 0.000000 
#    z 0.005450 0.000000 1.688230 
# 
# From -- ./inp_files/276101.got.cif
#   From: 2010.06.25/outbox.cif.g09.slc.cpg/sg12_139_cif.got.tgz:276101.got - 2010.06.28 00:19:55.
