data_PCOD8080708
_publ_section_title
;
Structure prediction by ZEFSAII (Michael W. Deem and Ramdas Pophale) SiO2 
 PCOD8080708
Probable space group: C 2/M
;
_chemical_formula_sum "Si O2"
_cell_formula_units_Z 64
_cell_length_a 30.050320
_cell_length_b 9.385416
_cell_length_c 14.901750
_cell_angle_alpha 90.000000
_cell_angle_beta 101.574359
_cell_angle_gamma 90.000000
_cell_volume 4117.347807
_symmetry_space_group_name_H-M "C 2/M"
_symmetry_group_IT_number 12
_symmetry_cell_setting 'monoclinic'
loop_
_space_group_symop_operation_xyz
x,y,z
-x,y,-z
-x,-y,-z
x,-y,z
1/2+x,1/2+y,z
1/2-x,1/2+y,-z
1/2-x,1/2-y,-z
1/2+x,1/2-y,z
loop_
_atom_site_type_symbol
_atom_site_label
_atom_site_fract_x
_atom_site_fract_y
_atom_site_fract_z
Si Si1 0.119993 0.835911 0.740740
Si Si2 0.056418 0.331885 0.441473
Si Si3 0.306433 0.337475 0.090521
Si Si4 0.290094 0.834490 0.719241
Si Si5 0.041585 0.668358 0.636227
Si Si6 0.279057 0.335185 0.884279
Si Si7 0.189527 0.165891 0.613490
Si Si8 0.845450 0.668075 0.568142
O O1 0.144708 0.806255 0.845633
O O2 0.073834 0.744741 0.721409
O O3 0.153292 0.788207 0.673847
O O4 0.106618 0.000000 0.725065
O O5 0.054369 0.500000 0.446759
O O6 0.056511 0.276228 0.543745
O O7 0.101990 0.279733 0.410147
O O8 0.010949 0.282538 0.370060
O O9 0.291223 0.500000 0.107131
O O10 0.270163 0.232026 0.119006
O O11 0.310270 0.314806 0.985214
O O12 0.303809 0.743695 0.812181
O O13 0.239098 0.796507 0.670297
O O14 0.324403 0.788695 0.654634
O O15 0.295282 0.000000 0.744967
O O16 0.047473 0.500000 0.649911
O O17 0.272325 0.500000 0.857563
O O18 0.182329 0.255220 0.520934
O O19 0.185633 0.000000 0.587910
O O20 0.841532 0.500000 0.549086
#
# Coordination Sequence:
#
# PCOD8080708 Si02
#       8
#     8   8   8   8   8   8   8   8
#     4  10  18  29  45  65  92 121 144 174 222 272
#     4   8  15  28  44  64  87 114 147 187 226 257
#     4   9  18  33  48  64  92 121 145 182 230 269
#     4  10  20  33  46  62  91 126 153 185 226 261
#     4   9  16  28  46  64  88 115 145 186 224 262
#     4  10  19  30  48  69  87 116 154 188 220 263
#     4  10  19  30  42  61  93 126 149 180 222 255
#     4  10  19  31  48  65  85 121 162 188 215 262
#
# _framework density 15.543987
#
# number of rings (size 3 to 8) (size 9 to 14) (size 15 to 20)
#    0.000    2.500    2.500    1.500    0.000    2.000 
#    0.000    1.875    0.000    0.000    0.000    0.875 
#    0.000    7.000    0.000    0.000    0.000    0.000 
#
# Total GULP energy -396739.952513 kJ/mol
# GULP energy per Si atom -12398.123516 kJ/mol
# Density = 1.550861 g / cm^3
# Si number density = 15.543987 Si / 1000 Ang^3
#
#
#
# Elastic Constant Matrix: (Units=GPa)
#
#
# Indices 1 2 3 4 5 6 
#
# 1 69.7502 28.8278 45.5146 0.0000 9.6786 0.0000
# 2 28.8278 53.3557 49.3400 0.0000 4.0582 0.0000
# 3 45.5146 49.3400 106.6852 0.0000 5.9247 0.0000
# 4 0.0000 0.0000 0.0000 27.3723 0.0000 2.6765
# 5 9.6786 4.0582 5.9247 0.0000 22.8711 0.0000
# 6 0.0000 0.0000 0.0000 2.6765 0.0000 19.5966
#
#
#
# Elastic Compliance Matrix: (Units=1/GPa)
#
#
# Indices 1 2 3 4 5 6 
#
# 1 0.021605 -0.005220 -0.006439 0.000000 -0.006548 0.000000
# 2 -0.005220 0.034092 -0.013521 0.000000 -0.000337 0.000000
# 3 -0.006439 -0.013521 0.018353 0.000000 0.000370 0.000000
# 4 0.000000 0.000000 0.000000 0.037028 0.000000 -0.005057
# 5 -0.006548 -0.000337 0.000370 0.000000 0.046459 0.000000
# 6 0.000000 0.000000 0.000000 -0.005057 0.000000 0.051720
#
#
# Mechanical properties :
#
#
# Convention : Reuss Voigt Hill
#
# Bulk Modulus (GPa) = 42.21416 53.01733 47.61575
# Shear Modulus (GPa) = 18.69066 21.04191 19.86628
#
# Velocity S-wave (km/s) = 3.47138 3.68326 3.57889
# Velocity P-wave (km/s) = 6.57907 7.22983 6.91211
#
# Compressibility (1/GPa) = 0.02368873
#
# Stress axis : x y z
#
# Youngs Moduli (GPa) = 46.28559 29.33275 54.48655
#
# Poissons Ratio (x) = 0.15313 0.35085
# Poissons Ratio (y) = 0.24163 0.73671
# Poissons Ratio (z) = 0.29804 0.39660
#
# Static dielectric constant tensor:
#      x y z
#    x 3.045640 0.000000 0.056740 
#    y 0.000000 2.869300 0.000000 
#    z 0.056740 0.000000 2.957630 
# 
# 
# High freq. dielectric constant tensor:
#      x y z
#    x 1.580050 0.000000 0.010670 
#    y 0.000000 1.588670 0.000000 
#    z 0.010670 0.000000 1.583580 
# 
# From -- ./inp_files/248530.got.cif
#   From: 2010.06.25/outbox.cif.g09.slc.cpg/sg12_125_cif.got.tgz:248530.got - 2010.06.28 00:19:55.
