data_PCOD8080896
_publ_section_title
;
Structure prediction by ZEFSAII (Michael W. Deem and Ramdas Pophale) SiO2 
 PCOD8080896
Probable space group: C 2/M
;
_chemical_formula_sum "Si O2"
_cell_formula_units_Z 52
_cell_length_a 19.604612
_cell_length_b 23.207932
_cell_length_c 13.998759
_cell_angle_alpha 90.000000
_cell_angle_beta 26.663539
_cell_angle_gamma 90.000000
_cell_volume 2858.176725
_symmetry_space_group_name_H-M "C 2/M"
_symmetry_group_IT_number 12
_symmetry_cell_setting 'monoclinic'
loop_
_space_group_symop_operation_xyz
x,y,z
-x,y,-z
-x,-y,-z
x,-y,z
1/2+x,1/2+y,z
1/2-x,1/2+y,-z
1/2-x,1/2-y,-z
1/2+x,1/2-y,z
loop_
_atom_site_type_symbol
_atom_site_label
_atom_site_fract_x
_atom_site_fract_y
_atom_site_fract_z
Si Si1 0.270403 0.935877 0.466297
Si Si2 0.500000 0.354717 0.500000
Si Si3 0.597178 0.217557 0.784306
Si Si4 0.062423 0.622086 0.125560
Si Si5 0.600518 0.672583 0.663516
Si Si6 0.261191 0.433994 0.714634
Si Si7 0.813045 0.812803 0.899269
O O1 0.425437 0.920078 0.329674
O O2 0.137402 0.890922 0.658843
O O3 0.304859 0.930358 0.309699
O O4 0.217311 0.000000 0.560988
O O5 0.414345 0.396011 0.531097
O O6 0.386981 0.313403 0.700663
O O7 0.511462 0.183471 0.808196
O O8 0.603004 0.284609 0.750344
O O9 0.770267 0.192797 0.575821
O O10 0.500000 0.207995 0.000000
O O11 0.139275 0.591043 0.939984
O O12 0.180435 0.637878 0.063040
O O13 0.434135 0.669911 0.827083
O O14 0.298527 0.500000 0.694849
O O15 0.750000 0.750000 0.000000
#
# Coordination Sequence:
#
# PCOD8080896 Si02
#       7
#     8   4   8   8   8   8   8
#     4  10  19  33  50  71 101 138 175 214 254 299
#     4  10  21  32  48  72 106 144 175 206 256 304
#     4  10  20  33  54  75 103 134 171 217 262 309
#     4  10  19  30  48  73 103 137 170 206 252 311
#     4  10  20  35  51  76 105 135 175 211 260 311
#     4  10  18  29  47  71 103 139 175 205 242 306
#     4  11  21  34  49  74 107 143 171 214 259 307
#
# _framework density 18.193415999999999
#
# number of rings (size 3 to 8) (size 9 to 14) (size 15 to 20)
#    0.000    1.846    3.077    3.000    2.154    1.231 
#    0.000    0.769    0.000    0.462    0.000    0.000 
#    0.000    1.231    0.000    0.000    0.000    0.000 
#
# Total GULP energy -322267.446265 kJ/mol
# GULP energy per Si atom -12394.901779 kJ/mol
# Density = 1.815201 g / cm^3
# Si number density = 18.193416 Si / 1000 Ang^3
#
#
#
# Elastic Constant Matrix: (Units=GPa)
#
#
# Indices 1 2 3 4 5 6 
#
# 1 63.7684 30.9442 25.6418 0.0113 -33.5737 -0.0038
# 2 30.9442 140.4389 33.5440 0.0020 -15.0889 0.0014
# 3 25.6418 33.5440 54.8562 0.0134 -23.3758 0.0015
# 4 0.0113 0.0020 0.0134 24.9509 -0.0076 1.3262
# 5 -33.5737 -15.0889 -23.3758 -0.0076 30.9548 0.0009
# 6 -0.0038 0.0014 0.0015 1.3262 0.0009 23.7090
#
#
#
# Elastic Compliance Matrix: (Units=1/GPa)
#
#
# Indices 1 2 3 4 5 6 
#
# 1 0.039031 -0.004690 0.002490 -0.000006 0.041927 0.000005
# 2 -0.004690 0.008904 -0.005265 0.000003 -0.004722 -0.000001
# 3 0.002490 -0.005265 0.029994 -0.000010 0.022785 -0.000001
# 4 -0.000006 0.000003 -0.000010 0.040198 -0.000003 -0.002249
# 5 0.041927 -0.004722 0.022785 -0.000003 0.092684 0.000002
# 6 0.000005 -0.000001 -0.000001 -0.002249 0.000002 0.042304
#
#
# Mechanical properties :
#
#
# Convention : Reuss Voigt Hill
#
# Bulk Modulus (GPa) = 15.87320 48.81370 32.34345
# Shear Modulus (GPa) = 17.29837 27.18517 22.24177
#
# Velocity S-wave (km/s) = 3.08686 3.86972 3.50024
# Velocity P-wave (km/s) = 4.63126 6.84507 5.84395
#
# Compressibility (1/GPa) = 0.06299928
#
# Stress axis : x y z
#
# Youngs Moduli (GPa) = 25.62075 112.30827 33.33976
#
# Poissons Ratio (x) = 0.52673 -0.08301
# Poissons Ratio (y) = 0.12016 0.17553
# Poissons Ratio (z) = -0.06379 0.59128
#
# Static dielectric constant tensor:
#      x y z
#    x 3.203320 -0.000030 -0.428050 
#    y -0.000030 3.600090 0.000080 
#    z -0.428050 0.000080 3.299800 
# 
# 
# High freq. dielectric constant tensor:
#      x y z
#    x 1.677090 0.000000 -0.044430 
#    y 0.000000 1.714570 0.000000 
#    z -0.044430 0.000000 1.682120 
# 
# From -- ./inp_files/235338.got.cif
#   From: 2010.06.25/outbox.cif.g09.slc.cpg/sg12_118_cif.got.tgz:235338.got - 2010.06.28 00:19:55.
