data_PCOD8080021
_publ_section_title
;
Structure prediction by ZEFSAII (Michael W. Deem and Ramdas Pophale) SiO2 
 PCOD8080021
Probable space group: C 2/M
;
_chemical_formula_sum "Si O2"
_cell_formula_units_Z 48
_cell_length_a 13.889259
_cell_length_b 23.317982
_cell_length_c 10.055641
_cell_angle_alpha 90.000000
_cell_angle_beta 107.153663
_cell_angle_gamma 90.000000
_cell_volume 3111.847514
_symmetry_space_group_name_H-M "C 2/M"
_symmetry_group_IT_number 12
_symmetry_cell_setting 'monoclinic'
loop_
_space_group_symop_operation_xyz
x,y,z
-x,y,-z
-x,-y,-z
x,-y,z
1/2+x,1/2+y,z
1/2-x,1/2+y,-z
1/2-x,1/2-y,-z
1/2+x,1/2-y,z
loop_
_atom_site_type_symbol
_atom_site_label
_atom_site_fract_x
_atom_site_fract_y
_atom_site_fract_z
Si Si1 0.083822 0.435049 0.637937
Si Si2 0.078357 0.220112 0.332481
Si Si3 0.632762 0.725720 0.662569
Si Si4 0.323963 0.166138 0.688676
Si Si5 0.045715 0.564920 0.159203
Si Si6 0.271503 0.159864 0.360175
O O1 0.109113 0.500000 0.606246
O O2 0.189414 0.400686 0.680001
O O3 0.000000 0.409955 0.500000
O O4 0.042527 0.430659 0.769360
O O5 0.103720 0.223005 0.497190
O O6 0.098520 0.280709 0.267498
O O7 0.150115 0.170666 0.296260
O O8 0.958379 0.208525 0.274490
O O9 0.722523 0.681246 0.728881
O O10 0.670071 0.790968 0.699185
O O11 0.364687 0.107783 0.767851
O O12 0.299325 0.159012 0.525212
O O13 0.089252 0.500000 0.172531
O O14 0.000000 0.583185 0.000000
#
# Coordination Sequence:
#
# PCOD8080021 Si02
#       6
#     8   8   8   8   8   8
#     4  10  18  27  43  64  83 109 141 176 218 254
#     4   8  14  23  38  63  88 111 139 172 212 255
#     4   8  14  22  38  63  88 113 139 171 212 256
#     4   9  15  25  41  61  85 114 143 173 212 253
#     4  10  20  31  43  62  88 116 144 175 213 257
#     4   9  15  23  41  65  87 109 138 178 214 250
#
# _framework density 15.424920999999999
#
# number of rings (size 3 to 8) (size 9 to 14) (size 15 to 20)
#    0.000    3.000    1.667    3.000    2.333    0.000 
#    0.000    0.000    0.000   10.000    0.000    4.667 
#    0.000    4.000    0.000    0.000    0.000    0.000 
#
# Total GULP energy -297331.676009 kJ/mol
# GULP energy per Si atom -12388.819834 kJ/mol
# Density = 1.538981 g / cm^3
# Si number density = 15.424921 Si / 1000 Ang^3
#
#
#
# Elastic Constant Matrix: (Units=GPa)
#
#
# Indices 1 2 3 4 5 6 
#
# 1 141.5272 64.8494 18.3726 0.0000 2.5655 0.0000
# 2 64.8494 93.7027 17.5039 0.0000 6.9126 0.0000
# 3 18.3726 17.5039 38.3036 0.0000 -4.1449 0.0000
# 4 0.0000 0.0000 0.0000 12.5450 0.0000 0.2797
# 5 2.5655 6.9126 -4.1449 0.0000 9.7923 0.0000
# 6 0.0000 0.0000 0.0000 0.2797 0.0000 25.9110
#
#
#
# Elastic Compliance Matrix: (Units=1/GPa)
#
#
# Indices 1 2 3 4 5 6 
#
# 1 0.010488 -0.007068 -0.001633 0.000000 0.001550 0.000000
# 2 -0.007068 0.017682 -0.006121 0.000000 -0.013221 0.000000
# 3 -0.001633 -0.006121 0.031651 0.000000 0.018146 0.000000
# 4 0.000000 0.000000 0.000000 0.079732 0.000000 -0.000861
# 5 0.001550 -0.013221 0.018146 0.000000 0.118728 0.000000
# 6 0.000000 0.000000 0.000000 -0.000861 0.000000 0.038603
#
#
# Mechanical properties :
#
#
# Convention : Reuss Voigt Hill
#
# Bulk Modulus (GPa) = 33.13688 52.77613 42.95651
# Shear Modulus (GPa) = 14.85492 21.17018 18.01255
#
# Velocity S-wave (km/s) = 3.10667 3.70870 3.42095
# Velocity P-wave (km/s) = 5.86497 7.25454 6.59645
#
# Compressibility (1/GPa) = 0.03017786
#
# Stress axis : x y z
#
# Youngs Moduli (GPa) = 95.34410 56.55337 31.59434
#
# Poissons Ratio (x) = 0.39972 0.05160
# Poissons Ratio (y) = 0.67389 0.19339
# Poissons Ratio (z) = 0.15571 0.34616
#
# Static dielectric constant tensor:
#      x y z
#    x 3.402510 0.000000 -0.040110 
#    y 0.000000 3.012300 0.000000 
#    z -0.040110 0.000000 2.539690 
# 
# 
# High freq. dielectric constant tensor:
#      x y z
#    x 1.590980 0.000000 -0.012070 
#    y 0.000000 1.581240 0.000000 
#    z -0.012070 0.000000 1.541550 
# 
# From -- ./inp_files/64846.got.cif
#   From: 2010.06.25/outbox.cif.g09.slc.cpg/sg12_33_cif.got.tgz:64846.got - 2010.06.28 00:19:55.
