data_PCOD8080995
_publ_section_title
;
Structure prediction by ZEFSAII (Michael W. Deem and Ramdas Pophale) SiO2 
 PCOD8080995
Probable space group: C 2/M
;
_chemical_formula_sum "Si O2"
_cell_formula_units_Z 48
_cell_length_a 14.103031
_cell_length_b 17.097559
_cell_length_c 23.811568
_cell_angle_alpha 90.000000
_cell_angle_beta 151.133317
_cell_angle_gamma 90.000000
_cell_volume 2771.901181
_symmetry_space_group_name_H-M "C 2/M"
_symmetry_group_IT_number 12
_symmetry_cell_setting 'monoclinic'
loop_
_space_group_symop_operation_xyz
x,y,z
-x,y,-z
-x,-y,-z
x,-y,z
1/2+x,1/2+y,z
1/2-x,1/2+y,-z
1/2-x,1/2-y,-z
1/2+x,1/2-y,z
loop_
_atom_site_type_symbol
_atom_site_label
_atom_site_fract_x
_atom_site_fract_y
_atom_site_fract_z
Si Si1 0.670895 0.413388 0.543668
Si Si2 0.618357 0.407646 0.005300
Si Si3 0.268600 0.911439 0.884773
Si Si4 0.149533 0.092751 0.703147
Si Si5 0.402045 0.308341 0.106731
Si Si6 0.444963 0.160530 0.768222
O O1 0.500000 0.421763 0.500000
O O2 0.763467 0.500000 0.581516
O O3 0.563993 0.380431 0.431878
O O4 0.837943 0.354611 0.652832
O O5 0.619149 0.500000 0.994512
O O6 0.839070 0.375875 0.124598
O O7 0.500000 0.386152 0.000000
O O8 0.509406 0.363911 0.896484
O O9 0.172210 0.875395 0.778186
O O10 0.206827 0.862114 0.905639
O O11 0.196236 0.000000 0.856391
O O12 0.500000 0.907566 0.000000
O O13 0.331801 0.120262 0.760443
O O14 0.162001 0.000000 0.709318
O O15 0.559286 0.253911 0.220965
O O16 0.250000 0.250000 0.000000
#
# Coordination Sequence:
#
# PCOD8080995 Si02
#       6
#     8   8   8   8   8   8
#     4   8  14  27  48  73  98 122 154 196 237 281
#     4  10  20  33  48  66  91 128 169 198 224 271
#     4  10  19  32  51  72  95 125 159 197 243 289
#     4   9  17  30  52  78  98 120 154 198 243 286
#     4  10  21  31  44  67  96 125 153 191 238 284
#     4  10  18  29  48  73 101 127 151 190 244 289
#
# _framework density 17.316634000000001
#
# number of rings (size 3 to 8) (size 9 to 14) (size 15 to 20)
#    0.000    2.500    0.000    5.000    0.000    6.667 
#    0.000    0.833    0.000    2.000    0.000    0.000 
#    0.000   18.667    0.000    0.000    0.000    0.000 
#
# Total GULP energy -297403.043244 kJ/mol
# GULP energy per Si atom -12391.793468 kJ/mol
# Density = 1.727722 g / cm^3
# Si number density = 17.316634 Si / 1000 Ang^3
#
#
#
# Elastic Constant Matrix: (Units=GPa)
#
#
# Indices 1 2 3 4 5 6 
#
# 1 113.7436 56.0506 43.1788 0.0011 -15.5685 0.0001
# 2 56.0506 81.9013 49.2776 0.0014 -9.7673 0.0005
# 3 43.1788 49.2776 91.2297 0.0047 -21.4879 0.0035
# 4 0.0011 0.0014 0.0047 16.9998 0.0012 -15.6200
# 5 -15.5685 -9.7673 -21.4879 0.0012 28.1392 0.0010
# 6 0.0001 0.0005 0.0035 -15.6200 0.0010 8.1377
#
#
#
# Elastic Compliance Matrix: (Units=1/GPa)
#
#
# Indices 1 2 3 4 5 6 
#
# 1 0.013869 -0.008340 -0.001138 0.000000 0.003909 0.000000
# 2 -0.008340 0.023152 -0.009452 -0.000006 -0.003796 -0.000008
# 3 -0.001138 -0.009452 0.019124 0.000018 0.010693 0.000025
# 4 0.000000 -0.000006 0.000018 -0.077029 0.000020 -0.147853
# 5 0.003909 -0.003796 0.010693 0.000020 0.044548 0.000028
# 6 0.000000 -0.000008 0.000025 -0.147853 0.000028 -0.160913
#
#
# Mechanical properties :
#
#
# Convention : Reuss Voigt Hill
#
# Bulk Modulus (GPa) = 54.69447 64.87650 59.78548
# Shear Modulus (GPa) = -53.59499 19.87986 -16.85756
#
# Velocity S-wave (km/s) = -5.56931 3.39192 -3.12346
# Velocity P-wave (km/s) = 3.11493 7.27230 4.64670
#
# Compressibility (1/GPa) = 0.01828339
#
# Stress axis : x y z
#
# Youngs Moduli (GPa) = 72.10441 43.19277 52.28929
#
# Poissons Ratio (x) = 0.36024 0.05953
# Poissons Ratio (y) = 0.60137 0.49425
# Poissons Ratio (z) = 0.08209 0.40827
#
# Static dielectric constant tensor:
#      x y z
#    x 3.388340 0.000010 -0.606340 
#    y 0.000010 3.703220 0.000000 
#    z -0.606340 0.000000 3.625160 
# 
# 
# High freq. dielectric constant tensor:
#      x y z
#    x 1.659490 0.000000 -0.025820 
#    y 0.000000 1.664310 0.000000 
#    z -0.025820 0.000000 1.652910 
# 
# From -- ./inp_files/336494.got.cif
#   From: 2010.06.25/outbox.cif.g09.slc.cpg/sg12_169_cif.got.tgz:336494.got - 2010.06.28 00:19:55.
