data_PCOD8080152
_publ_section_title
;
Structure prediction by ZEFSAII (Michael W. Deem and Ramdas Pophale) SiO2 
 PCOD8080152
Probable space group: C 2/M
;
_chemical_formula_sum "Si O2"
_cell_formula_units_Z 56
_cell_length_a 28.594640
_cell_length_b 9.889131
_cell_length_c 24.765831
_cell_angle_alpha 90.000000
_cell_angle_beta 148.645534
_cell_angle_gamma 90.000000
_cell_volume 3643.975780
_symmetry_space_group_name_H-M "C 2/M"
_symmetry_group_IT_number 12
_symmetry_cell_setting 'monoclinic'
loop_
_space_group_symop_operation_xyz
x,y,z
-x,y,-z
-x,-y,-z
x,-y,z
1/2+x,1/2+y,z
1/2-x,1/2+y,-z
1/2-x,1/2-y,-z
1/2+x,1/2-y,z
loop_
_atom_site_type_symbol
_atom_site_label
_atom_site_fract_x
_atom_site_fract_y
_atom_site_fract_z
Si Si1 0.998758 0.847419 0.775386
Si Si2 0.847015 0.347065 0.044237
Si Si3 0.700739 0.148432 0.878566
Si Si4 0.486678 0.258141 0.330295
Si Si5 0.555727 0.349867 0.504416
Si Si6 0.793360 0.155935 0.587212
Si Si7 0.657777 0.150053 0.543261
O O1 0.060356 0.737084 0.865952
O O2 0.007948 0.841700 0.719699
O O3 0.898529 0.814061 0.695800
O O4 0.026692 0.000000 0.819974
O O5 0.860651 0.500000 0.034550
O O6 0.811647 0.356895 0.069732
O O7 0.773689 0.264683 0.936182
O O8 0.606465 0.178055 0.756790
O O9 0.734207 0.000000 0.892045
O O10 0.492845 0.355872 0.388767
O O11 0.572150 0.156031 0.417602
O O12 0.500000 0.290697 0.500000
O O13 0.590649 0.500000 0.552594
O O14 0.641827 0.253244 0.577545
O O15 0.750000 0.250000 0.500000
O O16 0.747947 0.189767 0.600006
O O17 0.775591 0.000000 0.553459
O O18 0.666119 0.000000 0.575523
#
# Coordination Sequence:
#
# PCOD8080152 Si02
#       7
#     8   8   8   8   8   8   8
#     4  10  18  28  42  59  84 117 148 174 207 247
#     4   9  18  28  39  57  80 108 141 178 211 241
#     4   9  16  27  41  57  79 108 141 172 209 250
#     4   9  17  26  45  60  85 111 144 176 208 248
#     4   9  18  31  45  61  84 113 144 178 215 254
#     4  10  18  28  41  60  84 113 146 177 208 244
#     4   9  18  29  42  61  85 111 142 177 209 246
#
# _framework density 15.36783
#
# number of rings (size 3 to 8) (size 9 to 14) (size 15 to 20)
#    0.857    1.857    1.429    1.286    0.000    6.000 
#    0.000    0.000    0.000    0.000    0.000    0.000 
#    0.000    1.143    0.000   11.000    0.000    3.286 
#
# Total GULP energy -346914.514784 kJ/mol
# GULP energy per Si atom -12389.804099 kJ/mol
# Density = 1.533285 g / cm^3
# Si number density = 15.367830 Si / 1000 Ang^3
#
#
#
# Elastic Constant Matrix: (Units=GPa)
#
#
# Indices 1 2 3 4 5 6 
#
# 1 81.9779 43.0317 26.0506 0.0000 18.5717 0.0000
# 2 43.0317 110.8876 30.3384 0.0000 23.3833 0.0000
# 3 26.0506 30.3384 59.0684 0.0000 21.9718 0.0000
# 4 0.0000 0.0000 0.0000 19.4928 0.0000 5.8768
# 5 18.5717 23.3833 21.9718 0.0000 17.2978 0.0000
# 6 0.0000 0.0000 0.0000 5.8768 0.0000 20.7552
#
#
#
# Elastic Compliance Matrix: (Units=1/GPa)
#
#
# Indices 1 2 3 4 5 6 
#
# 1 0.017297 -0.003901 -0.001286 0.000000 -0.011664 0.000000
# 2 -0.003901 0.013496 0.000032 0.000000 -0.014096 0.000000
# 3 -0.001286 0.000032 0.032194 0.000000 -0.039556 0.000000
# 4 0.000000 0.000000 0.000000 0.056089 0.000000 -0.015881
# 5 -0.011664 -0.014096 -0.039556 0.000000 0.139634 0.000000
# 6 0.000000 0.000000 0.000000 -0.015881 0.000000 0.052677
#
#
# Mechanical properties :
#
#
# Convention : Reuss Voigt Hill
#
# Bulk Modulus (GPa) = 18.98362 50.08617 34.53489
# Shear Modulus (GPa) = 14.73816 21.67670 18.20743
#
# Velocity S-wave (km/s) = 3.10018 3.75977 3.44579
# Velocity P-wave (km/s) = 5.01941 7.17706 6.19292
#
# Compressibility (1/GPa) = 0.05267700
#
# Stress axis : x y z
#
# Youngs Moduli (GPa) = 57.81269 74.09774 31.06188
#
# Poissons Ratio (x) = 0.28905 0.03995
# Poissons Ratio (y) = 0.22552 -0.00100
# Poissons Ratio (z) = 0.07436 -0.00239
#
# Static dielectric constant tensor:
#      x y z
#    x 2.671130 0.000000 0.250150 
#    y 0.000000 3.090590 0.000000 
#    z 0.250150 0.000000 2.777830 
# 
# 
# High freq. dielectric constant tensor:
#      x y z
#    x 1.547210 0.000000 0.027410 
#    y 0.000000 1.602850 0.000000 
#    z 0.027410 0.000000 1.561760 
# 
# From -- ./inp_files/351645.got.cif
#   From: 2010.06.25/outbox.cif.g09.slc.cpg/sg12_176_cif.got.tgz:351645.got - 2010.06.28 00:19:55.
