data_PCOD8080323
_publ_section_title
;
Structure prediction by ZEFSAII (Michael W. Deem and Ramdas Pophale) SiO2 
 PCOD8080323
Probable space group: C 2/M
;
_chemical_formula_sum "Si O2"
_cell_formula_units_Z 48
_cell_length_a 23.083323
_cell_length_b 8.628192
_cell_length_c 26.746067
_cell_angle_alpha 90.000000
_cell_angle_beta 29.647221
_cell_angle_gamma 90.000000
_cell_volume 2635.016634
_symmetry_space_group_name_H-M "C 2/M"
_symmetry_group_IT_number 12
_symmetry_cell_setting 'monoclinic'
loop_
_space_group_symop_operation_xyz
x,y,z
-x,y,-z
-x,-y,-z
x,-y,z
1/2+x,1/2+y,z
1/2-x,1/2+y,-z
1/2-x,1/2-y,-z
1/2+x,1/2-y,z
loop_
_atom_site_type_symbol
_atom_site_label
_atom_site_fract_x
_atom_site_fract_y
_atom_site_fract_z
Si Si1 0.518732 0.815842 0.909945
Si Si2 0.138865 0.182486 0.610784
Si Si3 0.177379 0.329938 0.096237
Si Si4 0.890803 0.820969 0.757394
Si Si5 0.575179 0.831135 0.757674
Si Si6 0.174088 0.181865 0.878363
O O1 0.560460 0.754891 0.823834
O O2 0.621767 0.774112 0.870812
O O3 0.497526 0.000000 0.924577
O O4 0.397502 0.733547 0.017972
O O5 0.250000 0.250000 0.500000
O O6 0.145372 0.227234 0.664765
O O7 0.023163 0.242831 0.667257
O O8 0.139939 0.000000 0.606975
O O9 0.227739 0.500000 0.074955
O O10 0.179730 0.205984 0.138714
O O11 0.050089 0.358439 0.171255
O O12 0.250000 0.250000 0.000000
O O13 0.813168 0.724479 0.775662
O O14 0.890929 0.000000 0.741888
O O15 0.637747 0.000000 0.715509
O O16 0.158535 0.000000 0.881529
#
# Coordination Sequence:
#
# PCOD8080323 Si02
#       6
#     8   8   8   8   8   8
#     4  10  19  33  52  74 105 144 177 209 246 295
#     4  10  21  36  57  79 101 128 162 208 261 312
#     4  10  18  28  44  69 100 132 163 201 245 296
#     4  10  20  34  50  71  98 132 170 207 250 302
#     4   9  19  33  50  72  99 131 168 205 248 299
#     4  11  21  32  49  75 106 141 177 214 249 292
#
# _framework density 18.216204999999999
#
# number of rings (size 3 to 8) (size 9 to 14) (size 15 to 20)
#    0.000    2.000    0.000    5.500    0.000    5.333 
#    0.000    0.000    0.000    1.000    0.000    7.000 
#    0.000    0.000    0.000    0.000    0.000    0.000 
#
# Total GULP energy -297358.001653 kJ/mol
# GULP energy per Si atom -12389.916736 kJ/mol
# Density = 1.817474 g / cm^3
# Si number density = 18.216205 Si / 1000 Ang^3
#
#
#
# Elastic Constant Matrix: (Units=GPa)
#
#
# Indices 1 2 3 4 5 6 
#
# 1 74.0780 11.4633 34.1741 0.0008 -1.1957 -0.0008
# 2 11.4633 62.2177 29.6628 0.0010 -0.3259 -0.0024
# 3 34.1741 29.6628 83.2368 -0.0011 2.1926 0.0003
# 4 0.0008 0.0010 -0.0011 23.3518 -0.0003 0.0579
# 5 -1.1957 -0.3259 2.1926 -0.0003 26.7752 0.0001
# 6 -0.0008 -0.0024 0.0003 0.0579 0.0001 26.1794
#
#
#
# Elastic Compliance Matrix: (Units=1/GPa)
#
#
# Indices 1 2 3 4 5 6 
#
# 1 0.016703 0.000260 -0.006985 -0.000001 0.001321 0.000001
# 2 0.000260 0.019384 -0.007036 -0.000001 0.000824 0.000002
# 3 -0.006985 -0.007036 0.017437 0.000001 -0.001825 -0.000001
# 4 -0.000001 -0.000001 0.000001 0.042823 0.000000 -0.000095
# 5 0.001321 0.000824 -0.001825 0.000000 0.037566 0.000000
# 6 0.000001 0.000002 -0.000001 -0.000095 0.000000 0.038198
#
#
# Mechanical properties :
#
#
# Convention : Reuss Voigt Hill
#
# Bulk Modulus (GPa) = 38.46007 41.12589 39.79298
# Shear Modulus (GPa) = 24.00376 24.87679 24.44027
#
# Velocity S-wave (km/s) = 3.63397 3.69947 3.66687
# Velocity P-wave (km/s) = 6.22628 6.39325 6.31032
#
# Compressibility (1/GPa) = 0.02600100
#
# Stress axis : x y z
#
# Youngs Moduli (GPa) = 59.87044 51.59026 57.34895
#
# Poissons Ratio (x) = -0.01339 0.40057
# Poissons Ratio (y) = -0.01554 0.40350
# Poissons Ratio (z) = 0.41819 0.36299
#
# Static dielectric constant tensor:
#      x y z
#    x 3.536820 0.000000 -0.088070 
#    y 0.000000 3.554790 0.000000 
#    z -0.088070 0.000000 3.258780 
# 
# 
# High freq. dielectric constant tensor:
#      x y z
#    x 1.703570 0.000000 -0.003930 
#    y 0.000000 1.715110 0.000000 
#    z -0.003930 0.000000 1.673990 
# 
# From -- ./inp_files/367114.got.cif
#   From: 2010.06.25/outbox.cif.g09.slc.cpg/sg12_184_cif.got.tgz:367114.got - 2010.06.28 00:19:55.
