data_PCOD8080613
_publ_section_title
;
Structure prediction by ZEFSAII (Michael W. Deem and Ramdas Pophale) SiO2 
 PCOD8080613
Probable space group: C 2/M
;
_chemical_formula_sum "Si O2"
_cell_formula_units_Z 64
_cell_length_a 26.971585
_cell_length_b 9.211689
_cell_length_c 23.387103
_cell_angle_alpha 90.000000
_cell_angle_beta 45.505210
_cell_angle_gamma 90.000000
_cell_volume 4144.794685
_symmetry_space_group_name_H-M "C 2/M"
_symmetry_group_IT_number 12
_symmetry_cell_setting 'monoclinic'
loop_
_space_group_symop_operation_xyz
x,y,z
-x,y,-z
-x,-y,-z
x,-y,z
1/2+x,1/2+y,z
1/2-x,1/2+y,-z
1/2-x,1/2-y,-z
1/2+x,1/2-y,z
loop_
_atom_site_type_symbol
_atom_site_label
_atom_site_fract_x
_atom_site_fract_y
_atom_site_fract_z
Si Si1 0.927013 0.671717 0.035493
Si Si2 0.554286 0.159984 0.507279
Si Si3 0.750357 0.837002 0.081488
Si Si4 0.702139 0.337142 0.827509
Si Si5 0.593678 0.831277 0.194060
Si Si6 0.954982 0.172630 0.661248
Si Si7 0.653173 0.171139 0.332629
Si Si8 0.380132 0.167639 0.950765
O O1 0.923736 0.500000 0.043353
O O2 0.864967 0.734740 0.124829
O O3 0.919642 0.725589 0.975492
O O4 0.000000 0.732030 0.000000
O O5 0.500000 0.151792 0.500000
O O6 0.528664 0.276532 0.574549
O O7 0.627032 0.206442 0.418405
O O8 0.560745 0.000000 0.530695
O O9 0.768195 0.828748 0.133279
O O10 0.672827 0.777683 0.136777
O O11 0.755120 0.000000 0.053828
O O12 0.805415 0.742288 0.001605
O O13 0.678854 0.500000 0.830532
O O14 0.765452 0.285376 0.735367
O O15 0.546002 0.731513 0.272930
O O16 0.572969 0.806781 0.143938
O O17 0.585306 0.000000 0.218485
O O18 0.890159 0.238703 0.679097
O O19 0.951096 0.000000 0.663371
O O20 0.643245 0.000000 0.326138
O O21 0.363150 0.000000 0.972832
#
# Coordination Sequence:
#
# PCOD8080613 Si02
#       8
#     8   8   8   8   8   8   8   8
#     4   9  18  32  46  62  87 111 133 169 216 257
#     4   8  15  27  42  55  75 112 147 172 204 244
#     4   9  16  26  40  56  80 108 132 171 212 237
#     4   9  16  27  44  64  83 106 141 175 204 242
#     4  10  18  29  41  54  79 112 145 174 201 242
#     4  11  20  26  37  58  84 113 144 177 208 240
#     4   9  16  29  44  58  81 112 144 176 208 243
#     4   9  18  29  43  60  77 105 142 173 204 247
#
# _framework density 15.441055
#
# number of rings (size 3 to 8) (size 9 to 14) (size 15 to 20)
#    0.000    2.750    1.250    2.250    0.000    4.000 
#    0.000    0.000    0.000    0.000    0.000    0.000 
#    0.000    1.000    0.000    2.000    0.000    2.750 
#
# Total GULP energy -396607.168699 kJ/mol
# GULP energy per Si atom -12393.974022 kJ/mol
# Density = 1.540591 g / cm^3
# Si number density = 15.441055 Si / 1000 Ang^3
#
#
#
# Elastic Constant Matrix: (Units=GPa)
#
#
# Indices 1 2 3 4 5 6 
#
# 1 45.2917 18.8962 36.8346 -0.0020 -7.3598 0.0036
# 2 18.8962 61.3904 49.8923 -0.0030 0.5509 0.0129
# 3 36.8346 49.8923 129.7103 -0.0004 -5.1751 0.0024
# 4 -0.0020 -0.0030 -0.0004 24.3000 -0.0004 -1.9867
# 5 -7.3598 0.5509 -5.1751 -0.0004 16.0533 -0.0018
# 6 0.0036 0.0129 0.0024 -1.9867 -0.0018 11.6826
#
#
#
# Elastic Compliance Matrix: (Units=1/GPa)
#
#
# Indices 1 2 3 4 5 6 
#
# 1 0.031375 -0.004259 -0.006779 0.000002 0.012345 -0.000001
# 2 -0.004259 0.024506 -0.008437 0.000000 -0.005513 -0.000025
# 3 -0.006779 -0.008437 0.012934 -0.000001 0.001351 0.000009
# 4 0.000002 0.000000 -0.000001 0.041732 0.000002 0.007097
# 5 0.012345 -0.005513 0.001351 0.000002 0.068577 0.000013
# 6 -0.000001 -0.000025 0.000009 0.007097 0.000013 0.086804
#
#
# Mechanical properties :
#
#
# Convention : Reuss Voigt Hill
#
# Bulk Modulus (GPa) = 33.48320 49.73763 41.61041
# Shear Modulus (GPa) = 15.88143 19.12514 17.50329
#
# Velocity S-wave (km/s) = 3.21053 3.52318 3.37048
# Velocity P-wave (km/s) = 5.95609 6.98796 6.49256
#
# Compressibility (1/GPa) = 0.02986573
#
# Stress axis : x y z
#
# Youngs Moduli (GPa) = 31.87225 40.80625 77.31780
#
# Poissons Ratio (x) = 0.17378 0.52415
# Poissons Ratio (y) = 0.13574 0.65231
# Poissons Ratio (z) = 0.21607 0.34427
#
# Static dielectric constant tensor:
#      x y z
#    x 2.658560 -0.000010 0.007190 
#    y -0.000010 2.930360 0.000000 
#    z 0.007190 0.000000 3.380000 
# 
# 
# High freq. dielectric constant tensor:
#      x y z
#    x 1.532110 0.000000 0.003760 
#    y 0.000000 1.586780 0.000000 
#    z 0.003760 0.000000 1.600140 
# 
# From -- ./inp_files/350915.got.cif
#   From: 2010.06.25/outbox.cif.g09.slc.cpg/sg12_176_cif.got.tgz:350915.got - 2010.06.28 00:19:55.
