data_PCOD8080642
_publ_section_title
;
Structure prediction by ZEFSAII (Michael W. Deem and Ramdas Pophale) SiO2 
 PCOD8080642
Probable space group: C 2/M
;
_chemical_formula_sum "Si O2"
_cell_formula_units_Z 56
_cell_length_a 28.544593
_cell_length_b 9.141950
_cell_length_c 13.606614
_cell_angle_alpha 90.000000
_cell_angle_beta 104.945269
_cell_angle_gamma 90.000000
_cell_volume 3430.579491
_symmetry_space_group_name_H-M "C 2/M"
_symmetry_group_IT_number 12
_symmetry_cell_setting 'monoclinic'
loop_
_space_group_symop_operation_xyz
x,y,z
-x,y,-z
-x,-y,-z
x,-y,z
1/2+x,1/2+y,z
1/2-x,1/2+y,-z
1/2-x,1/2-y,-z
1/2+x,1/2-y,z
loop_
_atom_site_type_symbol
_atom_site_label
_atom_site_fract_x
_atom_site_fract_y
_atom_site_fract_z
Si Si1 0.555138 0.669396 0.143485
Si Si2 0.759337 0.329908 0.606047
Si Si3 0.554081 0.669620 0.913883
Si Si4 0.712627 0.834763 0.753134
Si Si5 0.143754 0.670439 0.881695
Si Si6 0.192732 0.168811 0.077377
Si Si7 0.645118 0.829420 0.227635
O O1 0.566838 0.500000 0.168177
O O2 0.500683 0.706109 0.149282
O O3 0.592043 0.767946 0.228979
O O4 0.560546 0.709146 0.031562
O O5 0.749600 0.500000 0.586502
O O6 0.750000 0.250000 0.500000
O O7 0.721468 0.273946 0.667548
O O8 0.814850 0.297586 0.667224
O O9 0.565687 0.500000 0.902705
O O10 0.590210 0.764426 0.866645
O O11 0.660744 0.806422 0.777285
O O12 0.752084 0.810135 0.860072
O O13 0.716236 0.000000 0.713805
O O14 0.143463 0.500000 0.908834
O O15 0.183649 0.750999 0.970017
O O16 0.157316 0.240467 0.136968
O O17 0.178110 0.000000 0.058449
O O18 0.642642 0.000000 0.202006
#
# Coordination Sequence:
#
# PCOD8080642 Si02
#       7
#     8   8   8   8   8   8   8
#     4   9  17  30  46  65  92 128 166 199 233 276
#     4  10  21  36  54  75  97 121 153 195 240 287
#     4   9  18  30  44  64  93 130 168 199 230 273
#     4   9  20  34  47  66  94 126 159 194 234 282
#     4  11  20  29  43  67  96 127 162 198 234 272
#     4  10  18  29  44  62  91 131 164 191 227 274
#     4  10  19  30  47  72  97 121 156 199 238 279
#
# _framework density 16.323772999999999
#
# number of rings (size 3 to 8) (size 9 to 14) (size 15 to 20)
#    0.000    2.286    1.429    3.000    0.000    4.000 
#    0.000    1.429    0.000    0.000    0.000    1.000 
#    0.000    8.000    0.000    0.000    0.000    0.000 
#
# Total GULP energy -347131.342885 kJ/mol
# GULP energy per Si atom -12397.547960 kJ/mol
# Density = 1.628662 g / cm^3
# Si number density = 16.323773 Si / 1000 Ang^3
#
#
#
# Elastic Constant Matrix: (Units=GPa)
#
#
# Indices 1 2 3 4 5 6 
#
# 1 108.8368 58.4741 41.8948 0.0000 -2.9366 0.0000
# 2 58.4741 104.2359 51.2527 0.0000 -5.4624 0.0000
# 3 41.8948 51.2527 69.0563 0.0000 -5.7991 0.0000
# 4 0.0000 0.0000 0.0000 25.8264 0.0000 1.3130
# 5 -2.9366 -5.4624 -5.7991 0.0000 13.0963 0.0000
# 6 0.0000 0.0000 0.0000 1.3130 0.0000 28.9389
#
#
#
# Elastic Compliance Matrix: (Units=1/GPa)
#
#
# Indices 1 2 3 4 5 6 
#
# 1 0.013888 -0.005765 -0.004245 0.000000 -0.001170 0.000000
# 2 -0.005765 0.017524 -0.009351 0.000000 0.001876 0.000000
# 3 -0.004245 -0.009351 0.024500 0.000000 0.005997 0.000000
# 4 0.000000 0.000000 0.000000 0.038810 0.000000 -0.001761
# 5 -0.001170 0.001876 0.005997 0.000000 0.079533 0.000000
# 6 0.000000 0.000000 0.000000 -0.001761 0.000000 0.034635
#
#
# Mechanical properties :
#
#
# Convention : Reuss Voigt Hill
#
# Bulk Modulus (GPa) = 58.17389 65.04134 61.60761
# Shear Modulus (GPa) = 19.73623 22.27281 21.00452
#
# Velocity S-wave (km/s) = 3.48091 3.69784 3.59101
# Velocity P-wave (km/s) = 7.20212 7.62647 7.41733
#
# Compressibility (1/GPa) = 0.01718984
#
# Stress axis : x y z
#
# Youngs Moduli (GPa) = 72.00587 57.06562 40.81612
#
# Poissons Ratio (x) = 0.32897 0.17327
# Poissons Ratio (y) = 0.41509 0.38167
# Poissons Ratio (z) = 0.30567 0.53362
#
# Static dielectric constant tensor:
#      x y z
#    x 3.261330 0.000000 0.103830 
#    y 0.000000 3.140460 0.000000 
#    z 0.103830 0.000000 2.714210 
# 
# 
# High freq. dielectric constant tensor:
#      x y z
#    x 1.631650 0.000000 0.007070 
#    y 0.000000 1.639590 0.000000 
#    z 0.007070 0.000000 1.578920 
# 
# From -- ./inp_files/247940.got.cif
#   From: 2010.06.25/outbox.cif.g09.slc.cpg/sg12_124_cif.got.tgz:247940.got - 2010.06.28 00:19:55.
