data_PCOD8080284
_publ_section_title
;
Structure prediction by ZEFSAII (Michael W. Deem and Ramdas Pophale) SiO2 
 PCOD8080284
Probable space group: C 2/M
;
_chemical_formula_sum "Si O2"
_cell_formula_units_Z 64
_cell_length_a 25.718099
_cell_length_b 8.851503
_cell_length_c 21.283242
_cell_angle_alpha 90.000000
_cell_angle_beta 52.573380
_cell_angle_gamma 90.000000
_cell_volume 3847.570201
_symmetry_space_group_name_H-M "C 2/M"
_symmetry_group_IT_number 12
_symmetry_cell_setting 'monoclinic'
loop_
_space_group_symop_operation_xyz
x,y,z
-x,y,-z
-x,-y,-z
x,-y,z
1/2+x,1/2+y,z
1/2-x,1/2+y,-z
1/2-x,1/2-y,-z
1/2+x,1/2-y,z
loop_
_atom_site_type_symbol
_atom_site_label
_atom_site_fract_x
_atom_site_fract_y
_atom_site_fract_z
Si Si1 0.192197 0.820104 0.000860
Si Si2 0.194380 0.824601 0.321005
Si Si3 0.246167 0.677414 0.405311
Si Si4 0.770847 0.823505 0.844680
Si Si5 0.117575 0.324868 0.156190
Si Si6 0.504596 0.173805 0.673740
Si Si7 0.451962 0.320998 0.588722
Si Si8 0.651515 0.822309 0.585414
O O1 0.205178 0.755450 0.921294
O O2 0.192324 0.000000 0.000259
O O3 0.250000 0.750000 0.000000
O O4 0.125869 0.757515 0.082146
O O5 0.234212 0.737265 0.344516
O O6 0.231029 0.797025 0.228316
O O7 0.120771 0.758487 0.371003
O O8 0.192745 0.000000 0.340046
O O9 0.252906 0.500000 0.397602
O O10 0.314333 0.743537 0.380512
O O11 0.186800 0.727694 0.494729
O O12 0.836387 0.749790 0.824827
O O13 0.771694 0.000000 0.861279
O O14 0.137317 0.500000 0.135605
O O15 0.042168 0.305162 0.231612
O O16 0.476658 0.270325 0.637798
O O17 0.576624 0.233199 0.638477
O O18 0.507479 0.000000 0.650082
O O19 0.500000 0.256025 0.500000
O O20 0.450786 0.500000 0.589374
O O21 0.656759 0.000000 0.591836
#
# Coordination Sequence:
#
# PCOD8080284 Si02
#       8
#     8   8   8   8   8   8   8   8
#     4  10  18  28  44  65  92 126 160 194 235 279
#     4  10  20  32  47  69  98 131 160 194 242 287
#     4  10  20  33  52  73  92 122 165 209 246 282
#     4  10  18  30  46  66  95 129 162 194 233 282
#     4  10  18  29  45  68  96 126 160 195 234 282
#     4  10  20  32  49  71  96 128 162 198 240 285
#     4  10  20  32  46  67  97 131 163 194 235 288
#     4   9  19  36  52  69  95 125 161 205 249 287
#
# _framework density 16.633875
#
# number of rings (size 3 to 8) (size 9 to 14) (size 15 to 20)
#    0.000    2.125    1.250    4.500    0.000    3.250 
#    0.000    0.000    0.000    0.000    0.000    0.875 
#    0.000    7.000    0.000    0.000    0.000    0.000 
#
# Total GULP energy -396781.648410 kJ/mol
# GULP energy per Si atom -12399.426513 kJ/mol
# Density = 1.659602 g / cm^3
# Si number density = 16.633875 Si / 1000 Ang^3
#
#
#
# Elastic Constant Matrix: (Units=GPa)
#
#
# Indices 1 2 3 4 5 6 
#
# 1 87.8819 29.4910 42.0695 -0.0008 8.0094 0.0002
# 2 29.4910 73.6814 38.5772 -0.0055 6.7133 -0.0004
# 3 42.0695 38.5772 102.1762 -0.0011 5.1690 0.0001
# 4 -0.0008 -0.0055 -0.0011 25.5640 0.0004 5.9929
# 5 8.0094 6.7133 5.1690 0.0004 16.1125 0.0001
# 6 0.0002 -0.0004 0.0001 5.9929 0.0001 21.4837
#
#
#
# Elastic Compliance Matrix: (Units=1/GPa)
#
#
# Indices 1 2 3 4 5 6 
#
# 1 0.015163 -0.003112 -0.004831 0.000000 -0.004691 0.000000
# 2 -0.003112 0.017974 -0.005290 0.000004 -0.004245 -0.000001
# 3 -0.004831 -0.005290 0.013764 -0.000001 0.000190 0.000000
# 4 0.000000 0.000004 -0.000001 0.041855 -0.000002 -0.011675
# 5 -0.004691 -0.004245 0.000190 -0.000002 0.066103 0.000000
# 6 0.000000 -0.000001 0.000000 -0.011675 0.000000 0.049804
#
#
# Mechanical properties :
#
#
# Convention : Reuss Voigt Hill
#
# Bulk Modulus (GPa) = 48.93650 53.77942 51.35796
# Shear Modulus (GPa) = 21.01361 22.87216 21.94288
#
# Velocity S-wave (km/s) = 3.55815 3.71217 3.63598
# Velocity P-wave (km/s) = 6.80913 7.12566 6.96919
#
# Compressibility (1/GPa) = 0.02043465
#
# Stress axis : x y z
#
# Youngs Moduli (GPa) = 65.94789 55.63547 72.65475
#
# Poissons Ratio (x) = 0.17316 0.35099
# Poissons Ratio (y) = 0.20526 0.38434
# Poissons Ratio (z) = 0.31859 0.29431
#
# Static dielectric constant tensor:
#      x y z
#    x 2.869560 0.000000 -0.113070 
#    y 0.000000 3.150740 0.000000 
#    z -0.113070 0.000000 3.660950 
# 
# 
# High freq. dielectric constant tensor:
#      x y z
#    x 1.600220 0.000000 -0.000500 
#    y 0.000000 1.648790 0.000000 
#    z -0.000500 0.000000 1.651260 
# 
# From -- ./inp_files/319820.got.cif
#   From: 2010.06.25/outbox.cif.g09.slc.cpg/sg12_160_cif.got.tgz:319820.got - 2010.06.28 00:19:55.
