data_PCOD8080502
_publ_section_title
;
Structure prediction by ZEFSAII (Michael W. Deem and Ramdas Pophale) SiO2 
 PCOD8080502
Probable space group: C 2/M
;
_chemical_formula_sum "Si O2"
_cell_formula_units_Z 48
_cell_length_a 29.869181
_cell_length_b 9.084927
_cell_length_c 11.990101
_cell_angle_alpha 90.000000
_cell_angle_beta 120.502001
_cell_angle_gamma 90.000000
_cell_volume 2803.361160
_symmetry_space_group_name_H-M "C 2/M"
_symmetry_group_IT_number 12
_symmetry_cell_setting 'monoclinic'
loop_
_space_group_symop_operation_xyz
x,y,z
-x,y,-z
-x,-y,-z
x,-y,z
1/2+x,1/2+y,z
1/2-x,1/2+y,-z
1/2-x,1/2-y,-z
1/2+x,1/2-y,z
loop_
_atom_site_type_symbol
_atom_site_label
_atom_site_fract_x
_atom_site_fract_y
_atom_site_fract_z
Si Si1 0.882035 0.327043 0.859790
Si Si2 0.305343 0.824885 0.573263
Si Si3 0.112277 0.169404 0.467255
Si Si4 0.923628 0.667262 0.134163
Si Si5 0.054765 0.830757 0.614000
Si Si6 0.039697 0.333220 0.222779
O O1 0.880177 0.500000 0.872157
O O2 0.832478 0.274960 0.724239
O O3 0.934650 0.281931 0.861092
O O4 0.883751 0.265238 0.989869
O O5 0.250000 0.750000 0.500000
O O6 0.339168 0.767612 0.511372
O O7 0.300007 0.000000 0.557792
O O8 0.101675 0.188782 0.585316
O O9 0.059153 0.222932 0.342828
O O10 0.123415 0.000000 0.450765
O O11 0.909669 0.500000 0.148868
O O12 0.923766 0.757614 0.247220
O O13 0.978240 0.674615 0.138616
O O14 0.000000 0.761032 0.500000
O O15 0.043873 0.000000 0.627835
O O16 0.058697 0.500000 0.274829
#
# Coordination Sequence:
#
# PCOD8080502 Si02
#       6
#     8   8   8   8   8   8
#     4   8  16  30  47  71 100 128 158 201 253 299
#     4  10  20  36  58  79 100 123 158 207 259 305
#     4  10  19  32  50  71 100 135 171 205 244 291
#     4  10  18  28  47  71  98 134 172 203 237 289
#     4  10  20  33  46  66 103 144 173 203 243 285
#     4   9  16  27  45  69  99 132 166 203 242 289
#
# _framework density 17.122301
#
# number of rings (size 3 to 8) (size 9 to 14) (size 15 to 20)
#    0.000    2.500    1.667    2.500    0.000    3.667 
#    0.000    4.167    0.000    6.000    0.000    0.000 
#    0.000    0.000    0.000    0.000    0.000    0.000 
#
# Total GULP energy -297391.748401 kJ/mol
# GULP energy per Si atom -12391.322850 kJ/mol
# Density = 1.708333 g / cm^3
# Si number density = 17.122301 Si / 1000 Ang^3
#
#
#
# Elastic Constant Matrix: (Units=GPa)
#
#
# Indices 1 2 3 4 5 6 
#
# 1 63.3777 37.2648 52.5541 0.0000 1.1221 0.0000
# 2 37.2648 67.1520 49.5851 0.0000 -5.2303 0.0000
# 3 52.5541 49.5851 139.7300 0.0000 -17.4784 0.0000
# 4 0.0000 0.0000 0.0000 15.4197 0.0000 -1.9953
# 5 1.1221 -5.2303 -17.4784 0.0000 21.3763 0.0000
# 6 0.0000 0.0000 0.0000 -1.9953 0.0000 26.5099
#
#
#
# Elastic Compliance Matrix: (Units=1/GPa)
#
#
# Indices 1 2 3 4 5 6 
#
# 1 0.029572 -0.010887 -0.008674 0.000000 -0.011308 0.000000
# 2 -0.010887 0.024207 -0.004103 0.000000 0.003140 0.000000
# 3 -0.008674 -0.004103 0.013151 0.000000 0.010205 0.000000
# 4 0.000000 0.000000 0.000000 0.065490 0.000000 0.004929
# 5 -0.011308 0.003140 0.010205 0.000000 0.056487 0.000000
# 6 0.000000 0.000000 0.000000 0.004929 0.000000 0.038093
#
#
# Mechanical properties :
#
#
# Convention : Reuss Voigt Hill
#
# Bulk Modulus (GPa) = 51.00948 61.00752 56.00850
# Shear Modulus (GPa) = 17.80240 21.38488 19.59364
#
# Velocity S-wave (km/s) = 3.22797 3.53788 3.38647
# Velocity P-wave (km/s) = 6.61430 7.23855 6.93345
#
# Compressibility (1/GPa) = 0.01960420
#
# Stress axis : x y z
#
# Youngs Moduli (GPa) = 33.81564 41.31027 76.03768
#
# Poissons Ratio (x) = 0.44973 0.65953
# Poissons Ratio (y) = 0.36814 0.31197
# Poissons Ratio (z) = 0.29331 0.16949
#
# Static dielectric constant tensor:
#      x y z
#    x 2.991190 0.000000 -0.073030 
#    y 0.000000 3.104120 0.000000 
#    z -0.073030 0.000000 3.354190 
# 
# 
# High freq. dielectric constant tensor:
#      x y z
#    x 1.635220 0.000000 -0.012580 
#    y 0.000000 1.647380 0.000000 
#    z -0.012580 0.000000 1.659190 
# 
# From -- ./inp_files/172149.got.cif
#   From: 2010.06.25/outbox.cif.g09.slc.cpg/sg12_87_cif.got.tgz:172149.got - 2010.06.28 00:19:55.
