data_PCOD8080928
_publ_section_title
;
Structure prediction by ZEFSAII (Michael W. Deem and Ramdas Pophale) SiO2 
 PCOD8080928
Probable space group: C 2/M
;
_chemical_formula_sum "Si O2"
_cell_formula_units_Z 56
_cell_length_a 15.206084
_cell_length_b 18.168392
_cell_length_c 19.255348
_cell_angle_alpha 90.000000
_cell_angle_beta 141.659579
_cell_angle_gamma 90.000000
_cell_volume 3299.968533
_symmetry_space_group_name_H-M "C 2/M"
_symmetry_group_IT_number 12
_symmetry_cell_setting 'monoclinic'
loop_
_space_group_symop_operation_xyz
x,y,z
-x,y,-z
-x,-y,-z
x,-y,z
1/2+x,1/2+y,z
1/2-x,1/2+y,-z
1/2-x,1/2-y,-z
1/2+x,1/2-y,z
loop_
_atom_site_type_symbol
_atom_site_label
_atom_site_fract_x
_atom_site_fract_y
_atom_site_fract_z
Si Si1 0.315500 0.786248 0.225632
Si Si2 0.116789 0.789771 0.223423
Si Si3 0.611328 0.727694 0.373356
Si Si4 0.845838 0.084551 0.928529
Si Si5 0.757520 0.919500 0.028782
Si Si6 0.051668 0.083629 0.272361
Si Si7 0.099757 0.705870 0.999532
O O1 0.254420 0.767421 0.264117
O O2 0.481707 0.769858 0.329889
O O3 0.278194 0.871601 0.188225
O O4 0.243999 0.738791 0.120002
O O5 0.121874 0.745211 0.299634
O O6 0.112153 0.877731 0.238925
O O7 0.975617 0.768088 0.093502
O O8 0.750000 0.750000 0.500000
O O9 0.907722 0.862193 0.637780
O O10 0.831701 0.000000 0.897562
O O11 0.829226 0.097304 0.999726
O O12 0.000000 0.116010 0.000000
O O13 0.635273 0.862133 0.971684
O O14 0.881385 0.917984 0.163039
O O15 0.685430 0.000000 0.983025
O O16 0.111914 0.000000 0.318188
O O17 0.000000 0.677909 0.000000
#
# Coordination Sequence:
#
# PCOD8080928 Si02
#       7
#     8   8   8   8   8   8   8
#     4  11  19  32  54  78 109 144 177 218 265 323
#     4   9  20  32  54  82 106 139 174 221 267 321
#     4  10  22  37  54  77 102 141 186 231 269 309
#     4  10  20  30  47  79 116 147 172 207 268 340
#     4  10  18  29  47  73 109 149 175 208 257 310
#     4   9  18  34  54  78 105 137 179 223 263 311
#     4  10  18  31  50  79 110 139 173 212 266 318
#
# _framework density 16.969859
#
# number of rings (size 3 to 8) (size 9 to 14) (size 15 to 20)
#    0.857    1.286    1.429    3.857    0.000    4.286 
#    0.000    0.714    0.000    2.143    0.000    1.000 
#    0.000    0.000    0.000    0.000    0.000    0.000 
#
# Total GULP energy -346979.926785 kJ/mol
# GULP energy per Si atom -12392.140242 kJ/mol
# Density = 1.693123 g / cm^3
# Si number density = 16.969859 Si / 1000 Ang^3
#
#
#
# Elastic Constant Matrix: (Units=GPa)
#
#
# Indices 1 2 3 4 5 6 
#
# 1 91.7340 56.9546 40.2473 0.0003 8.6738 0.0002
# 2 56.9546 113.0258 33.5137 0.0000 8.0475 0.0000
# 3 40.2473 33.5137 71.1644 0.0007 16.8018 0.0003
# 4 0.0003 0.0000 0.0007 19.7881 0.0004 -2.3188
# 5 8.6738 8.0475 16.8018 0.0004 22.2498 0.0001
# 6 0.0002 0.0000 0.0003 -2.3188 0.0001 25.7301
#
#
#
# Elastic Compliance Matrix: (Units=1/GPa)
#
#
# Indices 1 2 3 4 5 6 
#
# 1 0.018491 -0.007227 -0.007265 0.000000 0.000891 0.000000
# 2 -0.007227 0.013108 -0.001986 0.000000 -0.000424 0.000000
# 3 -0.007265 -0.001986 0.022219 0.000000 -0.013228 0.000000
# 4 0.000000 0.000000 0.000000 0.051075 -0.000001 0.004603
# 5 0.000891 -0.000424 -0.013228 -0.000001 0.054739 0.000000
# 6 0.000000 0.000000 0.000000 0.004603 0.000000 0.039280
#
#
# Mechanical properties :
#
#
# Convention : Reuss Voigt Hill
#
# Bulk Modulus (GPa) = 47.93105 59.70616 53.81860
# Shear Modulus (GPa) = 20.93609 23.23417 22.08513
#
# Velocity S-wave (km/s) = 3.51625 3.70421 3.61145
# Velocity P-wave (km/s) = 6.69264 7.31812 7.01236
#
# Compressibility (1/GPa) = 0.02086330
#
# Stress axis : x y z
#
# Youngs Moduli (GPa) = 54.07947 76.28705 45.00701
#
# Poissons Ratio (x) = 0.55135 0.32696
# Poissons Ratio (y) = 0.39085 0.08936
# Poissons Ratio (z) = 0.39287 0.15147
#
# Static dielectric constant tensor:
#      x y z
#    x 3.156800 0.000000 -0.098870 
#    y 0.000000 3.227820 0.000000 
#    z -0.098870 0.000000 2.775390 
# 
# 
# High freq. dielectric constant tensor:
#      x y z
#    x 1.654470 0.000000 -0.007230 
#    y 0.000000 1.651890 0.000000 
#    z -0.007230 0.000000 1.613530 
# 
# From -- ./inp_files/271461.got.cif
#   From: 2010.06.25/outbox.cif.g09.slc.cpg/sg12_136_cif.got.tgz:271461.got - 2010.06.28 00:19:55.
