data_PCOD8080766
_publ_section_title
;
Structure prediction by ZEFSAII (Michael W. Deem and Ramdas Pophale) SiO2 
 PCOD8080766
Probable space group: C 2/M
;
_chemical_formula_sum "Si O2"
_cell_formula_units_Z 56
_cell_length_a 23.561760
_cell_length_b 8.791470
_cell_length_c 19.205695
_cell_angle_alpha 90.000000
_cell_angle_beta 52.053116
_cell_angle_gamma 90.000000
_cell_volume 3137.224898
_symmetry_space_group_name_H-M "C 2/M"
_symmetry_group_IT_number 12
_symmetry_cell_setting 'monoclinic'
loop_
_space_group_symop_operation_xyz
x,y,z
-x,y,-z
-x,-y,-z
x,-y,z
1/2+x,1/2+y,z
1/2-x,1/2+y,-z
1/2-x,1/2-y,-z
1/2+x,1/2-y,z
loop_
_atom_site_type_symbol
_atom_site_label
_atom_site_fract_x
_atom_site_fract_y
_atom_site_fract_z
Si Si1 0.218752 0.322683 0.130543
Si Si2 0.785122 0.825434 0.721047
Si Si3 0.499796 0.179957 0.168839
Si Si4 0.558943 0.323524 0.404952
Si Si5 0.928210 0.819954 0.761853
Si Si6 0.630395 0.175622 0.821574
Si Si7 0.364108 0.179363 0.025106
O O1 0.216345 0.500000 0.115939
O O2 0.218038 0.290751 0.213205
O O3 0.147122 0.247346 0.151899
O O4 0.292771 0.252829 0.043736
O O5 0.860407 0.797384 0.623482
O O6 0.712454 0.800385 0.730201
O O7 0.785043 0.000000 0.750334
O O8 0.507576 0.260769 0.237597
O O9 0.427430 0.248555 0.187564
O O10 0.496202 0.000000 0.183324
O O11 0.566212 0.228527 0.070248
O O12 0.500000 0.243098 0.500000
O O13 0.539760 0.500000 0.415036
O O14 0.556143 0.258515 0.328342
O O15 0.923457 0.000000 0.766840
O O16 0.625189 0.241694 0.903916
O O17 0.609158 0.000000 0.842052
O O18 0.352435 0.000000 0.034103
#
# Coordination Sequence:
#
# PCOD8080766 Si02
#       7
#     8   8   8   8   8   8   8
#     4  10  18  29  46  66  90 119 151 189 229 270
#     4   8  14  27  48  71  93 117 147 185 225 264
#     4  10  19  30  46  66  90 122 157 192 225 261
#     4   8  14  27  50  75  91 108 143 187 225 267
#     4  10  20  33  47  65  92 121 148 183 229 278
#     4   8  14  27  47  68  89 118 157 192 220 254
#     4   9  17  30  47  66  88 118 158 197 227 256
#
# _framework density 17.850171
#
# number of rings (size 3 to 8) (size 9 to 14) (size 15 to 20)
#    0.000    3.000    0.000    3.857    0.000    2.857 
#    0.000    2.857    0.000   15.857    0.000    0.000 
#    0.000    0.000    0.000    0.000    0.000    0.571 
#
# Total GULP energy -346909.505120 kJ/mol
# GULP energy per Si atom -12389.625183 kJ/mol
# Density = 1.780954 g / cm^3
# Si number density = 17.850171 Si / 1000 Ang^3
#
#
#
# Elastic Constant Matrix: (Units=GPa)
#
#
# Indices 1 2 3 4 5 6 
#
# 1 124.7482 16.4755 51.9717 -0.0002 -11.5466 0.0002
# 2 16.4755 39.6184 15.9257 0.0006 -1.5924 -0.0026
# 3 51.9717 15.9257 97.8690 -0.0004 -19.9968 0.0003
# 4 -0.0002 0.0006 -0.0004 10.0982 0.0000 0.7296
# 5 -11.5466 -1.5924 -19.9968 0.0000 21.3880 0.0002
# 6 0.0002 -0.0026 0.0003 0.7296 0.0002 22.3290
#
#
#
# Elastic Compliance Matrix: (Units=1/GPa)
#
#
# Indices 1 2 3 4 5 6 
#
# 1 0.010491 -0.002307 -0.005036 0.000000 0.000784 0.000000
# 2 -0.002307 0.027632 -0.003839 -0.000002 -0.002777 0.000003
# 3 -0.005036 -0.003839 0.015949 0.000001 0.011908 -0.000001
# 4 0.000000 -0.000002 0.000001 0.099262 0.000001 -0.003244
# 5 0.000784 -0.002777 0.011908 0.000001 0.058105 -0.000001
# 6 0.000000 0.000003 -0.000001 -0.003244 -0.000001 0.044891
#
#
# Mechanical properties :
#
#
# Convention : Reuss Voigt Hill
#
# Bulk Modulus (GPa) = 31.53613 47.88684 39.71149
# Shear Modulus (GPa) = 17.28536 22.62057 19.95296
#
# Velocity S-wave (km/s) = 3.11522 3.56370 3.34698
# Velocity P-wave (km/s) = 5.53579 6.61957 6.10179
#
# Compressibility (1/GPa) = 0.03170966
#
# Stress axis : x y z
#
# Youngs Moduli (GPa) = 95.31682 36.19034 62.69808
#
# Poissons Ratio (x) = 0.08350 0.31572
# Poissons Ratio (y) = 0.21991 0.24067
# Poissons Ratio (z) = 0.47998 0.13892
#
# Static dielectric constant tensor:
#      x y z
#    x 3.603010 -0.000010 -0.277410 
#    y -0.000010 2.927510 0.000000 
#    z -0.277410 0.000000 3.334840 
# 
# 
# High freq. dielectric constant tensor:
#      x y z
#    x 1.694180 0.000000 -0.023250 
#    y 0.000000 1.655700 0.000000 
#    z -0.023250 0.000000 1.660530 
# 
# From -- ./inp_files/295112.got.cif
#   From: 2010.06.25/outbox.cif.g09.slc.cpg/sg12_148_cif.got.tgz:295112.got - 2010.06.28 00:19:55.
