data_PCOD8080837
_publ_section_title
;
Structure prediction by ZEFSAII (Michael W. Deem and Ramdas Pophale) SiO2 
 PCOD8080837
Probable space group: C 2/M
;
_chemical_formula_sum "Si O2"
_cell_formula_units_Z 56
_cell_length_a 19.720006
_cell_length_b 20.387789
_cell_length_c 9.585318
_cell_angle_alpha 90.000000
_cell_angle_beta 125.081950
_cell_angle_gamma 90.000000
_cell_volume 3153.643572
_symmetry_space_group_name_H-M "C 2/M"
_symmetry_group_IT_number 12
_symmetry_cell_setting 'monoclinic'
loop_
_space_group_symop_operation_xyz
x,y,z
-x,y,-z
-x,-y,-z
x,-y,z
1/2+x,1/2+y,z
1/2-x,1/2+y,-z
1/2-x,1/2-y,-z
1/2+x,1/2-y,z
loop_
_atom_site_type_symbol
_atom_site_label
_atom_site_fract_x
_atom_site_fract_y
_atom_site_fract_z
Si Si1 0.210648 0.572793 0.629985
Si Si2 0.807160 0.843864 0.547695
Si Si3 0.943898 0.782403 0.560754
Si Si4 0.061997 0.306524 0.861253
Si Si5 0.683663 0.228314 0.223446
Si Si6 0.477912 0.926110 0.631447
Si Si7 0.181513 0.698320 0.755257
O O1 0.230345 0.500000 0.710619
O O2 0.282765 0.590507 0.602509
O O3 0.119790 0.574568 0.453309
O O4 0.210888 0.624185 0.756735
O O5 0.891286 0.845508 0.553947
O O6 0.728703 0.831141 0.355207
O O7 0.827334 0.785702 0.678504
O O8 0.884260 0.723125 0.439585
O O9 0.000000 0.808446 0.500000
O O10 0.998727 0.751778 0.749497
O O11 0.143190 0.300462 0.861645
O O12 0.021471 0.378080 0.793757
O O13 0.095123 0.296809 0.058772
O O14 0.739153 0.254203 0.159401
O O15 0.500000 0.901387 0.500000
O O16 0.513321 0.000000 0.692583
#
# Coordination Sequence:
#
# PCOD8080837 Si02
#       7
#     8   8   8   8   8   8   8
#     4  10  18  31  52  69  93 139 176 197 231 292
#     4   9  19  36  45  66  97 133 166 207 246 310
#     4   9  17  30  51  71  95 123 158 205 262 299
#     4  11  17  27  47  76  97 129 162 206 244 292
#     4   9  19  29  47  66 101 132 160 199 258 292
#     4  10  18  29  46  72 106 140 169 198 232 286
#     4   9  16  30  45  72 101 126 160 205 239 301
#
# _framework density 17.757238000000001
#
# number of rings (size 3 to 8) (size 9 to 14) (size 15 to 20)
#    0.000    2.429    2.857    1.714    0.000    0.571 
#    0.000    0.714    0.000    2.143    0.000    8.000 
#    0.000    0.000    0.000    0.000    0.000    6.286 
#
# Total GULP energy -346991.186040 kJ/mol
# GULP energy per Si atom -12392.542359 kJ/mol
# Density = 1.771682 g / cm^3
# Si number density = 17.757238 Si / 1000 Ang^3
#
#
#
# Elastic Constant Matrix: (Units=GPa)
#
#
# Indices 1 2 3 4 5 6 
#
# 1 82.4778 22.1464 7.2208 0.0000 2.5526 0.0000
# 2 22.1464 55.5169 19.3188 0.0000 7.0531 0.0000
# 3 7.2208 19.3188 90.7094 0.0000 17.5132 0.0000
# 4 0.0000 0.0000 0.0000 16.6674 0.0000 0.3571
# 5 2.5526 7.0531 17.5132 0.0000 15.8536 0.0000
# 6 0.0000 0.0000 0.0000 0.3571 0.0000 24.0695
#
#
#
# Elastic Compliance Matrix: (Units=1/GPa)
#
#
# Indices 1 2 3 4 5 6 
#
# 1 0.013580 -0.005457 0.000044 0.000000 0.000193 0.000000
# 2 -0.005457 0.021988 -0.003215 0.000000 -0.005352 0.000000
# 3 0.000044 -0.003215 0.014530 0.000000 -0.014627 0.000000
# 4 0.000000 0.000000 0.000000 0.060016 0.000000 -0.000890
# 5 0.000193 -0.005352 -0.014627 0.000000 0.081586 0.000000
# 6 0.000000 0.000000 0.000000 -0.000890 0.000000 0.041560
#
#
# Mechanical properties :
#
#
# Convention : Reuss Voigt Hill
#
# Bulk Modulus (GPa) = 30.44964 36.23071 33.34017
# Shear Modulus (GPa) = 19.12320 23.31932 21.22126
#
# Velocity S-wave (km/s) = 3.28521 3.62778 3.46074
# Velocity P-wave (km/s) = 5.61917 6.16404 5.89790
#
# Compressibility (1/GPa) = 0.03284111
#
# Stress axis : x y z
#
# Youngs Moduli (GPa) = 73.63805 45.47906 68.82524
#
# Poissons Ratio (x) = 0.24818 -0.00303
# Poissons Ratio (y) = 0.40184 0.22129
# Poissons Ratio (z) = -0.00324 0.14623
#
# Static dielectric constant tensor:
#      x y z
#    x 3.647640 0.000000 -0.004380 
#    y 0.000000 3.076730 0.000000 
#    z -0.004380 0.000000 2.973400 
# 
# 
# High freq. dielectric constant tensor:
#      x y z
#    x 1.700030 0.000000 -0.002360 
#    y 0.000000 1.647770 0.000000 
#    z -0.002360 0.000000 1.659540 
# 
# From -- ./inp_files/89252.got.cif
#   From: 2010.06.25/outbox.cif.g09.slc.cpg/sg12_45_cif.got.tgz:89252.got - 2010.06.28 00:19:55.
