data_PCOD8080282
_publ_section_title
;
Structure prediction by ZEFSAII (Michael W. Deem and Ramdas Pophale) SiO2 
 PCOD8080282
Probable space group: C 2/M
;
_chemical_formula_sum "Si O2"
_cell_formula_units_Z 48
_cell_length_a 24.314507
_cell_length_b 9.051370
_cell_length_c 14.044263
_cell_angle_alpha 90.000000
_cell_angle_beta 110.545361
_cell_angle_gamma 90.000000
_cell_volume 2894.260769
_symmetry_space_group_name_H-M "C 2/M"
_symmetry_group_IT_number 12
_symmetry_cell_setting 'monoclinic'
loop_
_space_group_symop_operation_xyz
x,y,z
-x,y,-z
-x,-y,-z
x,-y,z
1/2+x,1/2+y,z
1/2-x,1/2+y,-z
1/2-x,1/2-y,-z
1/2+x,1/2-y,z
loop_
_atom_site_type_symbol
_atom_site_label
_atom_site_fract_x
_atom_site_fract_y
_atom_site_fract_z
Si Si1 0.451616 0.670378 0.545891
Si Si2 0.287108 0.670988 0.657596
Si Si3 0.165283 0.671435 0.497583
Si Si4 0.552047 0.163744 0.955700
Si Si5 0.873185 0.674699 0.829763
Si Si6 0.025552 0.170253 0.223511
O O1 0.500000 0.722850 0.500000
O O2 0.434146 0.500000 0.519427
O O3 0.394378 0.769677 0.492227
O O4 0.478666 0.695751 0.666621
O O5 0.303969 0.500000 0.673966
O O6 0.217394 0.695458 0.605860
O O7 0.321462 0.736401 0.588562
O O8 0.310053 0.753181 0.766775
O O9 0.159658 0.500000 0.466309
O O10 0.536006 0.274849 0.860486
O O11 0.561711 0.000000 0.918521
O O12 0.500000 0.159384 0.000000
O O13 0.609628 0.215551 0.050478
O O14 0.870620 0.500000 0.814891
O O15 0.920348 0.736622 0.783544
O O16 0.034981 0.000000 0.202408
#
# Coordination Sequence:
#
# PCOD8080282 Si02
#       6
#     8   8   8   8   8   8
#     4  10  21  35  49  67  94 127 161 196 233 273
#     4  10  19  30  46  69  96 124 153 189 234 281
#     4  10  20  32  47  68  93 123 158 193 232 278
#     4   8  16  28  41  61  91 122 150 184 229 280
#     4  10  18  28  44  67  94 124 153 184 230 282
#     4  10  18  28  44  65  90 122 157 192 230 273
#
# _framework density 16.584546
#
# number of rings (size 3 to 8) (size 9 to 14) (size 15 to 20)
#    0.000    2.333    1.667    3.000    0.000    6.667 
#    0.000    0.000    0.000    0.000    0.000    1.167 
#    0.000    0.000    0.000    0.000    0.000    0.000 
#
# Total GULP energy -297545.613705 kJ/mol
# GULP energy per Si atom -12397.733904 kJ/mol
# Density = 1.654680 g / cm^3
# Si number density = 16.584546 Si / 1000 Ang^3
#
#
#
# Elastic Constant Matrix: (Units=GPa)
#
#
# Indices 1 2 3 4 5 6 
#
# 1 71.1814 42.3468 46.2057 0.0000 12.8360 0.0000
# 2 42.3468 102.1181 60.4058 0.0000 18.4390 0.0000
# 3 46.2057 60.4058 106.6873 0.0000 29.2018 0.0000
# 4 0.0000 0.0000 0.0000 28.2308 0.0000 10.1584
# 5 12.8360 18.4390 29.2018 0.0000 26.5436 0.0000
# 6 0.0000 0.0000 0.0000 10.1584 0.0000 19.8869
#
#
#
# Elastic Compliance Matrix: (Units=1/GPa)
#
#
# Indices 1 2 3 4 5 6 
#
# 1 0.021138 -0.005046 -0.006381 0.000000 0.000303 0.000000
# 2 -0.005046 0.015971 -0.006422 0.000000 -0.001589 0.000000
# 3 -0.006381 -0.006422 0.019613 0.000000 -0.014030 0.000000
# 4 0.000000 0.000000 0.000000 0.043399 0.000000 -0.022169
# 5 0.000303 -0.001589 -0.014030 0.000000 0.054067 0.000000
# 6 0.000000 0.000000 0.000000 -0.022169 0.000000 0.061608
#
#
# Mechanical properties :
#
#
# Convention : Reuss Voigt Hill
#
# Bulk Modulus (GPa) = 47.56459 64.21150 55.88805
# Shear Modulus (GPa) = 19.34219 23.66749 21.50484
#
# Velocity S-wave (km/s) = 3.41879 3.78177 3.60485
# Velocity P-wave (km/s) = 6.65781 7.60728 7.14833
#
# Compressibility (1/GPa) = 0.02102404
#
# Stress axis : x y z
#
# Youngs Moduli (GPa) = 47.30896 62.61358 50.98579
#
# Poissons Ratio (x) = 0.31594 0.32532
# Poissons Ratio (y) = 0.23871 0.32745
# Poissons Ratio (z) = 0.30186 0.40213
#
# Static dielectric constant tensor:
#      x y z
#    x 2.822670 0.000000 0.461390 
#    y 0.000000 3.254920 0.000000 
#    z 0.461390 0.000000 3.518040 
# 
# 
# High freq. dielectric constant tensor:
#      x y z
#    x 1.585230 0.000000 0.037450 
#    y 0.000000 1.652720 0.000000 
#    z 0.037450 0.000000 1.641290 
# 
# From -- ./inp_files/236592.got.cif
#   From: 2010.06.25/outbox.cif.g09.slc.cpg/sg12_119_cif.got.tgz:236592.got - 2010.06.28 00:19:55.
