data_PCOD8080745
_publ_section_title
;
Structure prediction by ZEFSAII (Michael W. Deem and Ramdas Pophale) SiO2 
 PCOD8080745
Probable space group: C 2/M
;
_chemical_formula_sum "Si O2"
_cell_formula_units_Z 56
_cell_length_a 19.428991
_cell_length_b 8.801464
_cell_length_c 22.234487
_cell_angle_alpha 90.000000
_cell_angle_beta 54.358196
_cell_angle_gamma 90.000000
_cell_volume 3089.936928
_symmetry_space_group_name_H-M "C 2/M"
_symmetry_group_IT_number 12
_symmetry_cell_setting 'monoclinic'
loop_
_space_group_symop_operation_xyz
x,y,z
-x,y,-z
-x,-y,-z
x,-y,z
1/2+x,1/2+y,z
1/2-x,1/2+y,-z
1/2-x,1/2-y,-z
1/2+x,1/2-y,z
loop_
_atom_site_type_symbol
_atom_site_label
_atom_site_fract_x
_atom_site_fract_y
_atom_site_fract_z
Si Si1 0.810876 0.180630 0.419851
Si Si2 0.381241 0.175729 0.947391
Si Si3 0.215101 0.176410 0.700054
Si Si4 0.168205 0.680586 0.256135
Si Si5 0.475203 0.676514 0.190847
Si Si6 0.985386 0.320910 0.312831
Si Si7 0.248931 0.676982 0.092555
O O1 0.750000 0.250000 0.500000
O O2 0.781417 0.243835 0.369378
O O3 0.906735 0.234558 0.383300
O O4 0.808414 0.000000 0.424016
O O5 0.468728 0.267375 0.893752
O O6 0.323622 0.209473 0.918993
O O7 0.402719 0.000000 0.944255
O O8 0.334535 0.234862 0.030995
O O9 0.286017 0.249900 0.707769
O O10 0.122844 0.204552 0.775990
O O11 0.234722 0.000000 0.684366
O O12 0.176291 0.500000 0.250350
O O13 0.216044 0.743195 0.172646
O O14 0.069557 0.727185 0.306832
O O15 0.491658 0.500000 0.196686
O O16 0.499684 0.773967 0.236733
O O17 0.969277 0.500000 0.324192
O O18 0.270978 0.500000 0.084626
#
# Coordination Sequence:
#
# PCOD8080745 Si02
#       7
#     8   8   8   8   8   8   8
#     4  10  20  36  57  81 105 133 166 201 242 291
#     4  10  18  29  45  70  98 130 172 216 258 296
#     4   8  17  32  52  76 100 128 166 208 246 291
#     4   9  16  31  52  75 101 128 167 212 250 294
#     4  10  18  30  49  73 100 133 173 213 250 296
#     4  10  18  31  54  80 102 130 165 206 251 294
#     4   9  17  29  46  70  96 128 167 213 259 296
#
# _framework density 18.123346999999999
#
# number of rings (size 3 to 8) (size 9 to 14) (size 15 to 20)
#    0.000    2.571    1.429    2.571    0.000    0.571 
#    0.000    1.429    0.000   24.000    0.000    0.000 
#    0.000    0.000    0.000    0.000    0.000    0.000 
#
# Total GULP energy -347128.502260 kJ/mol
# GULP energy per Si atom -12397.446509 kJ/mol
# Density = 1.808210 g / cm^3
# Si number density = 18.123347 Si / 1000 Ang^3
#
#
#
# Elastic Constant Matrix: (Units=GPa)
#
#
# Indices 1 2 3 4 5 6 
#
# 1 119.2471 32.0701 64.0587 -0.0001 -7.2321 -0.0003
# 2 32.0701 55.1333 38.5761 -0.0002 -6.5056 -0.0005
# 3 64.0587 38.5761 153.7462 0.0000 -13.7688 -0.0001
# 4 -0.0001 -0.0002 0.0000 32.0648 0.0000 -5.1143
# 5 -7.2321 -6.5056 -13.7688 0.0000 20.5231 0.0000
# 6 -0.0003 -0.0005 -0.0001 -5.1143 0.0000 17.1972
#
#
#
# Elastic Compliance Matrix: (Units=1/GPa)
#
#
# Indices 1 2 3 4 5 6 
#
# 1 0.011505 -0.004032 -0.003759 0.000000 0.000254 0.000000
# 2 -0.004032 0.023649 -0.003947 0.000000 0.003428 0.000001
# 3 -0.003759 -0.003947 0.009395 0.000000 0.003727 0.000000
# 4 0.000000 0.000000 0.000000 0.032740 0.000000 0.009737
# 5 0.000254 0.003428 0.003727 0.000000 0.052402 0.000000
# 6 0.000000 0.000001 0.000000 0.009737 0.000000 0.061045
#
#
# Mechanical properties :
#
#
# Convention : Reuss Voigt Hill
#
# Bulk Modulus (GPa) = 47.45468 66.39293 56.92380
# Shear Modulus (GPa) = 22.60028 26.85180 24.72604
#
# Velocity S-wave (km/s) = 3.53516 3.85335 3.69768
# Velocity P-wave (km/s) = 6.55013 7.51739 7.05037
#
# Compressibility (1/GPa) = 0.02107274
#
# Stress axis : x y z
#
# Youngs Moduli (GPa) = 86.91743 42.28462 106.44458
#
# Poissons Ratio (x) = 0.17050 0.40015
# Poissons Ratio (y) = 0.35046 0.42012
# Poissons Ratio (z) = 0.32674 0.16689
#
# Static dielectric constant tensor:
#      x y z
#    x 3.503730 0.000000 -0.026300 
#    y 0.000000 3.145370 0.000000 
#    z -0.026300 0.000000 3.418740 
# 
# 
# High freq. dielectric constant tensor:
#      x y z
#    x 1.683750 0.000000 -0.014080 
#    y 0.000000 1.684100 0.000000 
#    z -0.014080 0.000000 1.700930 
# 
# From -- ./inp_files/342345.got.cif
#   From: 2010.06.25/outbox.cif.g09.slc.cpg/sg12_172_cif.got.tgz:342345.got - 2010.06.28 00:19:55.
