data_PCOD8080743
_publ_section_title
;
Structure prediction by ZEFSAII (Michael W. Deem and Ramdas Pophale) SiO2 
 PCOD8080743
Probable space group: C 2/M
;
_chemical_formula_sum "Si O2"
_cell_formula_units_Z 64
_cell_length_a 25.445537
_cell_length_b 8.916247
_cell_length_c 21.304158
_cell_angle_alpha 90.000000
_cell_angle_beta 53.238911
_cell_angle_gamma 90.000000
_cell_volume 3872.268085
_symmetry_space_group_name_H-M "C 2/M"
_symmetry_group_IT_number 12
_symmetry_cell_setting 'monoclinic'
loop_
_space_group_symop_operation_xyz
x,y,z
-x,y,-z
-x,-y,-z
x,-y,z
1/2+x,1/2+y,z
1/2-x,1/2+y,-z
1/2-x,1/2-y,-z
1/2+x,1/2-y,z
loop_
_atom_site_type_symbol
_atom_site_label
_atom_site_fract_x
_atom_site_fract_y
_atom_site_fract_z
Si Si1 0.851683 0.826385 0.405730
Si Si2 0.011279 0.677124 0.680158
Si Si3 0.310861 0.675128 0.685780
Si Si4 0.962375 0.175237 0.589599
Si Si5 0.694484 0.672355 0.001274
Si Si6 0.239902 0.826278 0.413580
Si Si7 0.393944 0.676913 0.829524
Si Si8 0.278802 0.824123 0.831570
O O1 0.916409 0.728335 0.353052
O O2 0.820313 0.797022 0.496297
O O3 0.801680 0.775315 0.387402
O O4 0.869182 0.000000 0.383564
O O5 0.006910 0.500000 0.685141
O O6 0.993043 0.732897 0.624259
O O7 0.962453 0.743713 0.767157
O O8 0.300504 0.500000 0.704601
O O9 0.386880 0.719120 0.635327
O O10 0.283523 0.724531 0.638082
O O11 0.270144 0.765452 0.767206
O O12 0.000000 0.222566 0.500000
O O13 0.971913 0.000000 0.597215
O O14 0.706000 0.500000 0.005781
O O15 0.708631 0.708424 0.917580
O O16 0.750000 0.750000 0.000000
O O17 0.624774 0.715368 0.083624
O O18 0.260907 0.000000 0.400783
O O19 0.401331 0.500000 0.812272
O O20 0.338635 0.737152 0.821551
O O21 0.295493 0.000000 0.819834
#
# Coordination Sequence:
#
# PCOD8080743 Si02
#       8
#     8   8   8   8   8   8   8   8
#     4  10  20  36  56  74  94 127 167 210 254 294
#     4  12  23  33  48  73 102 131 164 207 249 290
#     4  10  19  31  49  71  99 134 165 196 242 296
#     4  10  20  34  50  68  96 135 170 198 237 295
#     4   8  16  28  44  65  92 127 163 198 239 287
#     4   9  19  36  55  75  97 125 165 210 249 289
#     4  10  18  31  48  67  95 132 168 200 241 296
#     4  10  18  29  45  70 101 129 161 203 244 287
#
# _framework density 16.527781999999998
#
# number of rings (size 3 to 8) (size 9 to 14) (size 15 to 20)
#    0.000    2.125    1.250    3.000    0.000    4.250 
#    0.000    1.250    0.000    0.000    0.000    0.875 
#    0.000    7.000    0.000    0.000    0.000    0.000 
#
# Total GULP energy -396659.068963 kJ/mol
# GULP energy per Si atom -12395.595905 kJ/mol
# Density = 1.649016 g / cm^3
# Si number density = 16.527782 Si / 1000 Ang^3
#
#
#
# Elastic Constant Matrix: (Units=GPa)
#
#
# Indices 1 2 3 4 5 6 
#
# 1 62.4033 27.4746 45.3289 0.0000 -3.8360 0.0003
# 2 27.4746 67.4144 47.4001 0.0014 -6.8596 0.0004
# 3 45.3289 47.4001 138.1807 0.0000 -3.2959 0.0002
# 4 0.0000 0.0014 0.0000 22.1640 -0.0001 -1.0581
# 5 -3.8360 -6.8596 -3.2959 -0.0001 14.8166 0.0000
# 6 0.0003 0.0004 0.0002 -1.0581 0.0000 25.1779
#
#
#
# Elastic Compliance Matrix: (Units=1/GPa)
#
#
# Indices 1 2 3 4 5 6 
#
# 1 0.022416 -0.004973 -0.005594 0.000000 0.002257 0.000000
# 2 -0.004973 0.021542 -0.005580 -0.000001 0.007444 0.000000
# 3 -0.005594 -0.005580 0.010948 0.000000 -0.001596 0.000000
# 4 0.000000 -0.000001 0.000000 0.045209 0.000000 0.001900
# 5 0.002257 0.007444 -0.001596 0.000000 0.071167 0.000000
# 6 0.000000 0.000000 0.000000 0.001900 0.000000 0.039797
#
#
# Mechanical properties :
#
#
# Convention : Reuss Voigt Hill
#
# Bulk Modulus (GPa) = 44.22541 56.48949 50.35745
# Shear Modulus (GPa) = 19.92738 22.28468 21.10603
#
# Velocity S-wave (km/s) = 3.47607 3.67593 3.57739
# Velocity P-wave (km/s) = 6.55188 7.22975 6.89914
#
# Compressibility (1/GPa) = 0.02261143
#
# Stress axis : x y z
#
# Youngs Moduli (GPa) = 44.61054 46.42186 91.34036
#
# Poissons Ratio (x) = 0.23086 0.51093
# Poissons Ratio (y) = 0.22185 0.50972
# Poissons Ratio (z) = 0.24954 0.25906
#
# Static dielectric constant tensor:
#      x y z
#    x 2.838940 0.000000 0.044370 
#    y 0.000000 3.134280 0.000000 
#    z 0.044370 0.000000 3.706720 
# 
# 
# High freq. dielectric constant tensor:
#      x y z
#    x 1.596420 0.000000 0.001620 
#    y 0.000000 1.644900 0.000000 
#    z 0.001620 0.000000 1.650680 
# 
# From -- ./inp_files/324198.got.cif
#   From: 2010.06.25/outbox.cif.g09.slc.cpg/sg12_163_cif.got.tgz:324198.got - 2010.06.28 00:19:55.
