data_PCOD8080500
_publ_section_title
;
Structure prediction by ZEFSAII (Michael W. Deem and Ramdas Pophale) SiO2 
 PCOD8080500
Probable space group: C 2/M
;
_chemical_formula_sum "Si O2"
_cell_formula_units_Z 64
_cell_length_a 29.771955
_cell_length_b 13.230923
_cell_length_c 9.697517
_cell_angle_alpha 90.000000
_cell_angle_beta 86.187132
_cell_angle_gamma 90.000000
_cell_volume 3811.497987
_symmetry_space_group_name_H-M "C 2/M"
_symmetry_group_IT_number 12
_symmetry_cell_setting 'monoclinic'
loop_
_space_group_symop_operation_xyz
x,y,z
-x,y,-z
-x,-y,-z
x,-y,z
1/2+x,1/2+y,z
1/2-x,1/2+y,-z
1/2-x,1/2-y,-z
1/2+x,1/2-y,z
loop_
_atom_site_type_symbol
_atom_site_label
_atom_site_fract_x
_atom_site_fract_y
_atom_site_fract_z
Si Si1 0.217370 0.115728 0.601763
Si Si2 0.350903 0.813999 0.061704
Si Si3 0.187746 0.111542 0.918439
Si Si4 0.560548 0.119068 0.868205
Si Si5 0.873625 0.616274 0.758273
Si Si6 0.699522 0.246996 0.368959
Si Si7 0.032789 0.380961 0.174849
Si Si8 0.247091 0.384562 0.855364
O O1 0.196939 0.127817 0.756466
O O2 0.268195 0.156918 0.587794
O O3 0.187510 0.180575 0.500326
O O4 0.218150 0.000000 0.553650
O O5 0.348366 0.694696 0.025452
O O6 0.390540 0.830448 0.167855
O O7 0.304214 0.848392 0.139897
O O8 0.359866 0.877999 0.921952
O O9 0.167585 0.000000 0.951467
O O10 0.234668 0.125239 0.991615
O O11 0.518669 0.155540 0.776637
O O12 0.567763 0.000000 0.855426
O O13 0.546404 0.158662 0.021878
O O14 0.865441 0.500000 0.713080
O O15 0.846160 0.695231 0.672987
O O16 0.926751 0.647443 0.728099
O O17 0.722608 0.313815 0.246204
O O18 0.029916 0.500000 0.162482
O O19 0.250323 0.500000 0.802335
#
# Coordination Sequence:
#
# PCOD8080500 Si02
#       8
#     8   8   8   8   8   8   8   8
#     4  10  21  35  47  61  91 130 162 194 230 269
#     4  11  17  28  44  70  93 125 159 186 226 278
#     4  10  20  33  47  64  93 129 160 194 231 268
#     4   8  13  22  39  64  96 123 145 180 228 281
#     4  10  18  28  47  71  96 124 155 191 231 280
#     4  11  20  32  48  68  92 124 161 194 228 276
#     4   7  12  23  38  63  94 121 147 180 227 281
#     4  11  20  30  45  69  98 124 156 195 229 267
#
# _framework density 16.791298999999999
#
# number of rings (size 3 to 8) (size 9 to 14) (size 15 to 20)
#    0.000    2.250    2.500    4.500    0.000    1.000 
#    0.000    0.000    0.000    0.000    0.000    9.625 
#    0.000    5.000    0.000    0.000    0.000    0.000 
#
# Total GULP energy -396422.576292 kJ/mol
# GULP energy per Si atom -12388.205509 kJ/mol
# Density = 1.675308 g / cm^3
# Si number density = 16.791299 Si / 1000 Ang^3
#
#
#
# Elastic Constant Matrix: (Units=GPa)
#
#
# Indices 1 2 3 4 5 6 
#
# 1 149.8191 64.3160 27.6489 0.0000 20.7988 0.0000
# 2 64.3160 104.0914 21.8747 0.0000 11.5993 0.0000
# 3 27.6489 21.8747 49.7180 0.0000 11.4707 0.0000
# 4 0.0000 0.0000 0.0000 21.6573 0.0000 6.1462
# 5 20.7988 11.5993 11.4707 0.0000 14.1602 0.0000
# 6 0.0000 0.0000 0.0000 6.1462 0.0000 21.5186
#
#
#
# Elastic Compliance Matrix: (Units=1/GPa)
#
#
# Indices 1 2 3 4 5 6 
#
# 1 0.010515 -0.005093 -0.001237 0.000000 -0.010271 0.000000
# 2 -0.005093 0.013487 -0.002803 0.000000 -0.001298 0.000000
# 3 -0.001237 -0.002803 0.025932 0.000000 -0.016894 0.000000
# 4 0.000000 0.000000 0.000000 0.050247 0.000000 -0.014352
# 5 -0.010271 -0.001298 -0.016894 0.000000 0.100454 0.000000
# 6 0.000000 0.000000 0.000000 -0.014352 0.000000 0.050571
#
#
# Mechanical properties :
#
#
# Convention : Reuss Voigt Hill
#
# Bulk Modulus (GPa) = 31.57619 59.03418 45.30518
# Shear Modulus (GPa) = 17.85540 24.11983 20.98762
#
# Velocity S-wave (km/s) = 3.26448 3.79416 3.53924
# Velocity P-wave (km/s) = 5.74935 7.37754 6.61374
#
# Compressibility (1/GPa) = 0.03166944
#
# Stress axis : x y z
#
# Youngs Moduli (GPa) = 95.10120 74.14508 38.56212
#
# Poissons Ratio (x) = 0.37759 0.04772
# Poissons Ratio (y) = 0.48430 0.10807
# Poissons Ratio (z) = 0.11767 0.20780
#
# Static dielectric constant tensor:
#      x y z
#    x 3.554470 0.000000 0.238220 
#    y 0.000000 3.280580 0.000000 
#    z 0.238220 0.000000 2.876260 
# 
# 
# High freq. dielectric constant tensor:
#      x y z
#    x 1.640730 0.000000 0.019430 
#    y 0.000000 1.639060 0.000000 
#    z 0.019430 0.000000 1.608730 
# 
# From -- ./inp_files/111188.got.cif
#   From: 2010.06.25/outbox.cif.g09.slc.cpg/sg12_56_cif.got.tgz:111188.got - 2010.06.28 00:19:55.
