data_PCOD8080155
_publ_section_title
;
Structure prediction by ZEFSAII (Michael W. Deem and Ramdas Pophale) SiO2 
 PCOD8080155
Probable space group: C 2/M
;
_chemical_formula_sum "Si O2"
_cell_formula_units_Z 64
_cell_length_a 24.632365
_cell_length_b 14.141236
_cell_length_c 11.996570
_cell_angle_alpha 90.000000
_cell_angle_beta 108.816303
_cell_angle_gamma 90.000000
_cell_volume 3955.465363
_symmetry_space_group_name_H-M "C 2/M"
_symmetry_group_IT_number 12
_symmetry_cell_setting 'monoclinic'
loop_
_space_group_symop_operation_xyz
x,y,z
-x,y,-z
-x,-y,-z
x,-y,z
1/2+x,1/2+y,z
1/2-x,1/2+y,-z
1/2-x,1/2-y,-z
1/2+x,1/2-y,z
loop_
_atom_site_type_symbol
_atom_site_label
_atom_site_fract_x
_atom_site_fract_y
_atom_site_fract_z
Si Si1 0.319061 0.606930 0.306227
Si Si2 0.686469 0.246547 0.506886
Si Si3 0.649057 0.277412 0.249547
Si Si4 0.688462 0.107197 0.141471
Si Si5 0.434367 0.611756 0.953183
Si Si6 0.731624 0.110640 0.942349
Si Si7 0.267538 0.110565 0.302850
Si Si8 0.147372 0.887645 0.907197
O O1 0.335441 0.500000 0.348686
O O2 0.329880 0.667407 0.423336
O O3 0.253101 0.614619 0.227794
O O4 0.357720 0.643189 0.226505
O O5 0.750000 0.250000 0.500000
O O6 0.641427 0.249515 0.375155
O O7 0.685359 0.149617 0.578458
O O8 0.648901 0.178845 0.182794
O O9 0.595445 0.338602 0.172319
O O10 0.706554 0.338359 0.273233
O O11 0.687126 0.139419 0.010162
O O12 0.665227 0.000000 0.141599
O O13 0.428126 0.500000 0.931686
O O14 0.500000 0.644074 0.000000
O O15 0.405574 0.645411 0.050861
O O16 0.794378 0.158156 0.002409
O O17 0.742412 0.000000 0.961092
O O18 0.707842 0.135174 0.804007
O O19 0.258406 0.000000 0.317010
O O20 0.151709 0.000000 0.912323
#
# Coordination Sequence:
#
# PCOD8080155 Si02
#       8
#     8   8   8   8   8   8   8   8
#     4   9  16  28  44  63  94 128 158 188 216 265
#     4  10  20  29  37  64  93 127 165 179 211 274
#     4  11  20  31  44  66  93 125 160 187 226 278
#     4   9  17  28  43  66  96 126 153 186 226 270
#     4  10  20  34  52  72  92 115 150 201 250 281
#     4   8  14  25  42  65  93 123 154 182 220 276
#     4  10  18  28  41  61  94 127 153 184 218 266
#     4   8  14  26  45  68  89 117 156 189 229 280
#
# _framework density 16.180143999999999
#
# number of rings (size 3 to 8) (size 9 to 14) (size 15 to 20)
#    0.000    2.625    3.750    1.875    0.000    4.500 
#    0.000    0.000    0.000    1.125    0.000    3.500 
#    0.000    0.000    0.000    6.875    0.000    0.000 
#
# Total GULP energy -396496.446446 kJ/mol
# GULP energy per Si atom -12390.513951 kJ/mol
# Density = 1.614332 g / cm^3
# Si number density = 16.180144 Si / 1000 Ang^3
#
#
#
# Elastic Constant Matrix: (Units=GPa)
#
#
# Indices 1 2 3 4 5 6 
#
# 1 47.1823 20.3889 43.8524 0.0000 -6.0448 0.0000
# 2 20.3889 73.4845 45.8866 0.0000 -4.8653 0.0000
# 3 43.8524 45.8866 129.6975 0.0000 -20.0338 0.0000
# 4 0.0000 0.0000 0.0000 30.0974 0.0000 -6.2437
# 5 -6.0448 -4.8653 -20.0338 0.0000 20.7670 0.0000
# 6 0.0000 0.0000 0.0000 -6.2437 0.0000 6.9992
#
#
#
# Elastic Compliance Matrix: (Units=1/GPa)
#
#
# Indices 1 2 3 4 5 6 
#
# 1 0.031325 -0.002630 -0.009809 0.000000 -0.000961 0.000000
# 2 -0.002630 0.017774 -0.005728 0.000000 -0.002127 0.000000
# 3 -0.009809 -0.005728 0.014577 0.000000 0.009865 0.000000
# 4 0.000000 0.000000 0.000000 0.040770 0.000000 0.036369
# 5 -0.000961 -0.002127 0.009865 0.000000 0.056893 0.000000
# 6 0.000000 0.000000 0.000000 0.036369 0.000000 0.175316
#
#
# Mechanical properties :
#
#
# Convention : Reuss Voigt Hill
#
# Bulk Modulus (GPa) = 36.57348 52.29112 44.43230
# Shear Modulus (GPa) = 13.08552 20.92182 17.00367
#
# Velocity S-wave (km/s) = 2.84692 3.59981 3.24527
# Velocity P-wave (km/s) = 5.78443 7.04744 6.44694
#
# Compressibility (1/GPa) = 0.02734222
#
# Stress axis : x y z
#
# Youngs Moduli (GPa) = 31.92369 56.26294 68.59992
#
# Poissons Ratio (x) = 0.14795 0.67293
# Poissons Ratio (y) = 0.08395 0.39292
# Poissons Ratio (z) = 0.31315 0.32226
#
# Static dielectric constant tensor:
#      x y z
#    x 2.703240 0.000000 -0.405820 
#    y 0.000000 3.185110 0.000000 
#    z -0.405820 0.000000 3.520620 
# 
# 
# High freq. dielectric constant tensor:
#      x y z
#    x 1.554240 0.000000 -0.038860 
#    y 0.000000 1.624970 0.000000 
#    z -0.038860 0.000000 1.625220 
# 
# From -- ./inp_files/176174.got.cif
#   From: 2010.06.25/outbox.cif.g09.slc.cpg/sg12_89_cif.got.tgz:176174.got - 2010.06.28 00:19:55.
