data_PCOD8080664
_publ_section_title
;
Structure prediction by ZEFSAII (Michael W. Deem and Ramdas Pophale) SiO2 
 PCOD8080664
Probable space group: C 2/M
;
_chemical_formula_sum "Si O2"
_cell_formula_units_Z 64
_cell_length_a 20.585442
_cell_length_b 9.064668
_cell_length_c 20.636938
_cell_angle_alpha 90.000000
_cell_angle_beta 98.663586
_cell_angle_gamma 90.000000
_cell_volume 3806.917736
_symmetry_space_group_name_H-M "C 2/M"
_symmetry_group_IT_number 12
_symmetry_cell_setting 'monoclinic'
loop_
_space_group_symop_operation_xyz
x,y,z
-x,y,-z
-x,-y,-z
x,-y,z
1/2+x,1/2+y,z
1/2-x,1/2+y,-z
1/2-x,1/2-y,-z
1/2+x,1/2-y,z
loop_
_atom_site_type_symbol
_atom_site_label
_atom_site_fract_x
_atom_site_fract_y
_atom_site_fract_z
Si Si1 0.070710 0.674900 0.029722
Si Si2 0.680446 0.670733 0.432175
Si Si3 0.687004 0.669023 0.572633
Si Si4 0.148967 0.163045 0.292569
Si Si5 0.694873 0.832991 0.697396
Si Si6 0.637115 0.828352 0.167381
Si Si7 0.810918 0.324609 0.044641
Si Si8 0.710694 0.326286 0.826917
O O1 0.066442 0.500000 0.034464
O O2 0.092697 0.739314 0.103069
O O3 0.123415 0.719695 0.983685
O O4 0.000000 0.742538 0.000000
O O5 0.706058 0.500000 0.429347
O O6 0.646763 0.691124 0.498414
O O7 0.738837 0.787347 0.433956
O O8 0.629487 0.701510 0.364609
O O9 0.685476 0.500000 0.595461
O O10 0.659099 0.766835 0.627849
O O11 0.227558 0.176790 0.302027
O O12 0.115163 0.266731 0.234153
O O13 0.125622 0.000000 0.270543
O O14 0.675717 0.735798 0.757079
O O15 0.670790 0.000000 0.704492
O O16 0.712172 0.788762 0.162724
O O17 0.626289 0.000000 0.170113
O O18 0.799909 0.500000 0.045110
O O19 0.820446 0.259496 0.117495
O O20 0.750000 0.250000 0.000000
O O21 0.697638 0.500000 0.831115
#
# Coordination Sequence:
#
# PCOD8080664 Si02
#       8
#     8   8   8   8   8   8   8   8
#     4   9  18  33  50  67  89 118 152 187 225 271
#     4   8  14  22  30  43  67 100 140 176 212 258
#     4   9  14  20  31  46  67 100 138 178 215 254
#     4   8  14  23  34  50  73 103 136 174 216 257
#     4   9  16  25  35  52  77 107 139 175 218 265
#     4   9  16  27  42  61  81 106 142 181 219 261
#     4  11  20  32  50  71  91 117 149 187 230 271
#     4  10  18  29  44  65  87 110 144 186 224 264
#
# _framework density 16.811499999999999
#
# number of rings (size 3 to 8) (size 9 to 14) (size 15 to 20)
#    0.000    2.875    1.250    2.250    0.000    4.000 
#    0.000    0.000    0.000    3.375    0.000    0.000 
#    0.000    0.000    0.000    1.125    0.000   24.000 
#
# Total GULP energy -396473.643742 kJ/mol
# GULP energy per Si atom -12389.801367 kJ/mol
# Density = 1.677324 g / cm^3
# Si number density = 16.811500 Si / 1000 Ang^3
#
#
#
# Elastic Constant Matrix: (Units=GPa)
#
#
# Indices 1 2 3 4 5 6 
#
# 1 43.3917 22.5824 38.2227 0.0000 -0.4727 0.0000
# 2 22.5824 62.8988 54.5173 0.0000 -1.5477 0.0000
# 3 38.2227 54.5173 191.4893 0.0000 -5.9655 0.0000
# 4 0.0000 0.0000 0.0000 34.6317 0.0000 -3.2994
# 5 -0.4727 -1.5477 -5.9655 0.0000 9.1499 0.0000
# 6 0.0000 0.0000 0.0000 -3.2994 0.0000 7.7642
#
#
#
# Elastic Compliance Matrix: (Units=1/GPa)
#
#
# Indices 1 2 3 4 5 6 
#
# 1 0.030468 -0.007517 -0.004014 0.000000 -0.002314 0.000000
# 2 -0.007517 0.022963 -0.005030 0.000000 0.000216 0.000000
# 3 -0.004014 -0.005030 0.007576 0.000000 0.003881 0.000000
# 4 0.000000 0.000000 0.000000 0.030094 0.000000 0.012788
# 5 -0.002314 0.000216 0.003881 0.000000 0.111738 0.000000
# 6 0.000000 0.000000 0.000000 0.012788 0.000000 0.134231
#
#
# Mechanical properties :
#
#
# Convention : Reuss Voigt Hill
#
# Bulk Modulus (GPa) = 35.86113 58.71386 47.28749
# Shear Modulus (GPa) = 13.17565 22.47299 17.82432
#
# Velocity S-wave (km/s) = 2.80255 3.66014 3.25967
# Velocity P-wave (km/s) = 5.64358 7.27068 6.50818
#
# Compressibility (1/GPa) = 0.02788534
#
# Stress axis : x y z
#
# Youngs Moduli (GPa) = 32.82097 43.54880 131.98794
#
# Poissons Ratio (x) = 0.32736 0.52976
# Poissons Ratio (y) = 0.24672 0.66394
# Poissons Ratio (z) = 0.13173 0.21907
#
# Static dielectric constant tensor:
#      x y z
#    x 2.545150 0.000000 -0.038140 
#    y 0.000000 3.139890 0.000000 
#    z -0.038140 0.000000 3.851470 
# 
# 
# High freq. dielectric constant tensor:
#      x y z
#    x 1.551870 0.000000 -0.008450 
#    y 0.000000 1.646970 0.000000 
#    z -0.008450 0.000000 1.682330 
# 
# From -- ./inp_files/319261.got.cif
#   From: 2010.06.25/outbox.cif.g09.slc.cpg/sg12_160_cif.got.tgz:319261.got - 2010.06.28 00:19:55.
