data_PCOD8080824
_publ_section_title
;
Structure prediction by ZEFSAII (Michael W. Deem and Ramdas Pophale) SiO2 
 PCOD8080824
Probable space group: C 2/M
;
_chemical_formula_sum "Si O2"
_cell_formula_units_Z 40
_cell_length_a 25.269049
_cell_length_b 9.392067
_cell_length_c 24.559546
_cell_angle_alpha 90.000000
_cell_angle_beta 156.178415
_cell_angle_gamma 90.000000
_cell_volume 2354.146421
_symmetry_space_group_name_H-M "C 2/M"
_symmetry_group_IT_number 12
_symmetry_cell_setting 'monoclinic'
loop_
_space_group_symop_operation_xyz
x,y,z
-x,y,-z
-x,-y,-z
x,-y,z
1/2+x,1/2+y,z
1/2-x,1/2+y,-z
1/2-x,1/2-y,-z
1/2+x,1/2-y,z
loop_
_atom_site_type_symbol
_atom_site_label
_atom_site_fract_x
_atom_site_fract_y
_atom_site_fract_z
Si Si1 0.865582 0.336324 0.635592
Si Si2 0.310979 0.335567 0.918765
Si Si3 0.429538 0.164540 0.818265
Si Si4 0.149432 0.664803 0.868806
Si Si5 0.148935 0.842481 0.159967
O O1 0.847719 0.500000 0.602443
O O2 0.750000 0.250000 0.500000
O O3 0.859060 0.315647 0.694283
O O4 0.003156 0.277954 0.741322
O O5 0.358951 0.500000 0.965585
O O6 0.185552 0.312383 0.839332
O O7 0.269057 0.296319 0.816965
O O8 0.429700 0.239412 0.051892
O O9 0.334170 0.232951 0.774357
O O10 0.451822 0.000000 0.853653
O O11 0.158622 0.500000 0.894918
O O12 0.250000 0.750000 0.000000
O O13 0.191274 0.000000 0.219780
O O14 0.000000 0.842293 0.000000
#
# Coordination Sequence:
#
# PCOD8080824 Si02
#       5
#     8   8   8   8   8
#     4  10  22  36  50  72 101 132 169 205 244 297
#     4   9  17  29  48  72  99 128 159 198 245 294
#     4  10  18  29  46  71 100 127 161 204 243 287
#     4  10  19  33  52  75 101 129 163 207 251 293
#     4   8  15  27  43  68  97 127 161 195 239 293
#
# _framework density 16.991298
#
# number of rings (size 3 to 8) (size 9 to 14) (size 15 to 20)
#    0.000    2.600    2.000    1.800    0.000    6.000 
#    0.000    0.000    0.000    1.200    0.000    8.400 
#    0.000    0.000    0.000    0.000    0.000    0.000 
#
# Total GULP energy -247919.130826 kJ/mol
# GULP energy per Si atom -12395.956541 kJ/mol
# Density = 1.695262 g / cm^3
# Si number density = 16.991298 Si / 1000 Ang^3
#
#
#
# Elastic Constant Matrix: (Units=GPa)
#
#
# Indices 1 2 3 4 5 6 
#
# 1 146.1609 54.6415 51.3645 -0.0001 4.6485 0.0000
# 2 54.6415 84.8380 48.7702 -0.0005 -4.4280 -0.0002
# 3 51.3645 48.7702 86.5824 -0.0014 4.3034 -0.0005
# 4 -0.0001 -0.0005 -0.0014 24.8001 -0.0006 -4.3502
# 5 4.6485 -4.4280 4.3034 -0.0006 15.9735 -0.0002
# 6 0.0000 -0.0002 -0.0005 -4.3502 -0.0002 28.9655
#
#
#
# Elastic Compliance Matrix: (Units=1/GPa)
#
#
# Indices 1 2 3 4 5 6 
#
# 1 0.009767 -0.004781 -0.002934 0.000000 -0.003377 0.000000
# 2 -0.004781 0.020726 -0.009318 0.000000 0.009647 0.000000
# 3 -0.002934 -0.009318 0.018878 0.000001 -0.006815 0.000000
# 4 0.000000 0.000000 0.000001 0.041413 0.000002 0.006220
# 5 -0.003377 0.009647 -0.006815 0.000002 0.068097 0.000001
# 6 0.000000 0.000000 0.000000 0.006220 0.000001 0.035458
#
#
# Mechanical properties :
#
#
# Convention : Reuss Voigt Hill
#
# Bulk Modulus (GPa) = 65.33277 69.68152 67.50715
# Shear Modulus (GPa) = 21.41261 24.80148 23.10705
#
# Velocity S-wave (km/s) = 3.55380 3.82469 3.69173
# Velocity P-wave (km/s) = 7.44134 7.78483 7.61502
#
# Compressibility (1/GPa) = 0.01530625
#
# Stress axis : x y z
#
# Youngs Moduli (GPa) = 102.38147 48.24751 52.97280
#
# Poissons Ratio (x) = 0.23065 0.15541
# Poissons Ratio (y) = 0.48945 0.49361
# Poissons Ratio (z) = 0.30036 0.44958
#
# Static dielectric constant tensor:
#      x y z
#    x 4.012290 0.000000 0.117170 
#    y 0.000000 3.253370 0.000000 
#    z 0.117170 0.000000 2.681540 
# 
# 
# High freq. dielectric constant tensor:
#      x y z
#    x 1.681830 0.000000 0.000240 
#    y 0.000000 1.656940 0.000000 
#    z 0.000240 0.000000 1.595290 
# 
# From -- ./inp_files/92829.got.cif
#   From: 2010.06.25/outbox.cif.g09.slc.cpg/sg12_47_cif.got.tgz:92829.got - 2010.06.28 00:19:55.
