data_PCOD8080898
_publ_section_title
;
Structure prediction by ZEFSAII (Michael W. Deem and Ramdas Pophale) SiO2 
 PCOD8080898
Probable space group: C 2/M
;
_chemical_formula_sum "Si O2"
_cell_formula_units_Z 48
_cell_length_a 23.104612
_cell_length_b 9.573534
_cell_length_c 13.785374
_cell_angle_alpha 90.000000
_cell_angle_beta 58.087651
_cell_angle_gamma 90.000000
_cell_volume 2588.358612
_symmetry_space_group_name_H-M "C 2/M"
_symmetry_group_IT_number 12
_symmetry_cell_setting 'monoclinic'
loop_
_space_group_symop_operation_xyz
x,y,z
-x,y,-z
-x,-y,-z
x,-y,z
1/2+x,1/2+y,z
1/2-x,1/2+y,-z
1/2-x,1/2-y,-z
1/2+x,1/2-y,z
loop_
_atom_site_type_symbol
_atom_site_label
_atom_site_fract_x
_atom_site_fract_y
_atom_site_fract_z
Si Si1 0.953199 0.335685 0.247959
Si Si2 0.194803 0.343243 0.098952
Si Si3 0.413916 0.158960 0.962600
Si Si4 0.444847 0.833763 0.471890
Si Si5 0.801444 0.663879 0.683316
Si Si6 0.331975 0.164514 0.218227
O O1 0.967062 0.500000 0.242251
O O2 0.959019 0.273084 0.351447
O O3 0.879075 0.304970 0.269560
O O4 0.011667 0.272389 0.123986
O O5 0.222849 0.500000 0.068228
O O6 0.123659 0.328274 0.106841
O O7 0.183285 0.297638 0.219078
O O8 0.250000 0.250000 0.000000
O O9 0.424002 0.000000 0.987737
O O10 0.370248 0.227801 0.088580
O O11 0.500000 0.772874 0.500000
O O12 0.368407 0.787297 0.566607
O O13 0.449598 0.000000 0.468529
O O14 0.786187 0.500000 0.682033
O O15 0.737484 0.752220 0.701796
O O16 0.315472 0.000000 0.221040
#
# Coordination Sequence:
#
# PCOD8080898 Si02
#       6
#     8   8   8   8   8   8
#     4   9  17  29  48  72  96 127 168 206 239 281
#     4  10  18  29  47  71  97 124 156 195 241 287
#     4   9  16  28  47  71  98 125 160 206 245 278
#     4   9  17  31  50  72  98 127 162 205 247 285
#     4  10  20  32  49  74 102 129 160 200 244 290
#     4  10  19  31  49  74 101 130 163 199 242 290
#
# _framework density 18.544571000000001
#
# number of rings (size 3 to 8) (size 9 to 14) (size 15 to 20)
#    0.000    2.500    1.667    1.500    0.000    6.667 
#    0.000    0.000    0.000    3.500    0.000    0.000 
#    0.000    0.000    0.000    0.000    0.000    0.000 
#
# Total GULP energy -297484.679903 kJ/mol
# GULP energy per Si atom -12395.194996 kJ/mol
# Density = 1.850236 g / cm^3
# Si number density = 18.544571 Si / 1000 Ang^3
#
#
#
# Elastic Constant Matrix: (Units=GPa)
#
#
# Indices 1 2 3 4 5 6 
#
# 1 117.7921 25.1078 56.1450 0.0000 -11.2529 0.0000
# 2 25.1078 24.2782 18.5514 0.0000 -7.8515 0.0000
# 3 56.1450 18.5514 114.5828 0.0000 -13.1365 0.0000
# 4 0.0000 0.0000 0.0000 16.6348 0.0000 -4.7937
# 5 -11.2529 -7.8515 -13.1365 0.0000 37.7726 0.0000
# 6 0.0000 0.0000 0.0000 -4.7937 0.0000 23.6356
#
#
#
# Elastic Compliance Matrix: (Units=1/GPa)
#
#
# Indices 1 2 3 4 5 6 
#
# 1 0.012785 -0.009576 -0.004693 0.000000 0.000186 0.000000
# 2 -0.009576 0.056262 -0.003544 0.000000 0.007609 0.000000
# 3 -0.004693 -0.003544 0.011828 0.000000 0.001979 0.000000
# 4 0.000000 0.000000 0.000000 0.063846 0.000000 0.012949
# 5 0.000186 0.007609 0.001979 0.000000 0.028799 0.000000
# 6 0.000000 0.000000 0.000000 0.012949 0.000000 0.044935
#
#
# Mechanical properties :
#
#
# Convention : Reuss Voigt Hill
#
# Bulk Modulus (GPa) = 22.10058 50.69572 36.39815
# Shear Modulus (GPa) = 18.57594 26.06521 22.32058
#
# Velocity S-wave (km/s) = 3.16839 3.75313 3.47308
# Velocity P-wave (km/s) = 5.03272 6.79543 5.97939
#
# Compressibility (1/GPa) = 0.04524769
#
# Stress axis : x y z
#
# Youngs Moduli (GPa) = 78.21421 17.77409 84.54839
#
# Poissons Ratio (x) = 0.17021 0.39679
# Poissons Ratio (y) = 0.74898 0.29967
# Poissons Ratio (z) = 0.36706 0.06300
#
# Static dielectric constant tensor:
#      x y z
#    x 3.658040 0.000000 -0.064220 
#    y 0.000000 2.867550 0.000000 
#    z -0.064220 0.000000 3.506640 
# 
# 
# High freq. dielectric constant tensor:
#      x y z
#    x 1.733300 0.000000 0.000660 
#    y 0.000000 1.645750 0.000000 
#    z 0.000660 0.000000 1.731670 
# 
# From -- ./inp_files/164702.got.cif
#   From: 2010.06.25/outbox.cif.g09.slc.cpg/sg12_83_cif.got.tgz:164702.got - 2010.06.28 00:19:55.
