data_PCOD8080926
_publ_section_title
;
Structure prediction by ZEFSAII (Michael W. Deem and Ramdas Pophale) SiO2 
 PCOD8080926
Probable space group: C 2/M
;
_chemical_formula_sum "Si O2"
_cell_formula_units_Z 56
_cell_length_a 26.080914
_cell_length_b 9.542116
_cell_length_c 14.231863
_cell_angle_alpha 90.000000
_cell_angle_beta 126.151331
_cell_angle_gamma 90.000000
_cell_volume 2859.902228
_symmetry_space_group_name_H-M "C 2/M"
_symmetry_group_IT_number 12
_symmetry_cell_setting 'monoclinic'
loop_
_space_group_symop_operation_xyz
x,y,z
-x,y,-z
-x,-y,-z
x,-y,z
1/2+x,1/2+y,z
1/2-x,1/2+y,-z
1/2-x,1/2-y,-z
1/2+x,1/2-y,z
loop_
_atom_site_type_symbol
_atom_site_label
_atom_site_fract_x
_atom_site_fract_y
_atom_site_fract_z
Si Si1 0.159793 0.161253 0.231683
Si Si2 0.394178 0.153825 0.299093
Si Si3 0.302736 0.166527 0.367293
Si Si4 0.106875 0.839756 0.984820
Si Si5 0.872186 0.833244 0.598882
Si Si6 0.305195 0.846776 0.027182
Si Si7 0.015944 0.837573 0.719540
O O1 0.229292 0.211618 0.269397
O O2 0.138875 0.228405 0.308037
O O3 0.167323 0.000000 0.263290
O O4 0.102518 0.182817 0.093195
O O5 0.348411 0.215871 0.330934
O O6 0.353796 0.134445 0.163017
O O7 0.451961 0.256569 0.333572
O O8 0.420923 0.000000 0.357467
O O9 0.323359 0.249818 0.481821
O O10 0.309393 0.000000 0.389415
O O11 0.162586 0.732204 0.023499
O O12 0.045020 0.804340 0.855269
O O13 0.128389 0.000000 0.987423
O O14 0.943160 0.792540 0.644417
O O15 0.861311 0.000000 0.578259
O O16 0.280618 0.000000 0.967854
O O17 0.250000 0.750000 0.000000
O O18 0.024893 0.000000 0.706106
#
# Coordination Sequence:
#
# PCOD8080926 Si02
#       7
#     8   8   8   8   8   8   8
#     4   9  18  34  56  78 103 134 171 213 258 305
#     4   9  19  34  52  73 101 136 173 210 253 304
#     4  10  20  35  54  76 100 134 177 215 252 301
#     4   9  17  32  53  75 101 134 168 208 254 304
#     4  10  21  36  53  76 105 137 171 213 258 303
#     4  10  18  29  47  73 104 136 168 208 256 307
#     4   9  19  34  53  79 107 133 168 209 256 308
#
# _framework density 19.58109
#
# number of rings (size 3 to 8) (size 9 to 14) (size 15 to 20)
#    0.000    2.571    0.000    1.714    0.000    5.143 
#    0.000    8.571    0.000    0.000    0.000    5.000 
#    0.000    0.000    0.000    0.000    0.000    0.000 
#
# Total GULP energy -346879.013793 kJ/mol
# GULP energy per Si atom -12388.536207 kJ/mol
# Density = 1.953652 g / cm^3
# Si number density = 19.581090 Si / 1000 Ang^3
#
#
#
# Elastic Constant Matrix: (Units=GPa)
#
#
# Indices 1 2 3 4 5 6 
#
# 1 74.3332 11.7584 0.8341 0.0000 -8.5986 0.0000
# 2 11.7584 54.1705 4.2126 0.0000 2.8170 0.0000
# 3 0.8341 4.2126 43.3795 0.0000 -7.0575 0.0000
# 4 0.0000 0.0000 0.0000 25.1135 0.0000 -0.0085
# 5 -8.5986 2.8170 -7.0575 0.0000 32.5347 0.0000
# 6 0.0000 0.0000 0.0000 -0.0085 0.0000 18.4492
#
#
#
# Elastic Compliance Matrix: (Units=1/GPa)
#
#
# Indices 1 2 3 4 5 6 
#
# 1 0.014482 -0.003425 0.000752 0.000000 0.004287 0.000000
# 2 -0.003425 0.019547 -0.002337 0.000000 -0.003105 0.000000
# 3 0.000752 -0.002337 0.024184 0.000000 0.005647 0.000000
# 4 0.000000 0.000000 0.000000 0.039819 0.000000 0.000018
# 5 0.004287 -0.003105 0.005647 0.000000 0.033363 0.000000
# 6 0.000000 0.000000 0.000000 0.000018 0.000000 0.054203
#
#
# Mechanical properties :
#
#
# Convention : Reuss Voigt Hill
#
# Bulk Modulus (GPa) = 20.75070 22.83260 21.79165
# Shear Modulus (GPa) = 23.62018 25.55802 24.58910
#
# Velocity S-wave (km/s) = 3.47692 3.61673 3.54751
# Velocity P-wave (km/s) = 5.17097 5.39693 5.28516
#
# Compressibility (1/GPa) = 0.04819114
#
# Stress axis : x y z
#
# Youngs Moduli (GPa) = 69.05032 51.15910 41.35030
#
# Poissons Ratio (x) = 0.17522 -0.03108
# Poissons Ratio (y) = 0.23649 0.09665
# Poissons Ratio (z) = -0.05190 0.11958
#
# Static dielectric constant tensor:
#      x y z
#    x 0.963560 0.000000 -1.458830 
#    y 0.000000 3.752040 0.000000 
#    z -1.458830 0.000000 2.782510 
# 
# 
# High freq. dielectric constant tensor:
#      x y z
#    x 1.757240 0.000000 -0.006100 
#    y 0.000000 1.744040 0.000000 
#    z -0.006100 0.000000 1.762460 
# 
# From -- ./inp_files/238927.got.cif
#   From: 2010.06.25/outbox.cif.g09.slc.cpg/sg12_120_cif.got.tgz:238927.got - 2010.06.28 00:19:55.
