data_PCOD8080243
_publ_section_title
;
Structure prediction by ZEFSAII (Michael W. Deem and Ramdas Pophale) SiO2 
 PCOD8080243
Probable space group: C 2/M
;
_chemical_formula_sum "Si O2"
_cell_formula_units_Z 56
_cell_length_a 27.051523
_cell_length_b 9.078722
_cell_length_c 16.151406
_cell_angle_alpha 90.000000
_cell_angle_beta 115.656666
_cell_angle_gamma 90.000000
_cell_volume 3575.580949
_symmetry_space_group_name_H-M "C 2/M"
_symmetry_group_IT_number 12
_symmetry_cell_setting 'monoclinic'
loop_
_space_group_symop_operation_xyz
x,y,z
-x,y,-z
-x,-y,-z
x,-y,z
1/2+x,1/2+y,z
1/2-x,1/2+y,-z
1/2-x,1/2-y,-z
1/2+x,1/2-y,z
loop_
_atom_site_type_symbol
_atom_site_label
_atom_site_fract_x
_atom_site_fract_y
_atom_site_fract_z
Si Si1 0.556955 0.669323 0.644949
Si Si2 0.768898 0.827030 0.636664
Si Si3 0.833926 0.328169 0.549582
Si Si4 0.747861 0.670860 0.193632
Si Si5 0.930866 0.830916 0.535058
Si Si6 0.804166 0.172225 0.007648
Si Si7 0.642489 0.825474 0.815821
O O1 0.572876 0.500000 0.673504
O O2 0.573994 0.714513 0.564496
O O3 0.492489 0.693136 0.611337
O O4 0.587288 0.775463 0.731000
O O5 0.818387 0.748504 0.624695
O O6 0.711029 0.788830 0.552328
O O7 0.766785 0.759233 0.728034
O O8 0.781110 0.000000 0.644578
O O9 0.837858 0.500000 0.568989
O O10 0.892484 0.271641 0.561972
O O11 0.758753 0.500000 0.216822
O O12 0.805083 0.733956 0.198575
O O13 0.696856 0.695619 0.093003
O O14 0.913106 0.000000 0.533502
O O15 0.855283 0.250602 0.090777
O O16 0.803165 0.000000 0.028982
O O17 0.750000 0.250000 0.000000
O O18 0.642888 0.000000 0.827410
#
# Coordination Sequence:
#
# PCOD8080243 Si02
#       7
#     8   8   8   8   8   8   8
#     4   9  18  31  46  65  87 114 149 181 212 255
#     4   9  17  30  45  61  85 117 149 179 213 252
#     4  10  19  29  43  65  90 115 145 180 215 254
#     4   8  15  27  43  62  85 115 148 179 211 251
#     4   9  18  32  47  63  87 117 146 179 218 257
#     4   9  16  27  42  62  88 116 147 181 218 260
#     4  10  18  28  43  65  92 119 146 177 217 261
#
# _framework density 15.66179
#
# number of rings (size 3 to 8) (size 9 to 14) (size 15 to 20)
#    0.000    2.857    0.000    3.857    0.000    2.857 
#    0.000    5.714    0.000    0.000    0.000    1.000 
#    0.000    8.000    0.000    0.000    0.000    0.000 
#
# Total GULP energy -347081.176970 kJ/mol
# GULP energy per Si atom -12395.756320 kJ/mol
# Density = 1.562614 g / cm^3
# Si number density = 15.661790 Si / 1000 Ang^3
#
#
#
# Elastic Constant Matrix: (Units=GPa)
#
#
# Indices 1 2 3 4 5 6 
#
# 1 71.1313 31.1871 37.0638 0.0000 -7.4095 0.0000
# 2 31.1871 65.8231 45.1182 0.0000 -0.1294 0.0000
# 3 37.0638 45.1182 115.2142 0.0000 -1.6988 0.0000
# 4 0.0000 0.0000 0.0000 23.7122 0.0000 3.8140
# 5 -7.4095 -0.1294 -1.6988 0.0000 22.6855 0.0000
# 6 0.0000 0.0000 0.0000 3.8140 0.0000 23.3214
#
#
#
# Elastic Compliance Matrix: (Units=1/GPa)
#
#
# Indices 1 2 3 4 5 6 
#
# 1 0.019515 -0.006824 -0.003516 0.000000 0.006072 0.000000
# 2 -0.006824 0.023158 -0.006912 0.000000 -0.002614 0.000000
# 3 -0.003516 -0.006912 0.012514 0.000000 -0.000251 0.000000
# 4 0.000000 0.000000 0.000000 0.043312 0.000000 -0.007083
# 5 0.006072 -0.002614 -0.000251 0.000000 0.046030 0.000000
# 6 0.000000 0.000000 0.000000 -0.007083 0.000000 0.044038
#
#
# Mechanical properties :
#
#
# Convention : Reuss Voigt Hill
#
# Bulk Modulus (GPa) = 48.35043 53.21187 50.78115
# Shear Modulus (GPa) = 21.74239 23.19713 22.46976
#
# Velocity S-wave (km/s) = 3.72996 3.85272 3.79183
# Velocity P-wave (km/s) = 7.03482 7.33762 7.18781
#
# Compressibility (1/GPa) = 0.02068234
#
# Stress axis : x y z
#
# Youngs Moduli (GPa) = 51.24232 43.18099 79.91298
#
# Poissons Ratio (x) = 0.29468 0.28097
# Poissons Ratio (y) = 0.34970 0.55236
# Poissons Ratio (z) = 0.18016 0.29847
#
# Static dielectric constant tensor:
#      x y z
#    x 2.878540 0.000000 0.141070 
#    y 0.000000 2.934940 0.000000 
#    z 0.141070 0.000000 3.625500 
# 
# 
# High freq. dielectric constant tensor:
#      x y z
#    x 1.566340 0.000000 0.000480 
#    y 0.000000 1.599520 0.000000 
#    z 0.000480 0.000000 1.602250 
# 
# From -- ./inp_files/243256.got.cif
#   From: 2010.06.25/outbox.cif.g09.slc.cpg/sg12_122_cif.got.tgz:243256.got - 2010.06.28 00:19:55.
