data_PCOD8080735
_publ_section_title
;
Structure prediction by ZEFSAII (Michael W. Deem and Ramdas Pophale) SiO2 
 PCOD8080735
Probable space group: C 2/M
;
_chemical_formula_sum "Si O2"
_cell_formula_units_Z 48
_cell_length_a 20.538146
_cell_length_b 14.828897
_cell_length_c 8.910458
_cell_angle_alpha 90.000000
_cell_angle_beta 89.532035
_cell_angle_gamma 90.000000
_cell_volume 2713.661213
_symmetry_space_group_name_H-M "C 2/M"
_symmetry_group_IT_number 12
_symmetry_cell_setting 'monoclinic'
loop_
_space_group_symop_operation_xyz
x,y,z
-x,y,-z
-x,-y,-z
x,-y,z
1/2+x,1/2+y,z
1/2-x,1/2+y,-z
1/2-x,1/2-y,-z
1/2+x,1/2-y,z
loop_
_atom_site_type_symbol
_atom_site_label
_atom_site_fract_x
_atom_site_fract_y
_atom_site_fract_z
Si Si1 0.916066 0.399997 0.355153
Si Si2 0.471013 0.844669 0.845103
Si Si3 0.711213 0.894463 0.821748
Si Si4 0.828414 0.601154 0.846201
Si Si5 0.437952 0.260959 0.576062
Si Si6 0.702151 0.266786 0.363933
O O1 0.903596 0.500000 0.420821
O O2 0.853302 0.364073 0.266176
O O3 0.931491 0.335752 0.493789
O O4 0.976129 0.406067 0.239552
O O5 0.405758 0.901673 0.872418
O O6 0.455627 0.754958 0.749240
O O7 0.500000 0.809413 0.000000
O O8 0.771571 0.839216 0.754171
O O9 0.724461 0.000000 0.799183
O O10 0.705525 0.870092 0.997216
O O11 0.806166 0.500000 0.800092
O O12 0.808711 0.670417 0.716059
O O13 0.500000 0.314528 0.500000
O O14 0.366833 0.307491 0.571196
O O15 0.750000 0.250000 0.500000
#
# Coordination Sequence:
#
# PCOD8080735 Si02
#       6
#     8   8   8   8   8   8
#     4  10  18  29  45  68 101 136 166 197 244 303
#     4  10  18  29  47  73 105 139 167 195 241 309
#     4  10  20  34  51  72 100 137 175 214 256 302
#     4  10  21  34  51  77 108 138 172 208 250 310
#     4   9  20  33  47  70 102 133 170 211 253 303
#     4  11  21  35  53  75 103 138 175 215 260 305
#
# _framework density 17.688281
#
# number of rings (size 3 to 8) (size 9 to 14) (size 15 to 20)
#    0.000    2.000    3.333    1.000    0.000    7.000 
#    0.000    0.000    0.000    0.500    0.000    0.000 
#    0.000   13.333    0.000    0.000    0.000    0.000 
#
# Total GULP energy -297470.539998 kJ/mol
# GULP energy per Si atom -12394.605833 kJ/mol
# Density = 1.764802 g / cm^3
# Si number density = 17.688281 Si / 1000 Ang^3
#
#
#
# Elastic Constant Matrix: (Units=GPa)
#
#
# Indices 1 2 3 4 5 6 
#
# 1 138.8044 34.1411 47.2601 0.0000 -17.1394 0.0000
# 2 34.1411 39.5310 25.6846 0.0000 -4.0778 0.0000
# 3 47.2601 25.6846 98.8668 0.0000 2.0896 0.0000
# 4 0.0000 0.0000 0.0000 18.4266 0.0000 0.3113
# 5 -17.1394 -4.0778 2.0896 0.0000 39.8318 0.0000
# 6 0.0000 0.0000 0.0000 0.3113 0.0000 19.0019
#
#
#
# Elastic Compliance Matrix: (Units=1/GPa)
#
#
# Indices 1 2 3 4 5 6 
#
# 1 0.010431 -0.006376 -0.003415 0.000000 0.004015 0.000000
# 2 -0.006376 0.034836 -0.006026 0.000000 0.001139 0.000000
# 3 -0.003415 -0.006026 0.013371 0.000000 -0.002788 0.000000
# 4 0.000000 0.000000 0.000000 0.054284 0.000000 -0.000889
# 5 0.004015 0.001139 -0.002788 0.000000 0.027096 0.000000
# 6 0.000000 0.000000 0.000000 -0.000889 0.000000 0.052641
#
#
# Mechanical properties :
#
#
# Convention : Reuss Voigt Hill
#
# Bulk Modulus (GPa) = 37.03062 54.59708 45.81385
# Shear Modulus (GPa) = 21.43206 26.79316 24.11261
#
# Velocity S-wave (km/s) = 3.48466 3.89619 3.69616
# Velocity P-wave (km/s) = 6.09680 7.15358 6.64623
#
# Compressibility (1/GPa) = 0.02700468
#
# Stress axis : x y z
#
# Youngs Moduli (GPa) = 95.86783 28.70572 74.78661
#
# Poissons Ratio (x) = 0.18303 0.25537
# Poissons Ratio (y) = 0.61126 0.45069
# Poissons Ratio (z) = 0.32735 0.17299
#
# Static dielectric constant tensor:
#      x y z
#    x 3.657370 0.000000 -0.180050 
#    y 0.000000 2.773410 0.000000 
#    z -0.180050 0.000000 3.423520 
# 
# 
# High freq. dielectric constant tensor:
#      x y z
#    x 1.694610 0.000000 -0.006910 
#    y 0.000000 1.623590 0.000000 
#    z -0.006910 0.000000 1.700730 
# 
# From -- ./inp_files/85134.got.cif
#   From: 2010.06.25/outbox.cif.g09.slc.cpg/sg12_43_cif.got.tgz:85134.got - 2010.06.28 00:19:55.
