data_PCOD8080047
_publ_section_title
;
Structure prediction by ZEFSAII (Michael W. Deem and Ramdas Pophale) SiO2 
 PCOD8080047
Probable space group: C 2/M
;
_chemical_formula_sum "Si O2"
_cell_formula_units_Z 64
_cell_length_a 19.374303
_cell_length_b 9.274315
_cell_length_c 20.341160
_cell_angle_alpha 90.000000
_cell_angle_beta 84.533760
_cell_angle_gamma 90.000000
_cell_volume 3638.347594
_symmetry_space_group_name_H-M "C 2/M"
_symmetry_group_IT_number 12
_symmetry_cell_setting 'monoclinic'
loop_
_space_group_symop_operation_xyz
x,y,z
-x,y,-z
-x,-y,-z
x,-y,z
1/2+x,1/2+y,z
1/2-x,1/2+y,-z
1/2-x,1/2-y,-z
1/2+x,1/2-y,z
loop_
_atom_site_type_symbol
_atom_site_label
_atom_site_fract_x
_atom_site_fract_y
_atom_site_fract_z
Si Si1 0.574123 0.158934 0.027747
Si Si2 0.331618 0.166767 0.679532
Si Si3 0.036739 0.832656 0.290940
Si Si4 0.885211 0.828998 0.330398
Si Si5 0.206845 0.168673 0.781299
Si Si6 0.486167 0.331911 0.857475
Si Si7 0.123726 0.670368 0.886880
Si Si8 0.734650 0.669348 0.568014
O O1 0.628033 0.202276 0.965022
O O2 0.591974 0.000000 0.054641
O O3 0.500000 0.153965 0.000000
O O4 0.573149 0.273815 0.087130
O O5 0.402205 0.254398 0.676412
O O6 0.284023 0.199426 0.747533
O O7 0.291760 0.212172 0.616952
O O8 0.350952 0.000000 0.675480
O O9 0.042003 0.804496 0.212843
O O10 0.963805 0.770658 0.325865
O O11 0.043103 0.000000 0.306762
O O12 0.847941 0.773973 0.267749
O O13 0.841181 0.781190 0.398385
O O14 0.884774 0.000000 0.325448
O O15 0.192982 0.262011 0.848235
O O16 0.196625 0.000000 0.797682
O O17 0.499935 0.500000 0.869749
O O18 0.557354 0.246566 0.860367
O O19 0.118668 0.500000 0.874045
O O20 0.735846 0.500000 0.554358
O O21 0.750000 0.750000 0.500000
#
# Coordination Sequence:
#
# PCOD8080047 Si02
#       8
#     8   8   8   8   8   8   8   8
#     4   8  16  28  39  60  96 129 158 202 257 301
#     4   9  20  35  52  75 103 134 162 198 250 295
#     4  10  19  32  51  74 101 131 165 206 246 291
#     4   8  15  31  52  73  98 130 164 200 241 285
#     4   9  16  31  51  69  94 128 167 207 246 294
#     4  10  18  28  45  68  94 129 169 205 246 294
#     4  10  18  27  43  69  98 126 161 208 257 297
#     4   9  18  35  58  78 101 132 165 199 238 286
#
# _framework density 17.590402999999998
#
# number of rings (size 3 to 8) (size 9 to 14) (size 15 to 20)
#    0.000    2.875    1.250    3.000    0.000    4.750 
#    0.000    3.125    0.000    4.500    0.000    0.000 
#    0.000    0.000    0.000    0.000    0.000    0.000 
#
# Total GULP energy -396630.230550 kJ/mol
# GULP energy per Si atom -12394.694705 kJ/mol
# Density = 1.755037 g / cm^3
# Si number density = 17.590403 Si / 1000 Ang^3
#
#
#
# Elastic Constant Matrix: (Units=GPa)
#
#
# Indices 1 2 3 4 5 6 
#
# 1 101.7029 40.5737 49.8164 0.0000 -12.6794 0.0000
# 2 40.5737 68.7841 50.6613 0.0000 -6.6452 0.0000
# 3 49.8164 50.6613 116.7779 0.0000 -24.4668 0.0000
# 4 0.0000 0.0000 0.0000 32.8626 0.0000 -2.5070
# 5 -12.6794 -6.6452 -24.4668 0.0000 21.0793 0.0000
# 6 0.0000 0.0000 0.0000 -2.5070 0.0000 25.4901
#
#
#
# Elastic Compliance Matrix: (Units=1/GPa)
#
#
# Indices 1 2 3 4 5 6 
#
# 1 0.013924 -0.005932 -0.002647 0.000000 0.003433 0.000000
# 2 -0.005932 0.024352 -0.009478 0.000000 -0.006893 0.000000
# 3 -0.002647 -0.009478 0.016972 0.000000 0.015119 0.000000
# 4 0.000000 0.000000 0.000000 0.030660 0.000000 0.003015
# 5 0.003433 -0.006893 0.015119 0.000000 0.064881 0.000000
# 6 0.000000 0.000000 0.000000 0.003015 0.000000 0.039527
#
#
# Mechanical properties :
#
#
# Convention : Reuss Voigt Hill
#
# Bulk Modulus (GPa) = 52.26389 63.26308 57.76349
# Shear Modulus (GPa) = 21.47685 25.63396 23.55541
#
# Velocity S-wave (km/s) = 3.49799 3.82156 3.66335
# Velocity P-wave (km/s) = 6.78901 7.45084 7.12761
#
# Compressibility (1/GPa) = 0.01913367
#
# Stress axis : x y z
#
# Youngs Moduli (GPa) = 71.82057 41.06375 58.92001
#
# Poissons Ratio (x) = 0.24358 0.15597
# Poissons Ratio (y) = 0.42603 0.55846
# Poissons Ratio (z) = 0.19012 0.38922
#
# Static dielectric constant tensor:
#      x y z
#    x 3.143130 0.000000 -0.334700 
#    y 0.000000 3.138810 0.000000 
#    z -0.334700 0.000000 3.420120 
# 
# 
# High freq. dielectric constant tensor:
#      x y z
#    x 1.652580 0.000000 -0.022320 
#    y 0.000000 1.668140 0.000000 
#    z -0.022320 0.000000 1.678280 
# 
# From -- ./inp_files/341956.got.cif
#   From: 2010.06.25/outbox.cif.g09.slc.cpg/sg12_171_cif.got.tgz:341956.got - 2010.06.28 00:19:55.
