data_PCOD8080818
_publ_section_title
;
Structure prediction by ZEFSAII (Michael W. Deem and Ramdas Pophale) SiO2 
 PCOD8080818
Probable space group: C 2/M
;
_chemical_formula_sum "Si O2"
_cell_formula_units_Z 64
_cell_length_a 24.985232
_cell_length_b 8.687102
_cell_length_c 19.064958
_cell_angle_alpha 90.000000
_cell_angle_beta 116.330592
_cell_angle_gamma 90.000000
_cell_volume 3708.712768
_symmetry_space_group_name_H-M "C 2/M"
_symmetry_group_IT_number 12
_symmetry_cell_setting 'monoclinic'
loop_
_space_group_symop_operation_xyz
x,y,z
-x,y,-z
-x,-y,-z
x,-y,z
1/2+x,1/2+y,z
1/2-x,1/2+y,-z
1/2-x,1/2-y,-z
1/2+x,1/2-y,z
loop_
_atom_site_type_symbol
_atom_site_label
_atom_site_fract_x
_atom_site_fract_y
_atom_site_fract_z
Si Si1 0.637289 0.181413 0.841001
Si Si2 0.924132 0.679362 0.583140
Si Si3 0.886373 0.323098 0.404150
Si Si4 0.801878 0.678518 0.575696
Si Si5 0.255474 0.820764 0.845507
Si Si6 0.239483 0.176651 0.678878
Si Si7 0.951861 0.820879 0.313511
Si Si8 0.309838 0.682385 0.001358
O O1 0.691993 0.245602 0.826903
O O2 0.576268 0.226666 0.767320
O O3 0.636286 0.253441 0.919259
O O4 0.643632 0.000000 0.850817
O O5 0.935667 0.500000 0.605687
O O6 0.916762 0.707666 0.496291
O O7 0.866269 0.744449 0.590739
O O8 0.979012 0.778388 0.642599
O O9 0.893989 0.500000 0.385560
O O10 0.816541 0.285576 0.368164
O O11 0.918967 0.217182 0.366872
O O12 0.801763 0.500000 0.557571
O O13 0.750000 0.750000 0.500000
O O14 0.790444 0.712331 0.651126
O O15 0.268705 0.790698 0.771509
O O16 0.251623 0.000000 0.861854
O O17 0.310088 0.744243 0.921335
O O18 0.217593 0.000000 0.660770
O O19 0.943973 0.000000 0.293462
O O20 0.310189 0.500000 0.001931
O O21 0.250000 0.750000 0.000000
#
# Coordination Sequence:
#
# PCOD8080818 Si02
#       8
#     8   8   8   8   8   8   8   8
#     4  11  20  32  50  72 101 136 169 206 254 307
#     4  10  22  38  53  73 101 136 177 219 259 305
#     4  11  21  34  53  75 102 136 173 213 259 308
#     4  10  20  36  55  76 101 134 174 218 263 304
#     4  10  18  30  47  73 105 136 170 208 250 302
#     4  10  20  32  52  77 105 137 173 213 256 303
#     4  12  24  36  51  74 103 137 175 215 257 310
#     4  10  18  29  46  70 101 136 169 204 247 302
#
# _framework density 17.256661999999999
#
# number of rings (size 3 to 8) (size 9 to 14) (size 15 to 20)
#    0.000    1.500    2.500    6.000    0.000    3.500 
#    0.000    0.000    0.000    0.000    0.000    0.875 
#    0.000    7.000    0.000    0.000    0.000    0.000 
#
# Total GULP energy -396833.163516 kJ/mol
# GULP energy per Si atom -12401.036360 kJ/mol
# Density = 1.721738 g / cm^3
# Si number density = 17.256662 Si / 1000 Ang^3
#
#
#
# Elastic Constant Matrix: (Units=GPa)
#
#
# Indices 1 2 3 4 5 6 
#
# 1 67.2542 23.3307 36.9585 0.0000 6.7302 0.0000
# 2 23.3307 105.2373 49.3391 0.0000 -0.6165 0.0000
# 3 36.9585 49.3391 128.3168 0.0000 -2.0320 0.0000
# 4 0.0000 0.0000 0.0000 29.7281 0.0000 3.4176
# 5 6.7302 -0.6165 -2.0320 0.0000 18.3304 0.0000
# 6 0.0000 0.0000 0.0000 3.4176 0.0000 20.2844
#
#
#
# Elastic Compliance Matrix: (Units=1/GPa)
#
#
# Indices 1 2 3 4 5 6 
#
# 1 0.018963 -0.001990 -0.004816 0.000000 -0.007563 0.000000
# 2 -0.001990 0.011801 -0.003954 0.000000 0.000689 0.000000
# 3 -0.004816 -0.003954 0.010745 0.000000 0.002827 0.000000
# 4 0.000000 0.000000 0.000000 0.034303 0.000000 -0.005779
# 5 -0.007563 0.000689 0.002827 0.000000 0.057668 0.000000
# 6 0.000000 0.000000 0.000000 -0.005779 0.000000 0.050273
#
#
# Mechanical properties :
#
#
# Convention : Reuss Voigt Hill
#
# Bulk Modulus (GPa) = 50.02665 57.78499 53.90582
# Shear Modulus (GPa) = 23.59206 26.41391 25.00298
#
# Velocity S-wave (km/s) = 3.70148 3.91660 3.81056
# Velocity P-wave (km/s) = 6.87900 7.34924 7.11800
#
# Compressibility (1/GPa) = 0.01998935
#
# Stress axis : x y z
#
# Youngs Moduli (GPa) = 52.73425 84.73746 93.06345
#
# Poissons Ratio (x) = 0.16865 0.44822
# Poissons Ratio (y) = 0.10496 0.36793
# Poissons Ratio (z) = 0.25398 0.33501
#
# Static dielectric constant tensor:
#      x y z
#    x 3.171850 0.000000 -0.207640 
#    y 0.000000 3.311220 0.000000 
#    z -0.207640 0.000000 3.768840 
# 
# 
# High freq. dielectric constant tensor:
#      x y z
#    x 1.623170 0.000000 -0.006960 
#    y 0.000000 1.678050 0.000000 
#    z -0.006960 0.000000 1.678860 
# 
# From -- ./inp_files/323774.got.cif
#   From: 2010.06.25/outbox.cif.g09.slc.cpg/sg12_162_cif.got.tgz:323774.got - 2010.06.28 00:19:55.
