data_PCOD8080953
_publ_section_title
;
Structure prediction by ZEFSAII (Michael W. Deem and Ramdas Pophale) SiO2 
 PCOD8080953
Probable space group: C 2/M
;
_chemical_formula_sum "Si O2"
_cell_formula_units_Z 48
_cell_length_a 28.743665
_cell_length_b 8.911996
_cell_length_c 12.094202
_cell_angle_alpha 90.000000
_cell_angle_beta 111.609408
_cell_angle_gamma 90.000000
_cell_volume 2880.346006
_symmetry_space_group_name_H-M "C 2/M"
_symmetry_group_IT_number 12
_symmetry_cell_setting 'monoclinic'
loop_
_space_group_symop_operation_xyz
x,y,z
-x,y,-z
-x,-y,-z
x,-y,z
1/2+x,1/2+y,z
1/2-x,1/2+y,-z
1/2-x,1/2-y,-z
1/2+x,1/2-y,z
loop_
_atom_site_type_symbol
_atom_site_label
_atom_site_fract_x
_atom_site_fract_y
_atom_site_fract_z
Si Si1 0.510749 0.665496 0.880095
Si Si2 0.585955 0.824180 0.240983
Si Si3 0.753035 0.671569 0.663321
Si Si4 0.170441 0.827240 0.424461
Si Si5 0.781840 0.325194 0.932893
Si Si6 0.383617 0.322013 0.961200
O O1 0.502961 0.500000 0.821582
O O2 0.471844 0.778398 0.787709
O O3 0.500000 0.659546 0.000000
O O4 0.568509 0.717619 0.918586
O O5 0.619689 0.770905 0.374305
O O6 0.609360 0.746597 0.153865
O O7 0.589166 0.000000 0.227876
O O8 0.769312 0.500000 0.651451
O O9 0.792512 0.782539 0.642430
O O10 0.697657 0.702660 0.565691
O O11 0.752001 0.701953 0.792760
O O12 0.155816 0.000000 0.396878
O O13 0.788987 0.500000 0.964049
O O14 0.835915 0.248408 0.978397
O O15 0.750000 0.250000 0.000000
O O16 0.377750 0.500000 0.943174
#
# Coordination Sequence:
#
# PCOD8080953 Si02
#       6
#     8   8   8   8   8   8
#     4   8  16  29  44  64  92 124 158 193 234 287
#     4  11  19  27  43  70 100 128 158 191 236 291
#     4   9  19  33  47  68  94 124 162 201 237 282
#     4  10  18  29  48  69  95 128 159 194 240 286
#     4  11  22  35  51  71  97 128 165 202 238 282
#     4  10  19  32  48  67  93 126 162 200 241 282
#
# _framework density 16.664664999999999
#
# number of rings (size 3 to 8) (size 9 to 14) (size 15 to 20)
#    0.000    2.167    1.667    4.000    0.000    5.000 
#    0.000    0.000    0.000    0.000    0.000    1.167 
#    0.000    9.333    0.000    0.000    0.000    0.000 
#
# Total GULP energy -297538.879888 kJ/mol
# GULP energy per Si atom -12397.453329 kJ/mol
# Density = 1.662674 g / cm^3
# Si number density = 16.664665 Si / 1000 Ang^3
#
#
#
# Elastic Constant Matrix: (Units=GPa)
#
#
# Indices 1 2 3 4 5 6 
#
# 1 112.5134 60.1907 58.6882 0.0000 24.6588 0.0000
# 2 60.1907 112.5593 48.5820 0.0000 17.7556 0.0000
# 3 58.6882 48.5820 81.9672 0.0000 20.0732 0.0000
# 4 0.0000 0.0000 0.0000 21.4816 0.0000 4.7178
# 5 24.6588 17.7556 20.0732 0.0000 29.7074 0.0000
# 6 0.0000 0.0000 0.0000 4.7178 0.0000 27.6287
#
#
#
# Elastic Compliance Matrix: (Units=1/GPa)
#
#
# Indices 1 2 3 4 5 6 
#
# 1 0.016718 -0.004662 -0.007777 0.000000 -0.005835 0.000000
# 2 -0.004662 0.013439 -0.004323 0.000000 -0.001241 0.000000
# 3 -0.007777 -0.004323 0.021710 0.000000 -0.005630 0.000000
# 4 0.000000 0.000000 0.000000 0.048365 0.000000 -0.008259
# 5 -0.005835 -0.001241 -0.005630 0.000000 0.043050 0.000000
# 6 0.000000 0.000000 0.000000 -0.008259 0.000000 0.037604
#
#
# Mechanical properties :
#
#
# Convention : Reuss Voigt Hill
#
# Bulk Modulus (GPa) = 54.52485 71.32908 62.92696
# Shear Modulus (GPa) = 22.67306 25.06880 23.87093
#
# Velocity S-wave (km/s) = 3.69256 3.88275 3.78885
# Velocity P-wave (km/s) = 7.13932 7.93703 7.54872
#
# Compressibility (1/GPa) = 0.01834026
#
# Stress axis : x y z
#
# Youngs Moduli (GPa) = 59.81714 74.40947 46.06265
#
# Poissons Ratio (x) = 0.34693 0.35825
# Poissons Ratio (y) = 0.27890 0.19914
# Poissons Ratio (z) = 0.46522 0.32168
#
# Static dielectric constant tensor:
#      x y z
#    x 3.181940 0.000000 0.512180 
#    y 0.000000 3.242370 0.000000 
#    z 0.512180 0.000000 3.110080 
# 
# 
# High freq. dielectric constant tensor:
#      x y z
#    x 1.620290 0.000000 0.045840 
#    y 0.000000 1.655350 0.000000 
#    z 0.045840 0.000000 1.615180 
# 
# From -- ./inp_files/179181.got.cif
#   From: 2010.06.25/outbox.cif.g09.slc.cpg/sg12_90_cif.got.tgz:179181.got - 2010.06.28 00:19:55.
