data_PCOD8080756
_publ_section_title
;
Structure prediction by ZEFSAII (Michael W. Deem and Ramdas Pophale) SiO2 
 PCOD8080756
Probable space group: C 2/M
;
_chemical_formula_sum "Si O2"
_cell_formula_units_Z 64
_cell_length_a 29.263258
_cell_length_b 9.008424
_cell_length_c 14.065671
_cell_angle_alpha 90.000000
_cell_angle_beta 93.773035
_cell_angle_gamma 90.000000
_cell_volume 3699.896848
_symmetry_space_group_name_H-M "C 2/M"
_symmetry_group_IT_number 12
_symmetry_cell_setting 'monoclinic'
loop_
_space_group_symop_operation_xyz
x,y,z
-x,y,-z
-x,-y,-z
x,-y,z
1/2+x,1/2+y,z
1/2-x,1/2+y,-z
1/2-x,1/2-y,-z
1/2+x,1/2-y,z
loop_
_atom_site_type_symbol
_atom_site_label
_atom_site_fract_x
_atom_site_fract_y
_atom_site_fract_z
Si Si1 0.191446 0.327390 0.457981
Si Si2 0.949947 0.325310 0.528475
Si Si3 0.843449 0.163934 0.827874
Si Si4 0.177351 0.827177 0.780831
Si Si5 0.755810 0.834078 0.683425
Si Si6 0.200864 0.175543 0.992975
Si Si7 0.130572 0.670363 0.619404
Si Si8 0.108075 0.822236 0.339814
O O1 0.198571 0.500000 0.433309
O O2 0.234887 0.234690 0.421527
O O3 0.179838 0.307086 0.569646
O O4 0.145215 0.269036 0.404248
O O5 0.945266 0.500000 0.547956
O O6 0.913282 0.271053 0.444413
O O7 0.940498 0.234423 0.625079
O O8 0.000000 0.281258 0.500000
O O9 0.803503 0.161549 0.744726
O O10 0.886878 0.224366 0.772129
O O11 0.855902 0.000000 0.864560
O O12 0.828793 0.247185 0.923393
O O13 0.223909 0.762272 0.745933
O O14 0.173957 0.788730 0.892071
O O15 0.134036 0.758155 0.719227
O O16 0.177698 0.000000 0.762597
O O17 0.736035 0.000000 0.666413
O O18 0.208867 0.000000 0.007860
O O19 0.250000 0.250000 0.000000
O O20 0.122692 0.500000 0.642888
O O21 0.114187 0.000000 0.352999
#
# Coordination Sequence:
#
# PCOD8080756 Si02
#       8
#     8   8   8   8   8   8   8   8
#     4   9  17  30  46  64  89 122 161 199 233 276
#     4   9  18  34  55  77  99 123 151 186 232 286
#     4   8  15  28  45  64  91 123 156 196 239 276
#     4  11  22  31  44  66  92 123 162 204 238 275
#     4  10  18  29  46  64  87 124 162 200 243 280
#     4  10  19  32  47  66  90 123 166 208 245 276
#     4   9  19  34  49  65  91 125 152 185 236 288
#     4   9  16  27  46  73  99 124 152 186 234 287
#
# _framework density 17.297778000000001
#
# number of rings (size 3 to 8) (size 9 to 14) (size 15 to 20)
#    0.000    2.625    1.250    3.000    0.000    3.750 
#    0.000    0.625    0.000    0.000    0.000    0.875 
#    0.000    7.000    0.000    0.000    0.000    0.000 
#
# Total GULP energy -396472.506519 kJ/mol
# GULP energy per Si atom -12389.765829 kJ/mol
# Density = 1.725841 g / cm^3
# Si number density = 17.297778 Si / 1000 Ang^3
#
#
#
# Elastic Constant Matrix: (Units=GPa)
#
#
# Indices 1 2 3 4 5 6 
#
# 1 60.4361 9.1646 46.9864 0.0000 -17.9525 0.0000
# 2 9.1646 42.0085 49.5723 0.0000 -5.1642 0.0000
# 3 46.9864 49.5723 132.5339 0.0000 -29.8612 0.0000
# 4 0.0000 0.0000 0.0000 19.0481 0.0000 1.0821
# 5 -17.9525 -5.1642 -29.8612 0.0000 24.3116 0.0000
# 6 0.0000 0.0000 0.0000 1.0821 0.0000 17.7838
#
#
#
# Elastic Compliance Matrix: (Units=1/GPa)
#
#
# Indices 1 2 3 4 5 6 
#
# 1 0.025595 0.007045 -0.009835 0.000000 0.008316 0.000000
# 2 0.007045 0.048633 -0.023765 0.000000 -0.013657 0.000000
# 3 -0.009835 -0.023765 0.023708 0.000000 0.016810 0.000000
# 4 0.000000 0.000000 0.000000 0.052681 0.000000 -0.003205
# 5 0.008316 -0.013657 0.016810 0.000000 0.065019 0.000000
# 6 0.000000 0.000000 0.000000 -0.003205 0.000000 0.056426
#
#
# Mechanical properties :
#
#
# Convention : Reuss Voigt Hill
#
# Bulk Modulus (GPa) = 22.30901 49.60280 35.95591
# Shear Modulus (GPa) = 14.70089 20.84571 17.77330
#
# Velocity S-wave (km/s) = 2.91842 3.47523 3.20893
# Velocity P-wave (km/s) = 4.92760 6.69635 5.87887
#
# Compressibility (1/GPa) = 0.04482493
#
# Stress axis : x y z
#
# Youngs Moduli (GPa) = 39.07029 20.56213 42.17914
#
# Poissons Ratio (x) = -0.14485 0.41484
# Poissons Ratio (y) = -0.27523 1.00239
# Poissons Ratio (z) = 0.38426 0.48866
#
# Static dielectric constant tensor:
#      x y z
#    x 3.118680 0.000000 -0.284630 
#    y 0.000000 3.226330 0.000000 
#    z -0.284630 0.000000 3.551770 
# 
# 
# High freq. dielectric constant tensor:
#      x y z
#    x 1.632680 0.000000 -0.019500 
#    y 0.000000 1.662410 0.000000 
#    z -0.019500 0.000000 1.669300 
# 
# From -- ./inp_files/248523.got.cif
#   From: 2010.06.25/outbox.cif.g09.slc.cpg/sg12_125_cif.got.tgz:248523.got - 2010.06.28 00:19:55.
