data_PCOD8080403
_publ_section_title
;
Structure prediction by ZEFSAII (Michael W. Deem and Ramdas Pophale) SiO2 
 PCOD8080403
Probable space group: C 2/M
;
_chemical_formula_sum "Si O2"
_cell_formula_units_Z 64
_cell_length_a 20.312275
_cell_length_b 9.173462
_cell_length_c 32.806163
_cell_angle_alpha 90.000000
_cell_angle_beta 142.472174
_cell_angle_gamma 90.000000
_cell_volume 3723.652415
_symmetry_space_group_name_H-M "C 2/M"
_symmetry_group_IT_number 12
_symmetry_cell_setting 'monoclinic'
loop_
_space_group_symop_operation_xyz
x,y,z
-x,y,-z
-x,-y,-z
x,-y,z
1/2+x,1/2+y,z
1/2-x,1/2+y,-z
1/2-x,1/2-y,-z
1/2+x,1/2-y,z
loop_
_atom_site_type_symbol
_atom_site_label
_atom_site_fract_x
_atom_site_fract_y
_atom_site_fract_z
Si Si1 0.985406 0.173363 0.802094
Si Si2 0.108594 0.673582 0.573209
Si Si3 0.167989 0.827571 0.835924
Si Si4 0.517217 0.671672 0.688426
Si Si5 0.128597 0.172343 0.173981
Si Si6 0.334750 0.327338 0.656893
Si Si7 0.898328 0.327089 0.923608
Si Si8 0.635485 0.828107 0.678658
O O1 0.104645 0.227698 0.845579
O O2 0.956825 0.226090 0.833516
O O3 0.897179 0.236134 0.727000
O O4 0.979419 0.000000 0.798125
O O5 0.103644 0.500000 0.570329
O O6 0.211208 0.729736 0.596878
O O7 0.122440 0.729060 0.626196
O O8 0.000000 0.739947 0.500000
O O9 0.105079 0.774923 0.764746
O O10 0.290932 0.770185 0.894513
O O11 0.167317 0.000000 0.836037
O O12 0.525642 0.500000 0.684732
O O13 0.397735 0.716538 0.646311
O O14 0.539891 0.754962 0.657697
O O15 0.093758 0.254350 0.116375
O O16 0.248095 0.219532 0.246839
O O17 0.122580 0.000000 0.163726
O O18 0.335774 0.500000 0.661493
O O19 0.896225 0.500000 0.916454
O O20 0.000000 0.275862 0.000000
O O21 0.620937 0.000000 0.673753
#
# Coordination Sequence:
#
# PCOD8080403 Si02
#       8
#     8   8   8   8   8   8   8   8
#     4   8  13  24  44  67  88 111 149 194 222 253
#     4   9  16  27  44  67  96 125 153 189 231 271
#     4   8  14  26  45  67  87 114 152 185 218 261
#     4   9  16  27  47  69  89 117 155 193 221 263
#     4  10  18  29  48  71  92 115 149 195 233 265
#     4   8  13  24  43  67  89 115 157 194 218 258
#     4  10  20  33  48  67  94 124 152 184 224 275
#     4  10  18  28  45  71  96 116 147 192 236 270
#
# _framework density 17.187425999999999
#
# number of rings (size 3 to 8) (size 9 to 14) (size 15 to 20)
#    0.000    3.000    2.500    1.500    0.000    0.250 
#    0.000    1.250    0.000    4.875    0.000    0.000 
#    0.000    0.000    0.000    0.000    0.000    0.000 
#
# Total GULP energy -396532.209975 kJ/mol
# GULP energy per Si atom -12391.631562 kJ/mol
# Density = 1.714831 g / cm^3
# Si number density = 17.187426 Si / 1000 Ang^3
#
#
#
# Elastic Constant Matrix: (Units=GPa)
#
#
# Indices 1 2 3 4 5 6 
#
# 1 178.2746 21.4289 67.2261 0.0000 3.6981 0.0000
# 2 21.4289 13.2492 16.5820 -0.0002 -3.3671 0.0003
# 3 67.2261 16.5820 96.1619 0.0001 4.5285 0.0000
# 4 0.0000 -0.0002 0.0001 10.3481 0.0000 -5.3106
# 5 3.6981 -3.3671 4.5285 0.0000 27.7922 0.0000
# 6 0.0000 0.0003 0.0000 -5.3106 0.0000 21.5638
#
#
#
# Elastic Compliance Matrix: (Units=1/GPa)
#
#
# Indices 1 2 3 4 5 6 
#
# 1 0.008251 -0.008378 -0.004257 0.000000 -0.001419 0.000000
# 2 -0.008378 0.110904 -0.014060 0.000002 0.016842 -0.000001
# 3 -0.004257 -0.014060 0.015976 0.000000 -0.003740 0.000000
# 4 0.000000 0.000002 0.000000 0.110616 0.000000 0.027242
# 5 -0.001419 0.016842 -0.003740 0.000000 0.038820 0.000000
# 6 0.000000 -0.000001 0.000000 0.027242 0.000000 0.053083
#
#
# Mechanical properties :
#
#
# Convention : Reuss Voigt Hill
#
# Bulk Modulus (GPa) = 12.23387 55.35110 33.79248
# Shear Modulus (GPa) = 11.95356 24.10408 18.02882
#
# Velocity S-wave (km/s) = 2.64006 3.74896 3.24227
# Velocity P-wave (km/s) = 4.05297 7.14240 5.80692
#
# Compressibility (1/GPa) = 0.08174032
#
# Stress axis : x y z
#
# Youngs Moduli (GPa) = 121.19753 9.01685 62.59581
#
# Poissons Ratio (x) = 0.07555 0.26645
# Poissons Ratio (y) = 1.01542 0.88009
# Poissons Ratio (z) = 0.51589 0.12678
#
# Static dielectric constant tensor:
#      x y z
#    x 3.841240 0.000000 0.165850 
#    y 0.000000 2.649360 0.000000 
#    z 0.165850 0.000000 3.121380 
# 
# 
# High freq. dielectric constant tensor:
#      x y z
#    x 1.688030 0.000000 0.000420 
#    y 0.000000 1.605610 0.000000 
#    z 0.000420 0.000000 1.636600 
# 
# From -- ./inp_files/343082.got.cif
#   From: 2010.06.25/outbox.cif.g09.slc.cpg/sg12_172_cif.got.tgz:343082.got - 2010.06.28 00:19:55.
