data_PCOD8080156
_publ_section_title
;
Structure prediction by ZEFSAII (Michael W. Deem and Ramdas Pophale) SiO2 
 PCOD8080156
Probable space group: C 2/M
;
_chemical_formula_sum "Si O2"
_cell_formula_units_Z 48
_cell_length_a 23.006890
_cell_length_b 8.942504
_cell_length_c 17.294365
_cell_angle_alpha 90.000000
_cell_angle_beta 119.012625
_cell_angle_gamma 90.000000
_cell_volume 3111.629496
_symmetry_space_group_name_H-M "C 2/M"
_symmetry_group_IT_number 12
_symmetry_cell_setting 'monoclinic'
loop_
_space_group_symop_operation_xyz
x,y,z
-x,y,-z
-x,-y,-z
x,-y,z
1/2+x,1/2+y,z
1/2-x,1/2+y,-z
1/2-x,1/2-y,-z
1/2+x,1/2-y,z
loop_
_atom_site_type_symbol
_atom_site_label
_atom_site_fract_x
_atom_site_fract_y
_atom_site_fract_z
Si Si1 0.119385 0.331545 0.251618
Si Si2 0.766950 0.326920 0.131121
Si Si3 0.492819 0.177398 0.081663
Si Si4 0.244322 0.832326 0.722155
Si Si5 0.225881 0.176834 0.406127
Si Si6 0.652940 0.173526 0.966811
O O1 0.107097 0.500000 0.275430
O O2 0.174843 0.336725 0.218627
O O3 0.149309 0.228950 0.340177
O O4 0.051944 0.259280 0.174079
O O5 0.758531 0.500000 0.144837
O O6 0.787188 0.243027 0.222621
O O7 0.825502 0.296354 0.107525
O O8 0.697219 0.268658 0.053629
O O9 0.422961 0.226182 0.073501
O O10 0.500727 0.000000 0.083362
O O11 0.500000 0.244218 0.000000
O O12 0.226785 0.737389 0.633253
O O13 0.215389 0.000000 0.695427
O O14 0.250000 0.250000 0.500000
O O15 0.230394 0.000000 0.414936
O O16 0.662130 0.000000 0.994691
#
# Coordination Sequence:
#
# PCOD8080156 Si02
#       6
#     8   8   8   8   8   8
#     4   8  16  28  44  66  90 118 151 184 222 266
#     4  10  18  28  41  62  89 119 155 195 230 263
#     4   9  15  26  44  65  88 121 160 190 219 263
#     4   9  17  29  46  65  87 116 147 183 226 270
#     4  10  18  30  47  70  97 119 145 182 228 276
#     4   9  18  29  43  61  86 122 160 192 224 265
#
# _framework density 15.426000999999999
#
# number of rings (size 3 to 8) (size 9 to 14) (size 15 to 20)
#    1.000    1.833    0.000    3.000    0.000    3.333 
#    0.000    0.833    0.000    2.000    0.000    1.167 
#    0.000    9.333    0.000    0.000    0.000    0.000 
#
# Total GULP energy -297392.254196 kJ/mol
# GULP energy per Si atom -12391.343925 kJ/mol
# Density = 1.539089 g / cm^3
# Si number density = 15.426001 Si / 1000 Ang^3
#
#
#
# Elastic Constant Matrix: (Units=GPa)
#
#
# Indices 1 2 3 4 5 6 
#
# 1 73.6159 28.0577 48.0178 0.0000 -3.9907 0.0000
# 2 28.0577 98.1046 55.5877 0.0000 -11.8971 0.0000
# 3 48.0178 55.5877 121.1887 0.0000 -10.4711 0.0000
# 4 0.0000 0.0000 0.0000 26.8235 0.0000 -4.5121
# 5 -3.9907 -11.8971 -10.4711 0.0000 23.3084 0.0000
# 6 0.0000 0.0000 0.0000 -4.5121 0.0000 17.3753
#
#
#
# Elastic Compliance Matrix: (Units=1/GPa)
#
#
# Indices 1 2 3 4 5 6 
#
# 1 0.018497 -0.001599 -0.006650 0.000000 -0.000637 0.000000
# 2 -0.001599 0.014351 -0.005555 0.000000 0.004555 0.000000
# 3 -0.006650 -0.005555 0.013620 0.000000 0.002145 0.000000
# 4 0.000000 0.000000 0.000000 0.038984 0.000000 0.010123
# 5 -0.000637 0.004555 0.002145 0.000000 0.046082 0.000000
# 6 0.000000 0.000000 0.000000 0.010123 0.000000 0.060182
#
#
# Mechanical properties :
#
#
# Convention : Reuss Voigt Hill
#
# Bulk Modulus (GPa) = 53.02773 61.80394 57.41584
# Shear Modulus (GPa) = 22.16202 24.25118 23.20660
#
# Velocity S-wave (km/s) = 3.79445 3.96927 3.88284
# Velocity P-wave (km/s) = 7.32443 7.82039 7.57647
#
# Compressibility (1/GPa) = 0.01885806
#
# Stress axis : x y z
#
# Youngs Moduli (GPa) = 54.06320 69.68310 73.42084
#
# Poissons Ratio (x) = 0.11143 0.48828
# Poissons Ratio (y) = 0.08645 0.40787
# Poissons Ratio (z) = 0.35955 0.38711
#
# Static dielectric constant tensor:
#      x y z
#    x 2.813510 0.000000 -0.058840 
#    y 0.000000 2.871650 0.000000 
#    z -0.058840 0.000000 2.806800 
# 
# 
# High freq. dielectric constant tensor:
#      x y z
#    x 1.564610 0.000000 -0.012030 
#    y 0.000000 1.586760 0.000000 
#    z -0.012030 0.000000 1.575730 
# 
# From -- ./inp_files/287132.got.cif
#   From: 2010.06.25/outbox.cif.g09.slc.cpg/sg12_144_cif.got.tgz:287132.got - 2010.06.28 00:19:55.
