data_PCOD8080655
_publ_section_title
;
Structure prediction by ZEFSAII (Michael W. Deem and Ramdas Pophale) SiO2 
 PCOD8080655
Probable space group: C 2/M
;
_chemical_formula_sum "Si O2"
_cell_formula_units_Z 56
_cell_length_a 28.733486
_cell_length_b 9.112197
_cell_length_c 17.047164
_cell_angle_alpha 90.000000
_cell_angle_beta 51.397961
_cell_angle_gamma 90.000000
_cell_volume 3488.121299
_symmetry_space_group_name_H-M "C 2/M"
_symmetry_group_IT_number 12
_symmetry_cell_setting 'monoclinic'
loop_
_space_group_symop_operation_xyz
x,y,z
-x,y,-z
-x,-y,-z
x,-y,z
1/2+x,1/2+y,z
1/2-x,1/2+y,-z
1/2-x,1/2-y,-z
1/2+x,1/2-y,z
loop_
_atom_site_type_symbol
_atom_site_label
_atom_site_fract_x
_atom_site_fract_y
_atom_site_fract_z
Si Si1 0.159675 0.171593 0.587643
Si Si2 0.723065 0.170877 0.267270
Si Si3 0.086482 0.832751 0.248567
Si Si4 0.768968 0.670500 0.360204
Si Si5 0.042400 0.173052 0.627945
Si Si6 0.707553 0.172136 0.105607
Si Si7 0.895796 0.833788 0.591364
O O1 0.177583 0.259163 0.646397
O O2 0.205941 0.202867 0.468573
O O3 0.094695 0.232149 0.629872
O O4 0.158780 0.000000 0.608896
O O5 0.769751 0.257837 0.272706
O O6 0.733200 0.208410 0.164999
O O7 0.657490 0.219857 0.360095
O O8 0.730528 0.000000 0.276217
O O9 0.140645 0.731453 0.164319
O O10 0.075615 0.827566 0.353140
O O11 0.023958 0.770897 0.278253
O O12 0.099980 0.000000 0.207616
O O13 0.782121 0.500000 0.337640
O O14 0.055872 0.215906 0.523596
O O15 0.041050 0.000000 0.636600
O O16 0.706330 0.000000 0.090589
O O17 0.750000 0.250000 0.000000
O O18 0.872307 0.000000 0.597981
#
# Coordination Sequence:
#
# PCOD8080655 Si02
#       7
#     8   8   8   8   8   8   8
#     4   9  17  28  42  62  93 128 163 198 225 258
#     4  10  19  30  46  68  93 121 153 192 236 277
#     4   9  17  28  47  69  92 122 155 190 228 272
#     4  10  18  29  44  64  90 124 164 198 230 269
#     4   9  15  26  43  66  93 126 162 190 220 263
#     4  10  21  36  52  71  94 118 150 192 237 284
#     4   9  15  26  42  64  92 124 160 190 217 261
#
# _framework density 16.054487999999999
#
# number of rings (size 3 to 8) (size 9 to 14) (size 15 to 20)
#    0.000    2.571    1.429    1.714    0.000    4.000 
#    0.000    1.429    0.000    3.429    0.000    1.000 
#    0.000    8.000    0.000    0.000    0.000    0.000 
#
# Total GULP energy -347063.080078 kJ/mol
# GULP energy per Si atom -12395.110003 kJ/mol
# Density = 1.601795 g / cm^3
# Si number density = 16.054488 Si / 1000 Ang^3
#
#
#
# Elastic Constant Matrix: (Units=GPa)
#
#
# Indices 1 2 3 4 5 6 
#
# 1 120.7068 52.1365 57.4253 -0.0001 -9.1394 0.0002
# 2 52.1365 71.5618 44.6910 -0.0001 0.5552 0.0004
# 3 57.4253 44.6910 85.6822 0.0000 -7.1119 0.0000
# 4 -0.0001 -0.0001 0.0000 18.2391 0.0000 1.0545
# 5 -9.1394 0.5552 -7.1119 0.0000 15.9599 0.0000
# 6 0.0002 0.0004 0.0000 1.0545 0.0000 24.4847
#
#
#
# Elastic Compliance Matrix: (Units=1/GPa)
#
#
# Indices 1 2 3 4 5 6 
#
# 1 0.014421 -0.007169 -0.005420 0.000000 0.006092 0.000000
# 2 -0.007169 0.024809 -0.008877 0.000000 -0.008924 0.000000
# 3 -0.005420 -0.008877 0.020458 0.000000 0.006321 0.000000
# 4 0.000000 0.000000 0.000000 0.054964 0.000000 -0.002367
# 5 0.006092 -0.008924 0.006321 0.000000 0.069273 0.000000
# 6 0.000000 0.000000 0.000000 -0.002367 0.000000 0.040944
#
#
# Mechanical properties :
#
#
# Convention : Reuss Voigt Hill
#
# Bulk Modulus (GPa) = 59.67387 65.16182 62.41784
# Shear Modulus (GPa) = 18.28920 19.98329 19.13624
#
# Velocity S-wave (km/s) = 3.37886 3.53188 3.45622
# Velocity P-wave (km/s) = 7.24379 7.57022 7.40881
#
# Compressibility (1/GPa) = 0.01675775
#
# Stress axis : x y z
#
# Youngs Moduli (GPa) = 69.34463 40.30752 48.87971
#
# Poissons Ratio (x) = 0.28894 0.26494
# Poissons Ratio (y) = 0.49710 0.43388
# Poissons Ratio (z) = 0.37587 0.35779
#
# Static dielectric constant tensor:
#      x y z
#    x 3.321290 0.000000 -0.027880 
#    y 0.000000 2.976910 0.000000 
#    z -0.027880 0.000000 2.772350 
# 
# 
# High freq. dielectric constant tensor:
#      x y z
#    x 1.620670 0.000000 0.000010 
#    y 0.000000 1.609460 0.000000 
#    z 0.000010 0.000000 1.574260 
# 
# From -- ./inp_files/291839.got.cif
#   From: 2010.06.25/outbox.cif.g09.slc.cpg/sg12_146_cif.got.tgz:291839.got - 2010.06.28 00:19:55.
