data_PCOD8080191
_publ_section_title
;
Structure prediction by ZEFSAII (Michael W. Deem and Ramdas Pophale) SiO2 
 PCOD8080191
Probable space group: C 2/M
;
_chemical_formula_sum "Si O2"
_cell_formula_units_Z 64
_cell_length_a 25.792960
_cell_length_b 8.992779
_cell_length_c 17.250256
_cell_angle_alpha 90.000000
_cell_angle_beta 89.592282
_cell_angle_gamma 90.000000
_cell_volume 4001.102285
_symmetry_space_group_name_H-M "C 2/M"
_symmetry_group_IT_number 12
_symmetry_cell_setting 'monoclinic'
loop_
_space_group_symop_operation_xyz
x,y,z
-x,y,-z
-x,-y,-z
x,-y,z
1/2+x,1/2+y,z
1/2-x,1/2+y,-z
1/2-x,1/2-y,-z
1/2+x,1/2-y,z
loop_
_atom_site_type_symbol
_atom_site_label
_atom_site_fract_x
_atom_site_fract_y
_atom_site_fract_z
Si Si1 0.803839 0.170810 0.496711
Si Si2 0.652677 0.324262 0.178534
Si Si3 0.192048 0.824946 0.670576
Si Si4 0.850550 0.324197 0.181940
Si Si5 0.248022 0.324061 0.916981
Si Si6 0.196804 0.825852 0.336174
Si Si7 0.942562 0.176155 0.915583
Si Si8 0.558667 0.323992 0.909031
O O1 0.750000 0.250000 0.500000
O O2 0.832450 0.212737 0.415403
O O3 0.831528 0.205164 0.579676
O O4 0.789663 0.000000 0.492170
O O5 0.650006 0.500000 0.169735
O O6 0.702953 0.265110 0.132373
O O7 0.656960 0.277695 0.268878
O O8 0.600348 0.254399 0.142177
O O9 0.156275 0.742221 0.732483
O O10 0.250838 0.767203 0.674279
O O11 0.191531 0.000000 0.688009
O O12 0.852801 0.500000 0.188638
O O13 0.803594 0.272165 0.127201
O O14 0.904240 0.263750 0.148655
O O15 0.249322 0.500000 0.927388
O O16 0.250000 0.250000 0.000000
O O17 0.211413 0.000000 0.326641
O O18 0.999956 0.227255 0.889607
O O19 0.941648 0.000000 0.913698
O O20 0.928997 0.226172 0.003120
O O21 0.566354 0.500000 0.897993
#
# Coordination Sequence:
#
# PCOD8080191 Si02
#       8
#     8   8   8   8   8   8   8   8
#     4   8  15  25  40  61  85 116 148 177 215 260
#     4   9  15  26  44  65  89 116 144 177 218 265
#     4  10  18  28  42  63  90 119 151 183 214 259
#     4  11  21  32  45  65  91 120 150 182 223 267
#     4  10  20  31  43  62  88 118 149 176 212 262
#     4   9  15  27  44  63  91 120 145 179 222 267
#     4   8  15  28  48  69  87 111 149 188 225 263
#     4   9  17  31  49  67  86 114 151 191 224 257
#
# _framework density 15.995590999999999
#
# number of rings (size 3 to 8) (size 9 to 14) (size 15 to 20)
#    0.000    2.750    1.250    2.250    0.000    2.500 
#    0.000    1.250    0.000    1.500    0.000    0.875 
#    0.000    7.000    0.000    0.000    0.000    0.000 
#
# Total GULP energy -396467.620249 kJ/mol
# GULP energy per Si atom -12389.613133 kJ/mol
# Density = 1.595918 g / cm^3
# Si number density = 15.995591 Si / 1000 Ang^3
#
#
#
# Elastic Constant Matrix: (Units=GPa)
#
#
# Indices 1 2 3 4 5 6 
#
# 1 94.3292 21.8214 71.7593 0.0000 -1.4174 0.0000
# 2 21.8214 34.2803 37.2666 0.0000 -4.4929 0.0000
# 3 71.7593 37.2666 167.6637 0.0000 2.0444 0.0000
# 4 0.0000 0.0000 0.0000 21.0314 0.0000 -3.1968
# 5 -1.4174 -4.4929 2.0444 0.0000 20.2416 0.0000
# 6 0.0000 0.0000 0.0000 -3.1968 0.0000 16.6177
#
#
#
# Elastic Compliance Matrix: (Units=1/GPa)
#
#
# Indices 1 2 3 4 5 6 
#
# 1 0.016072 -0.003443 -0.006125 0.000000 0.000980 0.000000
# 2 -0.003443 0.041083 -0.007775 0.000000 0.009663 0.000000
# 3 -0.006125 -0.007775 0.010353 0.000000 -0.003200 0.000000
# 4 0.000000 0.000000 0.000000 0.048980 0.000000 0.009422
# 5 0.000980 0.009663 -0.003200 0.000000 0.051940 0.000000
# 6 0.000000 0.000000 0.000000 0.009422 0.000000 0.061989
#
#
# Mechanical properties :
#
#
# Convention : Reuss Voigt Hill
#
# Bulk Modulus (GPa) = 30.46983 61.99642 46.23313
# Shear Modulus (GPa) = 18.11292 22.60654 20.35973
#
# Velocity S-wave (km/s) = 3.36872 3.76346 3.57155
# Velocity P-wave (km/s) = 5.84990 7.59786 6.78044
#
# Compressibility (1/GPa) = 0.03281935
#
# Stress axis : x y z
#
# Youngs Moduli (GPa) = 62.21889 24.34124 96.58804
#
# Poissons Ratio (x) = 0.08382 0.59164
# Poissons Ratio (y) = 0.21425 0.75102
# Poissons Ratio (z) = 0.38112 0.18926
#
# Static dielectric constant tensor:
#      x y z
#    x 3.033980 0.000000 0.219860 
#    y 0.000000 2.554040 0.000000 
#    z 0.219860 0.000000 3.595220 
# 
# 
# High freq. dielectric constant tensor:
#      x y z
#    x 1.578910 0.000000 0.005790 
#    y 0.000000 1.596250 0.000000 
#    z 0.005790 0.000000 1.629790 
# 
# From -- ./inp_files/287602.got.cif
#   From: 2010.06.25/outbox.cif.g09.slc.cpg/sg12_144_cif.got.tgz:287602.got - 2010.06.28 00:19:55.
