data_PCOD8080213
_publ_section_title
;
Structure prediction by ZEFSAII (Michael W. Deem and Ramdas Pophale) SiO2 
 PCOD8080213
Probable space group: C 2/M
;
_chemical_formula_sum "Si O2"
_cell_formula_units_Z 64
_cell_length_a 26.619199
_cell_length_b 9.275840
_cell_length_c 16.947826
_cell_angle_alpha 90.000000
_cell_angle_beta 78.556478
_cell_angle_gamma 90.000000
_cell_volume 4101.491467
_symmetry_space_group_name_H-M "C 2/M"
_symmetry_group_IT_number 12
_symmetry_cell_setting 'monoclinic'
loop_
_space_group_symop_operation_xyz
x,y,z
-x,y,-z
-x,-y,-z
x,-y,z
1/2+x,1/2+y,z
1/2-x,1/2+y,-z
1/2-x,1/2-y,-z
1/2+x,1/2-y,z
loop_
_atom_site_type_symbol
_atom_site_label
_atom_site_fract_x
_atom_site_fract_y
_atom_site_fract_z
Si Si1 0.456759 0.162507 0.920157
Si Si2 0.440053 0.337024 0.501694
Si Si3 0.066961 0.332213 0.819751
Si Si4 0.959416 0.668754 0.346345
Si Si5 0.891943 0.168071 0.058093
Si Si6 0.802038 0.168881 0.966405
Si Si7 0.133018 0.663084 0.172170
Si Si8 0.924397 0.332143 0.656292
O O1 0.512456 0.207612 0.874114
O O2 0.420237 0.175164 0.856744
O O3 0.455985 0.000000 0.954509
O O4 0.439878 0.268101 0.995063
O O5 0.500000 0.331008 0.500000
O O6 0.419760 0.500000 0.501561
O O7 0.428901 0.255366 0.423279
O O8 0.410788 0.258094 0.582323
O O9 0.079678 0.500000 0.823679
O O10 0.066176 0.285798 0.728536
O O11 0.109906 0.242653 0.854882
O O12 0.952511 0.500000 0.364765
O O13 0.019642 0.709301 0.327001
O O14 0.900630 0.000000 0.066344
O O15 0.839682 0.202137 0.027702
O O16 0.825383 0.228470 0.877221
O O17 0.791953 0.000000 0.959201
O O18 0.750000 0.250000 0.000000
O O19 0.154753 0.500000 0.160301
O O20 0.119659 0.705583 0.266241
O O21 0.923377 0.500000 0.634573
#
# Coordination Sequence:
#
# PCOD8080213 Si02
#       8
#     8   8   8   8   8   8   8   8
#     4   9  16  28  43  60  84 115 150 182 210 247
#     4   9  17  26  36  55  83 116 151 185 222 257
#     4  10  18  28  43  62  85 116 153 185 210 248
#     4   9  16  27  41  58  82 116 156 188 213 246
#     4  10  21  32  42  62  87 111 141 178 222 265
#     4  10  21  36  51  66  86 112 143 181 226 271
#     4   9  16  28  47  68  88 113 147 184 222 260
#     4   9  15  26  43  61  83 114 151 186 216 251
#
# _framework density 15.604079
#
# number of rings (size 3 to 8) (size 9 to 14) (size 15 to 20)
#    0.000    2.625    1.250    1.500    0.000    6.000 
#    0.000    0.000    0.000    0.000    0.000    0.000 
#    0.000    1.000    0.000    3.250    0.000    4.000 
#
# Total GULP energy -396743.024003 kJ/mol
# GULP energy per Si atom -12398.219500 kJ/mol
# Density = 1.556856 g / cm^3
# Si number density = 15.604079 Si / 1000 Ang^3
#
#
#
# Elastic Constant Matrix: (Units=GPa)
#
#
# Indices 1 2 3 4 5 6 
#
# 1 39.4293 36.7311 45.6901 0.0000 -2.0889 0.0000
# 2 36.7311 91.5157 75.1618 0.0000 4.1204 0.0000
# 3 45.6901 75.1618 134.2084 0.0000 12.1928 0.0000
# 4 0.0000 0.0000 0.0000 23.1218 0.0000 4.0551
# 5 -2.0889 4.1204 12.1928 0.0000 16.9908 0.0000
# 6 0.0000 0.0000 0.0000 4.0551 0.0000 17.8601
#
#
#
# Elastic Compliance Matrix: (Units=1/GPa)
#
#
# Indices 1 2 3 4 5 6 
#
# 1 0.051684 -0.010640 -0.013317 0.000000 0.018491 0.000000
# 2 -0.010640 0.022615 -0.009014 0.000000 -0.000324 0.000000
# 3 -0.013317 -0.009014 0.018167 0.000000 -0.012488 0.000000
# 4 0.000000 0.000000 0.000000 0.045043 0.000000 -0.010227
# 5 0.018491 -0.000324 -0.012488 0.000000 0.070169 0.000000
# 6 0.000000 0.000000 0.000000 -0.010227 0.000000 0.058313
#
#
# Mechanical properties :
#
#
# Convention : Reuss Voigt Hill
#
# Bulk Modulus (GPa) = 37.69834 64.47994 51.08914
# Shear Modulus (GPa) = 14.67252 18.76590 16.71921
#
# Velocity S-wave (km/s) = 3.06976 3.47165 3.27687
# Velocity P-wave (km/s) = 6.06435 7.58169 6.86507
#
# Compressibility (1/GPa) = 0.02652637
#
# Stress axis : x y z
#
# Youngs Moduli (GPa) = 19.34824 44.21855 55.04449
#
# Poissons Ratio (x) = 0.47048 0.73301
# Poissons Ratio (y) = 0.20586 0.49615
# Poissons Ratio (z) = 0.25765 0.39857
#
# Static dielectric constant tensor:
#      x y z
#    x 2.613310 0.000000 0.147540 
#    y 0.000000 3.018600 0.000000 
#    z 0.147540 0.000000 3.144830 
# 
# 
# High freq. dielectric constant tensor:
#      x y z
#    x 1.544300 0.000000 0.013920 
#    y 0.000000 1.602410 0.000000 
#    z 0.013920 0.000000 1.601850 
# 
# From -- ./inp_files/294546.got.cif
#   From: 2010.06.25/outbox.cif.g09.slc.cpg/sg12_148_cif.got.tgz:294546.got - 2010.06.28 00:19:55.
