data_PCOD8080270
_publ_section_title
;
Structure prediction by ZEFSAII (Michael W. Deem and Ramdas Pophale) SiO2 
 PCOD8080270
Probable space group: C 2/M
;
_chemical_formula_sum "Si O2"
_cell_formula_units_Z 48
_cell_length_a 25.486037
_cell_length_b 9.039602
_cell_length_c 18.105881
_cell_angle_alpha 90.000000
_cell_angle_beta 130.309040
_cell_angle_gamma 90.000000
_cell_volume 3180.891625
_symmetry_space_group_name_H-M "C 2/M"
_symmetry_group_IT_number 12
_symmetry_cell_setting 'monoclinic'
loop_
_space_group_symop_operation_xyz
x,y,z
-x,y,-z
-x,-y,-z
x,-y,z
1/2+x,1/2+y,z
1/2-x,1/2+y,-z
1/2-x,1/2-y,-z
1/2+x,1/2-y,z
loop_
_atom_site_type_symbol
_atom_site_label
_atom_site_fract_x
_atom_site_fract_y
_atom_site_fract_z
Si Si1 0.407341 0.332834 0.719574
Si Si2 0.843722 0.673887 0.370996
Si Si3 0.442355 0.825644 0.889481
Si Si4 0.688789 0.666990 0.242684
Si Si5 0.432975 0.826113 0.593577
Si Si6 0.953814 0.167248 0.385456
O O1 0.432782 0.500000 0.726924
O O2 0.458792 0.253769 0.825691
O O3 0.331182 0.333331 0.687901
O O4 0.403003 0.240990 0.640955
O O5 0.848603 0.500000 0.361111
O O6 0.765260 0.730832 0.302106
O O7 0.879027 0.715270 0.480595
O O8 0.881010 0.755918 0.337060
O O9 0.367397 0.769375 0.851033
O O10 0.440843 0.000000 0.876132
O O11 0.500000 0.776828 0.000000
O O12 0.684328 0.500000 0.207192
O O13 0.507561 0.755727 0.644258
O O14 0.442673 0.000000 0.611126
O O15 0.000000 0.173308 0.500000
O O16 0.940659 0.000000 0.347155
#
# Coordination Sequence:
#
# PCOD8080270 Si02
#       6
#     8   8   8   8   8   8
#     4   9  18  30  44  64  90 116 146 179 215 261
#     4   9  17  30  44  62  89 120 152 183 215 252
#     4   9  17  30  47  66  87 110 141 180 218 261
#     4   8  17  30  44  64  90 116 145 178 216 261
#     4  10  18  28  44  63  88 121 152 184 217 250
#     4   9  17  28  42  61  84 115 154 188 217 250
#
# _framework density 15.090108000000001
#
# number of rings (size 3 to 8) (size 9 to 14) (size 15 to 20)
#    1.000    2.000    0.000    1.500    0.000    5.333 
#    0.000    0.000    0.000    0.000    0.000    1.167 
#    0.000    0.000    0.000    0.000    0.000    0.000 
#
# Total GULP energy -297387.164829 kJ/mol
# GULP energy per Si atom -12391.131868 kJ/mol
# Density = 1.505576 g / cm^3
# Si number density = 15.090108 Si / 1000 Ang^3
#
#
#
# Elastic Constant Matrix: (Units=GPa)
#
#
# Indices 1 2 3 4 5 6 
#
# 1 70.4375 30.6972 36.2047 0.0000 26.5070 0.0000
# 2 30.6972 73.6894 35.9602 0.0000 11.8423 0.0000
# 3 36.2047 35.9602 67.9048 0.0000 19.6714 0.0000
# 4 0.0000 0.0000 0.0000 18.9643 0.0000 -2.5405
# 5 26.5070 11.8423 19.6714 0.0000 13.7972 0.0000
# 6 0.0000 0.0000 0.0000 -2.5405 0.0000 26.3522
#
#
#
# Elastic Compliance Matrix: (Units=1/GPa)
#
#
# Indices 1 2 3 4 5 6 
#
# 1 0.055384 -0.008864 0.006448 0.000000 -0.107988 0.000000
# 2 -0.008864 0.019803 -0.009830 0.000000 0.014048 0.000000
# 3 0.006448 -0.009830 0.030051 0.000000 -0.046796 0.000000
# 4 0.000000 0.000000 0.000000 0.053421 0.000000 0.005150
# 5 -0.107988 0.014048 -0.046796 0.000000 0.334607 0.000000
# 6 0.000000 0.000000 0.000000 0.005150 0.000000 0.038444
#
#
# Mechanical properties :
#
#
# Convention : Reuss Voigt Hill
#
# Bulk Modulus (GPa) = 12.38468 46.41732 29.40100
# Shear Modulus (GPa) = 8.57464 19.10070 13.83767
#
# Velocity S-wave (km/s) = 2.38634 3.56163 3.03149
# Velocity P-wave (km/s) = 3.97716 6.90945 5.63730
#
# Compressibility (1/GPa) = 0.08074494
#
# Stress axis : x y z
#
# Youngs Moduli (GPa) = 18.05587 50.49856 33.27718
#
# Poissons Ratio (x) = 0.44761 -0.21459
# Poissons Ratio (y) = 0.16005 0.32713
# Poissons Ratio (z) = -0.11643 0.49643
#
# Static dielectric constant tensor:
#      x y z
#    x 2.862630 0.000000 0.121510 
#    y 0.000000 2.970460 0.000000 
#    z 0.121510 0.000000 2.600330 
# 
# 
# High freq. dielectric constant tensor:
#      x y z
#    x 1.567730 0.000000 0.010380 
#    y 0.000000 1.592210 0.000000 
#    z 0.010380 0.000000 1.535500 
# 
# From -- ./inp_files/287274.got.cif
#   From: 2010.06.25/outbox.cif.g09.slc.cpg/sg12_144_cif.got.tgz:287274.got - 2010.06.28 00:19:55.
