data_PCOD8080077
_publ_section_title
;
Structure prediction by ZEFSAII (Michael W. Deem and Ramdas Pophale) SiO2 
 PCOD8080077
Probable space group: C 2/M
;
_chemical_formula_sum "Si O2"
_cell_formula_units_Z 48
_cell_length_a 23.694260
_cell_length_b 9.578116
_cell_length_c 13.416586
_cell_angle_alpha 90.000000
_cell_angle_beta 107.472654
_cell_angle_gamma 90.000000
_cell_volume 2904.357433
_symmetry_space_group_name_H-M "C 2/M"
_symmetry_group_IT_number 12
_symmetry_cell_setting 'monoclinic'
loop_
_space_group_symop_operation_xyz
x,y,z
-x,y,-z
-x,-y,-z
x,-y,z
1/2+x,1/2+y,z
1/2-x,1/2+y,-z
1/2-x,1/2-y,-z
1/2+x,1/2-y,z
loop_
_atom_site_type_symbol
_atom_site_label
_atom_site_fract_x
_atom_site_fract_y
_atom_site_fract_z
Si Si1 0.266139 0.659240 0.102502
Si Si2 0.289428 0.161817 0.720063
Si Si3 0.313351 0.159737 0.409377
Si Si4 0.891019 0.344104 0.640009
Si Si5 0.123663 0.841306 0.713039
Si Si6 0.506954 0.340070 0.390520
O O1 0.257372 0.500000 0.066084
O O2 0.222390 0.698586 0.170564
O O3 0.334436 0.688913 0.169774
O O4 0.250000 0.750000 0.000000
O O5 0.248358 0.258744 0.629473
O O6 0.358362 0.189620 0.728247
O O7 0.272727 0.000000 0.691026
O O8 0.337631 0.167328 0.533566
O O9 0.362229 0.233588 0.366710
O O10 0.304436 0.000000 0.369712
O O11 0.917969 0.500000 0.654471
O O12 0.944220 0.240183 0.647038
O O13 0.054539 0.822994 0.702604
O O14 0.135674 0.000000 0.681609
O O15 0.500000 0.281852 0.500000
O O16 0.527644 0.500000 0.407311
#
# Coordination Sequence:
#
# PCOD8080077 Si02
#       6
#     8   8   8   8   8   8
#     4   9  18  33  54  73  92 118 154 202 249 290
#     4   9  19  34  48  66  96 131 159 192 244 295
#     4  10  18  27  44  71  98 126 161 200 231 272
#     4  10  20  31  45  68 100 133 162 194 235 278
#     4   9  18  33  49  69  98 131 161 193 237 286
#     4  10  19  31  49  70  96 134 171 194 223 279
#
# _framework density 16.526892
#
# number of rings (size 3 to 8) (size 9 to 14) (size 15 to 20)
#    0.000    2.500    1.667    2.000    0.000    5.000 
#    0.000    0.000    0.000    1.000    0.000    7.000 
#    0.000    0.000    0.000    0.000    0.000    0.000 
#
# Total GULP energy -297499.730082 kJ/mol
# GULP energy per Si atom -12395.822087 kJ/mol
# Density = 1.648928 g / cm^3
# Si number density = 16.526892 Si / 1000 Ang^3
#
#
#
# Elastic Constant Matrix: (Units=GPa)
#
#
# Indices 1 2 3 4 5 6 
#
# 1 131.1680 58.8955 48.2894 0.0000 -2.0026 0.0000
# 2 58.8955 82.1279 37.0586 0.0000 -2.6460 0.0000
# 3 48.2894 37.0586 78.9157 0.0000 -0.5811 0.0000
# 4 0.0000 0.0000 0.0000 25.3679 0.0000 1.8530
# 5 -2.0026 -2.6460 -0.5811 0.0000 15.0445 0.0000
# 6 0.0000 0.0000 0.0000 1.8530 0.0000 30.9775
#
#
#
# Elastic Compliance Matrix: (Units=1/GPa)
#
#
# Indices 1 2 3 4 5 6 
#
# 1 0.012293 -0.006869 -0.004295 0.000000 0.000262 0.000000
# 2 -0.006869 0.019378 -0.004880 0.000000 0.002305 0.000000
# 3 -0.004295 -0.004880 0.017586 0.000000 -0.000751 0.000000
# 4 0.000000 0.000000 0.000000 0.039593 0.000000 -0.002368
# 5 0.000262 0.002305 -0.000751 0.000000 0.066881 0.000000
# 6 0.000000 0.000000 0.000000 -0.002368 0.000000 0.032423
#
#
# Mechanical properties :
#
#
# Convention : Reuss Voigt Hill
#
# Bulk Modulus (GPa) = 58.24103 64.52208 61.38156
# Shear Modulus (GPa) = 22.12735 24.14253 23.13494
#
# Velocity S-wave (km/s) = 3.66303 3.82619 3.74550
# Velocity P-wave (km/s) = 7.29431 7.65801 7.47837
#
# Compressibility (1/GPa) = 0.01717003
#
# Stress axis : x y z
#
# Youngs Moduli (GPa) = 81.34504 51.60374 56.86478
#
# Poissons Ratio (x) = 0.35449 0.24421
# Poissons Ratio (y) = 0.55880 0.27748
# Poissons Ratio (z) = 0.34934 0.25180
#
# Static dielectric constant tensor:
#      x y z
#    x 3.189620 0.000000 0.022170 
#    y 0.000000 3.168010 0.000000 
#    z 0.022170 0.000000 2.815990 
# 
# 
# High freq. dielectric constant tensor:
#      x y z
#    x 1.635920 0.000000 0.001230 
#    y 0.000000 1.642160 0.000000 
#    z 0.001230 0.000000 1.599100 
# 
# From -- ./inp_files/172316.got.cif
#   From: 2010.06.25/outbox.cif.g09.slc.cpg/sg12_87_cif.got.tgz:172316.got - 2010.06.28 00:19:55.
