data_PCOD8080609
_publ_section_title
;
Structure prediction by ZEFSAII (Michael W. Deem and Ramdas Pophale) SiO2 
 PCOD8080609
Probable space group: C 2/M
;
_chemical_formula_sum "Si O2"
_cell_formula_units_Z 56
_cell_length_a 25.197539
_cell_length_b 19.892407
_cell_length_c 17.436436
_cell_angle_alpha 90.000000
_cell_angle_beta 19.784238
_cell_angle_gamma 90.000000
_cell_volume 2958.250894
_symmetry_space_group_name_H-M "C 2/M"
_symmetry_group_IT_number 12
_symmetry_cell_setting 'monoclinic'
loop_
_space_group_symop_operation_xyz
x,y,z
-x,y,-z
-x,-y,-z
x,-y,z
1/2+x,1/2+y,z
1/2-x,1/2+y,-z
1/2-x,1/2-y,-z
1/2+x,1/2-y,z
loop_
_atom_site_type_symbol
_atom_site_label
_atom_site_fract_x
_atom_site_fract_y
_atom_site_fract_z
Si Si1 0.007577 0.000000 0.615563
Si Si2 0.792253 0.575833 0.603695
Si Si3 0.552565 0.260144 0.699850
Si Si4 0.323729 0.077275 0.735024
Si Si5 0.621836 0.302029 0.769478
Si Si6 0.757663 0.500000 0.152160
Si Si7 0.604606 0.877099 0.110477
Si Si8 0.375921 0.629629 0.859788
O O1 0.991447 0.066399 0.689562
O O2 0.870423 0.000000 0.740162
O O3 0.177826 0.000000 0.344135
O O4 0.758334 0.500000 0.623612
O O5 0.753769 0.586114 0.745307
O O6 0.678109 0.622026 0.708887
O O7 0.975742 0.592401 0.343266
O O8 0.544293 0.300813 0.790882
O O9 0.730180 0.247952 0.430886
O O10 0.460014 0.190606 0.840064
O O11 0.477147 0.303039 0.733463
O O12 0.500000 0.105075 0.500000
O O13 0.320352 0.000000 0.767071
O O14 0.220456 0.121273 0.931559
O O15 0.500000 0.277763 0.000000
O O16 0.861552 0.432387 0.001762
O O17 0.762216 0.859907 0.942299
#
# Coordination Sequence:
#
# PCOD8080609 Si02
#       8
#     4   8   8   8   8   4   8   8
#     4   9  20  32  50  80 114 158 183 222 279 327
#     4  10  19  33  57  88 112 145 186 227 286 350
#     4  10  23  38  58  83 110 151 198 237 289 342
#     4  10  18  28  52  87 120 146 172 213 286 352
#     4  10  22  42  57  75 110 155 195 238 284 327
#     4   9  18  34  55  77 111 149 195 226 270 342
#     4  10  19  34  59  85 114 148 184 238 291 345
#     4  11  19  35  55  85 122 150 179 235 289 349
#
# _framework density 18.930104
#
# number of rings (size 3 to 8) (size 9 to 14) (size 15 to 20)
#    0.000    2.000    2.857    1.286    0.000    1.429 
#    1.286    0.000    3.143    0.000    0.000    4.000 
#    0.000    0.000    0.000    0.000    0.000    0.000 
#
# Total GULP energy -347270.559771 kJ/mol
# GULP energy per Si atom -12402.519992 kJ/mol
# Density = 1.888702 g / cm^3
# Si number density = 18.930104 Si / 1000 Ang^3
#
#
#
# Elastic Constant Matrix: (Units=GPa)
#
#
# Indices 1 2 3 4 5 6 
#
# 1 74.6787 46.0024 31.8637 -0.0006 -2.5596 0.0027
# 2 46.0024 110.1849 40.5164 -0.0039 -2.5104 0.0032
# 3 31.8637 40.5164 98.4743 0.0016 8.7807 0.0017
# 4 -0.0006 -0.0039 0.0016 21.2175 -0.0034 -0.4986
# 5 -2.5596 -2.5104 8.7807 -0.0034 21.3327 0.0006
# 6 0.0027 0.0032 0.0017 -0.4986 0.0006 29.5321
#
#
#
# Elastic Compliance Matrix: (Units=1/GPa)
#
#
# Indices 1 2 3 4 5 6 
#
# 1 0.019129 -0.006527 -0.003779 0.000000 0.003083 -0.000001
# 2 -0.006527 0.013133 -0.003488 0.000003 0.002198 -0.000001
# 3 -0.003779 -0.003488 0.013381 -0.000003 -0.006372 0.000000
# 4 0.000000 0.000003 -0.000003 0.047150 0.000009 0.000796
# 5 0.003083 0.002198 -0.006372 0.000009 0.050127 -0.000001
# 6 -0.000001 -0.000001 0.000000 0.000796 -0.000001 0.033875
#
#
# Mechanical properties :
#
#
# Convention : Reuss Voigt Hill
#
# Bulk Modulus (GPa) = 55.38262 57.78920 56.58591
# Shear Modulus (GPa) = 23.76414 25.41349 24.58882
#
# Velocity S-wave (km/s) = 3.54695 3.66798 3.60797
# Velocity P-wave (km/s) = 6.78929 6.96654 6.87848
#
# Compressibility (1/GPa) = 0.01805621
#
# Stress axis : x y z
#
# Youngs Moduli (GPa) = 52.27577 76.14395 74.73328
#
# Poissons Ratio (x) = 0.49696 0.28244
# Poissons Ratio (y) = 0.34118 0.26064
# Poissons Ratio (z) = 0.19757 0.26556
#
# Static dielectric constant tensor:
#      x y z
#    x 3.234780 -0.000010 0.019100 
#    y -0.000010 3.419110 0.000020 
#    z 0.019100 0.000020 3.559940 
# 
# 
# High freq. dielectric constant tensor:
#      x y z
#    x 1.714380 0.000000 0.002010 
#    y 0.000000 1.733990 0.000000 
#    z 0.002010 0.000000 1.738920 
# 
# From -- ./inp_files/294091.got.cif
#   From: 2010.06.25/outbox.cif.g09.slc.cpg/sg12_148_cif.got.tgz:294091.got - 2010.06.28 00:19:55.
