data_PCOD8080377
_publ_section_title
;
Structure prediction by ZEFSAII (Michael W. Deem and Ramdas Pophale) SiO2 
 PCOD8080377
Probable space group: C 2/M
;
_chemical_formula_sum "Si O2"
_cell_formula_units_Z 56
_cell_length_a 27.756804
_cell_length_b 9.001142
_cell_length_c 21.022459
_cell_angle_alpha 90.000000
_cell_angle_beta 40.889100
_cell_angle_gamma 90.000000
_cell_volume 3438.148270
_symmetry_space_group_name_H-M "C 2/M"
_symmetry_group_IT_number 12
_symmetry_cell_setting 'monoclinic'
loop_
_space_group_symop_operation_xyz
x,y,z
-x,y,-z
-x,-y,-z
x,-y,z
1/2+x,1/2+y,z
1/2-x,1/2+y,-z
1/2-x,1/2-y,-z
1/2+x,1/2-y,z
loop_
_atom_site_type_symbol
_atom_site_label
_atom_site_fract_x
_atom_site_fract_y
_atom_site_fract_z
Si Si1 0.215333 0.669457 0.976426
Si Si2 0.426371 0.331118 0.322498
Si Si3 0.413676 0.172852 0.583792
Si Si4 0.779850 0.827914 0.408157
Si Si5 0.340538 0.326465 0.537738
Si Si6 0.647678 0.675139 0.230865
Si Si7 0.574957 0.173377 0.182098
O O1 0.230128 0.500000 0.976334
O O2 0.263786 0.709940 0.865509
O O3 0.250000 0.750000 0.000000
O O4 0.127423 0.702471 0.067084
O O5 0.455155 0.500000 0.295462
O O6 0.368605 0.309858 0.321674
O O7 0.388209 0.291571 0.427552
O O8 0.493850 0.221814 0.242471
O O9 0.500000 0.202055 0.500000
O O10 0.382601 0.258910 0.554829
O O11 0.376808 0.236097 0.683453
O O12 0.394749 0.000000 0.596476
O O13 0.750000 0.750000 0.500000
O O14 0.740668 0.748997 0.387120
O O15 0.757472 0.000000 0.431615
O O16 0.328698 0.500000 0.560274
O O17 0.632057 0.500000 0.255187
O O18 0.601806 0.732438 0.215914
O O19 0.574683 0.000000 0.201220
#
# Coordination Sequence:
#
# PCOD8080377 Si02
#       7
#     8   8   8   8   8   8   8
#     4   8  16  29  44  64  88 116 149 185 225 267
#     4   9  18  30  45  68  95 121 149 183 225 269
#     4  11  23  35  47  66  92 122 156 190 222 261
#     4   9  17  30  47  66  90 119 152 189 226 268
#     4  10  20  33  48  66  91 123 156 188 224 268
#     4  10  19  32  48  64  89 123 156 189 224 266
#     4  10  18  28  45  69  95 120 149 186 227 270
#
# _framework density 16.287838000000001
#
# number of rings (size 3 to 8) (size 9 to 14) (size 15 to 20)
#    0.000    2.429    0.000    3.857    0.000    8.000 
#    0.000    0.000    0.000    0.000    0.000    1.000 
#    0.000    8.000    0.000    0.000    0.000    0.000 
#
# Total GULP energy -346908.328589 kJ/mol
# GULP energy per Si atom -12389.583164 kJ/mol
# Density = 1.625077 g / cm^3
# Si number density = 16.287838 Si / 1000 Ang^3
#
#
#
# Elastic Constant Matrix: (Units=GPa)
#
#
# Indices 1 2 3 4 5 6 
#
# 1 88.3635 48.6883 40.0876 -0.0513 -14.0954 -0.0032
# 2 48.6883 83.6613 51.1376 -0.0442 -9.3337 0.0038
# 3 40.0876 51.1376 94.2639 -0.0153 -14.5921 0.0038
# 4 -0.0513 -0.0442 -0.0153 -117.1126 0.0606 -28.2384
# 5 -14.0954 -9.3337 -14.5921 0.0606 17.7912 0.0026
# 6 -0.0032 0.0038 0.0038 -28.2384 0.0026 26.1471
#
#
#
# Elastic Compliance Matrix: (Units=1/GPa)
#
#
# Indices 1 2 3 4 5 6 
#
# 1 0.018187 -0.008548 -0.001788 -0.000001 0.008458 0.000002
# 2 -0.008548 0.021942 -0.008630 -0.000003 -0.002339 -0.000006
# 3 -0.001788 -0.008630 0.017331 0.000005 0.008270 0.000003
# 4 -0.000001 -0.000003 0.000005 -0.006775 0.000026 -0.007316
# 5 0.008458 -0.002339 0.008270 0.000026 0.068465 0.000022
# 6 0.000002 -0.000006 0.000003 -0.007316 0.000022 0.030343
#
#
# Mechanical properties :
#
#
# Convention : Reuss Voigt Hill
#
# Bulk Modulus (GPa) = 51.20913 60.67953 55.94433
# Shear Modulus (GPa) = 25.78189 -6.20984 9.78602
#
# Velocity S-wave (km/s) = 3.98287 -1.95470 2.45382
# Velocity P-wave (km/s) = 7.25668 5.67811 6.51538
#
# Compressibility (1/GPa) = 0.01952777
#
# Stress axis : x y z
#
# Youngs Moduli (GPa) = 54.98415 45.57531 57.70006
#
# Poissons Ratio (x) = 0.38957 0.10317
# Poissons Ratio (y) = 0.46999 0.49797
# Poissons Ratio (z) = 0.09831 0.39333
#
# Static dielectric constant tensor:
#      x y z
#    x 3.186680 -0.000030 -0.392270 
#    y -0.000030 3.256210 0.000030 
#    z -0.392270 0.000030 3.418960 
# 
# 
# High freq. dielectric constant tensor:
#      x y z
#    x 1.607620 0.000000 -0.023980 
#    y 0.000000 1.646370 0.000000 
#    z -0.023980 0.000000 1.608640 
# 
# From -- ./inp_files/288175.got.cif
#   From: 2010.06.25/outbox.cif.g09.slc.cpg/sg12_145_cif.got.tgz:288175.got - 2010.06.28 00:19:55.
