data_PCOD8080719
_publ_section_title
;
Structure prediction by ZEFSAII (Michael W. Deem and Ramdas Pophale) SiO2 
 PCOD8080719
Probable space group: C 2/M
;
_chemical_formula_sum "Si O2"
_cell_formula_units_Z 40
_cell_length_a 19.316181
_cell_length_b 7.853505
_cell_length_c 28.312499
_cell_angle_alpha 90.000000
_cell_angle_beta 31.226913
_cell_angle_gamma 90.000000
_cell_volume 2226.650525
_symmetry_space_group_name_H-M "C 2/M"
_symmetry_group_IT_number 12
_symmetry_cell_setting 'monoclinic'
loop_
_space_group_symop_operation_xyz
x,y,z
-x,y,-z
-x,-y,-z
x,-y,z
1/2+x,1/2+y,z
1/2-x,1/2+y,-z
1/2-x,1/2-y,-z
1/2+x,1/2-y,z
loop_
_atom_site_type_symbol
_atom_site_label
_atom_site_fract_x
_atom_site_fract_y
_atom_site_fract_z
Si Si1 0.194687 0.311058 0.778496
Si Si2 0.454837 0.500000 0.102318
Si Si3 0.140805 0.188122 0.221669
Si Si4 0.556764 0.798200 0.417488
Si Si5 0.788162 0.000000 0.103288
Si Si6 0.902092 0.300618 0.415901
O O1 0.130859 0.500000 0.811023
O O2 0.278773 0.294083 0.776965
O O3 0.295715 0.279211 0.676161
O O4 0.078453 0.168862 0.847554
O O5 0.370605 0.500000 0.103511
O O6 0.612088 0.500000 0.999342
O O7 0.195505 0.331365 0.153841
O O8 0.984821 0.214637 0.324942
O O9 0.160275 0.000000 0.187793
O O10 0.500000 0.728546 0.500000
O O11 0.456162 0.736892 0.435048
O O12 0.570948 0.000000 0.409561
O O13 0.923304 0.500000 0.398708
O O14 0.750000 0.250000 0.500000
#
# Coordination Sequence:
#
# PCOD8080719 Si02
#       6
#     8   4   8   8   4   8
#     4   9  16  26  41  60  85 118 151 183 226 275
#     4   9  16  26  39  58  86 116 151 186 227 274
#     4   9  16  27  41  59  85 117 151 183 227 273
#     4   9  17  30  47  65  90 127 159 190 231 272
#     4   9  16  26  40  58  84 118 149 188 227 272
#     4  10  18  29  45  66  93 125 157 190 228 276
#
# _framework density 17.964200000000002
#
# number of rings (size 3 to 8) (size 9 to 14) (size 15 to 20)
#    0.000    2.800    2.000    0.600    0.000    2.000 
#    0.000    4.000    0.000    0.000    0.000    0.000 
#    0.000    1.600    0.800    0.000    0.000    0.000 
#
# Total GULP energy -247915.841049 kJ/mol
# GULP energy per Si atom -12395.792052 kJ/mol
# Density = 1.792331 g / cm^3
# Si number density = 17.964200 Si / 1000 Ang^3
#
#
#
# Elastic Constant Matrix: (Units=GPa)
#
#
# Indices 1 2 3 4 5 6 
#
# 1 23.8714 13.6196 27.0173 0.0064 1.6602 -0.0496
# 2 13.6196 132.4402 84.4609 0.0219 4.2971 -0.0190
# 3 27.0173 84.4609 164.7822 -0.0047 4.4480 -0.0057
# 4 0.0064 0.0219 -0.0047 25.0759 -0.0002 -2.8822
# 5 1.6602 4.2971 4.4480 -0.0002 17.8033 0.0074
# 6 -0.0496 -0.0190 -0.0057 -2.8822 0.0074 9.0621
#
#
#
# Elastic Compliance Matrix: (Units=1/GPa)
#
#
# Indices 1 2 3 4 5 6 
#
# 1 0.051570 0.000194 -0.008481 0.000018 -0.002737 0.000285
# 2 0.000194 0.011247 -0.005762 -0.000009 -0.001293 0.000019
# 3 -0.008481 -0.005762 0.010424 0.000003 -0.000423 -0.000050
# 4 0.000018 -0.000009 0.000003 0.041392 -0.000005 0.013165
# 5 -0.002737 -0.001293 -0.000423 -0.000005 0.056842 -0.000066
# 6 0.000285 0.000019 -0.000050 0.013165 -0.000066 0.114538
#
#
# Mechanical properties :
#
#
# Convention : Reuss Voigt Hill
#
# Bulk Modulus (GPa) = 22.15148 63.47660 42.81404
# Shear Modulus (GPa) = 15.19030 23.45466 19.32248
#
# Velocity S-wave (km/s) = 2.91105 3.61728 3.28321
# Velocity P-wave (km/s) = 4.86381 7.27035 6.18525
#
# Compressibility (1/GPa) = 0.04514370
#
# Stress axis : x y z
#
# Youngs Moduli (GPa) = 19.39116 88.91285 95.93486
#
# Poissons Ratio (x) = -0.01726 0.81361
# Poissons Ratio (y) = -0.00376 0.55275
# Poissons Ratio (z) = 0.16445 0.51229
#
# Static dielectric constant tensor:
#      x y z
#    x 2.598590 -0.000010 0.133130 
#    y -0.000010 3.543230 0.000060 
#    z 0.133130 0.000060 3.439710 
# 
# 
# High freq. dielectric constant tensor:
#      x y z
#    x 1.610050 0.000000 0.003860 
#    y 0.000000 1.712380 0.000000 
#    z 0.003860 0.000000 1.699980 
# 
# From -- ./inp_files/179072.got.cif
#   From: 2010.06.25/outbox.cif.g09.slc.cpg/sg12_90_cif.got.tgz:179072.got - 2010.06.28 00:19:55.
