data_PCOD8080697
_publ_section_title
;
Structure prediction by ZEFSAII (Michael W. Deem and Ramdas Pophale) SiO2 
 PCOD8080697
Probable space group: C 2/M
;
_chemical_formula_sum "Si O2"
_cell_formula_units_Z 64
_cell_length_a 27.808347
_cell_length_b 8.930704
_cell_length_c 20.612718
_cell_angle_alpha 90.000000
_cell_angle_beta 128.146304
_cell_angle_gamma 90.000000
_cell_volume 4025.868394
_symmetry_space_group_name_H-M "C 2/M"
_symmetry_group_IT_number 12
_symmetry_cell_setting 'monoclinic'
loop_
_space_group_symop_operation_xyz
x,y,z
-x,y,-z
-x,-y,-z
x,-y,z
1/2+x,1/2+y,z
1/2-x,1/2+y,-z
1/2-x,1/2-y,-z
1/2+x,1/2-y,z
loop_
_atom_site_type_symbol
_atom_site_label
_atom_site_fract_x
_atom_site_fract_y
_atom_site_fract_z
Si Si1 0.887919 0.675103 0.761643
Si Si2 0.248339 0.822062 0.152305
Si Si3 0.872448 0.826110 0.020719
Si Si4 0.303078 0.674881 0.084746
Si Si5 0.500056 0.673253 0.076506
Si Si6 0.340912 0.331707 0.601994
Si Si7 0.208312 0.331238 0.555040
Si Si8 0.259094 0.175698 0.716634
O O1 0.892003 0.500000 0.752255
O O2 0.945552 0.730067 0.849604
O O3 0.886943 0.754249 0.690808
O O4 0.827880 0.716257 0.752913
O O5 0.304711 0.755768 0.156165
O O6 0.256221 0.762996 0.230923
O O7 0.252244 0.000000 0.154461
O O8 0.184318 0.760661 0.068589
O O9 0.863861 0.799823 0.091279
O O10 0.936928 0.756867 0.052054
O O11 0.874565 0.000000 0.005483
O O12 0.289904 0.500000 0.083349
O O13 0.250000 0.750000 0.000000
O O14 0.509010 0.500000 0.103862
O O15 0.500000 0.693181 0.000000
O O16 0.363727 0.500000 0.607918
O O17 0.273413 0.331570 0.574701
O O18 0.341503 0.241880 0.534656
O O19 0.187830 0.500000 0.554921
O O20 0.211512 0.232967 0.622883
O O21 0.249878 0.000000 0.719217
#
# Coordination Sequence:
#
# PCOD8080697 Si02
#       8
#     8   8   8   8   8   8   8   8
#     4  10  20  31  42  60  86 115 148 184 218 252
#     4  10  18  29  45  64  85 110 143 180 220 263
#     4   8  16  29  44  61  82 111 146 181 215 255
#     4   9  16  28  44  62  84 109 140 177 217 260
#     4  10  19  31  46  62  83 115 152 184 215 252
#     4   9  16  27  43  60  80 110 145 177 211 253
#     4   9  16  26  41  61  84 110 140 175 213 252
#     4  10  19  29  41  60  88 118 145 174 213 261
#
# _framework density 15.89719
#
# number of rings (size 3 to 8) (size 9 to 14) (size 15 to 20)
#    0.000    2.625    0.000    3.750    0.000    5.750 
#    0.000    3.750    0.000    0.000    0.000    0.000 
#    0.000    1.000    0.000   10.750    0.000    5.250 
#
# Total GULP energy -396676.061689 kJ/mol
# GULP energy per Si atom -12396.126928 kJ/mol
# Density = 1.586101 g / cm^3
# Si number density = 15.897190 Si / 1000 Ang^3
#
#
#
# Elastic Constant Matrix: (Units=GPa)
#
#
# Indices 1 2 3 4 5 6 
#
# 1 78.0181 34.8309 32.1079 0.0000 -17.3299 0.0000
# 2 34.8309 81.3111 33.4467 0.0000 -12.1742 0.0000
# 3 32.1079 33.4467 79.6065 0.0000 -20.0457 0.0000
# 4 0.0000 0.0000 0.0000 29.4223 0.0000 -6.3994
# 5 -17.3299 -12.1742 -20.0457 0.0000 18.6570 0.0000
# 6 0.0000 0.0000 0.0000 -6.3994 0.0000 19.4058
#
#
#
# Elastic Compliance Matrix: (Units=1/GPa)
#
#
# Indices 1 2 3 4 5 6 
#
# 1 0.018707 -0.005308 -0.002483 0.000000 0.011244 0.000000
# 2 -0.005308 0.016607 -0.004591 0.000000 0.000972 0.000000
# 3 -0.002483 -0.004591 0.019408 0.000000 0.015550 0.000000
# 4 0.000000 0.000000 0.000000 0.036614 0.000000 0.012074
# 5 0.011244 0.000972 0.015550 0.000000 0.081386 0.000000
# 6 0.000000 0.000000 0.000000 0.012074 0.000000 0.055513
#
#
# Mechanical properties :
#
#
# Convention : Reuss Voigt Hill
#
# Bulk Modulus (GPa) = 33.38294 48.85629 41.11962
# Shear Modulus (GPa) = 19.01245 22.73370 20.87307
#
# Velocity S-wave (km/s) = 3.46202 3.78570 3.62747
# Velocity P-wave (km/s) = 6.08487 7.06456 6.59294
#
# Compressibility (1/GPa) = 0.02995542
#
# Stress axis : x y z
#
# Youngs Moduli (GPa) = 53.45543 60.21702 51.52476
#
# Poissons Ratio (x) = 0.31966 0.12796
# Poissons Ratio (y) = 0.28376 0.23657
# Poissons Ratio (z) = 0.13275 0.27648
#
# Static dielectric constant tensor:
#      x y z
#    x 3.092730 0.000000 -0.205760 
#    y 0.000000 3.134380 0.000000 
#    z -0.205760 0.000000 2.968570 
# 
# 
# High freq. dielectric constant tensor:
#      x y z
#    x 1.576720 0.000000 -0.028430 
#    y 0.000000 1.618260 0.000000 
#    z -0.028430 0.000000 1.594710 
# 
# From -- ./inp_files/326924.got.cif
#   From: 2010.06.25/outbox.cif.g09.slc.cpg/sg12_164_cif.got.tgz:326924.got - 2010.06.28 00:19:55.
