data_PCOD8080456
_publ_section_title
;
Structure prediction by ZEFSAII (Michael W. Deem and Ramdas Pophale) SiO2 
 PCOD8080456
Probable space group: C 2/M
;
_chemical_formula_sum "Si O2"
_cell_formula_units_Z 32
_cell_length_a 12.449775
_cell_length_b 29.217412
_cell_length_c 9.933472
_cell_angle_alpha 90.000000
_cell_angle_beta 23.771726
_cell_angle_gamma 90.000000
_cell_volume 1456.499604
_symmetry_space_group_name_H-M "C 2/M"
_symmetry_group_IT_number 12
_symmetry_cell_setting 'monoclinic'
loop_
_space_group_symop_operation_xyz
x,y,z
-x,y,-z
-x,-y,-z
x,-y,z
1/2+x,1/2+y,z
1/2-x,1/2+y,-z
1/2-x,1/2-y,-z
1/2+x,1/2-y,z
loop_
_atom_site_type_symbol
_atom_site_label
_atom_site_fract_x
_atom_site_fract_y
_atom_site_fract_z
Si Si1 0.241251 0.814531 0.629875
Si Si2 0.061369 0.051968 0.772093
Si Si3 0.444251 0.097465 0.713015
Si Si4 0.199834 0.789339 0.383445
O O1 0.495674 0.848110 0.348303
O O2 0.128663 0.812242 0.607176
O O3 0.342334 0.765182 0.560591
O O4 0.000000 0.833416 0.000000
O O5 0.360156 0.071338 0.406722
O O6 0.040122 0.000000 0.745245
O O7 0.863768 0.083722 0.907609
O O8 0.000000 0.056239 0.000000
O O9 0.500000 0.078400 0.500000
O O10 0.000000 0.809085 0.500000
O O11 0.500000 0.801897 0.000000
#
# Coordination Sequence:
#
# PCOD8080456 Si02
#       4
#     8   8   8   8
#     4  10  21  36  57  81 108 142 183 222 263 313
#     4   9  17  28  42  65 102 141 168 202 262 323
#     4  10  18  28  46  72 101 135 175 214 255 311
#     4  10  23  39  55  77 110 146 179 220 268 315
#
# _framework density 21.970483999999999
#
# number of rings (size 3 to 8) (size 9 to 14) (size 15 to 20)
#    0.000    2.250    0.000    3.750    0.000   18.000 
#    0.000    0.000    0.000    0.000    0.000    0.000 
#    0.000   20.000    0.000    0.000    0.000    0.500 
#
# Total GULP energy -198341.428742 kJ/mol
# GULP energy per Si atom -12396.339296 kJ/mol
# Density = 2.192048 g / cm^3
# Si number density = 21.970484 Si / 1000 Ang^3
#
#
#
# Elastic Constant Matrix: (Units=GPa)
#
#
# Indices 1 2 3 4 5 6 
#
# 1 144.8389 24.2694 70.6671 0.0002 -29.6443 -0.0002
# 2 24.2694 75.1031 35.6513 -0.0001 -15.6561 0.0005
# 3 70.6671 35.6513 75.9822 0.0002 -19.7303 -0.0007
# 4 0.0002 -0.0001 0.0002 5.4005 -0.0003 -7.2878
# 5 -29.6443 -15.6561 -19.7303 -0.0003 46.3201 0.0007
# 6 -0.0002 0.0005 -0.0007 -7.2878 0.0007 23.3093
#
#
#
# Elastic Compliance Matrix: (Units=1/GPa)
#
#
# Indices 1 2 3 4 5 6 
#
# 1 0.013505 0.002505 -0.012673 0.000000 0.004092 -0.000001
# 2 0.002505 0.017892 -0.009825 0.000000 0.003466 -0.000001
# 3 -0.012673 -0.009825 0.029896 0.000001 0.001303 0.000001
# 4 0.000000 0.000000 0.000001 0.320316 0.000000 0.100149
# 5 0.004092 0.003466 0.001303 0.000000 0.025934 -0.000001
# 6 -0.000001 -0.000001 0.000001 0.100149 -0.000001 0.074214
#
#
# Mechanical properties :
#
#
# Convention : Reuss Voigt Hill
#
# Bulk Modulus (GPa) = 46.93384 61.89996 54.41690
# Shear Modulus (GPa) = 9.45456 26.02840 17.74148
#
# Velocity S-wave (km/s) = 2.07669 3.44568 2.84476
# Velocity P-wave (km/s) = 5.21141 6.63819 5.96759
#
# Compressibility (1/GPa) = 0.02130659
#
# Stress axis : x y z
#
# Youngs Moduli (GPa) = 74.04492 55.89161 33.44939
#
# Poissons Ratio (x) = -0.14000 0.42392
# Poissons Ratio (y) = -0.18546 0.32863
# Poissons Ratio (z) = 0.93840 0.54911
#
# Static dielectric constant tensor:
#      x y z
#    x 4.044660 0.000000 -0.395030 
#    y 0.000000 3.790360 0.000000 
#    z -0.395030 0.000000 3.660380 
# 
# 
# High freq. dielectric constant tensor:
#      x y z
#    x 1.855670 0.000000 -0.046720 
#    y 0.000000 1.854070 0.000000 
#    z -0.046720 0.000000 1.816830 
# 
# From -- ./inp_files/7926.got.cif
#   From: 2010.06.25/outbox.cif.g09.slc.cpg/sg12_4_cif.got.tgz:7926.got - 2010.06.28 00:19:55.
