data_PCOD8080467
_publ_section_title
;
Structure prediction by ZEFSAII (Michael W. Deem and Ramdas Pophale) SiO2 
 PCOD8080467
Probable space group: C 2/M
;
_chemical_formula_sum "Si O2"
_cell_formula_units_Z 64
_cell_length_a 20.443341
_cell_length_b 8.932388
_cell_length_c 20.228940
_cell_angle_alpha 90.000000
_cell_angle_beta 96.090172
_cell_angle_gamma 90.000000
_cell_volume 3673.115170
_symmetry_space_group_name_H-M "C 2/M"
_symmetry_group_IT_number 12
_symmetry_cell_setting 'monoclinic'
loop_
_space_group_symop_operation_xyz
x,y,z
-x,y,-z
-x,-y,-z
x,-y,z
1/2+x,1/2+y,z
1/2-x,1/2+y,-z
1/2-x,1/2-y,-z
1/2+x,1/2-y,z
loop_
_atom_site_type_symbol
_atom_site_label
_atom_site_fract_x
_atom_site_fract_y
_atom_site_fract_z
Si Si1 0.241450 0.325773 0.320154
Si Si2 0.092129 0.329932 0.337863
Si Si3 0.060682 0.822881 0.465122
Si Si4 0.803942 0.175972 0.460840
Si Si5 0.941714 0.672910 0.950606
Si Si6 0.278800 0.325012 0.811263
Si Si7 0.708399 0.821697 0.053672
Si Si8 0.587783 0.829012 0.193976
O O1 0.244702 0.500000 0.302647
O O2 0.168258 0.283292 0.337235
O O3 0.292781 0.281549 0.383000
O O4 0.261958 0.233427 0.256850
O O5 0.087120 0.500000 0.361781
O O6 0.057132 0.228841 0.388767
O O7 0.054409 0.308170 0.262690
O O8 0.125679 0.762217 0.508528
O O9 0.000000 0.756101 0.500000
O O10 0.058429 0.000000 0.464819
O O11 0.750000 0.250000 0.500000
O O12 0.798085 0.000000 0.470461
O O13 0.940459 0.500000 0.969805
O O14 0.868116 0.734835 0.958126
O O15 0.959813 0.696277 0.874377
O O16 0.000000 0.751847 0.000000
O O17 0.266310 0.500000 0.820103
O O18 0.257971 0.236946 0.875213
O O19 0.354774 0.291538 0.804940
O O20 0.712854 0.000000 0.051334
O O21 0.750000 0.750000 0.000000
O O22 0.616840 0.000000 0.192919
#
# Coordination Sequence:
#
# PCOD8080467 Si02
#       8
#     8   8   8   8   8   8   8   8
#     4   9  17  30  48  71  97 124 156 202 250 288
#     4   9  16  28  47  70  94 123 159 199 240 284
#     4  10  21  34  48  69  97 129 160 195 240 294
#     4  10  19  32  51  73  97 125 160 201 244 288
#     4   8  14  27  50  76  97 125 161 199 239 280
#     4  10  18  28  46  73 100 127 162 203 243 286
#     4  10  19  32  51  74 102 135 167 200 240 290
#     4   8  15  28  46  70  99 125 157 198 242 290
#
# _framework density 17.423901999999998
#
# number of rings (size 3 to 8) (size 9 to 14) (size 15 to 20)
#    0.000    2.750    1.250    3.000    0.000    2.750 
#    0.000    0.000    2.750    9.375    0.000    0.000 
#    0.000    0.000    0.000    0.000    0.000    0.000 
#
# Total GULP energy -396520.503490 kJ/mol
# GULP energy per Si atom -12391.265734 kJ/mol
# Density = 1.738424 g / cm^3
# Si number density = 17.423902 Si / 1000 Ang^3
#
#
#
# Elastic Constant Matrix: (Units=GPa)
#
#
# Indices 1 2 3 4 5 6 
#
# 1 79.9456 23.0821 66.9261 0.0000 0.7502 0.0000
# 2 23.0821 50.9259 41.2757 0.0000 -3.0507 0.0000
# 3 66.9261 41.2757 172.1015 0.0000 3.2159 0.0000
# 4 0.0000 0.0000 0.0000 30.5782 0.0000 -5.4615
# 5 0.7502 -3.0507 3.2159 0.0000 27.5388 0.0000
# 6 0.0000 0.0000 0.0000 -5.4615 0.0000 13.5187
#
#
#
# Elastic Compliance Matrix: (Units=1/GPa)
#
#
# Indices 1 2 3 4 5 6 
#
# 1 0.018970 -0.003261 -0.006593 0.000000 -0.000108 0.000000
# 2 -0.003261 0.025255 -0.004853 0.000000 0.003453 0.000000
# 3 -0.006593 -0.004853 0.009566 0.000000 -0.001475 0.000000
# 4 0.000000 0.000000 0.000000 0.035246 0.000000 0.014239
# 5 -0.000108 0.003453 -0.001475 0.000000 0.036870 0.000000
# 6 0.000000 0.000000 0.000000 0.014239 0.000000 0.079724
#
#
# Mechanical properties :
#
#
# Convention : Reuss Voigt Hill
#
# Bulk Modulus (GPa) = 41.02327 62.83788 51.93058
# Shear Modulus (GPa) = 20.56156 25.77308 23.16732
#
# Velocity S-wave (km/s) = 3.43895 3.85018 3.65036
# Velocity P-wave (km/s) = 6.27407 7.47714 6.90187
#
# Compressibility (1/GPa) = 0.02437641
#
# Stress axis : x y z
#
# Youngs Moduli (GPa) = 52.71384 39.59604 104.53758
#
# Poissons Ratio (x) = 0.12913 0.68921
# Poissons Ratio (y) = 0.17191 0.50736
# Poissons Ratio (z) = 0.34754 0.19217
#
# Static dielectric constant tensor:
#      x y z
#    x 3.141430 0.000000 0.253490 
#    y 0.000000 3.032580 0.000000 
#    z 0.253490 0.000000 3.660440 
# 
# 
# High freq. dielectric constant tensor:
#      x y z
#    x 1.621640 0.000000 0.009170 
#    y 0.000000 1.655960 0.000000 
#    z 0.009170 0.000000 1.696650 
# 
# From -- ./inp_files/319177.got.cif
#   From: 2010.06.25/outbox.cif.g09.slc.cpg/sg12_160_cif.got.tgz:319177.got - 2010.06.28 00:19:55.
