data_PCOD8080126
_publ_section_title
;
Structure prediction by ZEFSAII (Michael W. Deem and Ramdas Pophale) SiO2 
 PCOD8080126
Probable space group: C 2/M
;
_chemical_formula_sum "Si O2"
_cell_formula_units_Z 56
_cell_length_a 19.182688
_cell_length_b 9.026432
_cell_length_c 21.882729
_cell_angle_alpha 90.000000
_cell_angle_beta 126.126221
_cell_angle_gamma 90.000000
_cell_volume 3060.468976
_symmetry_space_group_name_H-M "C 2/M"
_symmetry_group_IT_number 12
_symmetry_cell_setting 'monoclinic'
loop_
_space_group_symop_operation_xyz
x,y,z
-x,y,-z
-x,-y,-z
x,-y,z
1/2+x,1/2+y,z
1/2-x,1/2+y,-z
1/2-x,1/2-y,-z
1/2+x,1/2-y,z
loop_
_atom_site_type_symbol
_atom_site_label
_atom_site_fract_x
_atom_site_fract_y
_atom_site_fract_z
Si Si1 0.770937 0.175432 0.191226
Si Si2 0.197826 0.323688 0.918845
Si Si3 0.960773 0.832200 0.317686
Si Si4 0.730526 0.328867 0.399261
Si Si5 0.883636 0.670790 0.561151
Si Si6 0.476853 0.668984 0.185783
Si Si7 0.336100 0.328132 0.764986
O O1 0.762327 0.260369 0.123002
O O2 0.861538 0.220870 0.269816
O O3 0.693288 0.226104 0.194308
O O4 0.767280 0.000000 0.176966
O O5 0.207205 0.500000 0.925195
O O6 0.097563 0.279772 0.874632
O O7 0.250000 0.250000 0.000000
O O8 0.996274 0.810407 0.267396
O O9 0.020787 0.739784 0.395037
O O10 0.968030 0.000000 0.343054
O O11 0.704594 0.500000 0.395327
O O12 0.829407 0.298899 0.471115
O O13 0.666108 0.235091 0.406705
O O14 0.720150 0.283533 0.323408
O O15 0.896024 0.500000 0.580228
O O16 0.446446 0.500000 0.158068
O O17 0.563403 0.706398 0.193722
O O18 0.321699 0.500000 0.773889
#
# Coordination Sequence:
#
# PCOD8080126 Si02
#       7
#     8   8   8   8   8   8   8
#     4  10  22  38  56  80 111 144 179 222 270 320
#     4  11  22  39  63  88 113 141 175 215 259 314
#     4   9  17  33  52  71 103 144 180 223 275 322
#     4   9  18  32  47  70 106 144 177 222 280 324
#     4  10  18  27  47  76 102 134 185 235 270 314
#     4   9  18  34  57  82 109 144 181 219 266 319
#     4  10  19  35  56  78 109 147 182 221 273 326
#
# _framework density 18.297848999999999
#
# number of rings (size 3 to 8) (size 9 to 14) (size 15 to 20)
#    0.000    2.286    1.429    3.000    0.000    4.571 
#    0.000    1.429    0.000    8.571    0.000    0.000 
#    0.000    0.000    0.000    0.000    0.000    0.000 
#
# Total GULP energy -347193.430572 kJ/mol
# GULP energy per Si atom -12399.765378 kJ/mol
# Density = 1.825620 g / cm^3
# Si number density = 18.297849 Si / 1000 Ang^3
#
#
#
# Elastic Constant Matrix: (Units=GPa)
#
#
# Indices 1 2 3 4 5 6 
#
# 1 97.5932 39.4330 36.6236 0.0000 -5.9656 0.0000
# 2 39.4330 93.8877 50.7336 0.0000 -1.0246 0.0000
# 3 36.6236 50.7336 100.4961 0.0000 2.3633 0.0000
# 4 0.0000 0.0000 0.0000 30.6223 0.0000 4.2344
# 5 -5.9656 -1.0246 2.3633 0.0000 16.7176 0.0000
# 6 0.0000 0.0000 0.0000 4.2344 0.0000 31.0694
#
#
#
# Elastic Compliance Matrix: (Units=1/GPa)
#
#
# Indices 1 2 3 4 5 6 
#
# 1 0.013237 -0.003901 -0.002970 0.000000 0.004904 0.000000
# 2 -0.003901 0.015860 -0.006597 0.000000 0.000512 0.000000
# 3 -0.002970 -0.006597 0.014446 0.000000 -0.003506 0.000000
# 4 0.000000 0.000000 0.000000 0.033283 0.000000 -0.004536
# 5 0.004904 0.000512 -0.003506 0.000000 0.062094 0.000000
# 6 0.000000 0.000000 0.000000 -0.004536 0.000000 0.032804
#
#
# Mechanical properties :
#
#
# Convention : Reuss Voigt Hill
#
# Bulk Modulus (GPa) = 60.21654 60.61749 60.41701
# Shear Modulus (GPa) = 24.48624 26.69431 25.59027
#
# Velocity S-wave (km/s) = 3.66211 3.82367 3.74376
# Velocity P-wave (km/s) = 7.13176 7.25907 7.19569
#
# Compressibility (1/GPa) = 0.01660673
#
# Stress axis : x y z
#
# Youngs Moduli (GPa) = 75.54441 63.05212 69.22485
#
# Poissons Ratio (x) = 0.24599 0.20559
# Poissons Ratio (y) = 0.29473 0.45667
# Poissons Ratio (z) = 0.22435 0.41595
#
# Static dielectric constant tensor:
#      x y z
#    x 3.238520 0.000000 0.197550 
#    y 0.000000 3.374480 0.000000 
#    z 0.197550 0.000000 3.411380 
# 
# 
# High freq. dielectric constant tensor:
#      x y z
#    x 1.693630 0.000000 0.016050 
#    y 0.000000 1.711390 0.000000 
#    z 0.016050 0.000000 1.702400 
# 
# From -- ./inp_files/314441.got.cif
#   From: 2010.06.25/outbox.cif.g09.slc.cpg/sg12_158_cif.got.tgz:314441.got - 2010.06.28 00:19:55.
