data_PCOD8080910
_publ_section_title
;
Structure prediction by ZEFSAII (Michael W. Deem and Ramdas Pophale) SiO2 
 PCOD8080910
Probable space group: C 2/M
;
_chemical_formula_sum "Si O2"
_cell_formula_units_Z 48
_cell_length_a 20.381816
_cell_length_b 9.100352
_cell_length_c 15.179107
_cell_angle_alpha 90.000000
_cell_angle_beta 78.561903
_cell_angle_gamma 90.000000
_cell_volume 2759.530484
_symmetry_space_group_name_H-M "C 2/M"
_symmetry_group_IT_number 12
_symmetry_cell_setting 'monoclinic'
loop_
_space_group_symop_operation_xyz
x,y,z
-x,y,-z
-x,-y,-z
x,-y,z
1/2+x,1/2+y,z
1/2-x,1/2+y,-z
1/2-x,1/2-y,-z
1/2+x,1/2-y,z
loop_
_atom_site_type_symbol
_atom_site_label
_atom_site_fract_x
_atom_site_fract_y
_atom_site_fract_z
Si Si1 0.409753 0.164781 0.600794
Si Si2 0.680031 0.672931 0.033830
Si Si3 0.604877 0.668966 0.228903
Si Si4 0.954964 0.826342 0.229502
Si Si5 0.427529 0.827646 0.059450
Si Si6 0.933585 0.667012 0.404450
O O1 0.371438 0.256517 0.686085
O O2 0.396195 0.221389 0.504186
O O3 0.487984 0.172748 0.598698
O O4 0.382890 0.000000 0.615675
O O5 0.684405 0.500000 0.012410
O O6 0.659825 0.702247 0.140339
O O7 0.750000 0.750000 0.000000
O O8 0.625857 0.745370 0.985651
O O9 0.598326 0.500000 0.253297
O O10 0.532488 0.724175 0.214184
O O11 0.921816 0.740529 0.157766
O O12 0.915928 0.775297 0.328452
O O13 0.946752 0.000000 0.218319
O O14 0.411033 0.000000 0.067517
O O15 0.500000 0.796214 0.000000
O O16 0.912220 0.500000 0.386990
#
# Coordination Sequence:
#
# PCOD8080910 Si02
#       6
#     8   8   8   8   8   8
#     4   8  14  24  41  63  93 130 166 203 247 298
#     4  11  23  39  55  75 105 138 175 218 261 307
#     4   9  18  30  46  69  99 132 167 209 256 301
#     4  10  18  29  47  72 101 134 168 208 257 304
#     4  11  22  35  54  78 102 135 176 215 259 311
#     4   8  14  25  39  63  97 130 163 204 249 296
#
# _framework density 17.394264
#
# number of rings (size 3 to 8) (size 9 to 14) (size 15 to 20)
#    0.000    2.500    1.667    2.500    0.000    3.333 
#    0.000    3.333    0.000    0.000    0.000    1.167 
#    0.000    0.000    0.000    0.000    0.000    0.000 
#
# Total GULP energy -297490.051317 kJ/mol
# GULP energy per Si atom -12395.418805 kJ/mol
# Density = 1.735467 g / cm^3
# Si number density = 17.394264 Si / 1000 Ang^3
#
#
#
# Elastic Constant Matrix: (Units=GPa)
#
#
# Indices 1 2 3 4 5 6 
#
# 1 58.9394 43.9782 39.9365 0.0000 -4.2012 0.0000
# 2 43.9782 98.4542 78.0791 0.0000 -0.9789 0.0000
# 3 39.9365 78.0791 147.4769 0.0000 -2.6048 0.0000
# 4 0.0000 0.0000 0.0000 38.3251 0.0000 0.8818
# 5 -4.2012 -0.9789 -2.6048 0.0000 11.8241 0.0000
# 6 0.0000 0.0000 0.0000 0.8818 0.0000 21.0969
#
#
#
# Elastic Compliance Matrix: (Units=1/GPa)
#
#
# Indices 1 2 3 4 5 6 
#
# 1 0.026413 -0.010617 -0.001387 0.000000 0.008200 0.000000
# 2 -0.010617 0.021780 -0.008725 0.000000 -0.003891 0.000000
# 3 -0.001387 -0.008725 0.011800 0.000000 0.001384 0.000000
# 4 0.000000 0.000000 0.000000 0.026118 0.000000 -0.001092
# 5 0.008200 -0.003891 0.001384 0.000000 0.087469 0.000000
# 6 0.000000 0.000000 0.000000 -0.001092 0.000000 0.047446
#
#
# Mechanical properties :
#
#
# Convention : Reuss Voigt Hill
#
# Bulk Modulus (GPa) = 53.94988 69.87312 61.91150
# Shear Modulus (GPa) = 18.61088 23.77434 21.19261
#
# Velocity S-wave (km/s) = 3.27455 3.70103 3.49430
# Velocity P-wave (km/s) = 6.73648 7.64989 7.20767
#
# Compressibility (1/GPa) = 0.01853572
#
# Stress axis : x y z
#
# Youngs Moduli (GPa) = 37.86078 45.91410 84.74711
#
# Poissons Ratio (x) = 0.48746 0.11752
# Poissons Ratio (y) = 0.40196 0.73939
# Poissons Ratio (z) = 0.05250 0.40058
#
# Static dielectric constant tensor:
#      x y z
#    x 2.683570 0.000000 -0.034790 
#    y 0.000000 3.331970 0.000000 
#    z -0.034790 0.000000 3.744930 
# 
# 
# High freq. dielectric constant tensor:
#      x y z
#    x 1.606300 0.000000 -0.002350 
#    y 0.000000 1.677860 0.000000 
#    z -0.002350 0.000000 1.694280 
# 
# From -- ./inp_files/229278.got.cif
#   From: 2010.06.25/outbox.cif.g09.slc.cpg/sg12_115_cif.got.tgz:229278.got - 2010.06.28 00:19:55.
