data_PCOD8080947
_publ_section_title
;
Structure prediction by ZEFSAII (Michael W. Deem and Ramdas Pophale) SiO2 
 PCOD8080947
Probable space group: C 2/M
;
_chemical_formula_sum "Si O2"
_cell_formula_units_Z 52
_cell_length_a 8.621452
_cell_length_b 25.665203
_cell_length_c 18.107283
_cell_angle_alpha 90.000000
_cell_angle_beta 44.422495
_cell_angle_gamma 90.000000
_cell_volume 2804.410449
_symmetry_space_group_name_H-M "C 2/M"
_symmetry_group_IT_number 12
_symmetry_cell_setting 'monoclinic'
loop_
_space_group_symop_operation_xyz
x,y,z
-x,y,-z
-x,-y,-z
x,-y,z
1/2+x,1/2+y,z
1/2-x,1/2+y,-z
1/2-x,1/2-y,-z
1/2+x,1/2-y,z
loop_
_atom_site_type_symbol
_atom_site_label
_atom_site_fract_x
_atom_site_fract_y
_atom_site_fract_z
Si Si1 0.647289 0.113615 0.778034
Si Si2 0.171373 0.887211 1.000000
Si Si3 0.481391 0.613615 0.221965
Si Si4 0.674807 0.000000 0.772434
Si Si5 0.397060 0.194177 0.612808
Si Si6 0.264514 0.694177 0.612809
Si Si7 0.992112 0.000000 0.227564
Si Si8 0.755274 0.500000 1.000000
O O1 0.421148 0.130453 0.895885
O O2 0.844943 0.115282 0.770038
O O3 0.688027 0.152511 0.698034
O O4 0.630435 0.055188 0.746113
O O5 0.146641 0.949304 0.000000
O O6 0.108804 0.869547 0.104114
O O7 0.000000 0.861429 0.000000
O O8 0.282127 0.652511 0.301966
O O9 0.368777 0.555188 0.253885
O O10 0.517969 0.000000 0.898163
O O11 0.927684 0.000000 0.714878
O O12 0.500000 0.176821 0.500000
O O13 0.279446 0.250000 0.647035
O O14 0.590914 0.197565 0.606057
O O15 0.500000 0.676821 0.500000
O O16 0.212464 0.000000 0.101835
#
# Coordination Sequence:
#
# PCOD8080947 Si02
#       8
#     8   8   8   4   8   8   4   4
#     4  10  19  34  54  80 111 145 181 220 263 313
#     4  10  18  29  47  76 110 146 181 218 262 312
#     4  10  19  34  54  80 111 145 181 220 263 313
#     4   8  15  27  48  75 107 143 179 215 258 308
#     4  11  22  39  61  83 104 134 175 222 268 317
#     4  11  22  39  61  83 104 134 175 222 268 317
#     4   8  15  27  48  75 107 143 179 215 258 308
#     4   8  14  24  42  68 103 142 183 220 253 300
#
# _framework density 18.542221999999999
#
# number of rings (size 3 to 8) (size 9 to 14) (size 15 to 20)
#    0.000    2.154    0.000    5.538    0.000    3.692 
#    0.000    3.846    0.000    0.000    0.000    0.000 
#    0.000    0.000    0.000    0.000    0.000    0.000 
#
# Total GULP energy -322122.181075 kJ/mol
# GULP energy per Si atom -12389.314657 kJ/mol
# Density = 1.850002 g / cm^3
# Si number density = 18.542222 Si / 1000 Ang^3
#
#
#
# Elastic Constant Matrix: (Units=GPa)
#
#
# Indices 1 2 3 4 5 6 
#
# 1 133.4364 44.9051 46.5034 0.0000 1.9547 0.0000
# 2 44.9051 117.6348 88.3856 0.0000 -3.1216 0.0000
# 3 46.5034 88.3856 114.7020 0.0001 -0.6098 0.0000
# 4 0.0000 0.0000 0.0001 25.9259 0.0000 -0.4991
# 5 1.9547 -3.1216 -0.6098 0.0000 30.0348 0.0000
# 6 0.0000 0.0000 0.0000 -0.4991 0.0000 18.9688
#
#
#
# Elastic Compliance Matrix: (Units=1/GPa)
#
#
# Indices 1 2 3 4 5 6 
#
# 1 0.008875 -0.001668 -0.002317 0.000000 -0.000798 0.000000
# 2 -0.001668 0.020600 -0.015187 0.000000 0.001941 0.000000
# 3 -0.002317 -0.015187 0.021355 0.000000 -0.000994 0.000000
# 4 0.000000 0.000000 0.000000 0.038591 0.000000 0.001015
# 5 -0.000798 0.001941 -0.000994 0.000000 0.033528 0.000000
# 6 0.000000 0.000000 0.000000 0.001015 0.000000 0.052745
#
#
# Mechanical properties :
#
#
# Convention : Reuss Voigt Hill
#
# Bulk Modulus (GPa) = 80.09291 80.59571 80.34431
# Shear Modulus (GPa) = 22.91472 27.38451 25.14962
#
# Velocity S-wave (km/s) = 3.51923 3.84718 3.68685
# Velocity P-wave (km/s) = 7.73317 7.95580 7.84528
#
# Compressibility (1/GPa) = 0.01248550
#
# Stress axis : x y z
#
# Youngs Moduli (GPa) = 112.67951 48.54322 46.82727
#
# Poissons Ratio (x) = 0.08098 0.10849
# Poissons Ratio (y) = 0.18796 0.71118
# Poissons Ratio (z) = 0.26107 0.73724
#
# Static dielectric constant tensor:
#      x y z
#    x 3.326120 0.000000 0.000400 
#    y 0.000000 3.556550 0.000000 
#    z 0.000400 0.000000 3.320610 
# 
# 
# High freq. dielectric constant tensor:
#      x y z
#    x 1.721440 0.000000 0.001220 
#    y 0.000000 1.712860 0.000000 
#    z 0.001220 0.000000 1.704390 
# 
# From -- ./inp_files/258458.got.cif
#   From: 2010.06.25/outbox.cif.g09.slc.cpg/sg12_130_cif.got.tgz:258458.got - 2010.06.28 00:19:55.
