data_PCOD8080408
_publ_section_title
;
Structure prediction by ZEFSAII (Michael W. Deem and Ramdas Pophale) SiO2 
 PCOD8080408
Probable space group: C 2/M
;
_chemical_formula_sum "Si O2"
_cell_formula_units_Z 64
_cell_length_a 19.338084
_cell_length_b 8.978457
_cell_length_c 20.662513
_cell_angle_alpha 90.000000
_cell_angle_beta 83.540315
_cell_angle_gamma 90.000000
_cell_volume 3564.776269
_symmetry_space_group_name_H-M "C 2/M"
_symmetry_group_IT_number 12
_symmetry_cell_setting 'monoclinic'
loop_
_space_group_symop_operation_xyz
x,y,z
-x,y,-z
-x,-y,-z
x,-y,z
1/2+x,1/2+y,z
1/2-x,1/2+y,-z
1/2-x,1/2-y,-z
1/2+x,1/2-y,z
loop_
_atom_site_type_symbol
_atom_site_label
_atom_site_fract_x
_atom_site_fract_y
_atom_site_fract_z
Si Si1 0.620660 0.675766 0.108588
Si Si2 0.678983 0.827274 0.988895
Si Si3 0.963124 0.671908 0.776741
Si Si4 0.427818 0.675040 0.323436
Si Si5 0.491617 0.822807 0.574887
Si Si6 0.635073 0.169893 0.331912
Si Si7 0.730265 0.170179 0.848868
Si Si8 0.282093 0.325660 0.281727
O O1 0.610993 0.500000 0.104852
O O2 0.618203 0.745372 0.036120
O O3 0.556812 0.746155 0.154853
O O4 0.693545 0.721329 0.134578
O O5 0.681444 0.000000 0.008350
O O6 0.750000 0.750000 0.000000
O O7 0.672236 0.809459 0.911784
O O8 0.980895 0.500000 0.788572
O O9 0.898577 0.688075 0.734922
O O10 0.030505 0.750145 0.739612
O O11 0.443733 0.500000 0.322273
O O12 0.447437 0.746124 0.390343
O O13 0.346492 0.709955 0.321562
O O14 0.500000 0.775218 0.500000
O O15 0.416991 0.760564 0.608712
O O16 0.497554 0.000000 0.584548
O O17 0.711714 0.245520 0.321180
O O18 0.644690 0.000000 0.350967
O O19 0.704195 0.263985 0.791061
O O20 0.734816 0.000000 0.826252
O O21 0.270664 0.500000 0.273949
#
# Coordination Sequence:
#
# PCOD8080408 Si02
#       8
#     8   8   8   8   8   8   8   8
#     4  10  18  28  45  72 101 129 167 216 263 305
#     4   9  17  28  41  64  97 132 169 212 262 309
#     4  10  18  31  52  73  97 133 172 212 255 302
#     4  10  21  34  50  75 106 134 164 207 255 301
#     4   9  18  35  58  79 101 133 172 209 245 293
#     4   8  15  29  50  75  97 126 168 205 241 291
#     4   9  18  29  44  69 100 131 166 211 255 296
#     4  10  19  32  50  72 101 136 169 206 253 304
#
# _framework density 17.953441999999999
#
# number of rings (size 3 to 8) (size 9 to 14) (size 15 to 20)
#    0.000    2.625    1.250    3.000    0.000    3.750 
#    0.000    0.625    0.000    0.750    0.000    5.250 
#    0.000    0.000    0.000    0.000    0.000    0.000 
#
# Total GULP energy -396632.339937 kJ/mol
# GULP energy per Si atom -12394.760623 kJ/mol
# Density = 1.791258 g / cm^3
# Si number density = 17.953442 Si / 1000 Ang^3
#
#
#
# Elastic Constant Matrix: (Units=GPa)
#
#
# Indices 1 2 3 4 5 6 
#
# 1 86.0652 35.9902 48.4296 0.0000 -4.8899 0.0000
# 2 35.9902 73.6453 43.6321 0.0000 -4.0485 0.0000
# 3 48.4296 43.6321 118.0961 0.0000 -17.0793 0.0000
# 4 0.0000 0.0000 0.0000 27.9671 0.0000 -1.3405
# 5 -4.8899 -4.0485 -17.0793 0.0000 21.2831 0.0000
# 6 0.0000 0.0000 0.0000 -1.3405 0.0000 20.1179
#
#
#
# Elastic Compliance Matrix: (Units=1/GPa)
#
#
# Indices 1 2 3 4 5 6 
#
# 1 0.016555 -0.005159 -0.005062 0.000000 -0.001240 0.000000
# 2 -0.005159 0.019074 -0.005179 0.000000 -0.001713 0.000000
# 3 -0.005062 -0.005179 0.013741 0.000000 0.008879 0.000000
# 4 0.000000 0.000000 0.000000 0.035871 0.000000 0.002390
# 5 -0.001240 -0.001713 0.008879 0.000000 0.053500 0.000000
# 6 0.000000 0.000000 0.000000 0.002390 0.000000 0.049866
#
#
# Mechanical properties :
#
#
# Convention : Reuss Voigt Hill
#
# Bulk Modulus (GPa) = 53.85342 59.32337 56.58840
# Shear Modulus (GPa) = 22.16337 23.85727 23.01032
#
# Velocity S-wave (km/s) = 3.51734 3.64928 3.58392
# Velocity P-wave (km/s) = 6.82326 7.13239 6.97954
#
# Compressibility (1/GPa) = 0.01856892
#
# Stress axis : x y z
#
# Youngs Moduli (GPa) = 60.40640 52.42673 72.77429
#
# Poissons Ratio (x) = 0.27048 0.36838
# Poissons Ratio (y) = 0.31165 0.37692
# Poissons Ratio (z) = 0.30578 0.27153
#
# Static dielectric constant tensor:
#      x y z
#    x 3.248040 0.000000 -0.295260 
#    y 0.000000 3.269720 0.000000 
#    z -0.295260 0.000000 3.377050 
# 
# 
# High freq. dielectric constant tensor:
#      x y z
#    x 1.670390 0.000000 -0.023430 
#    y 0.000000 1.689830 0.000000 
#    z -0.023430 0.000000 1.687410 
# 
# From -- ./inp_files/319181.got.cif
#   From: 2010.06.25/outbox.cif.g09.slc.cpg/sg12_160_cif.got.tgz:319181.got - 2010.06.28 00:19:55.
