data_PCOD8080800
_publ_section_title
;
Structure prediction by ZEFSAII (Michael W. Deem and Ramdas Pophale) SiO2 
 PCOD8080800
Probable space group: C 2/M
;
_chemical_formula_sum "Si O2"
_cell_formula_units_Z 56
_cell_length_a 21.498435
_cell_length_b 16.919650
_cell_length_c 11.721659
_cell_angle_alpha 90.000000
_cell_angle_beta 56.530778
_cell_angle_gamma 90.000000
_cell_volume 3556.708046
_symmetry_space_group_name_H-M "C 2/M"
_symmetry_group_IT_number 12
_symmetry_cell_setting 'monoclinic'
loop_
_space_group_symop_operation_xyz
x,y,z
-x,y,-z
-x,-y,-z
x,-y,z
1/2+x,1/2+y,z
1/2-x,1/2+y,-z
1/2-x,1/2-y,-z
1/2+x,1/2-y,z
loop_
_atom_site_type_symbol
_atom_site_label
_atom_site_fract_x
_atom_site_fract_y
_atom_site_fract_z
Si Si1 0.843427 0.591560 0.659217
Si Si2 0.170905 0.909503 0.806699
Si Si3 0.405240 0.000000 0.980128
Si Si4 0.602479 0.853903 0.159997
Si Si5 0.076879 0.209590 0.787727
Si Si6 0.410235 0.290517 0.975599
Si Si7 0.925899 0.353680 0.360053
Si Si8 0.918162 0.500000 0.220445
O O1 0.868502 0.500000 0.645248
O O2 0.758919 0.598517 0.703284
O O3 0.851775 0.636217 0.770402
O O4 0.895744 0.637494 0.517943
O O5 0.131379 0.867116 0.737153
O O6 0.145434 0.000000 0.836753
O O7 0.142995 0.867220 0.952856
O O8 0.372853 0.077090 0.950873
O O9 0.493887 0.000000 0.885192
O O10 0.377692 0.000000 0.138813
O O11 0.624555 0.770444 0.079994
O O12 0.514849 0.858074 0.274095
O O13 0.102014 0.270688 0.664659
O O14 0.991969 0.181329 0.850731
O O15 0.081321 0.252180 0.908340
O O16 0.892139 0.423487 0.317040
#
# Coordination Sequence:
#
# PCOD8080800 Si02
#       8
#     8   8   4   8   8   8   8   4
#     4  11  21  31  43  67 101 139 165 176 215 283
#     4   9  19  33  49  70  93 121 154 198 246 282
#     4   9  16  25  43  67  91 122 155 188 230 264
#     4  10  18  29  46  68  97 128 159 192 222 274
#     4   8  16  31  50  71  91 110 152 206 244 274
#     4   8  16  31  50  71  91 110 152 206 244 274
#     4  10  18  29  46  68  97 128 159 192 222 274
#     4   9  16  25  43  67  91 122 155 188 230 264
#
# _framework density 15.744896000000001
#
# number of rings (size 3 to 8) (size 9 to 14) (size 15 to 20)
#    0.857    1.857    1.429    1.286    0.000    6.286 
#    0.000    0.000    0.000    0.000    0.000    1.000 
#    0.000    4.571    0.000    0.000    0.000    0.000 
#
# Total GULP energy -346978.646965 kJ/mol
# GULP energy per Si atom -12392.094534 kJ/mol
# Density = 1.570906 g / cm^3
# Si number density = 15.744896 Si / 1000 Ang^3
#
#
#
# Elastic Constant Matrix: (Units=GPa)
#
#
# Indices 1 2 3 4 5 6 
#
# 1 34.7968 25.0353 7.7898 0.0000 6.0304 0.0000
# 2 25.0353 96.1546 21.0162 0.0000 0.8460 0.0000
# 3 7.7898 21.0162 40.8234 0.0000 10.0786 0.0000
# 4 0.0000 0.0000 0.0000 18.5589 0.0000 -2.3147
# 5 6.0304 0.8460 10.0786 0.0000 20.1367 0.0000
# 6 0.0000 0.0000 0.0000 -2.3147 0.0000 19.3545
#
#
#
# Elastic Compliance Matrix: (Units=1/GPa)
#
#
# Indices 1 2 3 4 5 6 
#
# 1 0.037605 -0.009834 0.000645 0.000000 -0.011171 0.000000
# 2 -0.009834 0.014439 -0.006999 0.000000 0.005841 0.000000
# 3 0.000645 -0.006999 0.031892 0.000000 -0.015861 0.000000
# 4 0.000000 0.000000 0.000000 0.054698 0.000000 0.006542
# 5 -0.011171 0.005841 -0.015861 0.000000 0.060699 0.000000
# 6 0.000000 0.000000 0.000000 0.006542 0.000000 0.052450
#
#
# Mechanical properties :
#
#
# Convention : Reuss Voigt Hill
#
# Bulk Modulus (GPa) = 19.39496 31.05081 25.22288
# Shear Modulus (GPa) = 16.59234 19.47228 18.03231
#
# Velocity S-wave (km/s) = 3.24979 3.52054 3.38787
# Velocity P-wave (km/s) = 5.14067 6.02409 5.59983
#
# Compressibility (1/GPa) = 0.05155979
#
# Stress axis : x y z
#
# Youngs Moduli (GPa) = 26.59228 69.25900 31.35629
#
# Poissons Ratio (x) = 0.68107 -0.02022
# Poissons Ratio (y) = 0.26150 0.21946
# Poissons Ratio (z) = -0.01715 0.48473
#
# Static dielectric constant tensor:
#      x y z
#    x 2.766270 0.000000 0.084120 
#    y 0.000000 2.915460 0.000000 
#    z 0.084120 0.000000 2.831870 
# 
# 
# High freq. dielectric constant tensor:
#      x y z
#    x 1.582950 0.000000 0.005490 
#    y 0.000000 1.595130 0.000000 
#    z 0.005490 0.000000 1.586400 
# 
# From -- ./inp_files/176649.got.cif
#   From: 2010.06.25/outbox.cif.g09.slc.cpg/sg12_89_cif.got.tgz:176649.got - 2010.06.28 00:19:55.
