data_PCOD8080441
_publ_section_title
;
Structure prediction by ZEFSAII (Michael W. Deem and Ramdas Pophale) SiO2 
 PCOD8080441
Probable space group: C 2/M
;
_chemical_formula_sum "Si O2"
_cell_formula_units_Z 56
_cell_length_a 30.872129
_cell_length_b 9.619040
_cell_length_c 18.653012
_cell_angle_alpha 90.000000
_cell_angle_beta 145.674982
_cell_angle_gamma 90.000000
_cell_volume 3123.482940
_symmetry_space_group_name_H-M "C 2/M"
_symmetry_group_IT_number 12
_symmetry_cell_setting 'monoclinic'
loop_
_space_group_symop_operation_xyz
x,y,z
-x,y,-z
-x,-y,-z
x,-y,z
1/2+x,1/2+y,z
1/2-x,1/2+y,-z
1/2-x,1/2-y,-z
1/2+x,1/2-y,z
loop_
_atom_site_type_symbol
_atom_site_label
_atom_site_fract_x
_atom_site_fract_y
_atom_site_fract_z
Si Si1 0.176643 0.843778 0.600387
Si Si2 0.415792 0.340794 0.385111
Si Si3 0.336233 0.153614 0.551261
Si Si4 0.420665 0.338627 0.927601
Si Si5 0.173484 0.340586 0.104409
Si Si6 0.341602 0.651637 0.678561
Si Si7 0.230283 0.165513 0.901725
O O1 0.112624 0.827266 0.573033
O O2 0.154768 0.733501 0.510538
O O3 0.258890 0.812545 0.746792
O O4 0.175602 0.000000 0.566500
O O5 0.500000 0.266316 0.500000
O O6 0.426021 0.500000 0.376268
O O7 0.352116 0.280199 0.242322
O O8 0.378326 0.239579 0.672283
O O9 0.248723 0.139114 0.455653
O O10 0.373396 0.000000 0.594879
O O11 0.423080 0.500000 0.952574
O O12 0.399102 0.253222 0.970152
O O13 0.356652 0.303016 0.780574
O O14 0.500000 0.289590 0.000000
O O15 0.147037 0.500000 0.069924
O O16 0.203164 0.301072 0.065558
O O17 0.380186 0.500000 0.717677
O O18 0.227885 0.000000 0.913452
O O19 0.250000 0.250000 0.000000
#
# Coordination Sequence:
#
# PCOD8080441 Si02
#       7
#     8   8   8   8   8   8   8
#     4   9  16  28  49  73  96 125 160 201 243 286
#     4   8  15  30  52  76 100 128 166 208 248 295
#     4  10  18  28  46  70  93 121 155 194 237 281
#     4  10  20  34  51  71  96 127 167 211 249 287
#     4   9  18  32  50  72  99 130 168 205 244 298
#     4   9  18  31  45  65  93 122 153 194 238 279
#     4   9  18  33  54  80 104 132 170 211 255 304
#
# _framework density 17.928705000000001
#
# number of rings (size 3 to 8) (size 9 to 14) (size 15 to 20)
#    0.000    2.857    1.429    2.143    0.000    2.000 
#    0.000    3.571    0.000    8.571    0.000    0.000 
#    0.000    0.000    0.000    0.000    0.000    0.000 
#
# Total GULP energy -346944.333283 kJ/mol
# GULP energy per Si atom -12390.869046 kJ/mol
# Density = 1.788790 g / cm^3
# Si number density = 17.928705 Si / 1000 Ang^3
#
#
#
# Elastic Constant Matrix: (Units=GPa)
#
#
# Indices 1 2 3 4 5 6 
#
# 1 111.5120 61.3697 45.6943 0.0000 -2.4553 0.0000
# 2 61.3697 85.7245 37.4571 0.0000 -12.0040 0.0000
# 3 45.6943 37.4571 53.6153 0.0000 -7.8292 0.0000
# 4 0.0000 0.0000 0.0000 20.3918 0.0000 -11.5165
# 5 -2.4553 -12.0040 -7.8292 0.0000 29.3251 0.0000
# 6 0.0000 0.0000 0.0000 -11.5165 0.0000 27.4407
#
#
#
# Elastic Compliance Matrix: (Units=1/GPa)
#
#
# Indices 1 2 3 4 5 6 
#
# 1 0.017861 -0.009362 -0.009388 0.000000 -0.004843 0.000000
# 2 -0.009362 0.022137 -0.006532 0.000000 0.006534 0.000000
# 3 -0.009388 -0.006532 0.031957 0.000000 0.005072 0.000000
# 4 0.000000 0.000000 0.000000 0.064274 0.000000 0.026975
# 5 -0.004843 0.006534 0.005072 0.000000 0.037724 0.000000
# 6 0.000000 0.000000 0.000000 0.026975 0.000000 0.047763
#
#
# Mechanical properties :
#
#
# Convention : Reuss Voigt Hill
#
# Bulk Modulus (GPa) = 46.75384 59.98820 53.37102
# Shear Modulus (GPa) = 17.89485 22.52024 20.20754
#
# Velocity S-wave (km/s) = 3.16272 3.54799 3.36088
# Velocity P-wave (km/s) = 6.28262 7.09340 6.70028
#
# Compressibility (1/GPa) = 0.02138862
#
# Stress axis : x y z
#
# Youngs Moduli (GPa) = 55.98942 45.17370 31.29212
#
# Poissons Ratio (x) = 0.42293 0.29378
# Poissons Ratio (y) = 0.52419 0.20441
# Poissons Ratio (z) = 0.52565 0.29508
#
# Static dielectric constant tensor:
#      x y z
#    x 3.227970 0.000000 -0.001710 
#    y 0.000000 3.351170 0.000000 
#    z -0.001710 0.000000 3.220380 
# 
# 
# High freq. dielectric constant tensor:
#      x y z
#    x 1.686390 0.000000 -0.010030 
#    y 0.000000 1.680320 0.000000 
#    z -0.010030 0.000000 1.673010 
# 
# From -- ./inp_files/295147.got.cif
#   From: 2010.06.25/outbox.cif.g09.slc.cpg/sg12_148_cif.got.tgz:295147.got - 2010.06.28 00:19:55.
