data_PCOD8080130
_publ_section_title
;
Structure prediction by ZEFSAII (Michael W. Deem and Ramdas Pophale) SiO2 
 PCOD8080130
Probable space group: C 2/M
;
_chemical_formula_sum "Si O2"
_cell_formula_units_Z 64
_cell_length_a 24.998376
_cell_length_b 8.905123
_cell_length_c 23.726339
_cell_angle_alpha 90.000000
_cell_angle_beta 46.285878
_cell_angle_gamma 90.000000
_cell_volume 3817.672714
_symmetry_space_group_name_H-M "C 2/M"
_symmetry_group_IT_number 12
_symmetry_cell_setting 'monoclinic'
loop_
_space_group_symop_operation_xyz
x,y,z
-x,y,-z
-x,-y,-z
x,-y,z
1/2+x,1/2+y,z
1/2-x,1/2+y,-z
1/2-x,1/2-y,-z
1/2+x,1/2-y,z
loop_
_atom_site_type_symbol
_atom_site_label
_atom_site_fract_x
_atom_site_fract_y
_atom_site_fract_z
Si Si1 0.692052 0.827734 0.803642
Si Si2 0.612006 0.177513 0.188875
Si Si3 0.973581 0.678816 0.079308
Si Si4 0.334645 0.823253 0.662333
Si Si5 0.403080 0.178212 0.926811
Si Si6 0.734490 0.827093 0.900873
Si Si7 0.558327 0.165527 0.507676
Si Si8 0.950142 0.823237 0.661476
O O1 0.610287 0.770959 0.846300
O O2 0.749686 0.725801 0.727363
O O3 0.699958 0.808305 0.864536
O O4 0.704893 0.000000 0.776565
O O5 0.592972 0.235989 0.140091
O O6 0.694832 0.222161 0.144925
O O7 0.553549 0.255182 0.273295
O O8 0.603824 0.000000 0.199914
O O9 0.977648 0.500000 0.073627
O O10 0.026925 0.743094 0.089501
O O11 0.000000 0.744881 0.000000
O O12 0.364764 0.781766 0.577502
O O13 0.380887 0.737629 0.676417
O O14 0.343672 0.000000 0.666911
O O15 0.404949 0.000000 0.928066
O O16 0.326269 0.232316 0.010517
O O17 0.756985 0.000000 0.895808
O O18 0.500000 0.158364 0.500000
O O19 0.529388 0.279314 0.576466
O O20 0.566735 0.000000 0.528871
O O21 0.943244 0.000000 0.669600
#
# Coordination Sequence:
#
# PCOD8080130 Si02
#       8
#     8   8   8   8   8   8   8   8
#     4  10  18  27  48  75  96 123 159 199 240 278
#     4  11  21  31  45  67  97 133 164 195 234 285
#     4   9  15  28  49  71  93 120 159 207 246 275
#     4  10  19  31  47  68  99 129 154 187 232 289
#     4   9  18  31  47  68  94 126 168 205 238 280
#     4  10  18  30  47  69  95 124 161 202 238 280
#     4   8  16  30  46  66  93 126 155 183 228 287
#     4  11  20  30  46  68  95 126 159 196 234 277
#
# _framework density 16.764140000000001
#
# number of rings (size 3 to 8) (size 9 to 14) (size 15 to 20)
#    0.000    2.250    2.500    3.000    0.000    2.750 
#    0.000    0.625    0.000    2.625    0.000    0.875 
#    0.000    0.000    0.000    0.000    0.000    0.000 
#
# Total GULP energy -396739.747533 kJ/mol
# GULP energy per Si atom -12398.117110 kJ/mol
# Density = 1.672598 g / cm^3
# Si number density = 16.764140 Si / 1000 Ang^3
#
#
#
# Elastic Constant Matrix: (Units=GPa)
#
#
# Indices 1 2 3 4 5 6 
#
# 1 49.9388 20.1845 37.5772 -0.0104 3.2629 0.0258
# 2 20.1845 67.5003 47.7953 0.0014 -0.4613 0.0217
# 3 37.5772 47.7953 144.8476 -0.0032 -6.3462 0.0086
# 4 -0.0104 0.0014 -0.0032 19.4393 0.0012 -1.1970
# 5 3.2629 -0.4613 -6.3462 0.0012 18.1984 -0.0030
# 6 0.0258 0.0217 0.0086 -1.1970 -0.0030 11.0976
#
#
#
# Elastic Compliance Matrix: (Units=1/GPa)
#
#
# Indices 1 2 3 4 5 6 
#
# 1 0.026454 -0.003763 -0.005924 0.000011 -0.006904 -0.000050
# 2 -0.003763 0.019923 -0.005632 -0.000006 -0.000784 -0.000027
# 3 -0.005924 -0.005632 0.010500 0.000000 0.004581 0.000018
# 4 0.000011 -0.000006 0.000000 0.051786 -0.000005 0.005586
# 5 -0.006904 -0.000784 0.004581 -0.000005 0.057765 0.000029
# 6 -0.000050 -0.000027 0.000018 0.005586 0.000029 0.090712
#
#
# Mechanical properties :
#
#
# Convention : Reuss Voigt Hill
#
# Bulk Modulus (GPa) = 38.11184 52.60006 45.35595
# Shear Modulus (GPa) = 16.86209 20.19573 18.52891
#
# Velocity S-wave (km/s) = 3.17494 3.47464 3.32817
# Velocity P-wave (km/s) = 6.01863 6.89508 6.47171
#
# Compressibility (1/GPa) = 0.02623856
#
# Stress axis : x y z
#
# Youngs Moduli (GPa) = 37.80155 50.19448 95.24205
#
# Poissons Ratio (x) = 0.18890 0.56417
# Poissons Ratio (y) = 0.14226 0.53639
# Poissons Ratio (z) = 0.22392 0.28269
#
# Static dielectric constant tensor:
#      x y z
#    x 3.028210 -0.000020 -0.064790 
#    y -0.000020 2.942070 0.000000 
#    z -0.064790 0.000000 3.525110 
# 
# 
# High freq. dielectric constant tensor:
#      x y z
#    x 1.607000 0.000000 -0.009580 
#    y 0.000000 1.626470 0.000000 
#    z -0.009580 0.000000 1.658100 
# 
# From -- ./inp_files/323778.got.cif
#   From: 2010.06.25/outbox.cif.g09.slc.cpg/sg12_162_cif.got.tgz:323778.got - 2010.06.28 00:19:55.
