data_PCOD8080892
_publ_section_title
;
Structure prediction by ZEFSAII (Michael W. Deem and Ramdas Pophale) SiO2 
 PCOD8080892
Probable space group: C 2/M
;
_chemical_formula_sum "Si O2"
_cell_formula_units_Z 64
_cell_length_a 19.276668
_cell_length_b 8.867415
_cell_length_c 20.536480
_cell_angle_alpha 90.000000
_cell_angle_beta 84.228137
_cell_angle_gamma 90.000000
_cell_volume 3492.590183
_symmetry_space_group_name_H-M "C 2/M"
_symmetry_group_IT_number 12
_symmetry_cell_setting 'monoclinic'
loop_
_space_group_symop_operation_xyz
x,y,z
-x,y,-z
-x,-y,-z
x,-y,z
1/2+x,1/2+y,z
1/2-x,1/2+y,-z
1/2-x,1/2-y,-z
1/2+x,1/2-y,z
loop_
_atom_site_type_symbol
_atom_site_label
_atom_site_fract_x
_atom_site_fract_y
_atom_site_fract_z
Si Si1 0.615822 0.825038 0.104481
Si Si2 0.678979 0.674882 0.985473
Si Si3 0.957858 0.821409 0.775435
Si Si4 0.425478 0.822937 0.314692
Si Si5 0.488506 0.822933 0.571968
Si Si6 0.633631 0.176972 0.325581
Si Si7 0.734039 0.671080 0.846464
Si Si8 0.273069 0.174998 0.287131
O O1 0.556131 0.740072 0.150804
O O2 0.690229 0.794831 0.131039
O O3 0.597304 0.000000 0.101977
O O4 0.616607 0.756561 0.030877
O O5 0.680481 0.500000 0.004556
O O6 0.674222 0.694641 0.907431
O O7 0.750000 0.750000 0.000000
O O8 0.897421 0.759446 0.734204
O O9 0.033665 0.764456 0.745924
O O10 0.956006 0.000000 0.775441
O O11 0.453494 0.764980 0.382166
O O12 0.344079 0.785373 0.318180
O O13 0.440992 0.000000 0.304233
O O14 0.500000 0.745800 0.500000
O O15 0.411443 0.782480 0.606044
O O16 0.497448 0.000000 0.563526
O O17 0.712489 0.231362 0.328779
O O18 0.631556 0.000000 0.311183
O O19 0.731918 0.500000 0.820096
O O20 0.718477 0.783626 0.789254
O O21 0.254894 0.000000 0.294239
#
# Coordination Sequence:
#
# PCOD8080892 Si02
#       8
#     8   8   8   8   8   8   8   8
#     4  10  18  29  47  71 100 132 168 215 263 308
#     4   9  17  28  42  65  97 131 169 215 263 310
#     4  11  20  31  51  76 100 132 174 216 260 311
#     4   9  20  36  52  75 106 136 169 212 258 304
#     4   8  15  32  58  80  99 133 176 210 247 301
#     4  10  19  32  52  77 106 135 169 213 254 298
#     4   9  18  30  46  68  99 136 170 209 259 306
#     4  11  21  32  50  75 105 139 173 211 255 306
#
# _framework density 18.324508000000002
#
# number of rings (size 3 to 8) (size 9 to 14) (size 15 to 20)
#    0.000    2.375    1.250    4.125    0.000    3.500 
#    0.000    0.625    0.000   10.125    0.000    5.250 
#    0.000    0.000    0.000    0.000    0.000    0.000 
#
# Total GULP energy -396709.178677 kJ/mol
# GULP energy per Si atom -12397.161834 kJ/mol
# Density = 1.828280 g / cm^3
# Si number density = 18.324508 Si / 1000 Ang^3
#
#
#
# Elastic Constant Matrix: (Units=GPa)
#
#
# Indices 1 2 3 4 5 6 
#
# 1 89.4028 43.4824 42.7049 0.0000 -10.5274 0.0000
# 2 43.4824 94.6549 35.9778 0.0000 -10.6824 0.0000
# 3 42.7049 35.9778 104.1055 0.0000 -25.5347 0.0000
# 4 0.0000 0.0000 0.0000 17.9935 0.0000 -4.2177
# 5 -10.5274 -10.6824 -25.5347 0.0000 24.0476 0.0000
# 6 0.0000 0.0000 0.0000 -4.2177 0.0000 25.3319
#
#
#
# Elastic Compliance Matrix: (Units=1/GPa)
#
#
# Indices 1 2 3 4 5 6 
#
# 1 0.016173 -0.005662 -0.004811 0.000000 -0.000543 0.000000
# 2 -0.005662 0.014174 -0.002216 0.000000 0.001464 0.000000
# 3 -0.004811 -0.002216 0.015668 0.000000 0.013546 0.000000
# 4 0.000000 0.000000 0.000000 0.057833 0.000000 0.009629
# 5 -0.000543 0.001464 0.013546 0.000000 0.056380 0.000000
# 6 0.000000 0.000000 0.000000 0.009629 0.000000 0.041079
#
#
# Mechanical properties :
#
#
# Convention : Reuss Voigt Hill
#
# Bulk Modulus (GPa) = 48.46133 59.16593 53.81363
# Shear Modulus (GPa) = 21.40743 24.54115 22.97429
#
# Velocity S-wave (km/s) = 3.42166 3.66355 3.54467
# Velocity P-wave (km/s) = 6.48953 7.08897 6.79586
#
# Compressibility (1/GPa) = 0.02063501
#
# Stress axis : x y z
#
# Youngs Moduli (GPa) = 61.83013 70.55399 63.82639
#
# Poissons Ratio (x) = 0.39951 0.30706
# Poissons Ratio (y) = 0.35011 0.14147
# Poissons Ratio (z) = 0.29745 0.15638
#
# Static dielectric constant tensor:
#      x y z
#    x 3.216090 0.000000 -0.278850 
#    y 0.000000 3.342830 0.000000 
#    z -0.278850 0.000000 3.696630 
# 
# 
# High freq. dielectric constant tensor:
#      x y z
#    x 1.684330 0.000000 -0.025550 
#    y 0.000000 1.707320 0.000000 
#    z -0.025550 0.000000 1.703350 
# 
# From -- ./inp_files/319182.got.cif
#   From: 2010.06.25/outbox.cif.g09.slc.cpg/sg12_160_cif.got.tgz:319182.got - 2010.06.28 00:19:55.
