data_PCOD8080830
_publ_section_title
;
Structure prediction by ZEFSAII (Michael W. Deem and Ramdas Pophale) SiO2 
 PCOD8080830
Probable space group: C 2/M
;
_chemical_formula_sum "Si O2"
_cell_formula_units_Z 44
_cell_length_a 13.999400
_cell_length_b 21.523110
_cell_length_c 11.645847
_cell_angle_alpha 90.000000
_cell_angle_beta 41.961172
_cell_angle_gamma 90.000000
_cell_volume 2346.223254
_symmetry_space_group_name_H-M "C 2/M"
_symmetry_group_IT_number 12
_symmetry_cell_setting 'monoclinic'
loop_
_space_group_symop_operation_xyz
x,y,z
-x,y,-z
-x,-y,-z
x,-y,z
1/2+x,1/2+y,z
1/2-x,1/2+y,-z
1/2-x,1/2-y,-z
1/2+x,1/2-y,z
loop_
_atom_site_type_symbol
_atom_site_label
_atom_site_fract_x
_atom_site_fract_y
_atom_site_fract_z
Si Si1 0.052328 0.718912 0.676810
Si Si2 0.856814 0.069525 0.202177
Si Si3 0.000000 0.147274 0.500000
Si Si4 0.226839 0.655641 0.152198
Si Si5 0.521427 0.360558 0.238334
Si Si6 0.247219 0.242196 0.311803
O O1 0.173346 0.711033 0.470672
O O2 0.115392 0.710260 0.749269
O O3 0.929219 0.668559 0.760488
O O4 0.994383 0.788312 0.719099
O O5 0.726985 0.099699 0.245172
O O6 0.890220 0.111865 0.282969
O O7 0.812268 0.000000 0.279151
O O8 0.000000 0.068262 0.000000
O O9 0.011854 0.106016 0.372694
O O10 0.142365 0.188496 0.367501
O O11 0.290041 0.716929 0.161283
O O12 0.326799 0.632581 0.959195
#
# Coordination Sequence:
#
# PCOD8080830 Si02
#       6
#     8   8   4   8   8   8
#     4  10  19  29  45  77 105 140 160 200 267 313
#     4   9  19  34  53  76 101 135 175 216 257 296
#     4  10  20  34  45  74 105 138 164 208 266 310
#     4  11  18  31  51  76 105 132 173 216 251 307
#     4  10  19  31  50  73 105 135 172 212 249 309
#     4  10  18  29  46  71 106 141 160 197 260 314
#
# _framework density 18.753543000000001
#
# number of rings (size 3 to 8) (size 9 to 14) (size 15 to 20)
#    0.000    2.000    5.455    0.545    0.000    0.000 
#    0.000    0.455    0.000    2.182    0.000    0.000 
#    0.000    5.818    0.000    0.000    0.000    0.000 
#
# Total GULP energy -272558.756492 kJ/mol
# GULP energy per Si atom -12389.034386 kJ/mol
# Density = 1.871086 g / cm^3
# Si number density = 18.753543 Si / 1000 Ang^3
#
#
#
# Elastic Constant Matrix: (Units=GPa)
#
#
# Indices 1 2 3 4 5 6 
#
# 1 153.8150 36.0882 43.1778 0.0000 0.9976 0.0000
# 2 36.0882 53.9796 17.6887 0.0000 -4.8643 0.0000
# 3 43.1778 17.6887 63.9899 0.0000 20.4966 0.0000
# 4 0.0000 0.0000 0.0000 6.2631 0.0000 -3.0328
# 5 0.9976 -4.8643 20.4966 0.0000 34.2924 0.0000
# 6 0.0000 0.0000 0.0000 -3.0328 0.0000 18.5543
#
#
#
# Elastic Compliance Matrix: (Units=1/GPa)
#
#
# Indices 1 2 3 4 5 6 
#
# 1 0.009050 -0.003869 -0.005908 0.000000 0.002719 0.000000
# 2 -0.003869 0.023832 -0.006302 0.000000 0.007260 0.000000
# 3 -0.005908 -0.006302 0.026699 0.000000 -0.016680 0.000000
# 4 0.000000 0.000000 0.000000 0.173390 0.000000 0.028341
# 5 0.002719 0.007260 -0.016680 0.000000 0.040081 0.000000
# 6 0.000000 0.000000 0.000000 0.028341 0.000000 0.058528
#
#
# Mechanical properties :
#
#
# Convention : Reuss Voigt Hill
#
# Bulk Modulus (GPa) = 36.46788 51.74378 44.10583
# Shear Modulus (GPa) = 13.40914 23.47728 18.44321
#
# Velocity S-wave (km/s) = 2.67688 3.54204 3.13941
# Velocity P-wave (km/s) = 5.38910 6.66179 6.05895
#
# Compressibility (1/GPa) = 0.02742139
#
# Stress axis : x y z
#
# Youngs Moduli (GPa) = 110.49814 41.96060 37.45485
#
# Poissons Ratio (x) = 0.16236 0.22128
# Poissons Ratio (y) = 0.42756 0.23606
# Poissons Ratio (z) = 0.65281 0.26445
#
# Static dielectric constant tensor:
#      x y z
#    x 3.970790 0.000000 0.439200 
#    y 0.000000 3.093040 0.000000 
#    z 0.439200 0.000000 3.548640 
# 
# 
# High freq. dielectric constant tensor:
#      x y z
#    x 1.748000 0.000000 0.016650 
#    y 0.000000 1.664250 0.000000 
#    z 0.016650 0.000000 1.712070 
# 
# From -- ./inp_files/148544.got.cif
#   From: 2010.06.25/outbox.cif.g09.slc.cpg/sg12_75_cif.got.tgz:148544.got - 2010.06.28 00:19:55.
