data_PCOD8080976
_publ_section_title
;
Structure prediction by ZEFSAII (Michael W. Deem and Ramdas Pophale) SiO2 
 PCOD8080976
Probable space group: C 2/M
;
_chemical_formula_sum "Si O2"
_cell_formula_units_Z 56
_cell_length_a 19.985772
_cell_length_b 9.802636
_cell_length_c 15.670444
_cell_angle_alpha 90.000000
_cell_angle_beta 73.764252
_cell_angle_gamma 90.000000
_cell_volume 2947.612337
_symmetry_space_group_name_H-M "C 2/M"
_symmetry_group_IT_number 12
_symmetry_cell_setting 'monoclinic'
loop_
_space_group_symop_operation_xyz
x,y,z
-x,y,-z
-x,-y,-z
x,-y,z
1/2+x,1/2+y,z
1/2-x,1/2+y,-z
1/2-x,1/2-y,-z
1/2+x,1/2-y,z
loop_
_atom_site_type_symbol
_atom_site_label
_atom_site_fract_x
_atom_site_fract_y
_atom_site_fract_z
Si Si1 0.116484 0.344228 0.225233
Si Si2 0.588902 0.654657 0.574188
Si Si3 0.125181 0.658931 0.419843
Si Si4 0.742059 0.657331 0.921053
Si Si5 0.362220 0.338911 0.180786
Si Si6 0.720949 0.342548 0.633665
Si Si7 0.504246 0.341230 0.775072
O O1 0.095494 0.500000 0.214187
O O2 0.107915 0.310303 0.327878
O O3 0.195383 0.316546 0.167568
O O4 0.065370 0.247191 0.189605
O O5 0.576189 0.500000 0.548305
O O6 0.573618 0.755312 0.500041
O O7 0.669365 0.676158 0.572671
O O8 0.539175 0.689757 0.671189
O O9 0.115832 0.500000 0.445532
O O10 0.202719 0.717302 0.411889
O O11 0.740370 0.500000 0.950702
O O12 0.668989 0.698434 0.900818
O O13 0.750000 0.750000 0.000000
O O14 0.360152 0.500000 0.196847
O O15 0.313243 0.271229 0.270807
O O16 0.442566 0.294280 0.167948
O O17 0.733992 0.500000 0.651247
O O18 0.484500 0.500000 0.790800
#
# Coordination Sequence:
#
# PCOD8080976 Si02
#       7
#     8   8   8   8   8   8   8
#     4  10  21  36  54  77 106 140 172 210 262 313
#     4   9  18  30  46  72 103 136 174 219 259 289
#     4  10  18  29  48  72 100 137 178 213 252 305
#     4  10  20  37  61  85 106 130 166 213 263 314
#     4   8  14  31  57  78  99 135 177 212 250 303
#     4   8  13  26  48  71  97 131 174 215 253 299
#     4   9  19  35  55  76 103 142 182 214 249 299
#
# _framework density 18.998428000000001
#
# number of rings (size 3 to 8) (size 9 to 14) (size 15 to 20)
#    0.000    2.857    1.429    2.143    0.000    2.286 
#    0.000    4.286    0.000    6.000    0.000    0.000 
#    0.000    0.000    0.000    0.000    0.000    0.000 
#
# Total GULP energy -346999.438477 kJ/mol
# GULP energy per Si atom -12392.837088 kJ/mol
# Density = 1.895519 g / cm^3
# Si number density = 18.998428 Si / 1000 Ang^3
#
#
#
# Elastic Constant Matrix: (Units=GPa)
#
#
# Indices 1 2 3 4 5 6 
#
# 1 93.2350 42.2183 18.0428 0.0000 8.6335 0.0000
# 2 42.2183 61.2612 34.4770 0.0000 10.7596 0.0000
# 3 18.0428 34.4770 57.0695 0.0000 19.8051 0.0000
# 4 0.0000 0.0000 0.0000 30.1744 0.0000 0.2718
# 5 8.6335 10.7596 19.8051 0.0000 15.0350 0.0000
# 6 0.0000 0.0000 0.0000 0.2718 0.0000 26.9601
#
#
#
# Elastic Compliance Matrix: (Units=1/GPa)
#
#
# Indices 1 2 3 4 5 6 
#
# 1 0.016148 -0.012703 0.004849 0.000000 -0.006569 0.000000
# 2 -0.012703 0.034836 -0.020095 0.000000 0.008835 0.000000
# 3 0.004849 -0.020095 0.044403 0.000000 -0.046895 0.000000
# 4 0.000000 0.000000 0.000000 0.033144 0.000000 -0.000334
# 5 -0.006569 0.008835 -0.046895 0.000000 0.125734 0.000000
# 6 0.000000 0.000000 0.000000 -0.000334 0.000000 0.037095
#
#
# Mechanical properties :
#
#
# Convention : Reuss Voigt Hill
#
# Bulk Modulus (GPa) = 25.32435 44.56020 34.94227
# Shear Modulus (GPa) = 13.87266 22.22240 18.04753
#
# Velocity S-wave (km/s) = 2.70515 3.42379 3.08547
# Velocity P-wave (km/s) = 4.80789 6.25583 5.57903
#
# Compressibility (1/GPa) = 0.03948769
#
# Stress axis : x y z
#
# Youngs Moduli (GPa) = 61.92783 28.70634 22.52075
#
# Poissons Ratio (x) = 0.36467 -0.10920
# Poissons Ratio (y) = 0.78670 0.45255
# Poissons Ratio (z) = -0.30027 0.57685
#
# Static dielectric constant tensor:
#      x y z
#    x 3.640860 0.000000 0.097660 
#    y 0.000000 3.118970 0.000000 
#    z 0.097660 0.000000 3.220770 
# 
# 
# High freq. dielectric constant tensor:
#      x y z
#    x 1.747520 0.000000 0.006270 
#    y 0.000000 1.700560 0.000000 
#    z 0.006270 0.000000 1.717750 
# 
# From -- ./inp_files/231821.got.cif
#   From: 2010.06.25/outbox.cif.g09.slc.cpg/sg12_116_cif.got.tgz:231821.got - 2010.06.28 00:19:55.
