data_PCOD8080472
_publ_section_title
;
Structure prediction by ZEFSAII (Michael W. Deem and Ramdas Pophale) SiO2 
 PCOD8080472
Probable space group: C 2/M
;
_chemical_formula_sum "Si O2"
_cell_formula_units_Z 64
_cell_length_a 20.618755
_cell_length_b 23.641895
_cell_length_c 11.853402
_cell_angle_alpha 90.000000
_cell_angle_beta 141.035278
_cell_angle_gamma 90.000000
_cell_volume 3633.533068
_symmetry_space_group_name_H-M "C 2/M"
_symmetry_group_IT_number 12
_symmetry_cell_setting 'monoclinic'
loop_
_space_group_symop_operation_xyz
x,y,z
-x,y,-z
-x,-y,-z
x,-y,z
1/2+x,1/2+y,z
1/2-x,1/2+y,-z
1/2-x,1/2-y,-z
1/2+x,1/2-y,z
loop_
_atom_site_type_symbol
_atom_site_label
_atom_site_fract_x
_atom_site_fract_y
_atom_site_fract_z
Si Si1 0.620961 0.345724 0.669821
Si Si2 0.536394 0.259049 0.928772
Si Si3 0.622631 0.563804 0.501989
Si Si4 0.352925 0.182029 0.617695
Si Si5 0.070431 0.864735 0.839207
Si Si6 0.392086 0.564317 0.908104
Si Si7 0.746796 0.734467 0.684796
Si Si8 0.722158 0.062605 0.489399
O O1 0.500000 0.336443 0.500000
O O2 0.656912 0.404579 0.662370
O O3 0.647487 0.350333 0.839053
O O4 0.668184 0.293828 0.665150
O O5 0.467902 0.204939 0.798790
O O6 0.518301 0.306731 0.810928
O O7 0.500000 0.282782 0.000000
O O8 0.656579 0.245669 0.102969
O O9 0.592492 0.500000 0.491596
O O10 0.521938 0.593410 0.315979
O O11 0.717930 0.566010 0.546611
O O12 0.304522 0.209160 0.438300
O O13 0.277427 0.194416 0.621328
O O14 0.360500 0.113742 0.614500
O O15 0.136685 0.894647 0.026895
O O16 0.401568 0.500000 0.964330
O O17 0.303062 0.571488 0.697844
O O18 0.500000 0.583973 0.000000
O O19 0.669280 0.000000 0.428367
#
# Coordination Sequence:
#
# PCOD8080472 Si02
#       8
#     8   8   8   8   8   8   8   8
#     4  10  21  33  49  74 109 143 176 207 247 319
#     4  10  22  34  53  78  99 136 181 221 263 314
#     4  10  19  31  48  71 102 141 173 203 253 313
#     4  10  19  34  57  76 102 137 174 220 271 311
#     4  11  20  30  47  72 110 139 169 209 254 314
#     4  10  18  28  46  73 104 138 175 213 258 310
#     4  10  20  35  54  77 106 140 175 215 260 316
#     4  10  19  31  52  77 100 130 172 219 264 309
#
# _framework density 17.613710999999999
#
# number of rings (size 3 to 8) (size 9 to 14) (size 15 to 20)
#    0.000    1.875    2.500    3.000    3.500    3.250 
#    0.000    0.000    0.000    4.125    0.000    0.000 
#    0.000    6.500    0.000    0.000    0.000    0.000 
#
# Total GULP energy -396654.891425 kJ/mol
# GULP energy per Si atom -12395.465357 kJ/mol
# Density = 1.757362 g / cm^3
# Si number density = 17.613711 Si / 1000 Ang^3
#
#
#
# Elastic Constant Matrix: (Units=GPa)
#
#
# Indices 1 2 3 4 5 6 
#
# 1 88.4361 53.7387 35.9055 0.0000 -22.2581 0.0000
# 2 53.7387 140.7215 39.4495 0.0000 -10.7402 0.0000
# 3 35.9055 39.4495 64.8066 0.0000 -8.5303 0.0000
# 4 0.0000 0.0000 0.0000 26.2138 0.0000 -2.8508
# 5 -22.2581 -10.7402 -8.5303 0.0000 23.5660 0.0000
# 6 0.0000 0.0000 0.0000 -2.8508 0.0000 27.1569
#
#
#
# Elastic Compliance Matrix: (Units=1/GPa)
#
#
# Indices 1 2 3 4 5 6 
#
# 1 0.020718 -0.004949 -0.006497 0.000000 0.014961 0.000000
# 2 -0.004949 0.009852 -0.003444 0.000000 -0.001430 0.000000
# 3 -0.006497 -0.003444 0.021118 0.000000 -0.000062 0.000000
# 4 0.000000 0.000000 0.000000 0.038588 0.000000 0.004051
# 5 0.014961 -0.001430 -0.000062 0.000000 0.055891 0.000000
# 6 0.000000 0.000000 0.000000 0.004051 0.000000 0.037248
#
#
# Mechanical properties :
#
#
# Convention : Reuss Voigt Hill
#
# Bulk Modulus (GPa) = 45.64185 61.35015 53.49600
# Shear Modulus (GPa) = 22.67595 26.37869 24.52732
#
# Velocity S-wave (km/s) = 3.59193 3.87411 3.73569
# Velocity P-wave (km/s) = 6.57051 7.41068 7.00320
#
# Compressibility (1/GPa) = 0.02190971
#
# Stress axis : x y z
#
# Youngs Moduli (GPa) = 48.26752 101.49942 47.35206
#
# Poissons Ratio (x) = 0.50227 0.30764
# Poissons Ratio (y) = 0.23885 0.16308
# Poissons Ratio (z) = 0.31359 0.34956
#
# Static dielectric constant tensor:
#      x y z
#    x 3.293760 0.000000 -0.423810 
#    y 0.000000 3.446800 0.000000 
#    z -0.423810 0.000000 3.274710 
# 
# 
# High freq. dielectric constant tensor:
#      x y z
#    x 1.656740 0.000000 -0.027720 
#    y 0.000000 1.687080 0.000000 
#    z -0.027720 0.000000 1.663470 
# 
# From -- ./inp_files/170184.got.cif
#   From: 2010.06.25/outbox.cif.g09.slc.cpg/sg12_86_cif.got.tgz:170184.got - 2010.06.28 00:19:55.
