data_PCOD8080285
_publ_section_title
;
Structure prediction by ZEFSAII (Michael W. Deem and Ramdas Pophale) SiO2 
 PCOD8080285
Probable space group: C 2/M
;
_chemical_formula_sum "Si O2"
_cell_formula_units_Z 56
_cell_length_a 24.008672
_cell_length_b 8.870458
_cell_length_c 17.689517
_cell_angle_alpha 90.000000
_cell_angle_beta 117.145252
_cell_angle_gamma 90.000000
_cell_volume 3352.341852
_symmetry_space_group_name_H-M "C 2/M"
_symmetry_group_IT_number 12
_symmetry_cell_setting 'monoclinic'
loop_
_space_group_symop_operation_xyz
x,y,z
-x,y,-z
-x,-y,-z
x,-y,z
1/2+x,1/2+y,z
1/2-x,1/2+y,-z
1/2-x,1/2-y,-z
1/2+x,1/2-y,z
loop_
_atom_site_type_symbol
_atom_site_label
_atom_site_fract_x
_atom_site_fract_y
_atom_site_fract_z
Si Si1 0.427004 0.174222 0.943367
Si Si2 0.333888 0.167456 0.609962
Si Si3 0.850696 0.821891 0.770629
Si Si4 0.340887 0.675105 0.010395
Si Si5 0.813428 0.167137 0.453760
Si Si6 0.298786 0.825027 0.131180
Si Si7 0.780569 0.820824 0.272013
O O1 0.408154 0.269303 0.857849
O O2 0.409116 0.000000 0.920173
O O3 0.500000 0.197279 0.000000
O O4 0.392655 0.235186 0.996249
O O5 0.364562 0.273197 0.692845
O O6 0.259893 0.165678 0.574223
O O7 0.350030 0.227215 0.535695
O O8 0.361888 0.000000 0.635462
O O9 0.788784 0.745266 0.765069
O O10 0.842384 0.000000 0.769894
O O11 0.358667 0.500000 0.024358
O O12 0.340330 0.740966 0.094524
O O13 0.274298 0.701003 0.929647
O O14 0.821136 0.222707 0.371815
O O15 0.841210 0.000000 0.480537
O O16 0.315604 0.751359 0.222218
O O17 0.316668 0.000000 0.142498
O O18 0.774883 0.000000 0.260008
#
# Coordination Sequence:
#
# PCOD8080285 Si02
#       7
#     8   8   8   8   8   8   8
#     4  11  23  37  52  69  92 122 157 199 241 280
#     4   9  16  26  40  58  83 117 152 188 226 270
#     4  11  20  30  45  64  88 120 156 193 232 278
#     4  10  20  33  49  69  92 122 156 194 236 278
#     4   8  15  25  37  58  86 118 151 184 224 269
#     4  10  19  30  47  70  95 124 156 193 233 279
#     4  10  18  28  44  65  93 124 155 191 229 276
#
# _framework density 16.704740999999999
#
# number of rings (size 3 to 8) (size 9 to 14) (size 15 to 20)
#    0.000    2.143    1.429    4.286    0.000    6.286 
#    0.000    0.000    0.000    0.000    0.000    0.000 
#    0.000    1.143    0.000   12.000    0.000    5.429 
#
# Total GULP energy -347179.690661 kJ/mol
# GULP energy per Si atom -12399.274666 kJ/mol
# Density = 1.666672 g / cm^3
# Si number density = 16.704741 Si / 1000 Ang^3
#
#
#
# Elastic Constant Matrix: (Units=GPa)
#
#
# Indices 1 2 3 4 5 6 
#
# 1 42.9427 16.3352 30.7359 0.0000 -11.7561 0.0000
# 2 16.3352 60.2011 28.2837 0.0000 -8.0090 0.0000
# 3 30.7359 28.2837 103.0913 0.0000 -33.7575 0.0000
# 4 0.0000 0.0000 0.0000 32.0309 0.0000 -8.8336
# 5 -11.7561 -8.0090 -33.7575 0.0000 24.0008 0.0000
# 6 0.0000 0.0000 0.0000 -8.8336 0.0000 19.8546
#
#
#
# Elastic Compliance Matrix: (Units=1/GPa)
#
#
# Indices 1 2 3 4 5 6 
#
# 1 0.030946 -0.004771 -0.006442 0.000000 0.004505 0.000000
# 2 -0.004771 0.019849 -0.004856 0.000000 -0.002544 0.000000
# 3 -0.006442 -0.004856 0.021113 0.000000 0.024920 0.000000
# 4 0.000000 0.000000 0.000000 0.035586 0.000000 0.015833
# 5 0.004505 -0.002544 0.024920 0.000000 0.078073 0.000000
# 6 0.000000 0.000000 0.000000 0.015833 0.000000 0.057411
#
#
# Mechanical properties :
#
#
# Convention : Reuss Voigt Hill
#
# Bulk Modulus (GPa) = 25.14505 39.66053 32.40279
# Shear Modulus (GPa) = 17.33865 23.90261 20.62063
#
# Velocity S-wave (km/s) = 3.22521 3.78681 3.51724
# Velocity P-wave (km/s) = 5.38095 6.55084 5.99451
#
# Compressibility (1/GPa) = 0.03976925
#
# Stress axis : x y z
#
# Youngs Moduli (GPa) = 32.31438 50.38129 47.36359
#
# Poissons Ratio (x) = 0.24037 0.30513
# Poissons Ratio (y) = 0.15417 0.23000
# Poissons Ratio (z) = 0.20818 0.24465
#
# Static dielectric constant tensor:
#      x y z
#    x 2.691290 0.000000 -0.381000 
#    y 0.000000 3.325830 0.000000 
#    z -0.381000 0.000000 3.341500 
# 
# 
# High freq. dielectric constant tensor:
#      x y z
#    x 1.581240 0.000000 -0.039660 
#    y 0.000000 1.662560 0.000000 
#    z -0.039660 0.000000 1.645650 
# 
# From -- ./inp_files/287896.got.cif
#   From: 2010.06.25/outbox.cif.g09.slc.cpg/sg12_144_cif.got.tgz:287896.got - 2010.06.28 00:19:55.
