data_PCOD8080522
_publ_section_title
;
Structure prediction by ZEFSAII (Michael W. Deem and Ramdas Pophale) SiO2 
 PCOD8080522
Probable space group: C 2/M
;
_chemical_formula_sum "Si O2"
_cell_formula_units_Z 40
_cell_length_a 24.444279
_cell_length_b 9.069804
_cell_length_c 12.409111
_cell_angle_alpha 90.000000
_cell_angle_beta 59.295552
_cell_angle_gamma 90.000000
_cell_volume 2365.481881
_symmetry_space_group_name_H-M "C 2/M"
_symmetry_group_IT_number 12
_symmetry_cell_setting 'monoclinic'
loop_
_space_group_symop_operation_xyz
x,y,z
-x,y,-z
-x,-y,-z
x,-y,z
1/2+x,1/2+y,z
1/2-x,1/2+y,-z
1/2-x,1/2-y,-z
1/2+x,1/2-y,z
loop_
_atom_site_type_symbol
_atom_site_label
_atom_site_fract_x
_atom_site_fract_y
_atom_site_fract_z
Si Si1 0.701265 0.170283 0.900786
Si Si2 0.794475 0.828812 0.308334
Si Si3 0.165788 0.171958 0.497418
Si Si4 0.928214 0.671046 0.556828
Si Si5 0.827235 0.331083 0.835403
O O1 0.670455 0.259331 0.831374
O O2 0.773470 0.222779 0.845860
O O3 0.702310 0.000000 0.868267
O O4 0.660203 0.199688 0.050237
O O5 0.836880 0.799177 0.371358
O O6 0.725616 0.754459 0.386332
O O7 0.782638 0.000000 0.300996
O O8 0.101707 0.235835 0.510554
O O9 0.172413 0.000000 0.464841
O O10 0.925893 0.500000 0.526247
O O11 0.891833 0.700239 0.705796
O O12 0.000000 0.726320 0.500000
O O13 0.804145 0.500000 0.842999
#
# Coordination Sequence:
#
# PCOD8080522 Si02
#       5
#     8   8   8   8   8
#     4  10  18  28  47  73  99 127 159 197 244 295
#     4  10  19  31  48  71 101 129 156 200 250 293
#     4  10  20  32  48  72  98 127 164 201 243 291
#     4  10  20  34  52  72  98 132 165 199 241 288
#     4   9  18  31  46  69 100 129 160 199 242 288
#
# _framework density 16.909873000000001
#
# number of rings (size 3 to 8) (size 9 to 14) (size 15 to 20)
#    0.000    2.200    2.000    1.800    0.000    3.600 
#    0.000    0.000    0.000    1.200    0.000    8.400 
#    0.000    0.000    0.000    0.000    0.000    0.000 
#
# Total GULP energy -247992.925906 kJ/mol
# GULP energy per Si atom -12399.646295 kJ/mol
# Density = 1.687138 g / cm^3
# Si number density = 16.909873 Si / 1000 Ang^3
#
#
#
# Elastic Constant Matrix: (Units=GPa)
#
#
# Indices 1 2 3 4 5 6 
#
# 1 100.7487 53.2147 60.1155 0.0000 12.7382 0.0000
# 2 53.2147 97.1535 52.5329 0.0000 17.4084 0.0000
# 3 60.1155 52.5329 113.8502 0.0000 20.7108 0.0000
# 4 0.0000 0.0000 0.0000 26.0015 0.0000 8.2118
# 5 12.7382 17.4084 20.7108 0.0000 30.1337 0.0000
# 6 0.0000 0.0000 0.0000 8.2118 0.0000 26.0734
#
#
#
# Elastic Compliance Matrix: (Units=1/GPa)
#
#
# Indices 1 2 3 4 5 6 
#
# 1 0.016647 -0.005883 -0.006187 0.000000 0.000614 0.000000
# 2 -0.005883 0.016248 -0.003584 0.000000 -0.004437 0.000000
# 3 -0.006187 -0.003584 0.014688 0.000000 -0.005409 0.000000
# 4 0.000000 0.000000 0.000000 0.042707 0.000000 -0.013451
# 5 0.000614 -0.004437 -0.005409 0.000000 0.039207 0.000000
# 6 0.000000 0.000000 0.000000 -0.013451 0.000000 0.042590
#
#
# Mechanical properties :
#
#
# Convention : Reuss Voigt Hill
#
# Bulk Modulus (GPa) = 61.44197 71.49763 66.46980
# Shear Modulus (GPa) = 23.94407 26.16769 25.05588
#
# Velocity S-wave (km/s) = 3.76704 3.93807 3.85350
# Velocity P-wave (km/s) = 7.43872 7.94048 7.69369
#
# Compressibility (1/GPa) = 0.01627552
#
# Stress axis : x y z
#
# Youngs Moduli (GPa) = 60.07035 61.54595 68.08167
#
# Poissons Ratio (x) = 0.36205 0.42125
# Poissons Ratio (y) = 0.35337 0.24400
# Poissons Ratio (z) = 0.37168 0.22058
#
# Static dielectric constant tensor:
#      x y z
#    x 2.937260 0.000000 0.344540 
#    y 0.000000 3.267730 0.000000 
#    z 0.344540 0.000000 3.418750 
# 
# 
# High freq. dielectric constant tensor:
#      x y z
#    x 1.613750 0.000000 0.033540 
#    y 0.000000 1.663970 0.000000 
#    z 0.033540 0.000000 1.653840 
# 
# From -- ./inp_files/171385.got.cif
#   From: 2010.06.25/outbox.cif.g09.slc.cpg/sg12_86_cif.got.tgz:171385.got - 2010.06.28 00:19:55.
