data_PCOD8080020
_publ_section_title
;
Structure prediction by ZEFSAII (Michael W. Deem and Ramdas Pophale) SiO2 
 PCOD8080020
Probable space group: C 2/M
;
_chemical_formula_sum "Si O2"
_cell_formula_units_Z 64
_cell_length_a 32.487146
_cell_length_b 9.156550
_cell_length_c 13.868738
_cell_angle_alpha 90.000000
_cell_angle_beta 93.624005
_cell_angle_gamma 90.000000
_cell_volume 4117.286248
_symmetry_space_group_name_H-M "C 2/M"
_symmetry_group_IT_number 12
_symmetry_cell_setting 'monoclinic'
loop_
_space_group_symop_operation_xyz
x,y,z
-x,y,-z
-x,-y,-z
x,-y,z
1/2+x,1/2+y,z
1/2-x,1/2+y,-z
1/2-x,1/2-y,-z
1/2+x,1/2-y,z
loop_
_atom_site_type_symbol
_atom_site_label
_atom_site_fract_x
_atom_site_fract_y
_atom_site_fract_z
Si Si1 0.823288 0.671601 0.172998
Si Si2 0.108162 0.167242 0.699971
Si Si3 0.289563 0.833556 0.974486
Si Si4 0.285271 0.172719 0.565381
Si Si5 0.240796 0.669559 0.226423
Si Si6 0.968388 0.663526 0.357701
Si Si7 0.132849 0.167844 0.482637
Si Si8 0.056275 0.336087 0.424376
O O1 0.823980 0.500000 0.195749
O O2 0.863337 0.743613 0.223754
O O3 0.781793 0.736932 0.213573
O O4 0.825735 0.704863 0.056758
O O5 0.061506 0.227172 0.704192
O O6 0.124778 0.186620 0.594544
O O7 0.108080 0.000000 0.731967
O O8 0.295149 0.801501 0.860646
O O9 0.278050 0.000000 0.988134
O O10 0.250000 0.750000 0.000000
O O11 0.250000 0.250000 0.500000
O O12 0.279331 0.215072 0.675990
O O13 0.328825 0.232092 0.537459
O O14 0.283264 0.000000 0.547663
O O15 0.254308 0.500000 0.229642
O O16 0.963235 0.500000 0.315011
O O17 0.956141 0.663758 0.466756
O O18 0.016352 0.713719 0.355597
O O19 0.093847 0.223928 0.414126
O O20 0.141472 0.000000 0.456918
O O21 0.069859 0.500000 0.396007
#
# Coordination Sequence:
#
# PCOD8080020 Si02
#       8
#     8   8   8   8   8   8   8   8
#     4  10  18  27  43  64  83 106 135 168 207 249
#     4  10  19  28  39  58  86 116 141 167 202 243
#     4   8  15  28  44  61  79 100 130 167 207 250
#     4  11  22  33  45  60  81 111 144 177 210 241
#     4   9  18  32  46  59  79 107 138 173 211 247
#     4   8  14  25  41  60  81 106 136 169 204 242
#     4  10  20  31  42  58  82 113 146 176 204 237
#     4   8  14  26  43  60  79 105 137 172 207 241
#
# _framework density 15.544219
#
# number of rings (size 3 to 8) (size 9 to 14) (size 15 to 20)
#    0.000    2.750    0.000    3.000    0.000    6.500 
#    0.000    2.500    0.000    0.000    0.000    0.000 
#    0.000    1.000    0.000   11.500    0.000    3.750 
#
# Total GULP energy -396468.267433 kJ/mol
# GULP energy per Si atom -12389.633357 kJ/mol
# Density = 1.550884 g / cm^3
# Si number density = 15.544219 Si / 1000 Ang^3
#
#
#
# Elastic Constant Matrix: (Units=GPa)
#
#
# Indices 1 2 3 4 5 6 
#
# 1 91.2202 48.6504 39.8410 0.0000 23.1482 0.0000
# 2 48.6504 85.7765 45.5106 0.0000 15.1778 0.0000
# 3 39.8410 45.5106 78.6336 0.0000 16.8232 0.0000
# 4 0.0000 0.0000 0.0000 18.3736 0.0000 5.7342
# 5 23.1482 15.1778 16.8232 0.0000 20.5843 0.0000
# 6 0.0000 0.0000 0.0000 5.7342 0.0000 27.2730
#
#
#
# Elastic Compliance Matrix: (Units=1/GPa)
#
#
# Indices 1 2 3 4 5 6 
#
# 1 0.019659 -0.007124 -0.002704 0.000000 -0.014645 0.000000
# 2 -0.007124 0.019915 -0.007864 0.000000 -0.000245 0.000000
# 3 -0.002704 -0.007864 0.020296 0.000000 -0.007748 0.000000
# 4 0.000000 0.000000 0.000000 0.058248 0.000000 -0.012247
# 5 -0.014645 -0.000245 -0.007748 0.000000 0.071564 0.000000
# 6 0.000000 0.000000 0.000000 -0.012247 0.000000 0.039241
#
#
# Mechanical properties :
#
#
# Convention : Reuss Voigt Hill
#
# Bulk Modulus (GPa) = 40.83992 58.18160 49.51076
# Shear Modulus (GPa) = 18.35064 21.35473 19.85268
#
# Velocity S-wave (km/s) = 3.43963 3.71051 3.57764
# Velocity P-wave (km/s) = 6.48885 7.47450 6.99905
#
# Compressibility (1/GPa) = 0.02448585
#
# Stress axis : x y z
#
# Youngs Moduli (GPa) = 50.86605 50.21430 49.26960
#
# Poissons Ratio (x) = 0.35774 0.13324
# Poissons Ratio (y) = 0.36238 0.38745
# Poissons Ratio (z) = 0.13756 0.39488
#
# Static dielectric constant tensor:
#      x y z
#    x 3.045010 0.000000 0.331260 
#    y 0.000000 3.133160 0.000000 
#    z 0.331260 0.000000 3.305340 
# 
# 
# High freq. dielectric constant tensor:
#      x y z
#    x 1.574600 0.000000 0.030460 
#    y 0.000000 1.608910 0.000000 
#    z 0.030460 0.000000 1.571640 
# 
# From -- ./inp_files/248526.got.cif
#   From: 2010.06.25/outbox.cif.g09.slc.cpg/sg12_125_cif.got.tgz:248526.got - 2010.06.28 00:19:55.
