data_PCOD8080596
_publ_section_title
;
Structure prediction by ZEFSAII (Michael W. Deem and Ramdas Pophale) SiO2 
 PCOD8080596
Probable space group: C 2/M
;
_chemical_formula_sum "Si O2"
_cell_formula_units_Z 64
_cell_length_a 20.179809
_cell_length_b 8.980484
_cell_length_c 24.045909
_cell_angle_alpha 90.000000
_cell_angle_beta 53.739150
_cell_angle_gamma 90.000000
_cell_volume 3513.761019
_symmetry_space_group_name_H-M "C 2/M"
_symmetry_group_IT_number 12
_symmetry_cell_setting 'monoclinic'
loop_
_space_group_symop_operation_xyz
x,y,z
-x,y,-z
-x,-y,-z
x,-y,z
1/2+x,1/2+y,z
1/2-x,1/2+y,-z
1/2-x,1/2-y,-z
1/2+x,1/2-y,z
loop_
_atom_site_type_symbol
_atom_site_label
_atom_site_fract_x
_atom_site_fract_y
_atom_site_fract_z
Si Si1 0.151126 0.825893 0.297391
Si Si2 0.680208 0.173242 0.499213
Si Si3 0.194761 0.172683 0.152562
Si Si4 0.184491 0.328955 0.995288
Si Si5 0.561541 0.174955 0.142055
Si Si6 0.931499 0.825440 0.272213
Si Si7 0.515945 0.176266 0.641094
Si Si8 0.242583 0.326969 0.349566
O O1 0.194720 0.786742 0.217364
O O2 0.213475 0.774515 0.313710
O O3 0.066137 0.737826 0.346569
O O4 0.133075 0.000000 0.312222
O O5 0.750000 0.250000 0.500000
O O6 0.590842 0.224907 0.564101
O O7 0.688199 0.213661 0.430366
O O8 0.693733 0.000000 0.501999
O O9 0.288548 0.202047 0.082302
O O10 0.129227 0.275404 0.153723
O O11 0.169862 0.000000 0.155584
O O12 0.193938 0.500000 0.005163
O O13 0.250000 0.250000 0.000000
O O14 0.093404 0.283165 0.063039
O O15 0.476900 0.263475 0.194578
O O16 0.544682 0.000000 0.157233
O O17 0.973178 0.747285 0.304037
O O18 0.836230 0.784591 0.316460
O O19 0.946148 0.000000 0.270634
O O20 0.509809 0.000000 0.650419
O O21 0.234119 0.500000 0.337587
#
# Coordination Sequence:
#
# PCOD8080596 Si02
#       8
#     8   8   8   8   8   8   8   8
#     4  11  23  37  56  82 113 147 184 225 270 324
#     4  10  21  38  60  84 109 142 180 225 275 323
#     4   9  17  31  50  73 107 145 179 220 270 321
#     4   8  15  27  44  71 105 139 175 218 268 318
#     4  10  18  28  49  80 109 138 178 225 270 322
#     4  11  21  35  56  80 109 144 182 225 274 325
#     4  11  22  36  59  85 110 141 180 226 273 325
#     4  10  23  41  58  78 109 146 183 224 274 328
#
# _framework density 18.214099999999998
#
# number of rings (size 3 to 8) (size 9 to 14) (size 15 to 20)
#    0.000    2.000    2.500    1.500    0.000    3.500 
#    0.000    2.500    0.000    0.750    0.000    5.250 
#    0.000    0.000    0.000    0.000    0.000    0.000 
#
# Total GULP energy -396633.645488 kJ/mol
# GULP energy per Si atom -12394.801422 kJ/mol
# Density = 1.817264 g / cm^3
# Si number density = 18.214100 Si / 1000 Ang^3
#
#
#
# Elastic Constant Matrix: (Units=GPa)
#
#
# Indices 1 2 3 4 5 6 
#
# 1 47.2810 22.4450 24.0391 -0.0001 -1.9764 -0.0004
# 2 22.4450 56.3891 31.5478 -0.0002 -5.8980 -0.0011
# 3 24.0391 31.5478 129.9125 0.0000 -19.7280 0.0000
# 4 -0.0001 -0.0002 0.0000 26.5382 0.0000 -1.2527
# 5 -1.9764 -5.8980 -19.7280 0.0000 26.5024 -0.0001
# 6 -0.0004 -0.0011 0.0000 -1.2527 -0.0001 29.3130
#
#
#
# Elastic Compliance Matrix: (Units=1/GPa)
#
#
# Indices 1 2 3 4 5 6 
#
# 1 0.027032 -0.009267 -0.003110 0.000000 -0.002362 0.000000
# 2 -0.009267 0.023721 -0.003776 0.000000 0.001777 0.000001
# 3 -0.003110 -0.003776 0.010178 0.000000 0.006504 0.000000
# 4 0.000000 0.000000 0.000000 0.037758 0.000000 0.001614
# 5 -0.002362 0.001777 0.006504 0.000000 0.042793 0.000000
# 6 0.000000 0.000001 0.000000 0.001614 0.000000 0.034184
#
#
# Mechanical properties :
#
#
# Convention : Reuss Voigt Hill
#
# Bulk Modulus (GPa) = 34.93475 43.29404 39.11440
# Shear Modulus (GPa) = 22.98731 26.84076 24.91403
#
# Velocity S-wave (km/s) = 3.55640 3.84295 3.70245
# Velocity P-wave (km/s) = 6.00714 6.59637 6.30864
#
# Compressibility (1/GPa) = 0.02862479
#
# Stress axis : x y z
#
# Youngs Moduli (GPa) = 36.99346 42.15732 98.25537
#
# Poissons Ratio (x) = 0.39065 0.30561
# Poissons Ratio (y) = 0.34280 0.37098
# Poissons Ratio (z) = 0.11506 0.15917
#
# Static dielectric constant tensor:
#      x y z
#    x 3.101660 0.000000 -0.308040 
#    y 0.000000 3.354110 0.000000 
#    z -0.308040 0.000000 4.103770 
# 
# 
# High freq. dielectric constant tensor:
#      x y z
#    x 1.664980 0.000000 -0.020840 
#    y 0.000000 1.712320 0.000000 
#    z -0.020840 0.000000 1.730570 
# 
# From -- ./inp_files/319952.got.cif
#   From: 2010.06.25/outbox.cif.g09.slc.cpg/sg12_160_cif.got.tgz:319952.got - 2010.06.28 00:19:55.
