data_PCOD8080670
_publ_section_title
;
Structure prediction by ZEFSAII (Michael W. Deem and Ramdas Pophale) SiO2 
 PCOD8080670
Probable space group: C 2/M
;
_chemical_formula_sum "Si O2"
_cell_formula_units_Z 44
_cell_length_a 17.880430
_cell_length_b 13.733553
_cell_length_c 14.357503
_cell_angle_alpha 90.000000
_cell_angle_beta 52.240370
_cell_angle_gamma 90.000000
_cell_volume 2787.335631
_symmetry_space_group_name_H-M "C 2/M"
_symmetry_group_IT_number 12
_symmetry_cell_setting 'monoclinic'
loop_
_space_group_symop_operation_xyz
x,y,z
-x,y,-z
-x,-y,-z
x,-y,z
1/2+x,1/2+y,z
1/2-x,1/2+y,-z
1/2-x,1/2-y,-z
1/2+x,1/2-y,z
loop_
_atom_site_type_symbol
_atom_site_label
_atom_site_fract_x
_atom_site_fract_y
_atom_site_fract_z
Si Si1 0.145441 0.385055 0.398198
Si Si2 0.293232 0.608558 0.995566
Si Si3 0.336089 0.610032 0.176039
Si Si4 0.500000 0.743635 0.000000
Si Si5 0.505998 0.115214 0.345205
Si Si6 0.098784 0.702260 0.103195
O O1 0.143853 0.500000 0.387841
O O2 0.254429 0.349236 0.308350
O O3 0.084074 0.345164 0.358409
O O4 0.097336 0.356719 0.533532
O O5 0.322190 0.500000 0.940005
O O6 0.369768 0.686211 0.899632
O O7 0.289798 0.614175 0.109414
O O8 0.188944 0.631616 0.037170
O O9 0.366276 0.500000 0.178816
O O10 0.428498 0.676193 0.113749
O O11 0.554747 0.809238 0.033407
O O12 0.519696 0.171364 0.237887
O O13 0.514250 0.000000 0.321422
#
# Coordination Sequence:
#
# PCOD8080670 Si02
#       6
#     8   8   8   4   8   8
#     4   8  14  24  45  71  88 105 138 188 238 262
#     4   9  17  29  47  66  87 115 150 188 221 253
#     4   9  15  28  46  65  89 115 141 185 233 261
#     4  10  21  28  37  64  98 122 150 170 204 272
#     4   9  15  26  45  70  92 108 140 188 228 260
#     4  10  18  29  44  65  94 118 147 179 218 263
#
# _framework density 15.785685000000001
#
# number of rings (size 3 to 8) (size 9 to 14) (size 15 to 20)
#    0.000    2.909    1.818    1.909    0.000    0.727 
#    0.000    2.727    0.000    0.000    0.000    2.545 
#    0.000    0.000    0.000    0.000    0.000    0.000 
#
# Total GULP energy -272656.088669 kJ/mol
# GULP energy per Si atom -12393.458576 kJ/mol
# Density = 1.574976 g / cm^3
# Si number density = 15.785685 Si / 1000 Ang^3
#
#
#
# Elastic Constant Matrix: (Units=GPa)
#
#
# Indices 1 2 3 4 5 6 
#
# 1 56.5728 11.9338 16.6409 0.0000 -1.8134 0.0000
# 2 11.9338 56.9484 29.3845 0.0000 2.1365 0.0000
# 3 16.6409 29.3845 109.3161 0.0000 -11.8198 0.0000
# 4 0.0000 0.0000 0.0000 20.7671 0.0000 -1.8716
# 5 -1.8134 2.1365 -11.8198 0.0000 21.6518 0.0000
# 6 0.0000 0.0000 0.0000 -1.8716 0.0000 14.5048
#
#
#
# Elastic Compliance Matrix: (Units=1/GPa)
#
#
# Indices 1 2 3 4 5 6 
#
# 1 0.018914 -0.002962 -0.001998 0.000000 0.000786 0.000000
# 2 -0.002962 0.021444 -0.005918 0.000000 -0.005595 0.000000
# 3 -0.001998 -0.005918 0.011783 0.000000 0.006849 0.000000
# 4 0.000000 0.000000 0.000000 0.048720 0.000000 0.006287
# 5 0.000786 -0.005595 0.006849 0.000000 0.050543 0.000000
# 6 0.000000 0.000000 0.000000 0.006287 0.000000 0.069754
#
#
# Mechanical properties :
#
#
# Convention : Reuss Voigt Hill
#
# Bulk Modulus (GPa) = 32.91126 37.63952 35.27539
# Shear Modulus (GPa) = 19.75952 22.37662 21.06807
#
# Velocity S-wave (km/s) = 3.54183 3.76909 3.65722
# Velocity P-wave (km/s) = 6.13352 6.54502 6.34261
#
# Compressibility (1/GPa) = 0.03038474
#
# Stress axis : x y z
#
# Youngs Moduli (GPa) = 52.87068 46.63289 84.86537
#
# Poissons Ratio (x) = 0.13813 0.16957
# Poissons Ratio (y) = 0.15661 0.50226
# Poissons Ratio (z) = 0.10564 0.27599
#
# Static dielectric constant tensor:
#      x y z
#    x 2.830730 0.000000 -0.218730 
#    y 0.000000 2.850450 0.000000 
#    z -0.218730 0.000000 3.223080 
# 
# 
# High freq. dielectric constant tensor:
#      x y z
#    x 1.585530 0.000000 -0.018010 
#    y 0.000000 1.574600 0.000000 
#    z -0.018010 0.000000 1.603240 
# 
# From -- ./inp_files/224197.got.cif
#   From: 2010.06.25/outbox.cif.g09.slc.cpg/sg12_113_cif.got.tgz:224197.got - 2010.06.28 00:19:55.
