data_PCOD8080751
_publ_section_title
;
Structure prediction by ZEFSAII (Michael W. Deem and Ramdas Pophale) SiO2 
 PCOD8080751
Probable space group: C 2/M
;
_chemical_formula_sum "Si O2"
_cell_formula_units_Z 64
_cell_length_a 27.640591
_cell_length_b 21.065108
_cell_length_c 8.065499
_cell_angle_alpha 90.000000
_cell_angle_beta 117.323378
_cell_angle_gamma 90.000000
_cell_volume 4172.203480
_symmetry_space_group_name_H-M "C 2/M"
_symmetry_group_IT_number 12
_symmetry_cell_setting 'monoclinic'
loop_
_space_group_symop_operation_xyz
x,y,z
-x,y,-z
-x,-y,-z
x,-y,z
1/2+x,1/2+y,z
1/2-x,1/2+y,-z
1/2-x,1/2-y,-z
1/2+x,1/2-y,z
loop_
_atom_site_type_symbol
_atom_site_label
_atom_site_fract_x
_atom_site_fract_y
_atom_site_fract_z
Si Si1 0.116200 0.132741 0.378876
Si Si2 0.716887 0.572542 0.105422
Si Si3 0.676837 0.244394 0.536482
Si Si4 0.290173 0.181384 0.728249
Si Si5 0.286680 0.811316 0.084783
Si Si6 0.989078 0.931014 0.672114
Si Si7 0.899532 0.925997 0.989438
Si Si8 0.274575 0.428666 0.490002
O O1 0.128502 0.204742 0.452262
O O2 0.061473 0.115414 0.388253
O O3 0.106180 0.123612 0.168503
O O4 0.168265 0.089618 0.507833
O O5 0.734822 0.500000 0.087207
O O6 0.751053 0.624743 0.058199
O O7 0.652093 0.582080 0.967103
O O8 0.723856 0.584912 0.311823
O O9 0.669777 0.204718 0.354619
O O10 0.735911 0.276148 0.636694
O O11 0.672125 0.200227 0.695186
O O12 0.274970 0.109181 0.667010
O O13 0.317728 0.182016 0.955568
O O14 0.250000 0.750000 0.000000
O O15 0.000000 0.940648 0.500000
O O16 0.975011 0.000000 0.729672
O O17 0.044453 0.904483 0.838447
O O18 0.900455 0.000000 0.930265
O O19 0.261606 0.500000 0.425780
#
# Coordination Sequence:
#
# PCOD8080751 Si02
#       8
#     8   8   8   8   8   8   8   8
#     4  10  18  29  46  61  80 115 151 191 229 268
#     4   9  17  30  45  65  90 118 153 197 230 264
#     4   9  18  31  41  61  86 108 149 186 217 270
#     4   9  17  28  43  59  83 114 139 183 224 259
#     4  10  19  28  45  64  89 118 148 188 228 272
#     4  10  20  32  43  60  88 114 146 197 242 271
#     4   9  18  30  47  63  81 113 153 194 232 272
#     4   9  16  27  45  64  85 113 151 191 227 267
#
# _framework density 15.339617000000001
#
# number of rings (size 3 to 8) (size 9 to 14) (size 15 to 20)
#    0.000    2.625    1.250    2.250    5.250    4.500 
#    0.000    1.250    0.000    0.000    0.000    0.000 
#    0.000    0.000    0.000    0.000    0.000   21.250 
#
# Total GULP energy -396428.400425 kJ/mol
# GULP energy per Si atom -12388.387513 kJ/mol
# Density = 1.530470 g / cm^3
# Si number density = 15.339617 Si / 1000 Ang^3
#
#
#
# Elastic Constant Matrix: (Units=GPa)
#
#
# Indices 1 2 3 4 5 6 
#
# 1 44.7249 36.9357 39.7512 0.0000 -4.9346 0.0000
# 2 36.9357 86.6381 45.8546 0.0000 -2.7817 0.0000
# 3 39.7512 45.8546 78.4179 0.0000 -11.7900 0.0000
# 4 0.0000 0.0000 0.0000 26.7679 0.0000 5.2633
# 5 -4.9346 -2.7817 -11.7900 0.0000 17.3753 0.0000
# 6 0.0000 0.0000 0.0000 5.2633 0.0000 27.0462
#
#
#
# Elastic Compliance Matrix: (Units=1/GPa)
#
#
# Indices 1 2 3 4 5 6 
#
# 1 0.046641 -0.010653 -0.017460 0.000000 -0.000307 0.000000
# 2 -0.010653 0.019457 -0.006641 0.000000 -0.004417 0.000000
# 3 -0.017460 -0.006641 0.027374 0.000000 0.012552 0.000000
# 4 0.000000 0.000000 0.000000 0.038844 0.000000 -0.007559
# 5 -0.000307 -0.004417 0.012552 0.000000 0.065276 0.000000
# 6 0.000000 0.000000 0.000000 -0.007559 0.000000 0.038445
#
#
# Mechanical properties :
#
#
# Convention : Reuss Voigt Hill
#
# Bulk Modulus (GPa) = 41.73059 50.54044 46.13552
# Shear Modulus (GPa) = 15.94725 20.05383 18.00054
#
# Velocity S-wave (km/s) = 3.22780 3.61961 3.42931
# Velocity P-wave (km/s) = 6.41522 7.10549 6.76916
#
# Compressibility (1/GPa) = 0.02396324
#
# Stress axis : x y z
#
# Youngs Moduli (GPa) = 21.44035 51.39495 36.53156
#
# Poissons Ratio (x) = 0.54751 0.63783
# Poissons Ratio (y) = 0.22841 0.24262
# Poissons Ratio (z) = 0.37434 0.34133
#
# Static dielectric constant tensor:
#      x y z
#    x 2.708610 0.000000 -0.144320 
#    y 0.000000 2.940850 0.000000 
#    z -0.144320 0.000000 3.198050 
# 
# 
# High freq. dielectric constant tensor:
#      x y z
#    x 1.538300 0.000000 -0.023640 
#    y 0.000000 1.574700 0.000000 
#    z -0.023640 0.000000 1.591400 
# 
# From -- ./inp_files/112331.got.cif
#   From: 2010.06.25/outbox.cif.g09.slc.cpg/sg12_57_cif.got.tgz:112331.got - 2010.06.28 00:19:55.
