data_PCOD8080219
_publ_section_title
;
Structure prediction by ZEFSAII (Michael W. Deem and Ramdas Pophale) SiO2 
 PCOD8080219
Probable space group: C 2/M
;
_chemical_formula_sum "Si O2"
_cell_formula_units_Z 56
_cell_length_a 28.698826
_cell_length_b 8.913843
_cell_length_c 17.582688
_cell_angle_alpha 90.000000
_cell_angle_beta 50.583586
_cell_angle_gamma 90.000000
_cell_volume 3474.897006
_symmetry_space_group_name_H-M "C 2/M"
_symmetry_group_IT_number 12
_symmetry_cell_setting 'monoclinic'
loop_
_space_group_symop_operation_xyz
x,y,z
-x,y,-z
-x,-y,-z
x,-y,z
1/2+x,1/2+y,z
1/2-x,1/2+y,-z
1/2-x,1/2-y,-z
1/2+x,1/2-y,z
loop_
_atom_site_type_symbol
_atom_site_label
_atom_site_fract_x
_atom_site_fract_y
_atom_site_fract_z
Si Si1 0.567722 0.165403 0.900097
Si Si2 0.098007 0.322188 0.031106
Si Si3 0.028738 0.176534 0.799441
Si Si4 0.570358 0.833956 0.445094
Si Si5 0.967990 0.677142 0.355546
Si Si6 0.088905 0.171969 0.280587
Si Si7 0.313635 0.674090 0.946254
O O1 0.572413 0.279797 0.824629
O O2 0.587211 0.000000 0.851304
O O3 0.500000 0.159460 0.000000
O O4 0.607834 0.215831 0.931061
O O5 0.092773 0.500000 0.049078
O O6 0.154804 0.255536 0.015811
O O7 0.037239 0.247661 0.125134
O O8 0.058345 0.238640 0.691083
O O9 0.021798 0.000000 0.802771
O O10 0.500000 0.839708 0.500000
O O11 0.575332 0.780517 0.527980
O O12 0.603446 0.721517 0.352550
O O13 0.598499 0.000000 0.405941
O O14 0.968545 0.500000 0.341299
O O15 0.036607 0.727530 0.298866
O O16 0.148916 0.195950 0.169803
O O17 0.067514 0.000000 0.302195
O O18 0.305739 0.500000 0.974646
O O19 0.250000 0.750000 0.000000
#
# Coordination Sequence:
#
# PCOD8080219 Si02
#       7
#     8   8   8   8   8   8   8
#     4   8  16  29  43  61  84 115 150 179 218 269
#     4  10  19  32  48  62  84 118 151 187 228 267
#     4  11  19  26  41  66  92 119 150 183 221 264
#     4   8  16  28  42  61  83 114 150 178 215 268
#     4  10  18  28  43  62  88 121 152 180 216 266
#     4  10  19  30  44  63  86 113 147 188 229 265
#     4  11  23  35  48  67  89 117 156 194 229 267
#
# _framework density 16.115584999999999
#
# number of rings (size 3 to 8) (size 9 to 14) (size 15 to 20)
#    0.000    2.286    1.429    4.714    0.000    8.000 
#    0.000    0.000    0.000    0.000    0.000    0.000 
#    0.000    1.143    0.000    3.714    0.000    4.571 
#
# Total GULP energy -347078.567885 kJ/mol
# GULP energy per Si atom -12395.663139 kJ/mol
# Density = 1.607891 g / cm^3
# Si number density = 16.115585 Si / 1000 Ang^3
#
#
#
# Elastic Constant Matrix: (Units=GPa)
#
#
# Indices 1 2 3 4 5 6 
#
# 1 83.7662 50.3911 49.6900 0.0000 25.8264 -0.0001
# 2 50.3911 114.6400 53.1934 -0.0006 21.4963 -0.0001
# 3 49.6900 53.1934 81.0748 -0.0003 30.8231 0.0000
# 4 0.0000 -0.0006 -0.0003 25.7709 0.0001 5.2117
# 5 25.8264 21.4963 30.8231 0.0001 28.7403 0.0000
# 6 -0.0001 -0.0001 0.0000 5.2117 0.0000 19.0462
#
#
#
# Elastic Compliance Matrix: (Units=1/GPa)
#
#
# Indices 1 2 3 4 5 6 
#
# 1 0.021394 -0.004639 -0.006887 0.000000 -0.008370 0.000000
# 2 -0.004639 0.013562 -0.006388 0.000000 0.000876 0.000000
# 3 -0.006887 -0.006388 0.027989 0.000000 -0.019051 0.000000
# 4 0.000000 0.000000 0.000000 0.041077 0.000000 -0.011240
# 5 -0.008370 0.000876 -0.019051 0.000000 0.062092 0.000000
# 6 0.000000 0.000000 0.000000 -0.011240 0.000000 0.055580
#
#
# Mechanical properties :
#
#
# Convention : Reuss Voigt Hill
#
# Bulk Modulus (GPa) = 36.87566 65.11446 50.99506
# Shear Modulus (GPa) = 18.75753 23.12524 20.94139
#
# Velocity S-wave (km/s) = 3.41535 3.79220 3.60870
# Velocity P-wave (km/s) = 6.20359 7.72442 7.00540
#
# Compressibility (1/GPa) = 0.02711816
#
# Stress axis : x y z
#
# Youngs Moduli (GPa) = 46.74100 73.73637 35.72861
#
# Poissons Ratio (x) = 0.34209 0.24605
# Poissons Ratio (y) = 0.21685 0.22822
# Poissons Ratio (z) = 0.32189 0.47099
#
# Static dielectric constant tensor:
#      x y z
#    x 2.965580 0.000000 0.592670 
#    y 0.000000 3.172540 0.000000 
#    z 0.592670 0.000000 3.241670 
# 
# 
# High freq. dielectric constant tensor:
#      x y z
#    x 1.578170 0.000000 0.048990 
#    y 0.000000 1.633590 0.000000 
#    z 0.048990 0.000000 1.602220 
# 
# From -- ./inp_files/291435.got.cif
#   From: 2010.06.25/outbox.cif.g09.slc.cpg/sg12_146_cif.got.tgz:291435.got - 2010.06.28 00:19:55.
