data_PCOD8080206
_publ_section_title
;
Structure prediction by ZEFSAII (Michael W. Deem and Ramdas Pophale) SiO2 
 PCOD8080206
Probable space group: C 2/M
;
_chemical_formula_sum "Si O2"
_cell_formula_units_Z 56
_cell_length_a 27.454265
_cell_length_b 9.020940
_cell_length_c 16.285151
_cell_angle_alpha 90.000000
_cell_angle_beta 63.598021
_cell_angle_gamma 90.000000
_cell_volume 3612.553064
_symmetry_space_group_name_H-M "C 2/M"
_symmetry_group_IT_number 12
_symmetry_cell_setting 'monoclinic'
loop_
_space_group_symop_operation_xyz
x,y,z
-x,y,-z
-x,-y,-z
x,-y,z
1/2+x,1/2+y,z
1/2-x,1/2+y,-z
1/2-x,1/2-y,-z
1/2+x,1/2-y,z
loop_
_atom_site_type_symbol
_atom_site_label
_atom_site_fract_x
_atom_site_fract_y
_atom_site_fract_z
Si Si1 0.014230 0.676220 0.860244
Si Si2 0.058540 0.832991 0.497395
Si Si3 0.510393 0.825779 0.679564
Si Si4 0.582889 0.824821 0.956158
Si Si5 0.813152 0.672326 0.029266
Si Si6 0.689484 0.327435 0.138468
Si Si7 0.104199 0.326153 0.314777
O O1 0.012115 0.500000 0.855546
O O2 0.065168 0.731013 0.878464
O O3 0.019395 0.739196 0.764312
O O4 0.958781 0.736424 0.943615
O O5 0.100151 0.743939 0.408483
O O6 0.000000 0.830251 0.500000
O O7 0.054386 0.754765 0.588922
O O8 0.080016 0.000000 0.492719
O O9 0.448889 0.787942 0.699150
O O10 0.521341 0.000000 0.664853
O O11 0.644228 0.776227 0.932426
O O12 0.577470 0.000000 0.959984
O O13 0.821043 0.500000 0.999967
O O14 0.753089 0.702492 0.108618
O O15 0.826064 0.767000 0.939143
O O16 0.674939 0.500000 0.152989
O O17 0.656740 0.241796 0.232373
O O18 0.112398 0.500000 0.318566
#
# Coordination Sequence:
#
# PCOD8080206 Si02
#       7
#     8   8   8   8   8   8   8
#     4   8  13  21  38  63  85 105 134 170 202 235
#     4   9  17  28  41  59  84 111 136 164 201 244
#     4   9  16  26  41  62  85 109 137 167 201 242
#     4   8  13  23  39  60  84 108 136 170 203 233
#     4   9  17  29  43  59  82 111 141 171 202 239
#     4  10  19  28  40  60  84 110 140 171 204 241
#     4  10  18  28  43  61  83 110 138 168 201 241
#
# _framework density 15.501502
#
# number of rings (size 3 to 8) (size 9 to 14) (size 15 to 20)
#    0.000    3.000    0.000    3.000    0.000    5.143 
#    0.000    0.000    0.000    0.857    0.000    4.000 
#    0.000    0.000    0.000    0.000    0.000    0.000 
#
# Total GULP energy -347080.958560 kJ/mol
# GULP energy per Si atom -12395.748520 kJ/mol
# Density = 1.546622 g / cm^3
# Si number density = 15.501502 Si / 1000 Ang^3
#
#
#
# Elastic Constant Matrix: (Units=GPa)
#
#
# Indices 1 2 3 4 5 6 
#
# 1 90.4165 28.3616 55.9851 0.0000 7.6216 0.0000
# 2 28.3616 58.4050 49.7507 0.0000 -3.1723 0.0000
# 3 55.9851 49.7507 143.8577 0.0000 7.4835 0.0000
# 4 0.0000 0.0000 0.0000 25.8559 0.0000 -4.5324
# 5 7.6216 -3.1723 7.4835 0.0000 23.2408 0.0000
# 6 0.0000 0.0000 0.0000 -4.5324 0.0000 11.9892
#
#
#
# Elastic Compliance Matrix: (Units=1/GPa)
#
#
# Indices 1 2 3 4 5 6 
#
# 1 0.015373 -0.003940 -0.004404 0.000000 -0.004161 0.000000
# 2 -0.003940 0.026169 -0.007902 0.000000 0.007409 0.000000
# 3 -0.004404 -0.007902 0.011573 0.000000 -0.003361 0.000000
# 4 0.000000 0.000000 0.000000 0.041421 0.000000 0.015659
# 5 -0.004161 0.007409 -0.003361 0.000000 0.046486 0.000000
# 6 0.000000 0.000000 0.000000 0.015659 0.000000 0.089328
#
#
# Mechanical properties :
#
#
# Convention : Reuss Voigt Hill
#
# Bulk Modulus (GPa) = 48.48960 62.31935 55.40448
# Shear Modulus (GPa) = 18.53806 22.78930 20.66368
#
# Velocity S-wave (km/s) = 3.46191 3.83839 3.65500
# Velocity P-wave (km/s) = 6.87956 7.74169 7.32332
#
# Compressibility (1/GPa) = 0.02062298
#
# Stress axis : x y z
#
# Youngs Moduli (GPa) = 65.04729 38.21363 86.41012
#
# Poissons Ratio (x) = 0.15057 0.38053
# Poissons Ratio (y) = 0.25630 0.68281
# Poissons Ratio (z) = 0.28645 0.30196
#
# Static dielectric constant tensor:
#      x y z
#    x 2.959470 0.000000 0.105710 
#    y 0.000000 2.828970 0.000000 
#    z 0.105710 0.000000 3.063030 
# 
# 
# High freq. dielectric constant tensor:
#      x y z
#    x 1.566470 0.000000 0.002620 
#    y 0.000000 1.578250 0.000000 
#    z 0.002620 0.000000 1.592670 
# 
# From -- ./inp_files/248143.got.cif
#   From: 2010.06.25/outbox.cif.g09.slc.cpg/sg12_125_cif.got.tgz:248143.got - 2010.06.28 00:19:55.
