data_PCOD8080134
_publ_section_title
;
Structure prediction by ZEFSAII (Michael W. Deem and Ramdas Pophale) SiO2 
 PCOD8080134
Probable space group: C 2/M
;
_chemical_formula_sum "Si O2"
_cell_formula_units_Z 56
_cell_length_a 23.923006
_cell_length_b 20.139881
_cell_length_c 14.002965
_cell_angle_alpha 90.000000
_cell_angle_beta 29.996727
_cell_angle_gamma 90.000000
_cell_volume 3373.025961
_symmetry_space_group_name_H-M "C 2/M"
_symmetry_group_IT_number 12
_symmetry_cell_setting 'monoclinic'
loop_
_space_group_symop_operation_xyz
x,y,z
-x,y,-z
-x,-y,-z
x,-y,z
1/2+x,1/2+y,z
1/2-x,1/2+y,-z
1/2-x,1/2-y,-z
1/2+x,1/2-y,z
loop_
_atom_site_type_symbol
_atom_site_label
_atom_site_fract_x
_atom_site_fract_y
_atom_site_fract_z
Si Si1 0.193882 0.573799 0.488606
Si Si2 0.610157 0.175152 0.900490
Si Si3 0.563954 0.922981 0.128503
Si Si4 0.032790 0.181971 0.060012
Si Si5 0.901032 0.421765 0.710771
Si Si6 0.291714 0.575400 0.141581
Si Si7 0.708144 0.681157 0.523631
O O1 0.228498 0.500000 0.470385
O O2 0.208538 0.581805 0.353953
O O3 0.272341 0.624128 0.427825
O O4 0.065926 0.587712 0.701384
O O5 0.725496 0.166790 0.671597
O O6 0.500000 0.160137 0.000000
O O7 0.627936 0.121210 0.956627
O O8 0.600252 0.248715 0.959707
O O9 0.594764 0.894568 0.187461
O O10 0.598796 0.000000 0.065426
O O11 0.925522 0.187531 0.288736
O O12 0.105082 0.124432 0.000575
O O13 0.000000 0.162976 0.000000
O O14 0.921846 0.500000 0.684267
O O15 0.780291 0.404651 0.844823
O O16 0.000000 0.389704 0.500000
O O17 0.337402 0.500000 0.065011
O O18 0.750000 0.750000 0.500000
#
# Coordination Sequence:
#
# PCOD8080134 Si02
#       7
#     8   8   8   8   8   8   8
#     4  10  18  27  48  78 104 129 166 212 252 300
#     4  11  21  34  52  75 103 138 172 207 256 311
#     4  10  19  32  51  78 107 134 170 215 259 302
#     4  11  21  34  52  75 103 138 172 207 256 311
#     4   9  16  30  53  79 105 135 172 215 260 300
#     4  10  19  32  51  78 107 134 170 215 259 302
#     4  12  20  34  51  72 104 140 173 203 248 317
#
# _framework density 16.602302999999999
#
# number of rings (size 3 to 8) (size 9 to 14) (size 15 to 20)
#    0.000    1.571    7.143    0.000    0.000    1.714 
#    0.000    0.714    0.000    0.857    0.000    3.000 
#    0.000    0.000    0.000    0.000    0.000    0.000 
#
# Total GULP energy -347160.966739 kJ/mol
# GULP energy per Si atom -12398.605955 kJ/mol
# Density = 1.656452 g / cm^3
# Si number density = 16.602303 Si / 1000 Ang^3
#
#
#
# Elastic Constant Matrix: (Units=GPa)
#
#
# Indices 1 2 3 4 5 6 
#
# 1 66.7563 48.7423 34.2809 0.0001 7.9273 0.0000
# 2 48.7423 84.2994 31.2795 0.0001 3.3697 -0.0001
# 3 34.2809 31.2795 106.7125 0.0002 3.7334 -0.0001
# 4 0.0001 0.0001 0.0002 22.0906 -0.0001 1.5622
# 5 7.9273 3.3697 3.7334 -0.0001 21.1704 0.0000
# 6 0.0000 -0.0001 -0.0001 1.5622 0.0000 18.4672
#
#
#
# Elastic Compliance Matrix: (Units=1/GPa)
#
#
# Indices 1 2 3 4 5 6 
#
# 1 0.029118 -0.014762 -0.004757 0.000000 -0.007715 0.000000
# 2 -0.014762 0.020838 -0.001452 0.000000 0.002467 0.000000
# 3 -0.004757 -0.001452 0.011324 0.000000 0.000015 0.000000
# 4 0.000000 0.000000 0.000000 0.045540 0.000000 -0.003852
# 5 -0.007715 0.002467 0.000015 0.000000 0.049729 0.000000
# 6 0.000000 0.000000 0.000000 -0.003852 0.000000 0.054476
#
#
# Mechanical properties :
#
#
# Convention : Reuss Voigt Hill
#
# Bulk Modulus (GPa) = 51.71332 54.04150 52.87741
# Shear Modulus (GPa) = 19.27422 21.91005 20.59213
#
# Velocity S-wave (km/s) = 3.41095 3.63671 3.52564
# Velocity P-wave (km/s) = 6.83584 7.08911 6.96362
#
# Compressibility (1/GPa) = 0.01933738
#
# Stress axis : x y z
#
# Youngs Moduli (GPa) = 34.34356 47.98840 88.30675
#
# Poissons Ratio (x) = 0.70843 0.42006
# Poissons Ratio (y) = 0.50700 0.12823
# Poissons Ratio (z) = 0.16337 0.06968
#
# Static dielectric constant tensor:
#      x y z
#    x 2.951920 0.000000 0.261790 
#    y 0.000000 3.081480 0.000000 
#    z 0.261790 0.000000 1.827970 
# 
# 
# High freq. dielectric constant tensor:
#      x y z
#    x 1.615120 0.000000 0.002590 
#    y 0.000000 1.633310 0.000000 
#    z 0.002590 0.000000 1.636340 
# 
# From -- ./inp_files/177883.got.cif
#   From: 2010.06.25/outbox.cif.g09.slc.cpg/sg12_89_cif.got.tgz:177883.got - 2010.06.28 00:19:55.
