data_PCOD8080797
_publ_section_title
;
Structure prediction by ZEFSAII (Michael W. Deem and Ramdas Pophale) SiO2 
 PCOD8080797
Probable space group: C 2/M
;
_chemical_formula_sum "Si O2"
_cell_formula_units_Z 52
_cell_length_a 22.756599
_cell_length_b 9.159100
_cell_length_c 14.462319
_cell_angle_alpha 90.000000
_cell_angle_beta 92.344335
_cell_angle_gamma 90.000000
_cell_volume 3011.857747
_symmetry_space_group_name_H-M "C 2/M"
_symmetry_group_IT_number 12
_symmetry_cell_setting 'monoclinic'
loop_
_space_group_symop_operation_xyz
x,y,z
-x,y,-z
-x,-y,-z
x,-y,z
1/2+x,1/2+y,z
1/2-x,1/2+y,-z
1/2-x,1/2-y,-z
1/2+x,1/2-y,z
loop_
_atom_site_type_symbol
_atom_site_label
_atom_site_fract_x
_atom_site_fract_y
_atom_site_fract_z
Si Si1 0.424397 0.836549 0.664423
Si Si2 0.570145 0.335538 0.510767
Si Si3 0.597108 0.336930 0.868707
Si Si4 0.000000 0.762646 0.000000
Si Si5 0.937542 0.336473 0.313403
Si Si6 0.902178 0.334703 0.862230
Si Si7 0.187372 0.324922 0.993468
O O1 0.401528 0.735218 0.579663
O O2 0.493975 0.849080 0.663904
O O3 0.406987 0.759111 0.761577
O O4 0.397908 0.000000 0.651247
O O5 0.500000 0.336605 0.500000
O O6 0.594270 0.500000 0.521960
O O7 0.592163 0.241977 0.600176
O O8 0.619830 0.500000 0.847556
O O9 0.546137 0.355865 0.942952
O O10 0.571894 0.262004 0.776531
O O11 0.651299 0.236504 0.904285
O O12 0.962517 0.667501 0.925035
O O13 0.911063 0.500000 0.299123
O O14 0.889207 0.500000 0.837306
O O15 0.847275 0.272103 0.916664
O O16 0.192029 0.500000 0.986369
O O17 0.250000 0.250000 0.000000
#
# Coordination Sequence:
#
# PCOD8080797 Si02
#       7
#     8   8   8   4   8   8   8
#     4   9  16  28  44  67  95 128 165 198 234 286
#     4   9  17  28  41  62  94 131 162 196 238 283
#     4  11  21  32  48  72 101 131 162 200 245 292
#     4  10  18  30  44  70 101 132 159 198 241 292
#     4  10  18  29  46  68  95 130 166 199 236 285
#     4   9  17  29  49  72  97 129 164 201 243 289
#     4  10  21  37  54  71  95 128 168 209 247 289
#
# _framework density 17.265091999999999
#
# number of rings (size 3 to 8) (size 9 to 14) (size 15 to 20)
#    0.000    2.308    1.538    2.308    0.000    3.692 
#    0.000    1.538    0.000    0.000    0.000    1.077 
#    0.000    0.000    0.000    0.000    0.000    0.000 
#
# Total GULP energy -322188.635070 kJ/mol
# GULP energy per Si atom -12391.870580 kJ/mol
# Density = 1.722580 g / cm^3
# Si number density = 17.265092 Si / 1000 Ang^3
#
#
#
# Elastic Constant Matrix: (Units=GPa)
#
#
# Indices 1 2 3 4 5 6 
#
# 1 60.7662 22.2418 18.9310 0.0000 -3.1617 0.0000
# 2 22.2418 115.0587 52.9494 0.0000 -1.3816 0.0000
# 3 18.9310 52.9494 125.4511 0.0000 -8.5796 0.0000
# 4 0.0000 0.0000 0.0000 19.4047 0.0000 1.4675
# 5 -3.1617 -1.3816 -8.5796 0.0000 12.8230 0.0000
# 6 0.0000 0.0000 0.0000 1.4675 0.0000 16.7367
#
#
#
# Elastic Compliance Matrix: (Units=1/GPa)
#
#
# Indices 1 2 3 4 5 6 
#
# 1 0.018078 -0.002858 -0.001297 0.000000 0.003281 0.000000
# 2 -0.002858 0.011286 -0.004503 0.000000 -0.002502 0.000000
# 3 -0.001297 -0.004503 0.010493 0.000000 0.006215 0.000000
# 4 0.000000 0.000000 0.000000 0.051878 0.000000 -0.004549
# 5 0.003281 -0.002502 0.006215 0.000000 0.082683 0.000000
# 6 0.000000 0.000000 0.000000 -0.004549 0.000000 0.060148
#
#
# Mechanical properties :
#
#
# Convention : Reuss Voigt Hill
#
# Bulk Modulus (GPa) = 44.36751 54.39117 49.37934
# Shear Modulus (GPa) = 19.27556 23.60312 21.43934
#
# Velocity S-wave (km/s) = 3.34495 3.70144 3.52770
# Velocity P-wave (km/s) = 6.37745 7.05971 6.72724
#
# Compressibility (1/GPa) = 0.02253902
#
# Stress axis : x y z
#
# Youngs Moduli (GPa) = 55.31730 88.60463 95.30345
#
# Poissons Ratio (x) = 0.25325 0.12363
# Poissons Ratio (y) = 0.15811 0.42918
# Poissons Ratio (z) = 0.07176 0.39902
#
# Static dielectric constant tensor:
#      x y z
#    x 2.782030 0.000000 -0.126190 
#    y 0.000000 3.295200 0.000000 
#    z -0.126190 0.000000 3.581160 
# 
# 
# High freq. dielectric constant tensor:
#      x y z
#    x 1.603320 0.000000 -0.006060 
#    y 0.000000 1.668390 0.000000 
#    z -0.006060 0.000000 1.680350 
# 
# From -- ./inp_files/236755.got.cif
#   From: 2010.06.25/outbox.cif.g09.slc.cpg/sg12_119_cif.got.tgz:236755.got - 2010.06.28 00:19:55.
