data_PCOD8080432
_publ_section_title
;
Structure prediction by ZEFSAII (Michael W. Deem and Ramdas Pophale) SiO2 
 PCOD8080432
Probable space group: C 2/M
;
_chemical_formula_sum "Si O2"
_cell_formula_units_Z 64
_cell_length_a 25.793216
_cell_length_b 9.131594
_cell_length_c 21.297088
_cell_angle_alpha 90.000000
_cell_angle_beta 127.658862
_cell_angle_gamma 90.000000
_cell_volume 3971.113811
_symmetry_space_group_name_H-M "C 2/M"
_symmetry_group_IT_number 12
_symmetry_cell_setting 'monoclinic'
loop_
_space_group_symop_operation_xyz
x,y,z
-x,y,-z
-x,-y,-z
x,-y,z
1/2+x,1/2+y,z
1/2-x,1/2+y,-z
1/2-x,1/2-y,-z
1/2+x,1/2-y,z
loop_
_atom_site_type_symbol
_atom_site_label
_atom_site_fract_x
_atom_site_fract_y
_atom_site_fract_z
Si Si1 0.504297 0.826268 0.813959
Si Si2 0.151811 0.327809 0.908914
Si Si3 0.108492 0.166829 0.332039
Si Si4 0.233670 0.172959 0.340947
Si Si5 0.544457 0.173870 0.088531
Si Si6 0.755860 0.329035 0.909870
Si Si7 0.300208 0.669834 0.492495
Si Si8 0.193520 0.327209 0.188888
O O1 0.577470 0.769867 0.854409
O O2 0.455170 0.765993 0.724959
O O3 0.482049 0.764661 0.865140
O O4 0.501230 0.000000 0.810476
O O5 0.154147 0.500000 0.900165
O O6 0.189272 0.253474 0.878742
O O7 0.185429 0.283723 0.999767
O O8 0.167069 0.215558 0.328527
O O9 0.129460 0.184337 0.420835
O O10 0.089798 0.000000 0.303432
O O11 0.295934 0.248749 0.422101
O O12 0.232383 0.238159 0.270375
O O13 0.245009 0.000000 0.347446
O O14 0.618530 0.225520 0.133059
O O15 0.539590 0.000000 0.084026
O O16 0.500000 0.240246 0.000000
O O17 0.741833 0.500000 0.904280
O O18 0.775555 0.282920 0.854590
O O19 0.280745 0.500000 0.470378
O O20 0.250000 0.750000 0.500000
O O21 0.198951 0.500000 0.206257
#
# Coordination Sequence:
#
# PCOD8080432 Si02
#       8
#     8   8   8   8   8   8   8   8
#     4  10  18  28  46  69  91 121 157 191 229 274
#     4   9  18  32  48  68  92 119 158 203 238 273
#     4   9  18  30  43  64  95 125 151 186 227 273
#     4  10  19  30  44  66  96 127 156 190 230 278
#     4   9  16  26  42  65  91 119 152 189 228 270
#     4   9  18  32  49  68  90 120 160 201 239 276
#     4   9  17  29  45  65  91 125 159 190 227 272
#     4  10  18  29  47  69  92 122 158 195 232 278
#
# _framework density 16.116385999999999
#
# number of rings (size 3 to 8) (size 9 to 14) (size 15 to 20)
#    0.000    2.625    1.250    2.250    0.000    6.500 
#    0.000    0.000    0.000    3.000    0.000    0.875 
#    0.000    7.000    0.000    0.000    0.000    0.000 
#
# Total GULP energy -396734.362851 kJ/mol
# GULP energy per Si atom -12397.948839 kJ/mol
# Density = 1.607970 g / cm^3
# Si number density = 16.116386 Si / 1000 Ang^3
#
#
#
# Elastic Constant Matrix: (Units=GPa)
#
#
# Indices 1 2 3 4 5 6 
#
# 1 106.0176 37.1132 61.3660 0.0000 -1.5248 0.0000
# 2 37.1132 51.0258 46.7525 0.0000 -1.5954 0.0000
# 3 61.3660 46.7525 128.7485 0.0000 -4.7360 0.0000
# 4 0.0000 0.0000 0.0000 27.6293 0.0000 -0.4358
# 5 -1.5248 -1.5954 -4.7360 0.0000 18.9768 0.0000
# 6 0.0000 0.0000 0.0000 -0.4358 0.0000 22.0189
#
#
#
# Elastic Compliance Matrix: (Units=1/GPa)
#
#
# Indices 1 2 3 4 5 6 
#
# 1 0.014228 -0.006195 -0.004551 0.000000 -0.000513 0.000000
# 2 -0.006195 0.032068 -0.008691 0.000000 0.000029 0.000000
# 3 -0.004551 -0.008691 0.013173 0.000000 0.002191 0.000000
# 4 0.000000 0.000000 0.000000 0.036205 0.000000 0.000717
# 5 -0.000513 0.000029 0.002191 0.000000 0.053204 0.000000
# 6 0.000000 0.000000 0.000000 0.000717 0.000000 0.045430
#
#
# Mechanical properties :
#
#
# Convention : Reuss Voigt Hill
#
# Bulk Modulus (GPa) = 48.55555 64.02836 56.29196
# Shear Modulus (GPa) = 20.82942 23.09568 21.96255
#
# Velocity S-wave (km/s) = 3.59895 3.78968 3.69554
# Velocity P-wave (km/s) = 6.88937 7.67879 7.29477
#
# Compressibility (1/GPa) = 0.02059497
#
# Stress axis : x y z
#
# Youngs Moduli (GPa) = 70.28533 31.18391 75.91431
#
# Poissons Ratio (x) = 0.19318 0.34547
# Poissons Ratio (y) = 0.43540 0.65978
# Poissons Ratio (z) = 0.31985 0.27102
#
# Static dielectric constant tensor:
#      x y z
#    x 2.858590 0.000000 0.025780 
#    y 0.000000 2.934150 0.000000 
#    z 0.025780 0.000000 2.931880 
# 
# 
# High freq. dielectric constant tensor:
#      x y z
#    x 1.584120 0.000000 -0.002420 
#    y 0.000000 1.610370 0.000000 
#    z -0.002420 0.000000 1.626410 
# 
# From -- ./inp_files/326931.got.cif
#   From: 2010.06.25/outbox.cif.g09.slc.cpg/sg12_164_cif.got.tgz:326931.got - 2010.06.28 00:19:55.
