data_PCOD8080791
_publ_section_title
;
Structure prediction by ZEFSAII (Michael W. Deem and Ramdas Pophale) SiO2 
 PCOD8080791
Probable space group: C 2/M
;
_chemical_formula_sum "Si O2"
_cell_formula_units_Z 48
_cell_length_a 20.570110
_cell_length_b 9.176095
_cell_length_c 15.132139
_cell_angle_alpha 90.000000
_cell_angle_beta 77.175206
_cell_angle_gamma 90.000000
_cell_volume 2784.987397
_symmetry_space_group_name_H-M "C 2/M"
_symmetry_group_IT_number 12
_symmetry_cell_setting 'monoclinic'
loop_
_space_group_symop_operation_xyz
x,y,z
-x,y,-z
-x,-y,-z
x,-y,z
1/2+x,1/2+y,z
1/2-x,1/2+y,-z
1/2-x,1/2-y,-z
1/2+x,1/2-y,z
loop_
_atom_site_type_symbol
_atom_site_label
_atom_site_fract_x
_atom_site_fract_y
_atom_site_fract_z
Si Si1 0.685960 0.169293 0.054737
Si Si2 0.074769 0.669438 0.950514
Si Si3 0.142281 0.829363 0.773529
Si Si4 0.661787 0.835034 0.595015
Si Si5 0.704222 0.168138 0.245896
Si Si6 0.818894 0.835733 0.578541
O O1 0.672357 0.209251 0.161149
O O2 0.702290 0.000000 0.041107
O O3 0.750000 0.250000 0.000000
O O4 0.621232 0.214576 0.018765
O O5 0.084013 0.500000 0.923397
O O6 0.092151 0.765214 0.860528
O O7 0.000000 0.706518 0.000000
O O8 0.126857 0.751643 0.685147
O O9 0.217305 0.795719 0.782201
O O10 0.129247 0.000000 0.766014
O O11 0.740640 0.833819 0.584079
O O12 0.643341 0.755324 0.508817
O O13 0.634435 0.000000 0.600607
O O14 0.666675 0.263570 0.330827
O O15 0.693363 0.000000 0.274395
O O16 0.846712 0.000000 0.570270
#
# Coordination Sequence:
#
# PCOD8080791 Si02
#       6
#     8   8   8   8   8   8
#     4  10  19  32  50  71  96 127 165 204 244 289
#     4  10  21  35  50  70  98 131 166 204 245 291
#     4  10  18  29  46  68  94 125 162 202 242 287
#     4   9  16  26  41  62  92 127 158 192 237 288
#     4   9  17  28  43  66  94 124 157 196 241 286
#     4   9  16  25  39  63  93 124 156 193 236 284
#
# _framework density 17.235267
#
# number of rings (size 3 to 8) (size 9 to 14) (size 15 to 20)
#    0.000    2.500    1.667    1.500    0.000    5.667 
#    0.000    0.000    0.000    0.000    0.000    1.167 
#    0.000    9.333    0.000    0.000    0.000    0.000 
#
# Total GULP energy -297619.445129 kJ/mol
# GULP energy per Si atom -12400.810214 kJ/mol
# Density = 1.719604 g / cm^3
# Si number density = 17.235267 Si / 1000 Ang^3
#
#
#
# Elastic Constant Matrix: (Units=GPa)
#
#
# Indices 1 2 3 4 5 6 
#
# 1 60.6726 33.9888 48.0104 0.0000 4.7378 0.0000
# 2 33.9888 115.3169 88.6252 0.0000 1.9755 0.0000
# 3 48.0104 88.6252 169.0545 0.0000 12.0923 0.0000
# 4 0.0000 0.0000 0.0000 39.3646 0.0000 -0.9301
# 5 4.7378 1.9755 12.0923 0.0000 12.8646 0.0000
# 6 0.0000 0.0000 0.0000 -0.9301 0.0000 12.3184
#
#
#
# Elastic Compliance Matrix: (Units=1/GPa)
#
#
# Indices 1 2 3 4 5 6 
#
# 1 0.021924 -0.003029 -0.004389 0.000000 -0.003483 0.000000
# 2 -0.003029 0.015284 -0.007573 0.000000 0.005887 0.000000
# 3 -0.004389 -0.007573 0.011721 0.000000 -0.008238 0.000000
# 4 0.000000 0.000000 0.000000 0.025449 0.000000 0.001921
# 5 -0.003483 0.005887 -0.008238 0.000000 0.085855 0.000000
# 6 0.000000 0.000000 0.000000 0.001921 0.000000 0.081325
#
#
# Mechanical properties :
#
#
# Convention : Reuss Voigt Hill
#
# Bulk Modulus (GPa) = 52.78119 76.25475 64.51797
# Shear Modulus (GPa) = 17.99488 24.53749 21.26618
#
# Velocity S-wave (km/s) = 3.23472 3.77726 3.51647
# Velocity P-wave (km/s) = 6.68144 7.96009 7.34863
#
# Compressibility (1/GPa) = 0.01894614
#
# Stress axis : x y z
#
# Youngs Moduli (GPa) = 45.61229 65.42719 85.31445
#
# Poissons Ratio (x) = 0.19818 0.37446
# Poissons Ratio (y) = 0.13816 0.64613
# Poissons Ratio (z) = 0.20020 0.49551
#
# Static dielectric constant tensor:
#      x y z
#    x 2.732480 0.000000 0.113110 
#    y 0.000000 3.324150 0.000000 
#    z 0.113110 0.000000 3.199030 
# 
# 
# High freq. dielectric constant tensor:
#      x y z
#    x 1.600160 0.000000 0.015370 
#    y 0.000000 1.674860 0.000000 
#    z 0.015370 0.000000 1.681110 
# 
# From -- ./inp_files/221722.got.cif
#   From: 2010.06.25/outbox.cif.g09.slc.cpg/sg12_111_cif.got.tgz:221722.got - 2010.06.28 00:19:55.
