data_PCOD8080883
_publ_section_title
;
Structure prediction by ZEFSAII (Michael W. Deem and Ramdas Pophale) SiO2 
 PCOD8080883
Probable space group: C 2/M
;
_chemical_formula_sum "Si O2"
_cell_formula_units_Z 64
_cell_length_a 23.114209
_cell_length_b 9.276572
_cell_length_c 16.997912
_cell_angle_alpha 90.000000
_cell_angle_beta 85.597234
_cell_angle_gamma 90.000000
_cell_volume 3633.947552
_symmetry_space_group_name_H-M "C 2/M"
_symmetry_group_IT_number 12
_symmetry_cell_setting 'monoclinic'
loop_
_space_group_symop_operation_xyz
x,y,z
-x,y,-z
-x,-y,-z
x,-y,z
1/2+x,1/2+y,z
1/2-x,1/2+y,-z
1/2-x,1/2-y,-z
1/2+x,1/2-y,z
loop_
_atom_site_type_symbol
_atom_site_label
_atom_site_fract_x
_atom_site_fract_y
_atom_site_fract_z
Si Si1 0.312529 0.166391 0.285158
Si Si2 0.978302 0.667992 0.916894
Si Si3 0.701021 0.168921 0.249722
Si Si4 0.805854 0.666932 0.465993
Si Si5 0.058730 0.665491 0.764225
Si Si6 0.388230 0.663626 0.834814
Si Si7 0.383836 0.166080 0.598785
Si Si8 0.027122 0.162060 0.321849
O O1 0.265423 0.268334 0.249991
O O2 0.321438 0.207259 0.375426
O O3 0.373032 0.196667 0.234828
O O4 0.293048 0.000000 0.278502
O O5 0.961678 0.500000 0.915723
O O6 0.029581 0.704761 0.850394
O O7 0.920551 0.758824 0.903847
O O8 0.000000 0.715698 0.000000
O O9 0.669857 0.248305 0.180019
O O10 0.667279 0.201373 0.334078
O O11 0.704145 0.000000 0.230799
O O12 0.791109 0.500000 0.478058
O O13 0.750000 0.750000 0.500000
O O14 0.860820 0.707798 0.514745
O O15 0.047151 0.500000 0.742881
O O16 0.032181 0.758626 0.695785
O O17 0.372176 0.500000 0.860012
O O18 0.430093 0.667237 0.756086
O O19 0.441408 0.259101 0.608744
O O20 0.402099 0.000000 0.603581
O O21 0.012249 0.000000 0.348985
#
# Coordination Sequence:
#
# PCOD8080883 Si02
#       8
#     8   8   8   8   8   8   8   8
#     4  10  20  32  48  69  96 129 162 197 239 287
#     4   9  17  31  53  78 101 125 155 193 236 283
#     4  10  18  29  47  70  96 127 163 201 239 279
#     4  10  19  31  46  67  94 124 162 203 242 282
#     4   9  18  33  50  70  97 128 158 190 235 290
#     4   9  17  29  47  73 101 125 156 198 238 280
#     4   9  17  29  45  66  91 121 158 200 243 282
#     4   9  17  29  47  69  91 121 159 200 240 278
#
# _framework density 17.611701
#
# number of rings (size 3 to 8) (size 9 to 14) (size 15 to 20)
#    0.000    2.625    1.250    1.125    0.000    4.750 
#    0.000    0.625    0.000    4.500    0.000    0.000 
#    0.000    0.000    0.000    0.000    0.000    0.000 
#
# Total GULP energy -396828.673054 kJ/mol
# GULP energy per Si atom -12400.896033 kJ/mol
# Density = 1.757162 g / cm^3
# Si number density = 17.611701 Si / 1000 Ang^3
#
#
#
# Elastic Constant Matrix: (Units=GPa)
#
#
# Indices 1 2 3 4 5 6 
#
# 1 105.4143 66.1112 51.8959 0.0000 27.2112 0.0000
# 2 66.1112 102.3557 45.4833 0.0000 23.5783 0.0000
# 3 51.8959 45.4833 79.7071 0.0000 27.2757 0.0000
# 4 0.0000 0.0000 0.0000 18.9214 0.0000 9.9200
# 5 27.2112 23.5783 27.2757 0.0000 30.2202 0.0000
# 6 0.0000 0.0000 0.0000 9.9200 0.0000 34.1788
#
#
#
# Elastic Compliance Matrix: (Units=1/GPa)
#
#
# Indices 1 2 3 4 5 6 
#
# 1 0.019007 -0.008520 -0.005688 0.000000 -0.005333 0.000000
# 2 -0.008520 0.017457 -0.003442 0.000000 -0.002842 0.000000
# 3 -0.005688 -0.003442 0.022487 0.000000 -0.012489 0.000000
# 4 0.000000 0.000000 0.000000 0.062335 0.000000 -0.018092
# 5 -0.005333 -0.002842 -0.012489 0.000000 0.051382 0.000000
# 6 0.000000 0.000000 0.000000 -0.018092 0.000000 0.034509
#
#
# Mechanical properties :
#
#
# Convention : Reuss Voigt Hill
#
# Bulk Modulus (GPa) = 42.28200 68.27311 55.27756
# Shear Modulus (GPa) = 19.97117 24.92986 22.45051
#
# Velocity S-wave (km/s) = 3.37110 3.76643 3.57424
# Velocity P-wave (km/s) = 6.26199 7.60030 6.96337
#
# Compressibility (1/GPa) = 0.02365073
#
# Stress axis : x y z
#
# Youngs Moduli (GPa) = 52.61245 57.28306 44.47014
#
# Poissons Ratio (x) = 0.48808 0.25296
# Poissons Ratio (y) = 0.44828 0.15304
# Poissons Ratio (z) = 0.29927 0.19714
#
# Static dielectric constant tensor:
#      x y z
#    x 3.090040 0.000000 0.439950 
#    y 0.000000 3.346390 0.000000 
#    z 0.439950 0.000000 2.685830 
# 
# 
# High freq. dielectric constant tensor:
#      x y z
#    x 1.672860 0.000000 0.026010 
#    y 0.000000 1.684710 0.000000 
#    z 0.026010 0.000000 1.650500 
# 
# From -- ./inp_files/281385.got.cif
#   From: 2010.06.25/outbox.cif.g09.slc.cpg/sg12_141_cif.got.tgz:281385.got - 2010.06.28 00:19:55.
