data_PCOD8080639
_publ_section_title
;
Structure prediction by ZEFSAII (Michael W. Deem and Ramdas Pophale) SiO2 
 PCOD8080639
Probable space group: C 2/M
;
_chemical_formula_sum "Si O2"
_cell_formula_units_Z 64
_cell_length_a 31.259298
_cell_length_b 9.317436
_cell_length_c 21.262689
_cell_angle_alpha 90.000000
_cell_angle_beta 42.467737
_cell_angle_gamma 90.000000
_cell_volume 4181.288581
_symmetry_space_group_name_H-M "C 2/M"
_symmetry_group_IT_number 12
_symmetry_cell_setting 'monoclinic'
loop_
_space_group_symop_operation_xyz
x,y,z
-x,y,-z
-x,-y,-z
x,-y,z
1/2+x,1/2+y,z
1/2-x,1/2+y,-z
1/2-x,1/2-y,-z
1/2+x,1/2-y,z
loop_
_atom_site_type_symbol
_atom_site_label
_atom_site_fract_x
_atom_site_fract_y
_atom_site_fract_z
Si Si1 0.949686 0.829208 0.104547
Si Si2 0.604782 0.168914 0.105049
Si Si3 0.797438 0.831711 0.091147
Si Si4 0.755431 0.332424 0.589103
Si Si5 0.520034 0.668668 0.788387
Si Si6 0.795798 0.662225 0.908023
Si Si7 0.186874 0.170523 0.785052
Si Si8 0.156072 0.834326 0.590468
O O1 0.970039 0.776941 0.151301
O O2 0.881381 0.765368 0.160098
O O3 0.947108 0.000000 0.106091
O O4 0.000000 0.768929 0.000000
O O5 0.536465 0.241412 0.180629
O O6 0.632462 0.194657 0.146512
O O7 0.599267 0.000000 0.095507
O O8 0.649662 0.243062 0.004261
O O9 0.725688 0.807274 0.140936
O O10 0.794553 0.774724 0.165712
O O11 0.816766 0.000000 0.067894
O O12 0.770123 0.500000 0.571885
O O13 0.738866 0.278374 0.677556
O O14 0.818453 0.253177 0.497032
O O15 0.695348 0.294037 0.610418
O O16 0.503969 0.500000 0.803914
O O17 0.582867 0.703912 0.680555
O O18 0.779914 0.500000 0.941878
O O19 0.750000 0.750000 0.000000
O O20 0.183103 0.000000 0.787312
O O21 0.164958 0.000000 0.564846
#
# Coordination Sequence:
#
# PCOD8080639 Si02
#       8
#     8   8   8   8   8   8   8   8
#     4   9  15  23  38  60  84 109 139 173 202 230
#     4  10  19  29  41  61  91 118 141 174 215 251
#     4   9  16  28  47  66  84 111 147 177 206 249
#     4   9  16  28  45  64  85 107 136 176 219 255
#     4  10  18  29  44  62  83 112 149 179 202 243
#     4   8  15  27  42  61  84 110 139 175 213 248
#     4   9  15  25  43  67  86 106 141 180 210 244
#     4   9  17  29  44  62  84 109 140 177 213 250
#
# _framework density 15.306286999999999
#
# number of rings (size 3 to 8) (size 9 to 14) (size 15 to 20)
#    0.000    2.875    1.250    1.125    0.000    3.000 
#    0.000    0.625    0.000    3.375    0.000    0.875 
#    0.000    7.000    0.000    0.000    0.000    0.000 
#
# Total GULP energy -396496.466676 kJ/mol
# GULP energy per Si atom -12390.514584 kJ/mol
# Density = 1.527145 g / cm^3
# Si number density = 15.306287 Si / 1000 Ang^3
#
#
#
# Elastic Constant Matrix: (Units=GPa)
#
#
# Indices 1 2 3 4 5 6 
#
# 1 122.5063 37.7196 62.2821 0.0000 -7.0995 -0.0013
# 2 37.7196 39.2601 36.4307 -0.0020 -4.6788 0.0214
# 3 62.2821 36.4307 111.7276 0.0008 -2.3430 -0.0008
# 4 0.0000 -0.0020 0.0008 21.1175 -0.0013 -3.4081
# 5 -7.0995 -4.6788 -2.3430 -0.0013 12.3404 -0.0032
# 6 -0.0013 0.0214 -0.0008 -3.4081 -0.0032 19.0064
#
#
#
# Elastic Compliance Matrix: (Units=1/GPa)
#
#
# Indices 1 2 3 4 5 6 
#
# 1 0.013195 -0.007859 -0.004715 0.000001 0.003716 0.000010
# 2 -0.007859 0.042945 -0.009413 -0.000003 0.009974 -0.000048
# 3 -0.004715 -0.009413 0.014574 0.000000 -0.003514 0.000010
# 4 0.000001 -0.000003 0.000000 0.048765 0.000007 0.008744
# 5 0.003716 0.009974 -0.003514 0.000007 0.086287 0.000004
# 6 0.000010 -0.000048 0.000010 0.008744 0.000004 0.054182
#
#
# Mechanical properties :
#
#
# Convention : Reuss Voigt Hill
#
# Bulk Modulus (GPa) = 37.39654 60.70652 49.05153
# Shear Modulus (GPa) = 15.98282 19.63031 17.80656
#
# Velocity S-wave (km/s) = 3.23491 3.58509 3.41449
# Velocity P-wave (km/s) = 6.19984 7.54217 6.90371
#
# Compressibility (1/GPa) = 0.02674044
#
# Stress axis : x y z
#
# Youngs Moduli (GPa) = 75.78514 23.28550 68.61464
#
# Poissons Ratio (x) = 0.18301 0.32352
# Poissons Ratio (y) = 0.59562 0.64585
# Poissons Ratio (z) = 0.35733 0.21918
#
# Static dielectric constant tensor:
#      x y z
#    x 3.443910 -0.000020 0.064550 
#    y -0.000020 2.744660 0.000010 
#    z 0.064550 0.000010 2.856490 
# 
# 
# High freq. dielectric constant tensor:
#      x y z
#    x 1.584140 0.000000 -0.000400 
#    y 0.000000 1.565820 0.000000 
#    z -0.000400 0.000000 1.566320 
# 
# From -- ./inp_files/326823.got.cif
#   From: 2010.06.25/outbox.cif.g09.slc.cpg/sg12_164_cif.got.tgz:326823.got - 2010.06.28 00:19:55.
