data_PCOD8080470
_publ_section_title
;
Structure prediction by ZEFSAII (Michael W. Deem and Ramdas Pophale) SiO2 
 PCOD8080470
Probable space group: C 2/M
;
_chemical_formula_sum "Si O2"
_cell_formula_units_Z 64
_cell_length_a 20.497096
_cell_length_b 8.856057
_cell_length_c 22.083479
_cell_angle_alpha 90.000000
_cell_angle_beta 116.828632
_cell_angle_gamma 90.000000
_cell_volume 3577.177720
_symmetry_space_group_name_H-M "C 2/M"
_symmetry_group_IT_number 12
_symmetry_cell_setting 'monoclinic'
loop_
_space_group_symop_operation_xyz
x,y,z
-x,y,-z
-x,-y,-z
x,-y,z
1/2+x,1/2+y,z
1/2-x,1/2+y,-z
1/2-x,1/2-y,-z
1/2+x,1/2-y,z
loop_
_atom_site_type_symbol
_atom_site_label
_atom_site_fract_x
_atom_site_fract_y
_atom_site_fract_z
Si Si1 0.963199 0.173867 0.421875
Si Si2 0.775907 0.824911 0.928821
Si Si3 0.704608 0.174808 0.779536
Si Si4 0.139281 0.174718 0.928941
Si Si5 0.706451 0.325081 0.657018
Si Si6 0.209558 0.678653 0.426495
Si Si7 0.565486 0.679833 0.783449
Si Si8 0.456343 0.822684 0.653437
O O1 0.877839 0.205905 0.392675
O O2 0.000000 0.220023 0.500000
O O3 0.995597 0.279863 0.384100
O O4 0.979416 0.000000 0.411878
O O5 0.773205 0.802023 0.855118
O O6 0.716202 0.714737 0.931437
O O7 0.757424 0.000000 0.936786
O O8 0.853600 0.781678 0.995828
O O9 0.732530 0.233287 0.726752
O O10 0.632735 0.265606 0.769793
O O11 0.682456 0.000000 0.766186
O O12 0.076452 0.242452 0.857975
O O13 0.125350 0.000000 0.917379
O O14 0.722110 0.500000 0.675993
O O15 0.752377 0.265392 0.619225
O O16 0.215370 0.500000 0.435277
O O17 0.250000 0.750000 0.500000
O O18 0.126065 0.735421 0.390379
O O19 0.562577 0.500000 0.777493
O O20 0.489601 0.746625 0.727574
O O21 0.458096 0.000000 0.663888
#
# Coordination Sequence:
#
# PCOD8080470 Si02
#       8
#     8   8   8   8   8   8   8   8
#     4  10  20  34  54  76  97 127 164 200 245 302
#     4   8  14  24  38  61  95 130 161 198 244 289
#     4  10  18  28  46  73 103 132 164 206 253 295
#     4   8  14  24  39  61  92 130 167 199 236 288
#     4  10  20  35  53  73 100 133 168 203 247 302
#     4  10  23  41  58  76  99 132 168 208 254 301
#     4  10  18  29  47  71 100 135 171 205 245 295
#     4  11  22  35  52  76 104 131 164 208 255 297
#
# _framework density 17.891199
#
# number of rings (size 3 to 8) (size 9 to 14) (size 15 to 20)
#    0.000    2.375    1.250    1.875    0.000    3.750 
#    0.000    0.000    0.000    0.000    0.000    0.875 
#    0.000    7.000    0.000    0.000    0.000    0.000 
#
# Total GULP energy -396436.139607 kJ/mol
# GULP energy per Si atom -12388.629363 kJ/mol
# Density = 1.785048 g / cm^3
# Si number density = 17.891199 Si / 1000 Ang^3
#
#
#
# Elastic Constant Matrix: (Units=GPa)
#
#
# Indices 1 2 3 4 5 6 
#
# 1 54.6116 21.0011 37.7774 0.0000 4.8561 0.0000
# 2 21.0011 37.7822 39.8539 0.0000 3.4598 0.0000
# 3 37.7774 39.8539 185.8786 0.0000 6.7993 0.0000
# 4 0.0000 0.0000 0.0000 19.7594 0.0000 3.0968
# 5 4.8561 3.4598 6.7993 0.0000 20.4205 0.0000
# 6 0.0000 0.0000 0.0000 3.0968 0.0000 15.7044
#
#
#
# Elastic Compliance Matrix: (Units=1/GPa)
#
#
# Indices 1 2 3 4 5 6 
#
# 1 0.024446 -0.010571 -0.002586 0.000000 -0.003161 0.000000
# 2 -0.010571 0.039008 -0.006140 0.000000 -0.002051 0.000000
# 3 -0.002586 -0.006140 0.007250 0.000000 -0.000759 0.000000
# 4 0.000000 0.000000 0.000000 0.052223 0.000000 -0.010298
# 5 -0.003161 -0.002051 -0.000759 0.000000 0.050322 0.000000
# 6 0.000000 0.000000 0.000000 -0.010298 0.000000 0.065707
#
#
# Mechanical properties :
#
#
# Convention : Reuss Voigt Hill
#
# Bulk Modulus (GPa) = 31.14355 52.83746 41.99050
# Shear Modulus (GPa) = 17.34583 23.15287 20.24935
#
# Velocity S-wave (km/s) = 3.11709 3.60125 3.36788
# Velocity P-wave (km/s) = 5.51361 6.84754 6.21646
#
# Compressibility (1/GPa) = 0.03210938
#
# Stress axis : x y z
#
# Youngs Moduli (GPa) = 40.90595 25.63587 137.93592
#
# Poissons Ratio (x) = 0.27099 0.35674
# Poissons Ratio (y) = 0.43241 0.84696
# Poissons Ratio (z) = 0.10579 0.15741
#
# Static dielectric constant tensor:
#      x y z
#    x 2.947010 0.000000 0.032530 
#    y 0.000000 3.274290 0.000000 
#    z 0.032530 0.000000 4.099730 
# 
# 
# High freq. dielectric constant tensor:
#      x y z
#    x 1.630910 0.000000 0.001470 
#    y 0.000000 1.690650 0.000000 
#    z 0.001470 0.000000 1.729370 
# 
# From -- ./inp_files/345586.got.cif
#   From: 2010.06.25/outbox.cif.g09.slc.cpg/sg12_173_cif.got.tgz:345586.got - 2010.06.28 00:19:55.
