data_PCOD8080548
_publ_section_title
;
Structure prediction by ZEFSAII (Michael W. Deem and Ramdas Pophale) SiO2 
 PCOD8080548
Probable space group: C 2/M
;
_chemical_formula_sum "Si O2"
_cell_formula_units_Z 56
_cell_length_a 18.783600
_cell_length_b 27.900281
_cell_length_c 15.817476
_cell_angle_alpha 90.000000
_cell_angle_beta 156.561129
_cell_angle_gamma 90.000000
_cell_volume 3297.289550
_symmetry_space_group_name_H-M "C 2/M"
_symmetry_group_IT_number 12
_symmetry_cell_setting 'monoclinic'
loop_
_space_group_symop_operation_xyz
x,y,z
-x,y,-z
-x,-y,-z
x,-y,z
1/2+x,1/2+y,z
1/2-x,1/2+y,-z
1/2-x,1/2-y,-z
1/2+x,1/2-y,z
loop_
_atom_site_type_symbol
_atom_site_label
_atom_site_fract_x
_atom_site_fract_y
_atom_site_fract_z
Si Si1 0.587639 0.313236 0.301537
Si Si2 0.856973 0.372744 0.014231
Si Si3 0.849478 0.260011 0.476039
Si Si4 0.748711 0.110296 0.410353
Si Si5 0.039635 0.054596 0.641159
Si Si6 0.800761 0.176715 0.310205
Si Si7 0.299086 0.799334 0.097868
O O1 0.692856 0.295892 0.333313
O O2 0.611793 0.277258 0.406296
O O3 0.658698 0.365283 0.407437
O O4 0.378703 0.317505 0.047538
O O5 0.697887 0.410998 0.844563
O O6 0.833294 0.334360 0.912391
O O7 0.862446 0.340576 0.103054
O O8 0.042582 0.402219 0.207353
O O9 0.792233 0.232681 0.327829
O O10 0.032749 0.289511 0.657003
O O11 0.741897 0.146439 0.325545
O O12 0.861932 0.063980 0.504107
O O13 0.000000 0.064802 0.500000
O O14 0.099377 0.000000 0.720318
O O15 0.000000 0.161926 0.500000
O O16 0.250000 0.750000 0.000000
#
# Coordination Sequence:
#
# PCOD8080548 Si02
#       7
#     8   8   8   8   8   8   8
#     4   9  16  29  44  63  86 111 145 197 231 275
#     4  12  20  33  50  70  89 129 166 202 239 285
#     4   9  18  29  41  66  90 113 152 198 228 276
#     4  11  19  32  50  64  86 117 164 202 244 281
#     4  11  23  37  48  64  91 121 162 215 256 282
#     4  11  19  32  45  64  96 124 157 199 234 272
#     4  10  18  28  48  66  89 119 158 196 231 283
#
# _framework density 16.983646
#
# number of rings (size 3 to 8) (size 9 to 14) (size 15 to 20)
#    0.000    1.571    5.714    2.143    2.000    0.571 
#    2.571    1.429    0.000    0.000    0.000    0.000 
#    0.000    0.000    0.000    0.000    0.000   18.571 
#
# Total GULP energy -347049.366248 kJ/mol
# GULP energy per Si atom -12394.620223 kJ/mol
# Density = 1.694499 g / cm^3
# Si number density = 16.983646 Si / 1000 Ang^3
#
#
#
# Elastic Constant Matrix: (Units=GPa)
#
#
# Indices 1 2 3 4 5 6 
#
# 1 33.0945 24.9773 30.9145 0.0000 18.7499 0.0000
# 2 24.9773 71.4197 26.1843 0.0000 -0.6470 0.0000
# 3 30.9145 26.1843 86.5684 0.0003 27.5565 0.0001
# 4 0.0000 0.0000 0.0003 9.3622 0.0001 -0.3731
# 5 18.7499 -0.6470 27.5565 0.0001 27.7353 0.0000
# 6 0.0000 0.0000 0.0001 -0.3731 0.0000 17.2990
#
#
#
# Elastic Compliance Matrix: (Units=1/GPa)
#
#
# Indices 1 2 3 4 5 6 
#
# 1 0.089121 -0.029854 -0.004967 0.000001 -0.056010 0.000000
# 2 -0.029854 0.026880 -0.005986 0.000000 0.026757 0.000000
# 3 -0.004967 -0.005986 0.020639 -0.000001 -0.017288 0.000000
# 4 0.000001 0.000000 -0.000001 0.106904 0.000000 0.002305
# 5 -0.056010 0.026757 -0.017288 0.000000 0.091720 0.000000
# 6 0.000000 0.000000 0.000000 0.002305 0.000000 0.057856
#
#
# Mechanical properties :
#
#
# Convention : Reuss Voigt Hill
#
# Bulk Modulus (GPa) = 18.17365 39.47054 28.82209
# Shear Modulus (GPa) = 10.14038 18.14642 14.14340
#
# Velocity S-wave (km/s) = 2.44615 3.27228 2.88890
# Velocity P-wave (km/s) = 4.32459 6.12926 5.30424
#
# Compressibility (1/GPa) = 0.05502472
#
# Stress axis : x y z
#
# Youngs Moduli (GPa) = 11.22066 37.20265 48.45172
#
# Poissons Ratio (x) = 1.11067 0.24065
# Poissons Ratio (y) = 0.33499 0.29005
# Poissons Ratio (z) = 0.05573 0.22271
#
# Static dielectric constant tensor:
#      x y z
#    x 3.158980 0.000000 0.404270 
#    y 0.000000 2.964260 0.000000 
#    z 0.404270 0.000000 3.445290 
# 
# 
# High freq. dielectric constant tensor:
#      x y z
#    x 1.626580 0.000000 0.036660 
#    y 0.000000 1.616400 0.000000 
#    z 0.036660 0.000000 1.657330 
# 
# From -- ./inp_files/286594.got.cif
#   From: 2010.06.25/outbox.cif.g09.slc.cpg/sg12_144_cif.got.tgz:286594.got - 2010.06.28 00:19:55.
