data_PCOD8080604
_publ_section_title
;
Structure prediction by ZEFSAII (Michael W. Deem and Ramdas Pophale) SiO2 
 PCOD8080604
Probable space group: C 2/M
;
_chemical_formula_sum "Si O2"
_cell_formula_units_Z 56
_cell_length_a 20.719843
_cell_length_b 23.668544
_cell_length_c 10.002251
_cell_angle_alpha 90.000000
_cell_angle_beta 36.909815
_cell_angle_gamma 90.000000
_cell_volume 2945.846640
_symmetry_space_group_name_H-M "C 2/M"
_symmetry_group_IT_number 12
_symmetry_cell_setting 'monoclinic'
loop_
_space_group_symop_operation_xyz
x,y,z
-x,y,-z
-x,-y,-z
x,-y,z
1/2+x,1/2+y,z
1/2-x,1/2+y,-z
1/2-x,1/2-y,-z
1/2+x,1/2-y,z
loop_
_atom_site_type_symbol
_atom_site_label
_atom_site_fract_x
_atom_site_fract_y
_atom_site_fract_z
Si Si1 0.276371 0.330333 0.027223
Si Si2 0.801396 0.562497 0.163449
Si Si3 0.377463 0.835200 0.188058
Si Si4 0.618278 0.829753 0.527486
Si Si5 0.388852 0.219715 0.895297
Si Si6 0.380336 0.436149 0.738099
Si Si7 0.504510 0.936035 0.647119
O O1 0.369826 0.283063 0.873974
O O2 0.331902 0.391824 0.925823
O O3 0.214511 0.319782 0.267349
O O4 0.194366 0.322566 0.039950
O O5 0.819420 0.500000 0.195791
O O6 0.809214 0.609004 0.266038
O O7 0.684414 0.566595 0.292618
O O8 0.887662 0.573764 0.903289
O O9 0.340340 0.810848 0.393580
O O10 0.500000 0.855271 0.000000
O O11 0.367003 0.787487 0.090620
O O12 0.512055 0.795529 0.656696
O O13 0.589740 0.896318 0.580510
O O14 0.500000 0.418495 0.500000
O O15 0.375033 0.500000 0.807694
O O16 0.500000 0.917833 0.500000
O O17 0.545257 0.000000 0.594677
#
# Coordination Sequence:
#
# PCOD8080604 Si02
#       7
#     8   8   8   8   8   8   8
#     4  11  22  36  61  84 109 148 195 244 284 334
#     4  10  18  32  54  81 114 153 191 225 279 347
#     4  10  19  35  54  80 121 156 184 229 284 350
#     4  11  21  35  56  82 121 150 184 237 289 337
#     4  10  21  37  54  83 117 150 193 235 286 342
#     4  10  21  38  61  86 114 148 192 243 286 330
#     4  10  18  28  50  84 119 150 183 233 290 342
#
# _framework density 19.009815
#
# number of rings (size 3 to 8) (size 9 to 14) (size 15 to 20)
#    0.000    1.714    4.286    2.143    0.000    5.429 
#    0.000    0.000    0.000    0.000    0.000    3.000 
#    0.000    0.000    0.000    0.000    0.000    0.000 
#
# Total GULP energy -347157.727746 kJ/mol
# GULP energy per Si atom -12398.490277 kJ/mol
# Density = 1.896655 g / cm^3
# Si number density = 19.009815 Si / 1000 Ang^3
#
#
#
# Elastic Constant Matrix: (Units=GPa)
#
#
# Indices 1 2 3 4 5 6 
#
# 1 74.6850 24.5545 34.5334 -0.0003 9.4467 0.0001
# 2 24.5545 98.7391 32.2605 0.0000 -4.3603 0.0000
# 3 34.5334 32.2605 91.3039 -0.0007 3.2934 0.0003
# 4 -0.0003 0.0000 -0.0007 16.6659 0.0004 -0.9944
# 5 9.4467 -4.3603 3.2934 0.0004 26.1655 -0.0001
# 6 0.0001 0.0000 0.0003 -0.9944 -0.0001 26.5185
#
#
#
# Elastic Compliance Matrix: (Units=1/GPa)
#
#
# Indices 1 2 3 4 5 6 
#
# 1 0.017625 -0.002882 -0.005426 0.000000 -0.006161 0.000000
# 2 -0.002882 0.012077 -0.003302 0.000000 0.003469 0.000000
# 3 -0.005426 -0.003302 0.014185 0.000001 -0.000377 0.000000
# 4 0.000000 0.000000 0.000001 0.060137 -0.000001 0.002255
# 5 -0.006161 0.003469 -0.000377 -0.000001 0.041068 0.000000
# 6 0.000000 0.000000 0.000000 0.002255 0.000000 0.037794
#
#
# Mechanical properties :
#
#
# Convention : Reuss Voigt Hill
#
# Bulk Modulus (GPa) = 48.38727 49.71388 49.05057
# Shear Modulus (GPa) = 23.47473 25.42860 24.45167
#
# Velocity S-wave (km/s) = 3.51789 3.66137 3.59034
# Velocity P-wave (km/s) = 6.48150 6.63947 6.56096
#
# Compressibility (1/GPa) = 0.02066659
#
# Stress axis : x y z
#
# Youngs Moduli (GPa) = 56.73676 82.80543 70.49799
#
# Poissons Ratio (x) = 0.23868 0.38250
# Poissons Ratio (y) = 0.16354 0.23278
# Poissons Ratio (z) = 0.30783 0.27342
#
# Static dielectric constant tensor:
#      x y z
#    x 3.593670 0.000000 0.120520 
#    y 0.000000 3.585150 0.000000 
#    z 0.120520 0.000000 3.340780 
# 
# 
# High freq. dielectric constant tensor:
#      x y z
#    x 1.727470 0.000000 0.001230 
#    y 0.000000 1.743270 0.000000 
#    z 0.001230 0.000000 1.718140 
# 
# From -- ./inp_files/80017.got.cif
#   From: 2010.06.25/outbox.cif.g09.slc.cpg/sg12_41_cif.got.tgz:80017.got - 2010.06.28 00:19:55.
