data_PCOD8080806
_publ_section_title
;
Structure prediction by ZEFSAII (Michael W. Deem and Ramdas Pophale) SiO2 
 PCOD8080806
Probable space group: C 2/M
;
_chemical_formula_sum "Si O2"
_cell_formula_units_Z 64
_cell_length_a 25.101599
_cell_length_b 9.030001
_cell_length_c 23.229256
_cell_angle_alpha 90.000000
_cell_angle_beta 132.971198
_cell_angle_gamma 90.000000
_cell_volume 3852.613390
_symmetry_space_group_name_H-M "C 2/M"
_symmetry_group_IT_number 12
_symmetry_cell_setting 'monoclinic'
loop_
_space_group_symop_operation_xyz
x,y,z
-x,y,-z
-x,-y,-z
x,-y,z
1/2+x,1/2+y,z
1/2-x,1/2+y,-z
1/2-x,1/2-y,-z
1/2+x,1/2-y,z
loop_
_atom_site_type_symbol
_atom_site_label
_atom_site_fract_x
_atom_site_fract_y
_atom_site_fract_z
Si Si1 0.419404 0.824391 0.646640
Si Si2 0.049770 0.827166 0.795331
Si Si3 0.972679 0.172428 0.089347
Si Si4 0.786619 0.829161 0.080317
Si Si5 0.383480 0.825400 0.838247
Si Si6 0.842094 0.329509 0.933593
Si Si7 0.316242 0.172911 0.673057
Si Si8 0.695100 0.674441 0.503322
O O1 0.501145 0.765113 0.714551
O O2 0.371889 0.765216 0.665850
O O3 0.383724 0.751943 0.562517
O O4 0.419402 0.000000 0.639780
O O5 0.022066 0.793160 0.839192
O O6 0.132242 0.768433 0.848551
O O7 0.043424 0.000000 0.775703
O O8 0.036898 0.254002 0.102870
O O9 0.978632 0.000000 0.080648
O O10 0.895726 0.228733 0.009839
O O11 0.739508 0.804096 0.103253
O O12 0.792160 0.000000 0.066939
O O13 0.750000 0.750000 0.000000
O O14 0.342885 0.782480 0.867307
O O15 0.335151 0.759784 0.749724
O O16 0.394012 0.000000 0.840560
O O17 0.866227 0.500000 0.958927
O O18 0.231635 0.204152 0.593289
O O19 0.330602 0.000000 0.686266
O O20 0.689074 0.500000 0.486390
O O21 0.750000 0.750000 0.500000
#
# Coordination Sequence:
#
# PCOD8080806 Si02
#       8
#     8   8   8   8   8   8   8   8
#     4  10  18  29  46  69  94 123 156 192 234 284
#     4  10  20  32  47  68  94 124 157 197 241 281
#     4  11  21  32  47  69  96 127 159 195 239 282
#     4  10  20  35  51  69  91 121 161 203 245 284
#     4  10  19  33  49  69  96 127 161 195 229 279
#     4  10  21  34  51  69  90 125 165 200 237 279
#     4   8  15  27  44  65  92 123 151 182 225 274
#     4   9  16  27  43  66  95 127 156 187 229 280
#
# _framework density 16.612100999999999
#
# number of rings (size 3 to 8) (size 9 to 14) (size 15 to 20)
#    0.000    2.250    2.500    2.250    0.000    3.000 
#    0.000    0.625    0.000    0.000    0.000    0.875 
#    0.000    7.000    0.000    0.000    0.000    0.000 
#
# Total GULP energy -396681.518395 kJ/mol
# GULP energy per Si atom -12396.297450 kJ/mol
# Density = 1.657429 g / cm^3
# Si number density = 16.612101 Si / 1000 Ang^3
#
#
#
# Elastic Constant Matrix: (Units=GPa)
#
#
# Indices 1 2 3 4 5 6 
#
# 1 74.7808 23.7996 30.2191 0.0000 15.2263 0.0000
# 2 23.7996 56.1794 38.8028 0.0000 9.8791 0.0000
# 3 30.2191 38.8028 111.5125 0.0000 27.0694 0.0000
# 4 0.0000 0.0000 0.0000 27.3084 0.0000 4.0945
# 5 15.2263 9.8791 27.0694 0.0000 20.4725 0.0000
# 6 0.0000 0.0000 0.0000 4.0945 0.0000 14.6850
#
#
#
# Elastic Compliance Matrix: (Units=1/GPa)
#
#
# Indices 1 2 3 4 5 6 
#
# 1 0.017201 -0.005251 -0.000506 0.000000 -0.009590 0.000000
# 2 -0.005251 0.025043 -0.007814 0.000000 0.002152 0.000000
# 3 -0.000506 -0.007814 0.015930 0.000000 -0.016916 0.000000
# 4 0.000000 0.000000 0.000000 0.038217 0.000000 -0.010656
# 5 -0.009590 0.002152 -0.016916 0.000000 0.077307 0.000000
# 6 0.000000 0.000000 0.000000 -0.010656 0.000000 0.071068
#
#
# Mechanical properties :
#
#
# Convention : Reuss Voigt Hill
#
# Bulk Modulus (GPa) = 32.22450 47.56837 39.89644
# Shear Modulus (GPa) = 17.71479 22.46993 20.09236
#
# Velocity S-wave (km/s) = 3.26909 3.68179 3.48156
# Velocity P-wave (km/s) = 5.80427 6.83894 6.34274
#
# Compressibility (1/GPa) = 0.03103229
#
# Stress axis : x y z
#
# Youngs Moduli (GPa) = 58.13715 39.93141 62.77448
#
# Poissons Ratio (x) = 0.20967 0.03178
# Poissons Ratio (y) = 0.30527 0.49050
# Poissons Ratio (z) = 0.02943 0.31201
#
# Static dielectric constant tensor:
#      x y z
#    x 3.020520 0.000000 0.033310 
#    y 0.000000 3.060630 0.000000 
#    z 0.033310 0.000000 3.548000 
# 
# 
# High freq. dielectric constant tensor:
#      x y z
#    x 1.600710 0.000000 0.010340 
#    y 0.000000 1.635170 0.000000 
#    z 0.010340 0.000000 1.648000 
# 
# From -- ./inp_files/348572.got.cif
#   From: 2010.06.25/outbox.cif.g09.slc.cpg/sg12_175_cif.got.tgz:348572.got - 2010.06.28 00:19:55.
