data_PCOD8080646
_publ_section_title
;
Structure prediction by ZEFSAII (Michael W. Deem and Ramdas Pophale) SiO2 
 PCOD8080646
Probable space group: C 2/M
;
_chemical_formula_sum "Si O2"
_cell_formula_units_Z 52
_cell_length_a 5.254568
_cell_length_b 34.414220
_cell_length_c 20.537313
_cell_angle_alpha 90.000000
_cell_angle_beta 115.892675
_cell_angle_gamma 90.000000
_cell_volume 3340.985485
_symmetry_space_group_name_H-M "C 2/M"
_symmetry_group_IT_number 12
_symmetry_cell_setting 'monoclinic'
loop_
_space_group_symop_operation_xyz
x,y,z
-x,y,-z
-x,-y,-z
x,-y,z
1/2+x,1/2+y,z
1/2-x,1/2+y,-z
1/2-x,1/2-y,-z
1/2+x,1/2-y,z
loop_
_atom_site_type_symbol
_atom_site_label
_atom_site_fract_x
_atom_site_fract_y
_atom_site_fract_z
Si Si1 0.840277 0.770808 0.414108
Si Si2 0.745486 0.358196 0.580896
Si Si3 0.786417 0.546214 0.166506
Si Si4 0.140792 0.454053 0.080758
Si Si5 0.098467 0.430025 0.325652
Si Si6 0.196864 0.956823 0.397847
Si Si7 0.000000 0.395974 0.500000
O O1 0.551367 0.745606 0.382490
O O2 0.758983 0.815220 0.390044
O O3 0.000000 0.767796 0.500000
O O4 0.500000 0.365944 0.500000
O O5 0.768717 0.387381 0.644266
O O6 0.013256 0.367551 0.564332
O O7 0.809654 0.500000 0.182260
O O8 0.463841 0.559883 0.121584
O O9 0.961753 0.559542 0.123017
O O10 0.904747 0.570589 0.240337
O O11 0.131780 0.500000 0.074799
O O12 0.000000 0.435972 0.000000
O O13 0.369313 0.456831 0.339536
O O14 0.912692 0.446188 0.364096
O O15 0.235233 0.925937 0.461580
O O16 0.271194 0.000000 0.430402
#
# Coordination Sequence:
#
# PCOD8080646 Si02
#       7
#     8   8   8   8   8   8   4
#     4   9  19  30  48  68  83 104 135 179 228 270
#     4  10  20  34  48  62  90 112 150 187 225 271
#     4  10  18  29  44  63  88 112 145 183 215 258
#     4   9  17  29  46  65  84 109 141 180 220 257
#     4  11  22  33  47  65  85 120 148 187 235 265
#     4  11  21  33  45  58  80 111 156 194 227 262
#     4  10  21  32  44  62  80 114 146 196 234 258
#
# _framework density 15.56427
#
# number of rings (size 3 to 8) (size 9 to 14) (size 15 to 20)
#    0.000    2.000    1.538    3.000    5.385    3.077 
#    0.000    2.308    0.000    0.000    0.000    0.000 
#    0.000    0.000    0.000    0.000    0.000   15.385 
#
# Total GULP energy -322140.127338 kJ/mol
# GULP energy per Si atom -12390.004898 kJ/mol
# Density = 1.552885 g / cm^3
# Si number density = 15.564270 Si / 1000 Ang^3
#
#
#
# Elastic Constant Matrix: (Units=GPa)
#
#
# Indices 1 2 3 4 5 6 
#
# 1 110.6171 37.4861 29.7603 0.0000 7.0297 0.0000
# 2 37.4861 93.9867 32.2356 0.0000 1.6401 0.0000
# 3 29.7603 32.2356 86.4307 0.0000 7.0243 0.0000
# 4 0.0000 0.0000 0.0000 7.0412 0.0000 0.0303
# 5 7.0297 1.6401 7.0243 0.0000 20.0661 0.0000
# 6 0.0000 0.0000 0.0000 0.0303 0.0000 10.8927
#
#
#
# Elastic Compliance Matrix: (Units=1/GPa)
#
#
# Indices 1 2 3 4 5 6 
#
# 1 0.011034 -0.003585 -0.002235 0.000000 -0.002790 0.000000
# 2 -0.003585 0.013373 -0.003877 0.000000 0.001520 0.000000
# 3 -0.002235 -0.003877 0.014097 0.000000 -0.003835 0.000000
# 4 0.000000 0.000000 0.000000 0.142022 0.000000 -0.000396
# 5 -0.002790 0.001520 -0.003835 0.000000 0.052031 0.000000
# 6 0.000000 0.000000 0.000000 -0.000396 0.000000 0.091806
#
#
# Mechanical properties :
#
#
# Convention : Reuss Voigt Hill
#
# Bulk Modulus (GPa) = 52.33059 54.44429 53.38744
# Shear Modulus (GPa) = 14.28051 20.37017 17.32534
#
# Velocity S-wave (km/s) = 3.03234 3.62163 3.34001
# Velocity P-wave (km/s) = 6.77904 7.24876 7.01783
#
# Compressibility (1/GPa) = 0.01910928
#
# Stress axis : x y z
#
# Youngs Moduli (GPa) = 90.62961 74.77793 70.93644
#
# Poissons Ratio (x) = 0.26812 0.15856
# Poissons Ratio (y) = 0.32495 0.27499
# Poissons Ratio (z) = 0.20258 0.28988
#
# Static dielectric constant tensor:
#      x y z
#    x 3.324040 0.000000 0.049660 
#    y 0.000000 2.760130 0.000000 
#    z 0.049660 0.000000 2.832940 
# 
# 
# High freq. dielectric constant tensor:
#      x y z
#    x 1.620260 0.000000 0.006630 
#    y 0.000000 1.559940 0.000000 
#    z 0.006630 0.000000 1.559930 
# 
# From -- ./inp_files/298484.got.cif
#   From: 2010.06.25/outbox.cif.g09.slc.cpg/sg12_150_cif.got.tgz:298484.got - 2010.06.28 00:19:55.
