data_PCOD8080014
_publ_section_title
;
Structure prediction by ZEFSAII (Michael W. Deem and Ramdas Pophale) SiO2 
 PCOD8080014
Probable space group: C 2/M
;
_chemical_formula_sum "Si O2"
_cell_formula_units_Z 64
_cell_length_a 25.078819
_cell_length_b 16.395333
_cell_length_c 9.281488
_cell_angle_alpha 90.000000
_cell_angle_beta 109.712315
_cell_angle_gamma 90.000000
_cell_volume 3592.677495
_symmetry_space_group_name_H-M "C 2/M"
_symmetry_group_IT_number 12
_symmetry_cell_setting 'monoclinic'
loop_
_space_group_symop_operation_xyz
x,y,z
-x,y,-z
-x,-y,-z
x,-y,z
1/2+x,1/2+y,z
1/2-x,1/2+y,-z
1/2-x,1/2-y,-z
1/2+x,1/2-y,z
loop_
_atom_site_type_symbol
_atom_site_label
_atom_site_fract_x
_atom_site_fract_y
_atom_site_fract_z
Si Si1 0.885438 0.170757 0.871372
Si Si2 0.095732 0.808368 0.664435
Si Si3 0.115104 0.590746 0.959723
Si Si4 0.683700 0.751861 0.959551
Si Si5 0.964026 0.906692 0.167297
Si Si6 0.523295 0.849040 0.665503
Si Si7 0.447592 0.823747 0.859053
Si Si8 0.409264 0.593702 0.623089
O O1 0.900599 0.254123 0.803530
O O2 0.869428 0.107210 0.728729
O O3 0.833131 0.186414 0.931792
O O4 0.941087 0.144060 0.011282
O O5 0.154406 0.774134 0.782845
O O6 0.074370 0.888232 0.728978
O O7 0.047326 0.739680 0.640095
O O8 0.106994 0.840497 0.513585
O O9 0.141568 0.500000 0.980932
O O10 0.164593 0.657395 0.988733
O O11 0.071990 0.598873 0.786304
O O12 0.080987 0.601235 0.079100
O O13 0.750000 0.750000 0.000000
O O14 0.028157 0.884081 0.264056
O O15 0.957726 0.000000 0.118327
O O16 0.500000 0.892939 0.500000
O O17 0.468453 0.845388 0.718841
O O18 0.500000 0.790647 0.000000
O O19 0.403956 0.500000 0.564589
#
# Coordination Sequence:
#
# PCOD8080014 Si02
#       8
#     8   8   8   8   8   8   8   8
#     4  10  18  30  48  70  98 132 175 212 240 296
#     4  10  19  31  48  69 100 133 172 211 243 297
#     4   9  19  34  51  74 100 124 157 202 249 294
#     4   9  20  39  58  73  89 124 173 217 261 302
#     4  10  18  27  42  68 105 143 170 196 235 287
#     4  10  18  28  47  73 102 135 161 184 230 298
#     4   9  16  27  46  68  95 132 163 192 233 288
#     4  11  20  29  45  74 112 144 167 201 249 295
#
# _framework density 17.814012999999999
#
# number of rings (size 3 to 8) (size 9 to 14) (size 15 to 20)
#    0.000    2.250    0.000    6.750    0.000    4.500 
#    0.000    4.375    0.000    0.000    0.000    0.000 
#    0.000    0.000    0.000    0.000    0.000    0.000 
#
# Total GULP energy -396571.753493 kJ/mol
# GULP energy per Si atom -12392.867297 kJ/mol
# Density = 1.777347 g / cm^3
# Si number density = 17.814013 Si / 1000 Ang^3
#
#
#
# Elastic Constant Matrix: (Units=GPa)
#
#
# Indices 1 2 3 4 5 6 
#
# 1 99.7670 37.7295 46.5623 0.0000 -2.7592 0.0000
# 2 37.7295 86.8554 36.7034 0.0000 -4.9066 0.0000
# 3 46.5623 36.7034 111.0970 0.0000 -20.4835 0.0000
# 4 0.0000 0.0000 0.0000 16.5898 0.0000 -2.3911
# 5 -2.7592 -4.9066 -20.4835 0.0000 17.2683 0.0000
# 6 0.0000 0.0000 0.0000 -2.3911 0.0000 13.9070
#
#
#
# Elastic Compliance Matrix: (Units=1/GPa)
#
#
# Indices 1 2 3 4 5 6 
#
# 1 0.013985 -0.004046 -0.005535 0.000000 -0.005481 0.000000
# 2 -0.004046 0.014598 -0.003176 0.000000 -0.000266 0.000000
# 3 -0.005535 -0.003176 0.015412 0.000000 0.016494 0.000000
# 4 0.000000 0.000000 0.000000 0.061810 0.000000 0.010627
# 5 -0.005481 -0.000266 0.016494 0.000000 0.076524 0.000000
# 6 0.000000 0.000000 0.000000 0.010627 0.000000 0.073733
#
#
# Mechanical properties :
#
#
# Convention : Reuss Voigt Hill
#
# Bulk Modulus (GPa) = 54.11199 59.96776 57.03987
# Shear Modulus (GPa) = 17.37707 21.33464 19.35585
#
# Velocity S-wave (km/s) = 3.12664 3.46444 3.29986
# Velocity P-wave (km/s) = 6.59367 7.05262 6.82700
#
# Compressibility (1/GPa) = 0.01848019
#
# Stress axis : x y z
#
# Youngs Moduli (GPa) = 71.50463 68.50268 64.88634
#
# Poissons Ratio (x) = 0.27713 0.35917
# Poissons Ratio (y) = 0.28928 0.20610
# Poissons Ratio (z) = 0.39580 0.21759
#
# Static dielectric constant tensor:
#      x y z
#    x 2.917640 0.000000 -0.253410 
#    y 0.000000 3.199420 0.000000 
#    z -0.253410 0.000000 3.412920 
# 
# 
# High freq. dielectric constant tensor:
#      x y z
#    x 1.641940 0.000000 -0.025160 
#    y 0.000000 1.684030 0.000000 
#    z -0.025160 0.000000 1.691320 
# 
# From -- ./inp_files/97784.got.cif
#   From: 2010.06.25/outbox.cif.g09.slc.cpg/sg12_49_cif.got.tgz:97784.got - 2010.06.28 00:19:55.
