data_PCOD8080315
_publ_section_title
;
Structure prediction by ZEFSAII (Michael W. Deem and Ramdas Pophale) SiO2 
 PCOD8080315
Probable space group: C 2/M
;
_chemical_formula_sum "Si O2"
_cell_formula_units_Z 56
_cell_length_a 28.087490
_cell_length_b 8.654901
_cell_length_c 18.445810
_cell_angle_alpha 90.000000
_cell_angle_beta 48.018804
_cell_angle_gamma 90.000000
_cell_volume 3333.300890
_symmetry_space_group_name_H-M "C 2/M"
_symmetry_group_IT_number 12
_symmetry_cell_setting 'monoclinic'
loop_
_space_group_symop_operation_xyz
x,y,z
-x,y,-z
-x,-y,-z
x,-y,z
1/2+x,1/2+y,z
1/2-x,1/2+y,-z
1/2-x,1/2-y,-z
1/2+x,1/2-y,z
loop_
_atom_site_type_symbol
_atom_site_label
_atom_site_fract_x
_atom_site_fract_y
_atom_site_fract_z
Si Si1 0.005445 0.678801 0.409632
Si Si2 0.313076 0.816855 0.972647
Si Si3 0.189867 0.321314 0.598587
Si Si4 0.748001 0.181465 0.681100
Si Si5 0.253093 0.681557 0.163489
Si Si6 0.871204 0.180989 0.783047
Si Si7 0.128696 0.681283 0.519912
O O1 0.020563 0.500000 0.377332
O O2 0.061018 0.785138 0.321874
O O3 0.000000 0.708700 0.500000
O O4 0.940059 0.733903 0.438576
O O5 0.371579 0.752534 0.864359
O O6 0.314100 0.000000 0.971371
O O7 0.250000 0.750000 0.000000
O O8 0.311520 0.754622 0.056724
O O9 0.203484 0.500000 0.586187
O O10 0.250000 0.250000 0.500000
O O11 0.190585 0.269776 0.682607
O O12 0.129777 0.283341 0.606639
O O13 0.733354 0.278439 0.767378
O O14 0.817302 0.223846 0.577756
O O15 0.747380 0.000000 0.700341
O O16 0.252384 0.500000 0.152330
O O17 0.184155 0.746547 0.210326
O O18 0.858929 0.000000 0.800462
O O19 0.140365 0.500000 0.492633
#
# Coordination Sequence:
#
# PCOD8080315 Si02
#       7
#     8   8   8   8   8   8   8
#     4  10  20  32  46  66  93 126 161 192 222 261
#     4  10  18  31  49  68  91 118 150 185 225 270
#     4   8  15  27  43  63  88 119 153 189 227 271
#     4  10  18  28  44  68  95 120 151 191 234 274
#     4  11  20  31  47  68  94 121 151 186 229 275
#     4  11  21  33  48  67  93 123 155 188 225 268
#     4   9  17  30  46  64  91 127 161 190 225 269
#
# _framework density 16.800163999999999
#
# number of rings (size 3 to 8) (size 9 to 14) (size 15 to 20)
#    0.000    2.143    0.000    6.857    0.000    2.571 
#    0.000    0.000    0.000    0.000    0.000    1.000 
#    0.000    8.000    0.000    0.000    0.000    0.000 
#
# Total GULP energy -346944.994618 kJ/mol
# GULP energy per Si atom -12390.892665 kJ/mol
# Density = 1.676193 g / cm^3
# Si number density = 16.800164 Si / 1000 Ang^3
#
#
#
# Elastic Constant Matrix: (Units=GPa)
#
#
# Indices 1 2 3 4 5 6 
#
# 1 107.7559 29.8483 43.6146 -0.0010 22.0919 0.0017
# 2 29.8483 101.4662 39.1747 0.0064 10.7510 -0.0055
# 3 43.6146 39.1747 93.1855 -0.0058 21.3491 0.0013
# 4 -0.0010 0.0064 -0.0058 24.4452 0.0012 -1.5046
# 5 22.0919 10.7510 21.3491 0.0012 24.4043 -0.0005
# 6 0.0017 -0.0055 0.0013 -1.5046 -0.0005 13.5811
#
#
#
# Elastic Compliance Matrix: (Units=1/GPa)
#
#
# Indices 1 2 3 4 5 6 
#
# 1 0.012729 -0.001562 -0.003525 0.000000 -0.007751 -0.000002
# 2 -0.001562 0.011979 -0.004277 -0.000004 -0.000122 0.000005
# 3 -0.003525 -0.004277 0.016279 0.000005 -0.009166 -0.000003
# 4 0.000000 -0.000004 0.000005 0.041189 -0.000005 0.004563
# 5 -0.007751 -0.000122 -0.009166 -0.000005 0.056064 0.000003
# 6 -0.000002 0.000005 -0.000003 0.004563 0.000003 0.074137
#
#
# Mechanical properties :
#
#
# Convention : Reuss Voigt Hill
#
# Bulk Modulus (GPa) = 44.92663 58.63141 51.77902
# Shear Modulus (GPa) = 20.96211 25.13746 23.04979
#
# Velocity S-wave (km/s) = 3.53616 3.87235 3.70807
# Velocity P-wave (km/s) = 6.59336 7.41408 7.01573
#
# Compressibility (1/GPa) = 0.02225851
#
# Stress axis : x y z
#
# Youngs Moduli (GPa) = 78.56192 83.47794 61.42830
#
# Poissons Ratio (x) = 0.13041 0.21655
# Poissons Ratio (y) = 0.12273 0.26273
# Poissons Ratio (z) = 0.27694 0.35703
#
# Static dielectric constant tensor:
#      x y z
#    x 3.495300 -0.000010 0.440980 
#    y -0.000010 3.183310 0.000020 
#    z 0.440980 0.000020 3.422700 
# 
# 
# High freq. dielectric constant tensor:
#      x y z
#    x 1.628210 0.000000 0.031420 
#    y 0.000000 1.659580 0.000000 
#    z 0.031420 0.000000 1.632270 
# 
# From -- ./inp_files/291828.got.cif
#   From: 2010.06.25/outbox.cif.g09.slc.cpg/sg12_146_cif.got.tgz:291828.got - 2010.06.28 00:19:55.
