data_PCOD8080909
_publ_section_title
;
Structure prediction by ZEFSAII (Michael W. Deem and Ramdas Pophale) SiO2 
 PCOD8080909
Probable space group: C 2/M
;
_chemical_formula_sum "Si O2"
_cell_formula_units_Z 64
_cell_length_a 23.210806
_cell_length_b 9.155737
_cell_length_c 21.273003
_cell_angle_alpha 90.000000
_cell_angle_beta 127.548799
_cell_angle_gamma 90.000000
_cell_volume 3584.222070
_symmetry_space_group_name_H-M "C 2/M"
_symmetry_group_IT_number 12
_symmetry_cell_setting 'monoclinic'
loop_
_space_group_symop_operation_xyz
x,y,z
-x,y,-z
-x,-y,-z
x,-y,z
1/2+x,1/2+y,z
1/2-x,1/2+y,-z
1/2-x,1/2-y,-z
1/2+x,1/2-y,z
loop_
_atom_site_type_symbol
_atom_site_label
_atom_site_fract_x
_atom_site_fract_y
_atom_site_fract_z
Si Si1 0.720746 0.333753 0.662767
Si Si2 0.823860 0.830155 0.034745
Si Si3 0.326356 0.828697 0.251520
Si Si4 0.074346 0.167525 0.266675
Si Si5 0.730986 0.672450 0.423010
Si Si6 0.883606 0.663510 0.821071
Si Si7 0.921010 0.168998 0.216155
Si Si8 0.333817 0.668822 0.901237
O O1 0.694116 0.500000 0.633753
O O2 0.668875 0.254138 0.678590
O O3 0.717551 0.242767 0.596057
O O4 0.801688 0.331234 0.742636
O O5 0.884402 0.787492 0.125690
O O6 0.805154 0.000000 0.023119
O O7 0.750000 0.750000 0.000000
O O8 0.853352 0.785855 0.985409
O O9 0.391456 0.770130 0.251852
O O10 0.250690 0.793082 0.166619
O O11 0.336545 0.000000 0.270150
O O12 0.146893 0.207577 0.352872
O O13 0.065995 0.258409 0.196886
O O14 0.006673 0.200567 0.267162
O O15 0.075321 0.000000 0.245917
O O16 0.746128 0.500000 0.436938
O O17 0.750000 0.750000 0.500000
O O18 0.912289 0.500000 0.848848
O O19 0.887251 0.742576 0.890890
O O20 0.905100 0.000000 0.221892
O O21 0.348383 0.500000 0.897132
#
# Coordination Sequence:
#
# PCOD8080909 Si02
#       8
#     8   8   8   8   8   8   8   8
#     4   9  17  30  49  75 103 129 164 205 244 289
#     4  10  19  31  47  69  97 129 169 213 253 293
#     4  10  18  29  47  72 101 132 168 208 251 291
#     4   9  19  35  52  72 100 133 165 199 242 298
#     4  10  19  33  55  81 106 130 160 199 245 294
#     4   9  17  29  48  71  93 124 165 209 250 290
#     4  10  20  33  50  71  98 134 172 206 246 296
#     4   9  17  29  45  67  95 127 164 208 255 296
#
# _framework density 17.856036
#
# number of rings (size 3 to 8) (size 9 to 14) (size 15 to 20)
#    0.000    2.500    1.250    1.500    0.000    5.000 
#    0.000    0.625    0.000    4.500    0.000    5.250 
#    0.000    0.000    0.000    0.000    0.000    0.000 
#
# Total GULP energy -396823.883119 kJ/mol
# GULP energy per Si atom -12400.746347 kJ/mol
# Density = 1.781539 g / cm^3
# Si number density = 17.856036 Si / 1000 Ang^3
#
#
#
# Elastic Constant Matrix: (Units=GPa)
#
#
# Indices 1 2 3 4 5 6 
#
# 1 103.8012 62.4347 52.3814 0.0000 -26.1939 0.0000
# 2 62.4347 106.5789 49.1787 0.0000 -21.8589 0.0000
# 3 52.3814 49.1787 78.7726 0.0000 -28.4386 0.0000
# 4 0.0000 0.0000 0.0000 23.7099 0.0000 -10.3501
# 5 -26.1939 -21.8589 -28.4386 0.0000 31.1819 0.0000
# 6 0.0000 0.0000 0.0000 -10.3501 0.0000 34.2613
#
#
#
# Elastic Compliance Matrix: (Units=1/GPa)
#
#
# Indices 1 2 3 4 5 6 
#
# 1 0.017933 -0.006761 -0.005928 0.000000 0.004918 0.000000
# 2 -0.006761 0.015870 -0.005137 0.000000 0.000760 0.000000
# 3 -0.005928 -0.005137 0.024967 0.000000 0.014189 0.000000
# 4 0.000000 0.000000 0.000000 0.048583 0.000000 0.014677
# 5 0.004918 0.000760 0.014189 0.000000 0.049674 0.000000
# 6 0.000000 0.000000 0.000000 0.014677 0.000000 0.033621
#
#
# Mechanical properties :
#
#
# Convention : Reuss Voigt Hill
#
# Bulk Modulus (GPa) = 43.26052 68.57137 55.91594
# Shear Modulus (GPa) = 21.36676 26.17448 23.77062
#
# Velocity S-wave (km/s) = 3.46296 3.83281 3.65257
# Velocity P-wave (km/s) = 6.34582 7.62056 7.01222
#
# Compressibility (1/GPa) = 0.02311577
#
# Stress axis : x y z
#
# Youngs Moduli (GPa) = 55.76217 63.01229 40.05317
#
# Poissons Ratio (x) = 0.42604 0.23745
# Poissons Ratio (y) = 0.37702 0.20577
# Poissons Ratio (z) = 0.33058 0.32372
#
# Static dielectric constant tensor:
#      x y z
#    x 3.320290 0.000000 -0.278430 
#    y 0.000000 3.402060 0.000000 
#    z -0.278430 0.000000 2.996110 
# 
# 
# High freq. dielectric constant tensor:
#      x y z
#    x 1.684290 0.000000 -0.027490 
#    y 0.000000 1.698360 0.000000 
#    z -0.027490 0.000000 1.661030 
# 
# From -- ./inp_files/320023.got.cif
#   From: 2010.06.25/outbox.cif.g09.slc.cpg/sg12_161_cif.got.tgz:320023.got - 2010.06.28 00:19:55.
