data_PCOD8080692
_publ_section_title
;
Structure prediction by ZEFSAII (Michael W. Deem and Ramdas Pophale) SiO2 
 PCOD8080692
Probable space group: C 2/M
;
_chemical_formula_sum "Si O2"
_cell_formula_units_Z 56
_cell_length_a 32.196683
_cell_length_b 9.143227
_cell_length_c 13.542784
_cell_angle_alpha 90.000000
_cell_angle_beta 63.601443
_cell_angle_gamma 90.000000
_cell_volume 3571.020072
_symmetry_space_group_name_H-M "C 2/M"
_symmetry_group_IT_number 12
_symmetry_cell_setting 'monoclinic'
loop_
_space_group_symop_operation_xyz
x,y,z
-x,y,-z
-x,-y,-z
x,-y,z
1/2+x,1/2+y,z
1/2-x,1/2+y,-z
1/2-x,1/2-y,-z
1/2+x,1/2-y,z
loop_
_atom_site_type_symbol
_atom_site_label
_atom_site_fract_x
_atom_site_fract_y
_atom_site_fract_z
Si Si1 0.276506 0.330077 0.836688
Si Si2 0.000215 0.834975 0.882469
Si Si3 0.590704 0.170889 0.017328
Si Si4 0.762224 0.168027 0.631202
Si Si5 0.408268 0.828530 0.213660
Si Si6 0.318725 0.828322 0.963484
Si Si7 0.819706 0.169429 0.378873
O O1 0.284194 0.500000 0.848560
O O2 0.283414 0.289770 0.714781
O O3 0.314905 0.244714 0.859754
O O4 0.224881 0.281419 0.923312
O O5 0.044268 0.743892 0.797557
O O6 0.953387 0.758211 0.893814
O O7 0.002659 0.000000 0.838468
O O8 0.000000 0.833929 0.000000
O O9 0.635112 0.227138 0.030868
O O10 0.581076 0.000000 0.042949
O O11 0.599869 0.205115 0.892935
O O12 0.802320 0.193211 0.508878
O O13 0.718223 0.269766 0.657184
O O14 0.744684 0.000000 0.649310
O O15 0.366948 0.758233 0.319494
O O16 0.410537 0.000000 0.232772
O O17 0.320679 0.000000 0.945968
O O18 0.828370 0.000000 0.345367
#
# Coordination Sequence:
#
# PCOD8080692 Si02
#       7
#     8   8   8   8   8   8   8
#     4   9  17  30  45  61  85 116 147 177 211 252
#     4   9  17  28  42  63  89 113 142 180 215 249
#     4   9  17  29  44  62  87 119 148 173 210 260
#     4   9  18  32  46  61  86 118 147 177 215 258
#     4  10  18  29  45  63  88 120 147 172 210 260
#     4   9  17  28  43  64  87 112 145 180 211 248
#     4  10  19  29  44  66  88 112 146 183 215 250
#
# _framework density 15.681793000000001
#
# number of rings (size 3 to 8) (size 9 to 14) (size 15 to 20)
#    0.000    2.714    0.000    2.143    0.000    6.286 
#    0.000    2.857    0.000    0.000    0.000    1.000 
#    0.000    8.000    0.000    0.000    0.000    0.000 
#
# Total GULP energy -347234.773800 kJ/mol
# GULP energy per Si atom -12401.241921 kJ/mol
# Density = 1.564610 g / cm^3
# Si number density = 15.681793 Si / 1000 Ang^3
#
#
#
# Elastic Constant Matrix: (Units=GPa)
#
#
# Indices 1 2 3 4 5 6 
#
# 1 119.6662 51.2395 47.0515 0.0000 -8.0989 0.0000
# 2 51.2395 78.2332 39.7832 0.0000 -10.9682 0.0000
# 3 47.0515 39.7832 67.2435 0.0000 -4.4000 0.0000
# 4 0.0000 0.0000 0.0000 24.3264 0.0000 -4.3359
# 5 -8.0989 -10.9682 -4.4000 0.0000 27.2620 0.0000
# 6 0.0000 0.0000 0.0000 -4.3359 0.0000 30.1375
#
#
#
# Elastic Compliance Matrix: (Units=1/GPa)
#
#
# Indices 1 2 3 4 5 6 
#
# 1 0.013046 -0.005470 -0.005845 0.000000 0.000732 0.000000
# 2 -0.005470 0.021487 -0.008515 0.000000 0.005645 0.000000
# 3 -0.005845 -0.008515 0.023913 0.000000 -0.001303 0.000000
# 4 0.000000 0.000000 0.000000 0.042189 0.000000 0.006070
# 5 0.000732 0.005645 -0.001303 0.000000 0.038960 0.000000
# 6 0.000000 0.000000 0.000000 0.006070 0.000000 0.034055
#
#
# Mechanical properties :
#
#
# Convention : Reuss Voigt Hill
#
# Bulk Modulus (GPa) = 53.22928 60.14347 56.68637
# Shear Modulus (GPa) = 22.77158 24.81642 23.79400
#
# Velocity S-wave (km/s) = 3.81478 3.98238 3.89948
# Velocity P-wave (km/s) = 7.30893 7.71890 7.51671
#
# Compressibility (1/GPa) = 0.01878665
#
# Stress axis : x y z
#
# Youngs Moduli (GPa) = 76.64957 46.54068 41.81742
#
# Poissons Ratio (x) = 0.25458 0.24441
# Poissons Ratio (y) = 0.41928 0.35608
# Poissons Ratio (z) = 0.44799 0.39630
#
# Static dielectric constant tensor:
#      x y z
#    x 2.985890 0.000000 -0.073170 
#    y 0.000000 3.077820 0.000000 
#    z -0.073170 0.000000 2.843130 
# 
# 
# High freq. dielectric constant tensor:
#      x y z
#    x 1.591480 0.000000 -0.011060 
#    y 0.000000 1.610680 0.000000 
#    z -0.011060 0.000000 1.575230 
# 
# From -- ./inp_files/247713.got.cif
#   From: 2010.06.25/outbox.cif.g09.slc.cpg/sg12_124_cif.got.tgz:247713.got - 2010.06.28 00:19:55.
