data_PCOD8080207
_publ_section_title
;
Structure prediction by ZEFSAII (Michael W. Deem and Ramdas Pophale) SiO2 
 PCOD8080207
Probable space group: C 2/M
;
_chemical_formula_sum "Si O2"
_cell_formula_units_Z 56
_cell_length_a 29.966576
_cell_length_b 13.068183
_cell_length_c 13.415106
_cell_angle_alpha 90.000000
_cell_angle_beta 42.736421
_cell_angle_gamma 90.000000
_cell_volume 3565.146473
_symmetry_space_group_name_H-M "C 2/M"
_symmetry_group_IT_number 12
_symmetry_cell_setting 'monoclinic'
loop_
_space_group_symop_operation_xyz
x,y,z
-x,y,-z
-x,-y,-z
x,-y,z
1/2+x,1/2+y,z
1/2-x,1/2+y,-z
1/2-x,1/2-y,-z
1/2+x,1/2-y,z
loop_
_atom_site_type_symbol
_atom_site_label
_atom_site_fract_x
_atom_site_fract_y
_atom_site_fract_z
Si Si1 0.430982 0.884438 0.316876
Si Si2 0.159403 0.308241 0.701370
Si Si3 0.100031 0.194802 0.513579
Si Si4 0.803516 0.119065 0.483542
Si Si5 0.461183 0.617295 0.797213
Si Si6 0.958048 0.731818 0.974841
Si Si7 0.076292 0.113570 0.350962
O O1 0.370874 0.873705 0.338939
O O2 0.415765 0.813293 0.437008
O O3 0.499566 0.854236 0.151529
O O4 0.436274 0.000000 0.346789
O O5 0.168734 0.189640 0.651901
O O6 0.226429 0.361205 0.624344
O O7 0.110702 0.314510 0.875395
O O8 0.163391 0.152292 0.466998
O O9 0.112070 0.184868 0.374563
O O10 0.038936 0.126761 0.650462
O O11 0.817215 0.000000 0.436248
O O12 0.444075 0.500000 0.844070
O O13 0.439856 0.676988 0.930454
O O14 0.419024 0.657302 0.769981
O O15 0.000000 0.774537 0.000000
O O16 0.000000 0.106294 0.500000
O O17 0.107523 0.000000 0.305837
#
# Coordination Sequence:
#
# PCOD8080207 Si02
#       7
#     8   8   8   8   8   8   8
#     4   9  17  29  44  61  82 111 145 175 205 244
#     4   9  19  30  40  61  86 110 142 171 205 247
#     4   9  16  26  42  65  87 105 135 174 208 245
#     4  10  18  28  43  61  84 110 136 171 209 248
#     4   9  16  26  43  66  89 111 133 164 210 255
#     4   9  18  29  42  61  84 111 142 174 203 240
#     4   8  13  23  41  63  86 110 133 162 205 252
#
# _framework density 15.707629000000001
#
# number of rings (size 3 to 8) (size 9 to 14) (size 15 to 20)
#    0.000    3.000    0.000    3.429    0.000    4.000 
#    0.000    0.000    0.000   11.571    0.000    0.000 
#    0.000    0.000    0.000    0.000    0.000    0.000 
#
# Total GULP energy -347038.529866 kJ/mol
# GULP energy per Si atom -12394.233210 kJ/mol
# Density = 1.567188 g / cm^3
# Si number density = 15.707629 Si / 1000 Ang^3
#
#
#
# Elastic Constant Matrix: (Units=GPa)
#
#
# Indices 1 2 3 4 5 6 
#
# 1 89.9183 43.0425 33.3885 0.0000 10.7475 0.0000
# 2 43.0425 108.2847 23.5668 0.0000 10.7165 0.0000
# 3 33.3885 23.5668 46.4591 0.0000 -1.3789 0.0000
# 4 0.0000 0.0000 0.0000 11.3773 0.0000 0.6570
# 5 10.7475 10.7165 -1.3789 0.0000 26.6291 0.0000
# 6 0.0000 0.0000 0.0000 0.6570 0.0000 19.4362
#
#
#
# Elastic Compliance Matrix: (Units=1/GPa)
#
#
# Indices 1 2 3 4 5 6 
#
# 1 0.017893 -0.004123 -0.010950 0.000000 -0.006130 0.000000
# 2 -0.004123 0.011887 -0.003165 0.000000 -0.003284 0.000000
# 3 -0.010950 -0.003165 0.031216 0.000000 0.007309 0.000000
# 4 0.000000 0.000000 0.000000 0.088066 0.000000 -0.002977
# 5 -0.006130 -0.003284 0.007309 0.000000 0.041727 0.000000
# 6 0.000000 0.000000 0.000000 -0.002977 0.000000 0.051551
#
#
# Mechanical properties :
#
#
# Convention : Reuss Voigt Hill
#
# Bulk Modulus (GPa) = 40.77961 49.40641 45.09301
# Shear Modulus (GPa) = 17.42225 21.13280 19.27753
#
# Velocity S-wave (km/s) = 3.33402 3.67193 3.50704
# Velocity P-wave (km/s) = 6.39053 7.03558 6.72080
#
# Compressibility (1/GPa) = 0.02452206
#
# Stress axis : x y z
#
# Youngs Moduli (GPa) = 55.88695 84.12274 32.03500
#
# Poissons Ratio (x) = 0.34682 0.35078
# Poissons Ratio (y) = 0.23041 0.10138
# Poissons Ratio (z) = 0.61196 0.26621
#
# Static dielectric constant tensor:
#      x y z
#    x 3.215130 0.000000 0.122920 
#    y 0.000000 2.885070 0.000000 
#    z 0.122920 0.000000 2.798090 
# 
# 
# High freq. dielectric constant tensor:
#      x y z
#    x 1.601760 0.000000 0.003990 
#    y 0.000000 1.592690 0.000000 
#    z 0.003990 0.000000 1.569070 
# 
# From -- ./inp_files/239272.got.cif
#   From: 2010.06.25/outbox.cif.g09.slc.cpg/sg12_120_cif.got.tgz:239272.got - 2010.06.28 00:19:55.
