data_PCOD8080399
_publ_section_title
;
Structure prediction by ZEFSAII (Michael W. Deem and Ramdas Pophale) SiO2 
 PCOD8080399
Probable space group: C 2/M
;
_chemical_formula_sum "Si O2"
_cell_formula_units_Z 48
_cell_length_a 19.460896
_cell_length_b 8.855431
_cell_length_c 20.646223
_cell_angle_alpha 90.000000
_cell_angle_beta 48.754954
_cell_angle_gamma 90.000000
_cell_volume 2675.293250
_symmetry_space_group_name_H-M "C 2/M"
_symmetry_group_IT_number 12
_symmetry_cell_setting 'monoclinic'
loop_
_space_group_symop_operation_xyz
x,y,z
-x,y,-z
-x,-y,-z
x,-y,z
1/2+x,1/2+y,z
1/2-x,1/2+y,-z
1/2-x,1/2-y,-z
1/2+x,1/2-y,z
loop_
_atom_site_type_symbol
_atom_site_label
_atom_site_fract_x
_atom_site_fract_y
_atom_site_fract_z
Si Si1 0.511644 0.823122 0.283685
Si Si2 0.298222 0.324831 0.030313
Si Si3 0.703542 0.821285 0.216881
Si Si4 0.822022 0.179225 0.407130
Si Si5 0.517889 0.673834 0.145678
Si Si6 0.185637 0.823425 0.733242
O O1 0.596601 0.780501 0.277580
O O2 0.423562 0.732539 0.363588
O O3 0.540139 0.778291 0.193324
O O4 0.490068 0.000000 0.299585
O O5 0.273242 0.500000 0.043349
O O6 0.260972 0.254061 0.120488
O O7 0.250000 0.250000 0.000000
O O8 0.407497 0.297613 0.956754
O O9 0.744328 0.750375 0.258194
O O10 0.718091 0.000000 0.208619
O O11 0.750000 0.250000 0.500000
O O12 0.799068 0.240063 0.348909
O O13 0.817882 0.000000 0.414005
O O14 0.519742 0.500000 0.168669
O O15 0.417914 0.712697 0.179428
O O16 0.203570 0.000000 0.719227
#
# Coordination Sequence:
#
# PCOD8080399 Si02
#       6
#     8   8   8   8   8   8
#     4  10  18  30  51  75 100 131 164 200 244 294
#     4  10  18  28  45  71 100 133 173 212 245 282
#     4   9  17  29  47  73 102 132 167 207 248 285
#     4  10  20  36  58  79  98 124 159 201 245 298
#     4   9  17  29  47  70  98 134 173 211 247 283
#     4   8  16  31  49  72 100 127 162 207 250 289
#
# _framework density 17.941959000000001
#
# number of rings (size 3 to 8) (size 9 to 14) (size 15 to 20)
#    0.000    2.667    1.667    2.000    0.000    0.667 
#    0.000    4.167    0.000   20.000    0.000    5.833 
#    0.000    0.000    0.000    0.000    0.000    0.000 
#
# Total GULP energy -297476.053471 kJ/mol
# GULP energy per Si atom -12394.835561 kJ/mol
# Density = 1.790112 g / cm^3
# Si number density = 17.941959 Si / 1000 Ang^3
#
#
#
# Elastic Constant Matrix: (Units=GPa)
#
#
# Indices 1 2 3 4 5 6 
#
# 1 156.0077 29.2250 74.9474 0.0000 -2.0377 0.0000
# 2 29.2250 41.9983 31.1534 0.0000 -4.8646 0.0000
# 3 74.9474 31.1534 144.1007 0.0000 -8.9573 0.0000
# 4 0.0000 0.0000 0.0000 24.2113 0.0000 -3.0758
# 5 -2.0377 -4.8646 -8.9573 0.0000 20.0037 0.0000
# 6 0.0000 0.0000 0.0000 -3.0758 0.0000 19.8420
#
#
#
# Elastic Compliance Matrix: (Units=1/GPa)
#
#
# Indices 1 2 3 4 5 6 
#
# 1 0.008968 -0.003455 -0.004025 0.000000 -0.001729 0.000000
# 2 -0.003455 0.030049 -0.004389 0.000000 0.004990 0.000000
# 3 -0.004025 -0.004389 0.010173 0.000000 0.003078 0.000000
# 4 0.000000 0.000000 0.000000 0.042133 0.000000 0.006531
# 5 -0.001729 0.004990 0.003078 0.000000 0.052406 0.000000
# 6 0.000000 0.000000 0.000000 0.006531 0.000000 0.051411
#
#
# Mechanical properties :
#
#
# Convention : Reuss Voigt Hill
#
# Bulk Modulus (GPa) = 39.29030 68.08425 53.68727
# Shear Modulus (GPa) = 21.99140 26.59681 24.29410
#
# Velocity S-wave (km/s) = 3.50479 3.85435 3.68372
# Velocity P-wave (km/s) = 6.19065 7.60508 6.93403
#
# Compressibility (1/GPa) = 0.02545158
#
# Stress axis : x y z
#
# Youngs Moduli (GPa) = 111.50468 33.27953 98.29831
#
# Poissons Ratio (x) = 0.11499 0.39564
# Poissons Ratio (y) = 0.38529 0.43142
# Poissons Ratio (z) = 0.44879 0.14606
#
# Static dielectric constant tensor:
#      x y z
#    x 3.617250 0.000000 -0.038760 
#    y 0.000000 3.066650 0.000000 
#    z -0.038760 0.000000 3.472680 
# 
# 
# High freq. dielectric constant tensor:
#      x y z
#    x 1.692360 0.000000 -0.013410 
#    y 0.000000 1.664330 0.000000 
#    z -0.013410 0.000000 1.689430 
# 
# From -- ./inp_files/248790.got.cif
#   From: 2010.06.25/outbox.cif.g09.slc.cpg/sg12_125_cif.got.tgz:248790.got - 2010.06.28 00:19:55.
