data_PCOD8080037
_publ_section_title
;
Structure prediction by ZEFSAII (Michael W. Deem and Ramdas Pophale) SiO2 
 PCOD8080037
Probable space group: C 2/M
;
_chemical_formula_sum "Si O2"
_cell_formula_units_Z 40
_cell_length_a 19.947948
_cell_length_b 9.023666
_cell_length_c 16.204468
_cell_angle_alpha 90.000000
_cell_angle_beta 52.621954
_cell_angle_gamma 90.000000
_cell_volume 2317.877201
_symmetry_space_group_name_H-M "C 2/M"
_symmetry_group_IT_number 12
_symmetry_cell_setting 'monoclinic'
loop_
_space_group_symop_operation_xyz
x,y,z
-x,y,-z
-x,-y,-z
x,-y,z
1/2+x,1/2+y,z
1/2-x,1/2+y,-z
1/2-x,1/2-y,-z
1/2+x,1/2-y,z
loop_
_atom_site_type_symbol
_atom_site_label
_atom_site_fract_x
_atom_site_fract_y
_atom_site_fract_z
Si Si1 0.867814 0.823918 0.614691
Si Si2 0.819685 0.323951 0.217748
Si Si3 0.983877 0.824030 0.383038
Si Si4 0.425164 0.163109 0.990873
Si Si5 0.035073 0.175524 0.787940
O O1 0.773827 0.760360 0.696331
O O2 0.905547 0.770707 0.498509
O O3 0.928416 0.765360 0.642944
O O4 0.864440 0.000000 0.620473
O O5 0.826972 0.500000 0.225939
O O6 0.881471 0.245945 0.236034
O O7 0.843779 0.283589 0.104584
O O8 0.972692 0.762435 0.299260
O O9 0.986097 0.000000 0.379703
O O10 0.449862 0.276768 0.900087
O O11 0.409410 0.000000 0.963862
O O12 0.500000 0.153051 0.000000
O O13 0.042806 0.000000 0.785856
#
# Coordination Sequence:
#
# PCOD8080037 Si02
#       5
#     8   8   8   8   8
#     4   8  14  28  47  63  84 115 148 179 210 250
#     4   9  17  29  47  67  85 112 149 181 209 249
#     4   8  15  27  44  66  88 112 144 179 214 254
#     4   8  15  28  43  61  86 116 148 175 205 252
#     4  10  18  27  43  68  93 113 138 177 221 258
#
# _framework density 17.257169999999999
#
# number of rings (size 3 to 8) (size 9 to 14) (size 15 to 20)
#    0.000    3.400    0.000    3.000    0.000    4.400 
#    0.000    1.000    0.000    3.600    0.000    7.000 
#    0.000    0.000    0.000    0.000    0.000    0.000 
#
# Total GULP energy -247826.874120 kJ/mol
# GULP energy per Si atom -12391.343706 kJ/mol
# Density = 1.721789 g / cm^3
# Si number density = 17.257170 Si / 1000 Ang^3
#
#
#
# Elastic Constant Matrix: (Units=GPa)
#
#
# Indices 1 2 3 4 5 6 
#
# 1 94.9103 28.9701 93.6210 0.0000 0.6219 0.0000
# 2 28.9701 34.1959 36.0167 0.0001 1.3713 -0.0002
# 3 93.6210 36.0167 172.2162 0.0000 -2.1079 -0.0001
# 4 0.0000 0.0001 0.0000 19.4090 -0.0001 0.3542
# 5 0.6219 1.3713 -2.1079 -0.0001 18.3055 0.0001
# 6 0.0000 -0.0002 -0.0001 0.3542 0.0001 12.7796
#
#
#
# Elastic Compliance Matrix: (Units=1/GPa)
#
#
# Indices 1 2 3 4 5 6 
#
# 1 0.024607 -0.008562 -0.011605 0.000000 -0.001531 0.000000
# 2 -0.008562 0.040738 -0.003904 0.000000 -0.003211 0.000001
# 3 -0.011605 -0.003904 0.012959 0.000000 0.002179 0.000000
# 4 0.000000 0.000000 0.000000 0.051548 0.000000 -0.001429
# 5 -0.001531 -0.003211 0.002179 0.000000 0.055172 0.000000
# 6 0.000000 0.000001 0.000000 -0.001429 0.000000 0.078290
#
#
# Mechanical properties :
#
#
# Convention : Reuss Voigt Hill
#
# Bulk Modulus (GPa) = 33.15610 68.72645 50.94127
# Shear Modulus (GPa) = 15.55153 19.61312 17.58232
#
# Velocity S-wave (km/s) = 3.00519 3.37489 3.19539
# Velocity P-wave (km/s) = 5.59430 7.42279 6.57245
#
# Compressibility (1/GPa) = 0.03016037
#
# Stress axis : x y z
#
# Youngs Moduli (GPa) = 40.63814 24.54698 77.16770
#
# Poissons Ratio (x) = 0.21018 0.89555
# Poissons Ratio (y) = 0.34796 0.30130
# Poissons Ratio (z) = 0.47162 0.09584
#
# Static dielectric constant tensor:
#      x y z
#    x 3.211810 0.000000 -0.124150 
#    y 0.000000 2.835070 0.000000 
#    z -0.124150 0.000000 3.835060 
# 
# 
# High freq. dielectric constant tensor:
#      x y z
#    x 1.643070 0.000000 -0.004500 
#    y 0.000000 1.625640 0.000000 
#    z -0.004500 0.000000 1.682330 
# 
# From -- ./inp_files/221237.got.cif
#   From: 2010.06.25/outbox.cif.g09.slc.cpg/sg12_111_cif.got.tgz:221237.got - 2010.06.28 00:19:55.
