data_PCOD8080395
_publ_section_title
;
Structure prediction by ZEFSAII (Michael W. Deem and Ramdas Pophale) SiO2 
 PCOD8080395
Probable space group: C 2/M
;
_chemical_formula_sum "Si O2"
_cell_formula_units_Z 56
_cell_length_a 33.469838
_cell_length_b 8.437862
_cell_length_c 18.588552
_cell_angle_alpha 90.000000
_cell_angle_beta 37.054798
_cell_angle_gamma 90.000000
_cell_volume 3163.335606
_symmetry_space_group_name_H-M "C 2/M"
_symmetry_group_IT_number 12
_symmetry_cell_setting 'monoclinic'
loop_
_space_group_symop_operation_xyz
x,y,z
-x,y,-z
-x,-y,-z
x,-y,z
1/2+x,1/2+y,z
1/2-x,1/2+y,-z
1/2-x,1/2-y,-z
1/2+x,1/2-y,z
loop_
_atom_site_type_symbol
_atom_site_label
_atom_site_fract_x
_atom_site_fract_y
_atom_site_fract_z
Si Si1 0.746173 0.817767 0.758530
Si Si2 0.110592 0.186826 0.011289
Si Si3 0.144276 0.817443 0.668404
Si Si4 0.151045 0.820515 0.100303
Si Si5 0.772739 0.682658 0.571205
Si Si6 0.285073 0.686389 0.856433
Si Si7 0.507356 0.816704 0.908015
O O1 0.670396 0.772047 0.883906
O O2 0.775802 0.714523 0.651533
O O3 0.795185 0.788205 0.756546
O O4 0.746840 0.000000 0.733942
O O5 0.125821 0.000000 0.989816
O O6 0.105845 0.255908 0.101380
O O7 0.041664 0.217929 0.071710
O O8 0.171172 0.784974 0.549496
O O9 0.200321 0.769593 0.645667
O O10 0.081594 0.708197 0.774123
O O11 0.123391 0.000000 0.705626
O O12 0.151351 0.760968 0.184063
O O13 0.128496 0.000000 0.135405
O O14 0.225949 0.800667 0.965010
O O15 0.787351 0.500000 0.533994
O O16 0.268105 0.500000 0.895475
O O17 0.488036 0.000000 0.930546
O O18 0.500000 0.754382 0.000000
#
# Coordination Sequence:
#
# PCOD8080395 Si02
#       7
#     8   8   8   8   8   8   8
#     4  10  18  28  45  70  99 128 158 192 231 276
#     4  10  19  30  46  68  95 127 161 196 234 277
#     4  10  21  36  53  71  92 121 157 194 232 274
#     4   8  14  25  40  60  88 121 155 189 227 272
#     4  10  20  34  52  72  95 122 153 192 234 276
#     4   8  14  24  39  61  90 122 153 187 227 271
#     4  11  23  36  50  69  95 126 158 192 230 275
#
# _framework density 17.702832000000001
#
# number of rings (size 3 to 8) (size 9 to 14) (size 15 to 20)
#    0.000    2.429    0.000    3.000    0.000    6.286 
#    0.000    0.000    0.000    0.000    0.000    1.000 
#    0.000    8.000    0.000    0.000    0.000    0.000 
#
# Total GULP energy -346870.015131 kJ/mol
# GULP energy per Si atom -12388.214826 kJ/mol
# Density = 1.766254 g / cm^3
# Si number density = 17.702832 Si / 1000 Ang^3
#
#
#
# Elastic Constant Matrix: (Units=GPa)
#
#
# Indices 1 2 3 4 5 6 
#
# 1 141.7828 15.2529 46.4620 -0.0006 20.8531 -0.0005
# 2 15.2529 29.2673 5.9110 -0.0019 1.6322 0.0015
# 3 46.4620 5.9110 63.8756 -0.0053 12.0859 0.0008
# 4 -0.0006 -0.0019 -0.0053 23.0153 -0.0001 3.3109
# 5 20.8531 1.6322 12.0859 -0.0001 22.8891 0.0003
# 6 -0.0005 0.0015 0.0008 3.3109 0.0003 19.4039
#
#
#
# Elastic Compliance Matrix: (Units=1/GPa)
#
#
# Indices 1 2 3 4 5 6 
#
# 1 0.010312 -0.003827 -0.006023 -0.000002 -0.005942 0.000001
# 2 -0.003827 0.036254 -0.000824 0.000003 0.001336 -0.000003
# 3 -0.006023 -0.000824 0.021179 0.000005 -0.005637 -0.000002
# 4 -0.000002 0.000003 0.000005 0.044543 -0.000001 -0.007600
# 5 -0.005942 0.001336 -0.005637 -0.000001 0.051984 -0.000001
# 6 0.000001 -0.000003 -0.000002 -0.007600 -0.000001 0.052833
#
#
# Mechanical properties :
#
#
# Convention : Reuss Voigt Hill
#
# Bulk Modulus (GPa) = 21.55244 41.13081 31.34163
# Shear Modulus (GPa) = 19.69140 24.21497 21.95318
#
# Velocity S-wave (km/s) = 3.33878 3.70247 3.52532
# Velocity P-wave (km/s) = 5.20233 6.44687 5.85775
#
# Compressibility (1/GPa) = 0.04639846
#
# Stress axis : x y z
#
# Youngs Moduli (GPa) = 96.97232 27.58307 47.21649
#
# Poissons Ratio (x) = 0.10555 0.28436
# Poissons Ratio (y) = 0.37107 0.03892
# Poissons Ratio (z) = 0.58402 0.02274
#
# Static dielectric constant tensor:
#      x y z
#    x 3.778760 0.000000 0.315150 
#    y 0.000000 3.234360 0.000010 
#    z 0.315150 0.000010 2.851010 
# 
# 
# High freq. dielectric constant tensor:
#      x y z
#    x 1.701640 0.000000 0.027680 
#    y 0.000000 1.687580 0.000000 
#    z 0.027680 0.000000 1.629880 
# 
# From -- ./inp_files/281039.got.cif
#   From: 2010.06.25/outbox.cif.g09.slc.cpg/sg12_141_cif.got.tgz:281039.got - 2010.06.28 00:19:55.
