data_PCOD8080212
_publ_section_title
;
Structure prediction by ZEFSAII (Michael W. Deem and Ramdas Pophale) SiO2 
 PCOD8080212
Probable space group: C 2/M
;
_chemical_formula_sum "Si O2"
_cell_formula_units_Z 64
_cell_length_a 25.913281
_cell_length_b 17.647315
_cell_length_c 11.593022
_cell_angle_alpha 90.000000
_cell_angle_beta 48.060092
_cell_angle_gamma 90.000000
_cell_volume 3943.490989
_symmetry_space_group_name_H-M "C 2/M"
_symmetry_group_IT_number 12
_symmetry_cell_setting 'monoclinic'
loop_
_space_group_symop_operation_xyz
x,y,z
-x,y,-z
-x,-y,-z
x,-y,z
1/2+x,1/2+y,z
1/2-x,1/2+y,-z
1/2-x,1/2-y,-z
1/2+x,1/2-y,z
loop_
_atom_site_type_symbol
_atom_site_label
_atom_site_fract_x
_atom_site_fract_y
_atom_site_fract_z
Si Si1 0.815412 0.910440 0.917025
Si Si2 0.261160 0.912929 0.744237
Si Si3 0.806514 0.300410 0.282753
Si Si4 0.900746 0.850034 0.389454
Si Si5 0.668778 0.203308 0.504627
Si Si6 0.952151 0.090008 0.837549
Si Si7 0.277758 0.411696 0.722353
Si Si8 0.374231 0.648601 0.160919
O O1 0.890975 0.880789 0.844243
O O2 0.795430 0.877322 0.822344
O O3 0.819687 0.000000 0.904078
O O4 0.757248 0.886830 0.098029
O O5 0.324754 0.861752 0.601890
O O6 0.193749 0.901518 0.765053
O O7 0.284713 0.000000 0.704367
O O8 0.733332 0.259914 0.409508
O O9 0.834980 0.333696 0.361981
O O10 0.792468 0.369845 0.216546
O O11 0.860450 0.237834 0.154396
O O12 0.895944 0.759473 0.423412
O O13 0.843547 0.898994 0.542022
O O14 0.891682 0.865708 0.267495
O O15 0.976024 0.877383 0.318334
O O16 0.955729 0.000000 0.837789
O O17 0.938181 0.121694 0.987047
O O18 0.259916 0.500000 0.755307
#
# Coordination Sequence:
#
# PCOD8080212 Si02
#       8
#     8   8   8   8   8   8   8   8
#     4   8  17  30  41  59  86 112 139 176 211 235
#     4   9  15  26  44  60  79 106 134 171 214 248
#     4   8  15  27  41  58  84 111 131 167 219 253
#     4  10  19  28  40  60  87 115 138 169 211 248
#     4   8  15  27  40  59  85 107 133 170 214 255
#     4  10  19  30  44  61  83 115 151 175 195 235
#     4  10  18  28  43  62  85 114 145 170 202 251
#     4   9  17  29  42  61  87 108 135 176 215 246
#
# _framework density 16.229275999999999
#
# number of rings (size 3 to 8) (size 9 to 14) (size 15 to 20)
#    0.000    3.000    0.000    4.125    0.000    4.500 
#    0.000   11.875    0.000    0.000    0.000    0.875 
#    0.000    4.000    0.000   26.000    0.000   12.125 
#
# Total GULP energy -396591.409307 kJ/mol
# GULP energy per Si atom -12393.481541 kJ/mol
# Density = 1.619234 g / cm^3
# Si number density = 16.229276 Si / 1000 Ang^3
#
#
#
# Elastic Constant Matrix: (Units=GPa)
#
#
# Indices 1 2 3 4 5 6 
#
# 1 57.4819 38.5406 29.6510 0.0000 16.3120 0.0000
# 2 38.5406 78.3128 40.2805 0.0000 4.4969 0.0000
# 3 29.6510 40.2805 56.1494 0.0000 6.8575 0.0000
# 4 0.0000 0.0000 0.0000 20.7550 0.0000 -5.3272
# 5 16.3120 4.4969 6.8575 0.0000 20.2055 0.0000
# 6 0.0000 0.0000 0.0000 -5.3272 0.0000 21.4709
#
#
#
# Elastic Compliance Matrix: (Units=1/GPa)
#
#
# Indices 1 2 3 4 5 6 
#
# 1 0.036661 -0.013020 -0.007051 0.000000 -0.024306 0.000000
# 2 -0.013020 0.024864 -0.012070 0.000000 0.009074 0.000000
# 3 -0.007051 -0.012070 0.030430 0.000000 -0.001949 0.000000
# 4 0.000000 0.000000 0.000000 0.051458 0.000000 0.012767
# 5 -0.024306 0.009074 -0.001949 0.000000 0.067756 0.000000
# 6 0.000000 0.000000 0.000000 0.012767 0.000000 0.049742
#
#
# Mechanical properties :
#
#
# Convention : Reuss Voigt Hill
#
# Bulk Modulus (GPa) = 36.13563 45.43204 40.78383
# Shear Modulus (GPa) = 14.95143 18.05108 16.50126
#
# Velocity S-wave (km/s) = 3.03852 3.33867 3.19212
# Velocity P-wave (km/s) = 5.88423 6.55110 6.22660
#
# Compressibility (1/GPa) = 0.02767352
#
# Stress axis : x y z
#
# Youngs Moduli (GPa) = 27.27704 40.21911 32.86267
#
# Poissons Ratio (x) = 0.52364 0.23172
# Poissons Ratio (y) = 0.35514 0.39664
# Poissons Ratio (z) = 0.19233 0.48543
#
# Static dielectric constant tensor:
#      x y z
#    x 3.100240 0.000000 0.214170 
#    y 0.000000 3.079590 0.000000 
#    z 0.214170 0.000000 3.099730 
# 
# 
# High freq. dielectric constant tensor:
#      x y z
#    x 1.598790 0.000000 0.023440 
#    y 0.000000 1.608830 0.000000 
#    z 0.023440 0.000000 1.610050 
# 
# From -- ./inp_files/177116.got.cif
#   From: 2010.06.25/outbox.cif.g09.slc.cpg/sg12_89_cif.got.tgz:177116.got - 2010.06.28 00:19:55.
