data_PCOD8080908
_publ_section_title
;
Structure prediction by ZEFSAII (Michael W. Deem and Ramdas Pophale) SiO2 
 PCOD8080908
Probable space group: C 2/M
;
_chemical_formula_sum "Si O2"
_cell_formula_units_Z 64
_cell_length_a 19.234698
_cell_length_b 9.201701
_cell_length_c 20.560607
_cell_angle_alpha 90.000000
_cell_angle_beta 96.242775
_cell_angle_gamma 90.000000
_cell_volume 3617.482294
_symmetry_space_group_name_H-M "C 2/M"
_symmetry_group_IT_number 12
_symmetry_cell_setting 'monoclinic'
loop_
_space_group_symop_operation_xyz
x,y,z
-x,y,-z
-x,-y,-z
x,-y,z
1/2+x,1/2+y,z
1/2-x,1/2+y,-z
1/2-x,1/2-y,-z
1/2+x,1/2-y,z
loop_
_atom_site_type_symbol
_atom_site_label
_atom_site_fract_x
_atom_site_fract_y
_atom_site_fract_z
Si Si1 0.379812 0.332514 0.158503
Si Si2 0.269446 0.829532 0.067616
Si Si3 0.128599 0.673074 0.618223
Si Si4 0.478243 0.827128 0.654866
Si Si5 0.577663 0.159319 0.480803
Si Si6 0.821044 0.165827 0.819284
Si Si7 0.969235 0.833014 0.785027
Si Si8 0.714769 0.332377 0.727657
O O1 0.372933 0.500000 0.135741
O O2 0.343036 0.231908 0.101223
O O3 0.460449 0.281480 0.171291
O O4 0.345317 0.307716 0.225118
O O5 0.207910 0.793230 0.112582
O O6 0.277508 0.000000 0.055628
O O7 0.250000 0.750000 0.000000
O O8 0.139096 0.500000 0.619745
O O9 0.123848 0.734249 0.542796
O O10 0.193533 0.750822 0.659346
O O11 0.058402 0.716519 0.649775
O O12 0.428467 0.764047 0.590870
O O13 0.452924 0.758175 0.719105
O O14 0.470706 0.000000 0.657627
O O15 0.500000 0.141733 0.500000
O O16 0.609932 0.000000 0.472869
O O17 0.904582 0.188992 0.827809
O O18 0.787260 0.266923 0.760823
O O19 0.800938 0.000000 0.800558
O O20 0.978217 0.000000 0.764721
O O21 0.726806 0.500000 0.712727
#
# Coordination Sequence:
#
# PCOD8080908 Si02
#       8
#     8   8   8   8   8   8   8   8
#     4   9  18  32  51  75 102 131 161 196 240 286
#     4  10  20  36  58  80 101 129 164 198 234 280
#     4   9  15  25  44  67  94 128 167 206 246 297
#     4   9  16  26  44  69  97 129 165 204 248 295
#     4   7  12  23  38  61  92 126 163 203 245 292
#     4   9  20  36  53  73  99 133 168 196 234 295
#     4  10  19  33  51  73 103 133 162 202 247 291
#     4  10  18  29  47  72 100 127 161 210 256 288
#
# _framework density 17.691863000000001
#
# number of rings (size 3 to 8) (size 9 to 14) (size 15 to 20)
#    0.000    2.875    1.250    2.250    0.000    2.000 
#    0.000    1.250    0.000    6.750    0.000    0.000 
#    0.000    0.000    0.000    0.000    0.000    0.000 
#
# Total GULP energy -396591.870258 kJ/mol
# GULP energy per Si atom -12393.495946 kJ/mol
# Density = 1.765160 g / cm^3
# Si number density = 17.691863 Si / 1000 Ang^3
#
#
#
# Elastic Constant Matrix: (Units=GPa)
#
#
# Indices 1 2 3 4 5 6 
#
# 1 90.1383 31.3033 48.1629 0.0000 11.9144 0.0000
# 2 31.3033 61.5512 53.2774 0.0000 12.2082 0.0000
# 3 48.1629 53.2774 132.1174 0.0000 21.8467 0.0000
# 4 0.0000 0.0000 0.0000 26.5730 0.0000 3.4251
# 5 11.9144 12.2082 21.8467 0.0000 21.1878 0.0000
# 6 0.0000 0.0000 0.0000 3.4251 0.0000 20.2015
#
#
#
# Elastic Compliance Matrix: (Units=1/GPa)
#
#
# Indices 1 2 3 4 5 6 
#
# 1 0.014586 -0.004115 -0.003248 0.000000 -0.002483 0.000000
# 2 -0.004115 0.026535 -0.008505 0.000000 -0.004206 0.000000
# 3 -0.003248 -0.008505 0.013346 0.000000 -0.007034 0.000000
# 4 0.000000 0.000000 0.000000 0.038473 0.000000 -0.006523
# 5 -0.002483 -0.004206 -0.007034 0.000000 0.058270 0.000000
# 6 0.000000 0.000000 0.000000 -0.006523 0.000000 0.050607
#
#
# Mechanical properties :
#
#
# Convention : Reuss Voigt Hill
#
# Bulk Modulus (GPa) = 43.98939 61.03266 52.51102
# Shear Modulus (GPa) = 20.73573 23.66334 22.19953
#
# Velocity S-wave (km/s) = 3.42723 3.66119 3.54614
# Velocity P-wave (km/s) = 6.37020 7.24188 6.81998
#
# Compressibility (1/GPa) = 0.02273275
#
# Stress axis : x y z
#
# Youngs Moduli (GPa) = 68.55660 37.68564 74.93001
#
# Poissons Ratio (x) = 0.15507 0.24334
# Poissons Ratio (y) = 0.28210 0.63728
# Poissons Ratio (z) = 0.22264 0.32052
#
# Static dielectric constant tensor:
#      x y z
#    x 3.100060 0.000000 0.152070 
#    y 0.000000 3.125520 0.000000 
#    z 0.152070 0.000000 3.339960 
# 
# 
# High freq. dielectric constant tensor:
#      x y z
#    x 1.658370 0.000000 0.016710 
#    y 0.000000 1.668760 0.000000 
#    z 0.016710 0.000000 1.682300 
# 
# From -- ./inp_files/319222.got.cif
#   From: 2010.06.25/outbox.cif.g09.slc.cpg/sg12_160_cif.got.tgz:319222.got - 2010.06.28 00:19:55.
