data_PCOD8080141
_publ_section_title
;
Structure prediction by ZEFSAII (Michael W. Deem and Ramdas Pophale) SiO2 
 PCOD8080141
Probable space group: C 2/M
;
_chemical_formula_sum "Si O2"
_cell_formula_units_Z 56
_cell_length_a 11.741294
_cell_length_b 26.616518
_cell_length_c 18.733147
_cell_angle_alpha 90.000000
_cell_angle_beta 142.374671
_cell_angle_gamma 90.000000
_cell_volume 3574.047401
_symmetry_space_group_name_H-M "C 2/M"
_symmetry_group_IT_number 12
_symmetry_cell_setting 'monoclinic'
loop_
_space_group_symop_operation_xyz
x,y,z
-x,y,-z
-x,-y,-z
x,-y,z
1/2+x,1/2+y,z
1/2-x,1/2+y,-z
1/2-x,1/2-y,-z
1/2+x,1/2-y,z
loop_
_atom_site_type_symbol
_atom_site_label
_atom_site_fract_x
_atom_site_fract_y
_atom_site_fract_z
Si Si1 0.151039 0.184103 0.901862
Si Si2 0.489062 0.204318 0.328216
Si Si3 0.999663 0.444802 0.583643
Si Si4 0.985568 0.295730 0.162346
Si Si5 0.774177 0.859841 0.550083
Si Si6 0.722659 0.638627 0.282549
Si Si7 0.644854 0.686643 0.737522
O O1 0.045287 0.236548 0.865296
O O2 0.226357 0.182773 0.858141
O O3 0.000522 0.139509 0.839979
O O4 0.323114 0.174557 0.039815
O O5 0.477503 0.187954 0.240083
O O6 0.678788 0.184049 0.456851
O O7 0.309286 0.182969 0.278986
O O8 0.483668 0.264094 0.332793
O O9 0.999013 0.500000 0.620374
O O10 0.815555 0.413599 0.516756
O O11 0.000000 0.452539 0.500000
O O12 0.187962 0.414362 0.698240
O O13 0.185275 0.313769 0.232613
O O14 0.729254 0.849887 0.611022
O O15 0.998166 0.858741 0.647941
#
# Coordination Sequence:
#
# PCOD8080141 Si02
#       7
#     8   8   8   8   8   8   8
#     4   9  18  30  42  58  84 118 151 180 212 236
#     4  10  18  28  40  62  86 117 148 173 214 246
#     4   8  14  26  46  69  88 106 135 178 225 269
#     4  10  19  28  41  60  84 119 155 180 196 245
#     4   9  18  29  43  63  90 114 137 174 222 259
#     4   9  16  30  45  63  89 113 141 177 221 256
#     4  10  18  29  41  59  87 119 148 176 206 252
#
# _framework density 15.668509999999999
#
# number of rings (size 3 to 8) (size 9 to 14) (size 15 to 20)
#    0.000    2.714    1.429    2.143    0.000    1.143 
#    2.571    0.000    0.000    0.000    0.000   17.000 
#    0.000    6.857    0.000    0.000    0.000    0.000 
#
# Total GULP energy -347028.327643 kJ/mol
# GULP energy per Si atom -12393.868844 kJ/mol
# Density = 1.563285 g / cm^3
# Si number density = 15.668510 Si / 1000 Ang^3
#
#
#
# Elastic Constant Matrix: (Units=GPa)
#
#
# Indices 1 2 3 4 5 6 
#
# 1 72.8026 19.0253 37.2401 -0.0007 5.2345 0.0001
# 2 19.0253 62.6654 33.4860 0.0000 4.9780 0.0002
# 3 37.2401 33.4860 96.9061 -0.0027 5.7092 -0.0013
# 4 -0.0007 0.0000 -0.0027 11.1307 -0.0018 2.6639
# 5 5.2345 4.9780 5.7092 -0.0018 20.3601 -0.0007
# 6 0.0001 0.0002 -0.0013 2.6639 -0.0007 12.7508
#
#
#
# Elastic Compliance Matrix: (Units=1/GPa)
#
#
# Indices 1 2 3 4 5 6 
#
# 1 0.017425 -0.001961 -0.005880 -0.000001 -0.002352 -0.000001
# 2 -0.001961 0.019967 -0.005987 -0.000002 -0.002699 -0.000001
# 3 -0.005880 -0.005987 0.014715 0.000003 -0.001151 0.000001
# 4 -0.000001 -0.000002 0.000003 0.094571 0.000008 -0.019758
# 5 -0.002352 -0.002699 -0.001151 0.000008 0.050703 0.000001
# 6 -0.000001 -0.000001 0.000001 -0.019758 0.000001 0.082555
#
#
# Mechanical properties :
#
#
# Convention : Reuss Voigt Hill
#
# Bulk Modulus (GPa) = 40.89827 45.76410 43.33118
# Shear Modulus (GPa) = 15.83571 18.35647 17.09609
#
# Velocity S-wave (km/s) = 3.18255 3.42651 3.30678
# Velocity P-wave (km/s) = 6.29792 6.70266 6.50344
#
# Compressibility (1/GPa) = 0.02445091
#
# Stress axis : x y z
#
# Youngs Moduli (GPa) = 57.38820 50.08323 67.95581
#
# Poissons Ratio (x) = 0.09824 0.39958
# Poissons Ratio (y) = 0.11256 0.40684
# Poissons Ratio (z) = 0.33744 0.29984
#
# Static dielectric constant tensor:
#      x y z
#    x 2.914840 0.000000 0.043020 
#    y 0.000000 2.899080 0.000000 
#    z 0.043020 0.000000 3.004770 
# 
# 
# High freq. dielectric constant tensor:
#      x y z
#    x 1.595840 0.000000 0.007070 
#    y 0.000000 1.556630 0.000000 
#    z 0.007070 0.000000 1.599510 
# 
# From -- ./inp_files/136316.got.cif
#   From: 2010.06.25/outbox.cif.g09.slc.cpg/sg12_69_cif.got.tgz:136316.got - 2010.06.28 00:19:55.
