data_PCOD8080173
_publ_section_title
;
Structure prediction by ZEFSAII (Michael W. Deem and Ramdas Pophale) SiO2 
 PCOD8080173
Probable space group: C 2/M
;
_chemical_formula_sum "Si O2"
_cell_formula_units_Z 56
_cell_length_a 13.722816
_cell_length_b 30.602685
_cell_length_c 17.152979
_cell_angle_alpha 90.000000
_cell_angle_beta 151.232050
_cell_angle_gamma 90.000000
_cell_volume 3466.771151
_symmetry_space_group_name_H-M "C 2/M"
_symmetry_group_IT_number 12
_symmetry_cell_setting 'monoclinic'
loop_
_space_group_symop_operation_xyz
x,y,z
-x,y,-z
-x,-y,-z
x,-y,z
1/2+x,1/2+y,z
1/2-x,1/2+y,-z
1/2-x,1/2-y,-z
1/2+x,1/2-y,z
loop_
_atom_site_type_symbol
_atom_site_label
_atom_site_fract_x
_atom_site_fract_y
_atom_site_fract_z
Si Si1 0.936637 0.952000 0.044434
Si Si2 0.138835 0.691481 0.361742
Si Si3 0.513383 0.683565 0.160608
Si Si4 0.276447 0.108089 0.316972
Si Si5 0.701080 0.870906 0.847315
Si Si6 0.719939 0.265289 0.686970
Si Si7 0.041264 0.781497 0.718440
O O1 0.133657 0.934241 0.228810
O O2 0.874882 0.000000 0.033839
O O3 0.749077 0.917893 0.921481
O O4 0.000000 0.956268 0.000000
O O5 0.192172 0.697404 0.308037
O O6 0.998268 0.730300 0.295605
O O7 0.340829 0.691838 0.554472
O O8 0.025805 0.645013 0.292229
O O9 0.684020 0.647636 0.302940
O O10 0.626921 0.725047 0.204263
O O11 0.386935 0.696703 0.150040
O O12 0.357473 0.665303 0.988106
O O13 0.500000 0.095113 0.500000
O O14 0.269271 0.125069 0.223613
O O15 0.500000 0.249830 0.500000
O O16 0.705373 0.285058 0.764151
#
# Coordination Sequence:
#
# PCOD8080173 Si02
#       7
#     8   8   8   8   8   8   8
#     4   8  16  30  45  64  90 114 134 167 215 258
#     4   9  17  29  42  60  85 117 152 182 213 250
#     4  10  18  28  42  61  85 115 149 180 214 254
#     4  10  18  28  45  64  84 114 146 174 206 253
#     4  10  19  30  44  63  88 113 142 178 215 258
#     4   9  17  28  42  60  86 119 152 186 217 243
#     4   9  17  28  43  59  84 118 151 185 213 243
#
# _framework density 16.153358999999998
#
# number of rings (size 3 to 8) (size 9 to 14) (size 15 to 20)
#    0.000    2.714    0.000    4.286    0.000    2.571 
#    0.000    2.143    0.000    0.000    0.000    0.000 
#    0.000   14.286    0.000    0.000    0.000    1.286 
#
# Total GULP energy -347011.722228 kJ/mol
# GULP energy per Si atom -12393.275794 kJ/mol
# Density = 1.611659 g / cm^3
# Si number density = 16.153359 Si / 1000 Ang^3
#
#
#
# Elastic Constant Matrix: (Units=GPa)
#
#
# Indices 1 2 3 4 5 6 
#
# 1 84.5588 33.2670 16.6044 -0.0002 -7.3718 -0.0002
# 2 33.2670 94.4805 37.4896 0.0000 2.3910 0.0000
# 3 16.6044 37.4896 63.0455 -0.0002 -5.7665 -0.0002
# 4 -0.0002 0.0000 -0.0002 18.1057 -0.0002 4.9211
# 5 -7.3718 2.3910 -5.7665 -0.0002 16.6844 -0.0002
# 6 -0.0002 0.0000 -0.0002 4.9211 -0.0002 12.7289
#
#
#
# Elastic Compliance Matrix: (Units=1/GPa)
#
#
# Indices 1 2 3 4 5 6 
#
# 1 0.014538 -0.005289 -0.000028 0.000000 0.007172 0.000000
# 2 -0.005289 0.016192 -0.008944 0.000000 -0.007749 0.000000
# 3 -0.000028 -0.008944 0.021999 0.000000 0.008873 0.000000
# 4 0.000000 0.000000 0.000000 0.061717 0.000000 -0.023860
# 5 0.007172 -0.007749 0.008873 0.000000 0.067282 0.000001
# 6 0.000000 0.000000 0.000000 -0.023860 0.000001 0.087786
#
#
# Mechanical properties :
#
#
# Convention : Reuss Voigt Hill
#
# Bulk Modulus (GPa) = 41.31127 46.31187 43.81157
# Shear Modulus (GPa) = 16.33436 19.81872 18.07654
#
# Velocity S-wave (km/s) = 3.18340 3.50653 3.34886
# Velocity P-wave (km/s) = 6.25635 6.71764 6.49109
#
# Compressibility (1/GPa) = 0.02420647
#
# Stress axis : x y z
#
# Youngs Moduli (GPa) = 68.78692 61.76045 45.45699
#
# Poissons Ratio (x) = 0.32667 0.00125
# Poissons Ratio (y) = 0.36384 0.40656
# Poissons Ratio (z) = 0.00190 0.55238
#
# Static dielectric constant tensor:
#      x y z
#    x 3.031270 0.000000 -0.003740 
#    y 0.000000 3.106050 0.000000 
#    z -0.003740 0.000000 3.059420 
# 
# 
# High freq. dielectric constant tensor:
#      x y z
#    x 1.600010 0.000000 -0.005380 
#    y 0.000000 1.589300 0.000000 
#    z -0.005380 0.000000 1.622910 
# 
# From -- ./inp_files/273140.got.cif
#   From: 2010.06.25/outbox.cif.g09.slc.cpg/sg12_137_cif.got.tgz:273140.got - 2010.06.28 00:19:55.
