data_PCOD8080058
_publ_section_title
;
Structure prediction by ZEFSAII (Michael W. Deem and Ramdas Pophale) SiO2 
 PCOD8080058
Probable space group: C 2/M
;
_chemical_formula_sum "Si O2"
_cell_formula_units_Z 64
_cell_length_a 27.519005
_cell_length_b 9.024769
_cell_length_c 16.914508
_cell_angle_alpha 90.000000
_cell_angle_beta 76.377009
_cell_angle_gamma 90.000000
_cell_volume 4082.581222
_symmetry_space_group_name_H-M "C 2/M"
_symmetry_group_IT_number 12
_symmetry_cell_setting 'monoclinic'
loop_
_space_group_symop_operation_xyz
x,y,z
-x,y,-z
-x,-y,-z
x,-y,z
1/2+x,1/2+y,z
1/2-x,1/2+y,-z
1/2-x,1/2-y,-z
1/2+x,1/2-y,z
loop_
_atom_site_type_symbol
_atom_site_label
_atom_site_fract_x
_atom_site_fract_y
_atom_site_fract_z
Si Si1 0.172684 0.669164 0.674066
Si Si2 0.806121 0.327277 0.817635
Si Si3 0.870164 0.330843 0.935737
Si Si4 0.788936 0.673500 0.093345
Si Si5 0.211566 0.173861 0.338207
Si Si6 0.364363 0.673311 0.173258
Si Si7 0.800487 0.672187 0.505230
Si Si8 0.444418 0.326573 0.014267
O O1 0.162191 0.500000 0.702060
O O2 0.229944 0.711687 0.673899
O O3 0.133492 0.775236 0.735889
O O4 0.162297 0.691729 0.584067
O O5 0.796270 0.500000 0.804787
O O6 0.857534 0.304736 0.848068
O O7 0.762395 0.263740 0.890147
O O8 0.810059 0.239272 0.734602
O O9 0.884103 0.500000 0.947808
O O10 0.820611 0.287302 0.003723
O O11 0.917271 0.235833 0.946580
O O12 0.777374 0.500000 0.107328
O O13 0.818794 0.729543 0.158232
O O14 0.180027 0.249228 0.422098
O O15 0.201473 0.000000 0.343544
O O16 0.352417 0.500000 0.170775
O O17 0.414838 0.713342 0.106256
O O18 0.790395 0.500000 0.526082
O O19 0.750000 0.750000 0.500000
O O20 0.447546 0.500000 0.999688
O O21 0.500000 0.258281 0.000000
#
# Coordination Sequence:
#
# PCOD8080058 Si02
#       8
#     8   8   8   8   8   8   8   8
#     4   9  17  28  41  59  86 115 147 185 219 254
#     4  11  20  29  42  61  87 117 151 185 215 256
#     4   9  20  33  45  64  86 112 147 184 221 262
#     4  10  18  29  42  58  86 117 147 183 218 254
#     4  10  19  29  41  59  85 119 153 184 220 255
#     4  10  18  27  44  66  86 114 149 182 220 262
#     4   9  17  28  41  57  81 115 152 186 220 255
#     4   9  19  35  51  67  88 113 144 184 227 268
#
# _framework density 15.676358
#
# number of rings (size 3 to 8) (size 9 to 14) (size 15 to 20)
#    0.000    2.375    1.250    3.000    0.000    4.750 
#    0.000    0.000    0.000    0.000    0.000    0.000 
#    0.000    1.000    0.000   11.250    0.000    5.000 
#
# Total GULP energy -396634.535319 kJ/mol
# GULP energy per Si atom -12394.829229 kJ/mol
# Density = 1.564068 g / cm^3
# Si number density = 15.676358 Si / 1000 Ang^3
#
#
#
# Elastic Constant Matrix: (Units=GPa)
#
#
# Indices 1 2 3 4 5 6 
#
# 1 64.1444 29.6147 37.2916 0.0000 5.5917 0.0000
# 2 29.6147 73.5866 45.6992 0.0000 6.3167 0.0000
# 3 37.2916 45.6992 101.9526 0.0000 13.9778 0.0000
# 4 0.0000 0.0000 0.0000 28.7974 0.0000 2.6530
# 5 5.5917 6.3167 13.9778 0.0000 13.7956 0.0000
# 6 0.0000 0.0000 0.0000 2.6530 0.0000 15.9495
#
#
#
# Elastic Compliance Matrix: (Units=1/GPa)
#
#
# Indices 1 2 3 4 5 6 
#
# 1 0.021118 -0.005129 -0.005312 0.000000 -0.000829 0.000000
# 2 -0.005129 0.020077 -0.007140 0.000000 0.000120 0.000000
# 3 -0.005312 -0.007140 0.016500 0.000000 -0.011296 0.000000
# 4 0.000000 0.000000 0.000000 0.035266 0.000000 -0.005866
# 5 -0.000829 0.000120 -0.011296 0.000000 0.084213 0.000000
# 6 0.000000 0.000000 0.000000 -0.005866 0.000000 0.063674
#
#
# Mechanical properties :
#
#
# Convention : Reuss Voigt Hill
#
# Bulk Modulus (GPa) = 44.37589 51.65493 48.01541
# Shear Modulus (GPa) = 17.63534 20.18039 18.90787
#
# Velocity S-wave (km/s) = 3.35769 3.59181 3.47672
# Velocity P-wave (km/s) = 6.58795 7.08688 6.84196
#
# Compressibility (1/GPa) = 0.02253476
#
# Stress axis : x y z
#
# Youngs Moduli (GPa) = 47.35248 49.80752 60.60436
#
# Poissons Ratio (x) = 0.25546 0.32192
# Poissons Ratio (y) = 0.24287 0.43271
# Poissons Ratio (z) = 0.25152 0.35562
#
# Static dielectric constant tensor:
#      x y z
#    x 2.618680 0.000000 0.076430 
#    y 0.000000 3.074120 0.000000 
#    z 0.076430 0.000000 3.292700 
# 
# 
# High freq. dielectric constant tensor:
#      x y z
#    x 1.536640 0.000000 0.012530 
#    y 0.000000 1.615460 0.000000 
#    z 0.012530 0.000000 1.608680 
# 
# From -- ./inp_files/287498.got.cif
#   From: 2010.06.25/outbox.cif.g09.slc.cpg/sg12_144_cif.got.tgz:287498.got - 2010.06.28 00:19:55.
