data_PCOD8080330
_publ_section_title
;
Structure prediction by ZEFSAII (Michael W. Deem and Ramdas Pophale) SiO2 
 PCOD8080330
Probable space group: C 2/M
;
_chemical_formula_sum "Si O2"
_cell_formula_units_Z 56
_cell_length_a 20.645478
_cell_length_b 9.254348
_cell_length_c 16.750651
_cell_angle_alpha 90.000000
_cell_angle_beta 88.596160
_cell_angle_gamma 90.000000
_cell_volume 3199.426122
_symmetry_space_group_name_H-M "C 2/M"
_symmetry_group_IT_number 12
_symmetry_cell_setting 'monoclinic'
loop_
_space_group_symop_operation_xyz
x,y,z
-x,y,-z
-x,-y,-z
x,-y,z
1/2+x,1/2+y,z
1/2-x,1/2+y,-z
1/2-x,1/2-y,-z
1/2+x,1/2-y,z
loop_
_atom_site_type_symbol
_atom_site_label
_atom_site_fract_x
_atom_site_fract_y
_atom_site_fract_z
Si Si1 0.428448 0.670128 0.338564
Si Si2 0.923138 0.840042 0.511888
Si Si3 0.116188 0.664715 0.169311
Si Si4 0.373382 0.329752 0.177112
Si Si5 0.250439 0.329308 0.084456
Si Si6 0.997920 0.829114 0.909429
Si Si7 0.938120 0.333641 0.660696
O O1 0.445742 0.500000 0.335975
O O2 0.396577 0.710774 0.425532
O O3 0.376563 0.710810 0.271215
O O4 0.495294 0.753174 0.320191
O O5 0.903055 0.731449 0.582995
O O6 0.000000 0.842632 0.500000
O O7 0.897060 0.000000 0.534106
O O8 0.100309 0.500000 0.146413
O O9 0.187048 0.709394 0.137245
O O10 0.112048 0.685096 0.264979
O O11 0.065623 0.767207 0.128518
O O12 0.371978 0.500000 0.165781
O O13 0.309947 0.266700 0.135621
O O14 0.437834 0.265934 0.134173
O O15 0.256685 0.500000 0.068739
O O16 0.250000 0.250000 0.000000
O O17 0.994225 0.000000 0.901086
O O18 0.000000 0.777743 0.000000
O O19 0.954421 0.500000 0.643240
#
# Coordination Sequence:
#
# PCOD8080330 Si02
#       7
#     8   8   8   8   8   8   8
#     4   9  16  29  48  71  96 125 162 203 245 284
#     4   8  15  26  43  68  97 126 159 199 241 284
#     4  10  21  34  49  72 102 133 161 196 245 301
#     4   9  17  31  52  73  95 126 165 207 244 284
#     4  10  21  38  55  72  97 130 169 206 244 293
#     4  10  19  31  51  76  96 120 161 209 250 288
#     4  10  18  28  44  70 101 131 161 191 238 296
#
# _framework density 17.503139999999998
#
# number of rings (size 3 to 8) (size 9 to 14) (size 15 to 20)
#    0.000    2.571    1.429    2.143    0.000    5.143 
#    0.000    1.429    0.000    0.857    0.000    0.000 
#    0.000    0.000    0.000    0.000    0.000    1.429 
#
# Total GULP energy -347078.382001 kJ/mol
# GULP energy per Si atom -12395.656500 kJ/mol
# Density = 1.746330 g / cm^3
# Si number density = 17.503140 Si / 1000 Ang^3
#
#
#
# Elastic Constant Matrix: (Units=GPa)
#
#
# Indices 1 2 3 4 5 6 
#
# 1 101.6981 28.2910 68.5320 0.0000 10.8395 0.0000
# 2 28.2910 45.3688 48.4148 0.0000 0.8480 0.0000
# 3 68.5320 48.4148 164.4097 0.0000 17.0763 0.0000
# 4 0.0000 0.0000 0.0000 28.3163 0.0000 1.5992
# 5 10.8395 0.8480 17.0763 0.0000 27.8287 0.0000
# 6 0.0000 0.0000 0.0000 1.5992 0.0000 16.1367
#
#
#
# Elastic Compliance Matrix: (Units=1/GPa)
#
#
# Indices 1 2 3 4 5 6 
#
# 1 0.014263 -0.004080 -0.004465 0.000000 -0.002692 0.000000
# 2 -0.004080 0.034017 -0.008944 0.000000 0.006041 0.000000
# 3 -0.004465 -0.008944 0.011074 0.000000 -0.004784 0.000000
# 4 0.000000 0.000000 0.000000 0.035514 0.000000 -0.003519
# 5 -0.002692 0.006041 -0.004784 0.000000 0.039734 0.000000
# 6 0.000000 0.000000 0.000000 -0.003519 0.000000 0.062319
#
#
# Mechanical properties :
#
#
# Convention : Reuss Voigt Hill
#
# Bulk Modulus (GPa) = 41.02069 66.88356 53.95213
# Shear Modulus (GPa) = 20.83117 25.53895 23.18506
#
# Velocity S-wave (km/s) = 3.45358 3.82397 3.64349
# Velocity P-wave (km/s) = 6.27615 7.60212 6.97074
#
# Compressibility (1/GPa) = 0.02437794
#
# Stress axis : x y z
#
# Youngs Moduli (GPa) = 70.10947 29.39675 90.30125
#
# Poissons Ratio (x) = 0.11993 0.40315
# Poissons Ratio (y) = 0.28603 0.80767
# Poissons Ratio (z) = 0.31301 0.26293
#
# Static dielectric constant tensor:
#      x y z
#    x 3.102060 0.000000 0.122210 
#    y 0.000000 3.117630 0.000000 
#    z 0.122210 0.000000 3.805430 
# 
# 
# High freq. dielectric constant tensor:
#      x y z
#    x 1.640460 0.000000 0.008930 
#    y 0.000000 1.658850 0.000000 
#    z 0.008930 0.000000 1.698280 
# 
# From -- ./inp_files/280242.got.cif
#   From: 2010.06.25/outbox.cif.g09.slc.cpg/sg12_141_cif.got.tgz:280242.got - 2010.06.28 00:19:55.
