data_PCOD8080569
_publ_section_title
;
Structure prediction by ZEFSAII (Michael W. Deem and Ramdas Pophale) SiO2 
 PCOD8080569
Probable space group: C 2/M
;
_chemical_formula_sum "Si O2"
_cell_formula_units_Z 56
_cell_length_a 17.455055
_cell_length_b 20.441786
_cell_length_c 10.752881
_cell_angle_alpha 90.000000
_cell_angle_beta 58.086696
_cell_angle_gamma 90.000000
_cell_volume 3256.831730
_symmetry_space_group_name_H-M "C 2/M"
_symmetry_group_IT_number 12
_symmetry_cell_setting 'monoclinic'
loop_
_space_group_symop_operation_xyz
x,y,z
-x,y,-z
-x,-y,-z
x,-y,z
1/2+x,1/2+y,z
1/2-x,1/2+y,-z
1/2-x,1/2-y,-z
1/2+x,1/2-y,z
loop_
_atom_site_type_symbol
_atom_site_label
_atom_site_fract_x
_atom_site_fract_y
_atom_site_fract_z
Si Si1 0.742809 0.730822 0.310184
Si Si2 0.900621 0.186249 0.055139
Si Si3 0.317468 0.073690 0.887947
Si Si4 0.188633 0.346928 0.522919
Si Si5 0.698395 0.573762 0.750653
Si Si6 0.486112 0.924318 0.368782
Si Si7 0.297037 0.313939 0.909176
O O1 0.830087 0.762385 0.170953
O O2 0.776374 0.674555 0.372942
O O3 0.684216 0.785089 0.432591
O O4 0.680687 0.697299 0.255920
O O5 0.887587 0.116506 0.134644
O O6 0.886227 0.176057 0.918274
O O7 0.000000 0.212375 0.000000
O O8 0.277367 0.080941 0.784446
O O9 0.423472 0.089500 0.787264
O O10 0.301770 0.000000 0.951544
O O11 0.269999 0.123965 0.022146
O O12 0.259427 0.400830 0.413971
O O13 0.090174 0.377986 0.623480
O O14 0.664588 0.500000 0.762529
O O15 0.500000 0.905556 0.500000
O O16 0.456461 0.000000 0.383073
O O17 0.250000 0.250000 0.000000
#
# Coordination Sequence:
#
# PCOD8080569 Si02
#       7
#     8   8   8   8   8   8   8
#     4   9  20  34  47  67  98 133 162 197 235 294
#     4   9  18  32  49  72  94 115 153 206 244 279
#     4   9  17  30  47  72 101 125 158 203 247 292
#     4  10  18  31  48  68  99 127 163 199 236 282
#     4   9  16  29  49  68  91 123 154 194 242 285
#     4  10  18  28  48  77 103 126 161 204 244 293
#     4   9  18  33  52  68  94 131 165 195 245 298
#
# _framework density 17.194624999999998
#
# number of rings (size 3 to 8) (size 9 to 14) (size 15 to 20)
#    0.000    2.714    1.429    1.286    0.000    2.571 
#    0.000    1.429    0.000    1.714    0.000    1.000 
#    0.000    0.000    0.000    0.000    0.000    0.000 
#
# Total GULP energy -347115.568845 kJ/mol
# GULP energy per Si atom -12396.984602 kJ/mol
# Density = 1.715549 g / cm^3
# Si number density = 17.194625 Si / 1000 Ang^3
#
#
#
# Elastic Constant Matrix: (Units=GPa)
#
#
# Indices 1 2 3 4 5 6 
#
# 1 79.7684 24.3163 38.1758 0.0000 5.2289 0.0000
# 2 24.3163 76.0207 21.6623 0.0000 8.1264 0.0000
# 3 38.1758 21.6623 50.1072 0.0000 14.7367 0.0000
# 4 0.0000 0.0000 0.0000 19.7284 0.0000 1.4566
# 5 5.2289 8.1264 14.7367 0.0000 29.7684 0.0000
# 6 0.0000 0.0000 0.0000 1.4566 0.0000 27.9120
#
#
#
# Elastic Compliance Matrix: (Units=1/GPa)
#
#
# Indices 1 2 3 4 5 6 
#
# 1 0.020725 -0.002562 -0.016172 0.000000 0.005065 0.000000
# 2 -0.002562 0.015347 -0.004193 0.000000 -0.001664 0.000000
# 3 -0.016172 -0.004193 0.038528 0.000000 -0.015088 0.000000
# 4 0.000000 0.000000 0.000000 0.050884 0.000000 -0.002655
# 5 0.005065 -0.001664 -0.015088 0.000000 0.040626 0.000000
# 6 0.000000 0.000000 0.000000 -0.002655 0.000000 0.035965
#
#
# Mechanical properties :
#
#
# Convention : Reuss Voigt Hill
#
# Bulk Modulus (GPa) = 34.78824 41.57835 38.18329
# Shear Modulus (GPa) = 19.41653 23.59790 21.50721
#
# Velocity S-wave (km/s) = 3.36403 3.70861 3.54052
# Velocity P-wave (km/s) = 5.94684 6.52471 6.24247
#
# Compressibility (1/GPa) = 0.02874535
#
# Stress axis : x y z
#
# Youngs Moduli (GPa) = 48.25098 65.16106 25.95488
#
# Poissons Ratio (x) = 0.16697 0.41974
# Poissons Ratio (y) = 0.12364 0.10883
# Poissons Ratio (z) = 0.78031 0.27323
#
# Static dielectric constant tensor:
#      x y z
#    x 3.197660 0.000000 0.207040 
#    y 0.000000 3.440510 0.000000 
#    z 0.207040 0.000000 3.100400 
# 
# 
# High freq. dielectric constant tensor:
#      x y z
#    x 1.642230 0.000000 0.005180 
#    y 0.000000 1.669930 0.000000 
#    z 0.005180 0.000000 1.640460 
# 
# From -- ./inp_files/158976.got.cif
#   From: 2010.06.25/outbox.cif.g09.slc.cpg/sg12_80_cif.got.tgz:158976.got - 2010.06.28 00:19:55.
