data_PCOD8080488
_publ_section_title
;
Structure prediction by ZEFSAII (Michael W. Deem and Ramdas Pophale) SiO2 
 PCOD8080488
Probable space group: C 2/M
;
_chemical_formula_sum "Si O2"
_cell_formula_units_Z 44
_cell_length_a 10.431012
_cell_length_b 23.838677
_cell_length_c 16.954786
_cell_angle_alpha 90.000000
_cell_angle_beta 39.310969
_cell_angle_gamma 90.000000
_cell_volume 2670.960175
_symmetry_space_group_name_H-M "C 2/M"
_symmetry_group_IT_number 12
_symmetry_cell_setting 'monoclinic'
loop_
_space_group_symop_operation_xyz
x,y,z
-x,y,-z
-x,-y,-z
x,-y,z
1/2+x,1/2+y,z
1/2-x,1/2+y,-z
1/2-x,1/2-y,-z
1/2+x,1/2-y,z
loop_
_atom_site_type_symbol
_atom_site_label
_atom_site_fract_x
_atom_site_fract_y
_atom_site_fract_z
Si Si1 0.500000 0.749414 0.000000
Si Si2 0.972411 0.937668 0.105052
Si Si3 0.021150 0.753400 0.581706
Si Si4 0.626009 0.677137 0.213348
Si Si5 0.673144 0.676805 0.778544
Si Si6 0.762744 0.561764 0.104022
O O1 0.692491 0.790404 0.917910
O O2 0.536084 0.709138 0.908080
O O3 0.819741 0.889874 0.208272
O O4 0.187748 0.931126 0.048587
O O5 0.881390 0.000000 0.164346
O O6 0.000000 0.928073 0.000000
O O7 0.250000 0.750000 0.500000
O O8 0.000000 0.766198 0.500000
O O9 0.905838 0.803321 0.682018
O O10 0.905813 0.696454 0.662950
O O11 0.424045 0.689650 0.260070
O O12 0.662369 0.610543 0.203305
O O13 0.696521 0.500000 0.166859
O O14 0.000000 0.568638 0.000000
#
# Coordination Sequence:
#
# PCOD8080488 Si02
#       6
#     4   8   8   8   8   8
#     4  10  18  28  46  82 104 138 162 204 262 306
#     4   9  17  31  50  75 106 136 165 202 255 308
#     4  11  22  39  54  73  99 138 178 214 259 299
#     4  10  19  32  52  75 106 134 169 215 250 315
#     4  10  19  32  52  75 107 134 166 218 249 310
#     4   9  17  31  50  75 105 136 167 203 252 307
#
# _framework density 16.473476999999999
#
# number of rings (size 3 to 8) (size 9 to 14) (size 15 to 20)
#    0.000    2.182    3.636    0.545    0.000    0.000 
#    3.273    0.000    0.000    2.182    0.000    0.000 
#    0.000    0.000    0.000    0.000    0.000    0.000 
#
# Total GULP energy -272636.712151 kJ/mol
# GULP energy per Si atom -12392.577825 kJ/mol
# Density = 1.643598 g / cm^3
# Si number density = 16.473477 Si / 1000 Ang^3
#
#
#
# Elastic Constant Matrix: (Units=GPa)
#
#
# Indices 1 2 3 4 5 6 
#
# 1 102.2149 58.7008 52.0956 0.0002 -0.7276 -0.0001
# 2 58.7008 130.6046 54.4258 0.0000 -0.4110 0.0001
# 3 52.0956 54.4258 89.3755 0.0004 -0.2141 0.0006
# 4 0.0002 0.0000 0.0004 15.1637 -0.0002 -1.0697
# 5 -0.7276 -0.4110 -0.2141 -0.0002 32.0595 -0.0001
# 6 -0.0001 0.0001 0.0006 -1.0697 -0.0001 23.9994
#
#
#
# Elastic Compliance Matrix: (Units=1/GPa)
#
#
# Indices 1 2 3 4 5 6 
#
# 1 0.015534 -0.004299 -0.006436 0.000000 0.000254 0.000000
# 2 -0.004299 0.011450 -0.004467 0.000000 0.000019 0.000000
# 3 -0.006436 -0.004467 0.017660 0.000000 -0.000085 -0.000001
# 4 0.000000 0.000000 0.000000 0.066155 0.000000 0.002949
# 5 0.000254 0.000019 -0.000085 0.000000 0.031197 0.000000
# 6 0.000000 0.000000 -0.000001 0.002949 0.000000 0.041799
#
#
# Mechanical properties :
#
#
# Convention : Reuss Voigt Hill
#
# Bulk Modulus (GPa) = 70.22117 72.51547 71.36832
# Shear Modulus (GPa) = 22.83651 24.70939 23.77295
#
# Velocity S-wave (km/s) = 3.72729 3.87712 3.80294
# Velocity P-wave (km/s) = 7.82579 8.00986 7.91836
#
# Compressibility (1/GPa) = 0.01424072
#
# Stress axis : x y z
#
# Youngs Moduli (GPa) = 64.37357 87.33275 56.62438
#
# Poissons Ratio (x) = 0.37545 0.36444
# Poissons Ratio (y) = 0.27675 0.25294
# Poissons Ratio (z) = 0.41432 0.39011
#
# Static dielectric constant tensor:
#      x y z
#    x 3.281730 0.000000 0.019560 
#    y 0.000000 3.386840 0.000000 
#    z 0.019560 0.000000 2.889340 
# 
# 
# High freq. dielectric constant tensor:
#      x y z
#    x 1.645310 0.000000 -0.000880 
#    y 0.000000 1.645430 0.000000 
#    z -0.000880 0.000000 1.599190 
# 
# From -- ./inp_files/265456.got.cif
#   From: 2010.06.25/outbox.cif.g09.slc.cpg/sg12_133_cif.got.tgz:265456.got - 2010.06.28 00:19:55.
