data_PCOD8080027
_publ_section_title
;
Structure prediction by ZEFSAII (Michael W. Deem and Ramdas Pophale) SiO2 
 PCOD8080027
Probable space group: C 2/M
;
_chemical_formula_sum "Si O2"
_cell_formula_units_Z 48
_cell_length_a 24.257147
_cell_length_b 9.373848
_cell_length_c 14.328765
_cell_angle_alpha 90.000000
_cell_angle_beta 69.150764
_cell_angle_gamma 90.000000
_cell_volume 3044.774051
_symmetry_space_group_name_H-M "C 2/M"
_symmetry_group_IT_number 12
_symmetry_cell_setting 'monoclinic'
loop_
_space_group_symop_operation_xyz
x,y,z
-x,y,-z
-x,-y,-z
x,-y,z
1/2+x,1/2+y,z
1/2-x,1/2+y,-z
1/2-x,1/2-y,-z
1/2+x,1/2-y,z
loop_
_atom_site_type_symbol
_atom_site_label
_atom_site_fract_x
_atom_site_fract_y
_atom_site_fract_z
Si Si1 0.172989 0.335593 0.480085
Si Si2 0.447430 0.331673 0.972962
Si Si3 0.461206 0.167336 0.435928
Si Si4 0.369642 0.334870 0.180523
Si Si5 0.984129 0.164940 0.238509
Si Si6 0.222163 0.334409 0.653948
O O1 0.184102 0.500000 0.446989
O O2 0.105998 0.288107 0.502775
O O3 0.187036 0.307609 0.579693
O O4 0.213726 0.238316 0.389958
O O5 0.455368 0.500000 0.975069
O O6 0.457664 0.288996 0.858190
O O7 0.500000 0.258838 0.000000
O O8 0.386235 0.291801 0.062565
O O9 0.500000 0.216620 0.500000
O O10 0.486294 0.242751 0.329723
O O11 0.465768 0.000000 0.414687
O O12 0.350628 0.500000 0.198960
O O13 0.425061 0.305379 0.214759
O O14 0.314655 0.237014 0.240872
O O15 0.987350 0.000000 0.265508
O O16 0.230839 0.500000 0.670983
#
# Coordination Sequence:
#
# PCOD8080027 Si02
#       6
#     8   8   8   8   8   8
#     4   9  18  31  43  59  85 117 149 178 214 262
#     4   7  12  23  39  61  87 115 144 172 208 259
#     4  10  20  33  47  63  87 119 151 182 218 259
#     4   9  15  25  43  65  90 119 145 171 213 265
#     4   9  16  27  44  64  88 116 148 183 213 250
#     4  10  18  27  43  65  89 115 144 180 219 259
#
# _framework density 15.764716
#
# number of rings (size 3 to 8) (size 9 to 14) (size 15 to 20)
#    0.000    3.000    1.667    2.500    0.000    1.667 
#    0.000    0.833    0.000    3.000    0.000    1.167 
#    0.000    0.000    0.000    0.000    0.000    0.000 
#
# Total GULP energy -297382.776126 kJ/mol
# GULP energy per Si atom -12390.949005 kJ/mol
# Density = 1.572884 g / cm^3
# Si number density = 15.764716 Si / 1000 Ang^3
#
#
#
# Elastic Constant Matrix: (Units=GPa)
#
#
# Indices 1 2 3 4 5 6 
#
# 1 71.6881 32.9116 58.3105 0.0000 -11.7509 0.0000
# 2 32.9116 60.8936 64.1022 0.0000 -15.2534 0.0000
# 3 58.3105 64.1022 147.7512 0.0000 -28.9912 0.0000
# 4 0.0000 0.0000 0.0000 25.7097 0.0000 -4.2857
# 5 -11.7509 -15.2534 -28.9912 0.0000 22.2250 0.0000
# 6 0.0000 0.0000 0.0000 -4.2857 0.0000 15.9647
#
#
#
# Elastic Compliance Matrix: (Units=1/GPa)
#
#
# Indices 1 2 3 4 5 6 
#
# 1 0.021314 -0.004937 -0.006348 0.000000 -0.000400 0.000000
# 2 -0.004937 0.031772 -0.010845 0.000000 0.005048 0.000000
# 3 -0.006348 -0.010845 0.015939 0.000000 0.009992 0.000000
# 4 0.000000 0.000000 0.000000 0.040718 0.000000 0.010931
# 5 -0.000400 0.005048 0.009992 0.000000 0.061282 0.000000
# 6 0.000000 0.000000 0.000000 0.010931 0.000000 0.065573
#
#
# Mechanical properties :
#
#
# Convention : Reuss Voigt Hill
#
# Bulk Modulus (GPa) = 40.38160 65.66463 53.02312
# Shear Modulus (GPa) = 17.29429 21.11379 19.20404
#
# Velocity S-wave (km/s) = 3.31573 3.66362 3.49401
# Velocity P-wave (km/s) = 6.35055 7.72266 7.06997
#
# Compressibility (1/GPa) = 0.02476375
#
# Stress axis : x y z
#
# Youngs Moduli (GPa) = 46.91781 31.47447 62.73833
#
# Poissons Ratio (x) = 0.15540 0.39826
# Poissons Ratio (y) = 0.23165 0.68041
# Poissons Ratio (z) = 0.29783 0.34135
#
# Static dielectric constant tensor:
#      x y z
#    x 2.718150 0.000000 -0.244290 
#    y 0.000000 2.840190 0.000000 
#    z -0.244290 0.000000 3.218680 
# 
# 
# High freq. dielectric constant tensor:
#      x y z
#    x 1.559280 0.000000 -0.028940 
#    y 0.000000 1.592480 0.000000 
#    z -0.028940 0.000000 1.610690 
# 
# From -- ./inp_files/230444.got.cif
#   From: 2010.06.25/outbox.cif.g09.slc.cpg/sg12_116_cif.got.tgz:230444.got - 2010.06.28 00:19:55.
