data_PCOD8080547
_publ_section_title
;
Structure prediction by ZEFSAII (Michael W. Deem and Ramdas Pophale) SiO2 
 PCOD8080547
Probable space group: C 2/M
;
_chemical_formula_sum "Si O2"
_cell_formula_units_Z 64
_cell_length_a 33.753480
_cell_length_b 9.154563
_cell_length_c 15.039832
_cell_angle_alpha 90.000000
_cell_angle_beta 134.081119
_cell_angle_gamma 90.000000
_cell_volume 3338.402001
_symmetry_space_group_name_H-M "C 2/M"
_symmetry_group_IT_number 12
_symmetry_cell_setting 'monoclinic'
loop_
_space_group_symop_operation_xyz
x,y,z
-x,y,-z
-x,-y,-z
x,-y,z
1/2+x,1/2+y,z
1/2-x,1/2+y,-z
1/2-x,1/2-y,-z
1/2+x,1/2-y,z
loop_
_atom_site_type_symbol
_atom_site_label
_atom_site_fract_x
_atom_site_fract_y
_atom_site_fract_z
Si Si1 0.452896 0.829778 0.126070
Si Si2 0.603900 0.833207 0.147987
Si Si3 0.936387 0.826094 0.748120
Si Si4 0.885277 0.835290 0.163189
Si Si5 0.770895 0.165770 0.893977
Si Si6 0.337366 0.670782 0.266157
Si Si7 0.779823 0.331327 0.730992
Si Si8 0.342568 0.329078 0.473106
O O1 0.508397 0.737922 0.206797
O O2 0.421669 0.779645 0.166376
O O3 0.466937 0.000000 0.156512
O O4 0.414964 0.797400 0.981549
O O5 0.571288 0.727958 0.163127
O O6 0.669870 0.804676 0.259076
O O7 0.589161 0.000000 0.149655
O O8 0.885831 0.761185 0.610293
O O9 0.939783 0.000000 0.753907
O O10 0.886359 0.799311 0.271154
O O11 0.906996 0.000000 0.178194
O O12 0.820931 0.823132 0.040301
O O13 0.718493 0.249832 0.851732
O O14 0.791814 0.234303 0.834918
O O15 0.753330 0.000000 0.848620
O O16 0.323373 0.500000 0.248913
O O17 0.354631 0.728070 0.391520
O O18 0.779144 0.500000 0.760712
O O19 0.720304 0.289283 0.595727
O O20 0.352361 0.500000 0.491221
#
# Coordination Sequence:
#
# PCOD8080547 Si02
#       8
#     8   8   8   8   8   8   8   8
#     4  11  23  39  58  80 108 143 181 222 271 327
#     4  10  21  37  58  83 108 138 178 221 272 332
#     4  11  23  38  57  80 106 142 183 229 273 312
#     4  10  20  33  53  82 111 141 179 223 269 316
#     4  10  18  28  47  81 118 142 172 219 269 316
#     4   9  18  34  55  77 108 149 184 214 258 322
#     4   9  17  34  57  79 108 147 181 214 263 326
#     4   8  17  35  57  79 107 144 187 220 256 316
#
# _framework density 19.170849
#
# number of rings (size 3 to 8) (size 9 to 14) (size 15 to 20)
#    0.000    2.250    1.250    2.625    0.000    4.500 
#    0.000    5.625    0.000    3.750    0.000    0.000 
#    0.000    0.000    0.000    0.000    0.000    0.000 
#
# Total GULP energy -396706.681011 kJ/mol
# GULP energy per Si atom -12397.083782 kJ/mol
# Density = 1.912722 g / cm^3
# Si number density = 19.170849 Si / 1000 Ang^3
#
#
#
# Elastic Constant Matrix: (Units=GPa)
#
#
# Indices 1 2 3 4 5 6 
#
# 1 104.7061 39.4026 24.2954 0.0000 5.6828 0.0000
# 2 39.4026 72.0539 21.1330 0.0000 4.2935 0.0000
# 3 24.2954 21.1330 56.8098 0.0000 13.1169 0.0000
# 4 0.0000 0.0000 0.0000 18.9286 0.0000 4.2314
# 5 5.6828 4.2935 13.1169 0.0000 21.1871 0.0000
# 6 0.0000 0.0000 0.0000 4.2314 0.0000 32.3198
#
#
#
# Elastic Compliance Matrix: (Units=1/GPa)
#
#
# Indices 1 2 3 4 5 6 
#
# 1 0.012508 -0.005919 -0.003092 0.000000 -0.000241 0.000000
# 2 -0.005919 0.018384 -0.004450 0.000000 0.000617 0.000000
# 3 -0.003092 -0.004450 0.023546 0.000000 -0.012846 0.000000
# 4 0.000000 0.000000 0.000000 0.054423 0.000000 -0.007125
# 5 -0.000241 0.000617 -0.012846 0.000000 0.055091 0.000000
# 6 0.000000 0.000000 0.000000 -0.007125 0.000000 0.031874
#
#
# Mechanical properties :
#
#
# Convention : Reuss Voigt Hill
#
# Bulk Modulus (GPa) = 36.34093 44.80351 40.57222
# Shear Modulus (GPa) = 21.55916 24.40302 22.98109
#
# Velocity S-wave (km/s) = 3.35711 3.57168 3.46606
# Velocity P-wave (km/s) = 5.83305 6.35850 6.10143
#
# Compressibility (1/GPa) = 0.02751718
#
# Stress axis : x y z
#
# Youngs Moduli (GPa) = 79.94570 54.39613 42.46963
#
# Poissons Ratio (x) = 0.32197 0.13131
# Poissons Ratio (y) = 0.47320 0.18898
# Poissons Ratio (z) = 0.24718 0.24205
#
# Static dielectric constant tensor:
#      x y z
#    x 3.515740 0.000000 0.013620 
#    y 0.000000 3.391080 0.000000 
#    z 0.013620 0.000000 3.581350 
# 
# 
# High freq. dielectric constant tensor:
#      x y z
#    x 1.750100 0.000000 -0.000570 
#    y 0.000000 1.734110 0.000000 
#    z -0.000570 0.000000 1.728450 
# 
# From -- ./inp_files/250048.got.cif
#   From: 2010.06.25/outbox.cif.g09.slc.cpg/sg12_126_cif.got.tgz:250048.got - 2010.06.28 00:19:55.
