data_PCOD8080782
_publ_section_title
;
Structure prediction by ZEFSAII (Michael W. Deem and Ramdas Pophale) SiO2 
 PCOD8080782
Probable space group: C 2/M
;
_chemical_formula_sum "Si O2"
_cell_formula_units_Z 64
_cell_length_a 25.688732
_cell_length_b 8.676353
_cell_length_c 21.256571
_cell_angle_alpha 90.000000
_cell_angle_beta 127.237960
_cell_angle_gamma 90.000000
_cell_volume 3771.869260
_symmetry_space_group_name_H-M "C 2/M"
_symmetry_group_IT_number 12
_symmetry_cell_setting 'monoclinic'
loop_
_space_group_symop_operation_xyz
x,y,z
-x,y,-z
-x,-y,-z
x,-y,z
1/2+x,1/2+y,z
1/2-x,1/2+y,-z
1/2-x,1/2-y,-z
1/2+x,1/2-y,z
loop_
_atom_site_type_symbol
_atom_site_label
_atom_site_fract_x
_atom_site_fract_y
_atom_site_fract_z
Si Si1 0.546055 0.821379 0.591775
Si Si2 0.183285 0.822027 0.674198
Si Si3 0.692480 0.682683 0.000533
Si Si4 0.610809 0.181802 0.840775
Si Si5 0.247040 0.180995 0.592435
Si Si6 0.724927 0.678662 0.842432
Si Si7 0.149579 0.181867 0.414230
Si Si8 0.997710 0.818408 0.683615
O O1 0.500000 0.778649 0.500000
O O2 0.619847 0.784403 0.626340
O O3 0.525512 0.717394 0.635258
O O4 0.540139 0.000000 0.606322
O O5 0.229582 0.771226 0.650620
O O6 0.224999 0.796236 0.767851
O O7 0.161321 0.000000 0.651166
O O8 0.692949 0.500000 0.002287
O O9 0.707229 0.748490 0.081230
O O10 0.750000 0.750000 0.000000
O O11 0.625392 0.744031 0.920333
O O12 0.661763 0.238308 0.825333
O O13 0.538792 0.232814 0.767565
O O14 0.615530 0.000000 0.849994
O O15 0.189545 0.241988 0.504294
O O16 0.315705 0.258833 0.623916
O O17 0.255714 0.000000 0.591467
O O18 0.720833 0.500000 0.858157
O O19 0.075973 0.245775 0.364548
O O20 0.147490 0.000000 0.411675
O O21 0.002534 0.000000 0.698501
#
# Coordination Sequence:
#
# PCOD8080782 Si02
#       8
#     8   8   8   8   8   8   8   8
#     4  11  23  34  46  69 100 132 166 203 245 293
#     4  10  20  33  51  72  98 133 167 201 244 297
#     4  10  18  29  46  67  95 131 166 198 240 288
#     4  11  20  31  47  70 100 130 164 203 245 290
#     4   9  18  34  53  73  95 125 167 210 250 291
#     4  10  18  30  47  70  99 131 166 200 241 291
#     4   9  19  34  52  72  95 126 166 211 253 291
#     4  11  21  34  51  71  98 132 168 203 246 300
#
# _framework density 16.967714000000001
#
# number of rings (size 3 to 8) (size 9 to 14) (size 15 to 20)
#    0.000    1.875    1.250    5.625    0.000    4.000 
#    0.000    2.500    0.000    0.000    0.000    0.875 
#    0.000    7.000    0.000    0.000    0.000    0.000 
#
# Total GULP energy -396821.151262 kJ/mol
# GULP energy per Si atom -12400.660977 kJ/mol
# Density = 1.692909 g / cm^3
# Si number density = 16.967714 Si / 1000 Ang^3
#
#
#
# Elastic Constant Matrix: (Units=GPa)
#
#
# Indices 1 2 3 4 5 6 
#
# 1 75.4071 16.0300 42.0138 0.0000 -5.7743 0.0000
# 2 16.0300 80.2493 39.9292 0.0000 -0.7669 0.0000
# 3 42.0138 39.9292 120.7253 0.0000 -3.6614 0.0000
# 4 0.0000 0.0000 0.0000 27.7706 0.0000 1.0867
# 5 -5.7743 -0.7669 -3.6614 0.0000 17.4323 0.0000
# 6 0.0000 0.0000 0.0000 1.0867 0.0000 22.6717
#
#
#
# Elastic Compliance Matrix: (Units=1/GPa)
#
#
# Indices 1 2 3 4 5 6 
#
# 1 0.016795 -0.000564 -0.005526 0.000000 0.004378 0.000000
# 2 -0.000564 0.014937 -0.004760 0.000000 -0.000529 0.000000
# 3 -0.005526 -0.004760 0.011794 0.000000 0.000437 0.000000
# 4 0.000000 0.000000 0.000000 0.036077 0.000000 -0.001729
# 5 0.004378 -0.000529 0.000437 0.000000 0.058883 0.000000
# 6 0.000000 0.000000 0.000000 -0.001729 0.000000 0.044191
#
#
# Mechanical properties :
#
#
# Convention : Reuss Voigt Hill
#
# Bulk Modulus (GPa) = 45.81471 52.48085 49.14778
# Shear Modulus (GPa) = 23.62365 25.46886 24.54626
#
# Velocity S-wave (km/s) = 3.73536 3.87850 3.80760
# Velocity P-wave (km/s) = 6.75749 7.14521 6.95405
#
# Compressibility (1/GPa) = 0.02182705
#
# Stress axis : x y z
#
# Youngs Moduli (GPa) = 59.54121 66.94666 84.78902
#
# Poissons Ratio (x) = 0.03773 0.46852
# Poissons Ratio (y) = 0.03356 0.40362
# Poissons Ratio (z) = 0.32901 0.31869
#
# Static dielectric constant tensor:
#      x y z
#    x 2.945140 0.000000 0.027350 
#    y 0.000000 3.197040 0.000000 
#    z 0.027350 0.000000 3.728470 
# 
# 
# High freq. dielectric constant tensor:
#      x y z
#    x 1.612490 0.000000 0.000180 
#    y 0.000000 1.664390 0.000000 
#    z 0.000180 0.000000 1.664920 
# 
# From -- ./inp_files/326952.got.cif
#   From: 2010.06.25/outbox.cif.g09.slc.cpg/sg12_164_cif.got.tgz:326952.got - 2010.06.28 00:19:55.
