data_PCOD8080711
_publ_section_title
;
Structure prediction by ZEFSAII (Michael W. Deem and Ramdas Pophale) SiO2 
 PCOD8080711
Probable space group: C 2/M
;
_chemical_formula_sum "Si O2"
_cell_formula_units_Z 64
_cell_length_a 25.174748
_cell_length_b 9.163659
_cell_length_c 17.528565
_cell_angle_alpha 90.000000
_cell_angle_beta 103.297644
_cell_angle_gamma 90.000000
_cell_volume 3935.295132
_symmetry_space_group_name_H-M "C 2/M"
_symmetry_group_IT_number 12
_symmetry_cell_setting 'monoclinic'
loop_
_space_group_symop_operation_xyz
x,y,z
-x,y,-z
-x,-y,-z
x,-y,z
1/2+x,1/2+y,z
1/2-x,1/2+y,-z
1/2-x,1/2-y,-z
1/2+x,1/2-y,z
loop_
_atom_site_type_symbol
_atom_site_label
_atom_site_fract_x
_atom_site_fract_y
_atom_site_fract_z
Si Si1 0.238663 0.330332 0.574722
Si Si2 0.546380 0.826728 0.690486
Si Si3 0.428496 0.172502 0.594276
Si Si4 0.851009 0.167462 0.683640
Si Si5 0.062630 0.664652 0.996957
Si Si6 0.914195 0.167859 0.851799
Si Si7 0.464159 0.328690 0.157296
Si Si8 0.620258 0.827053 0.578446
O O1 0.233065 0.500000 0.552824
O O2 0.250000 0.250000 0.500000
O O3 0.286903 0.301136 0.651129
O O4 0.182697 0.271358 0.593903
O O5 0.488844 0.775748 0.636154
O O6 0.557275 0.745055 0.772912
O O7 0.593080 0.771626 0.647699
O O8 0.547732 0.000000 0.704835
O O9 0.384865 0.232002 0.638938
O O10 0.413983 0.232454 0.505299
O O11 0.423982 0.000000 0.595184
O O12 0.866219 0.203282 0.776091
O O13 0.865808 0.000000 0.669878
O O14 0.083145 0.500000 0.989539
O O15 0.097238 0.735235 0.077262
O O16 0.070556 0.759105 0.923261
O O17 0.000000 0.667821 0.000000
O O18 0.971786 0.206737 0.831109
O O19 0.914368 0.000000 0.877904
O O20 0.452541 0.500000 0.155864
O O21 0.617568 0.000000 0.577180
#
# Coordination Sequence:
#
# PCOD8080711 Si02
#       8
#     8   8   8   8   8   8   8   8
#     4  10  19  32  50  68  90 121 159 199 239 276
#     4  10  19  30  46  67  93 124 161 197 230 273
#     4  10  18  29  47  67  90 123 160 196 233 274
#     4  10  19  30  46  69  95 124 155 191 234 279
#     4   9  17  28  44  67  93 120 153 187 221 270
#     4   9  17  29  43  63  94 125 151 182 227 280
#     4  10  18  29  45  65  94 127 153 181 229 282
#     4   9  18  32  47  66  91 123 161 200 237 274
#
# _framework density 16.263074
#
# number of rings (size 3 to 8) (size 9 to 14) (size 15 to 20)
#    0.000    2.375    2.500    1.125    0.000    4.000 
#    0.000    1.250    0.000    1.500    0.000    0.875 
#    0.000    0.000    0.000    0.000    0.000    0.000 
#
# Total GULP energy -396786.670699 kJ/mol
# GULP energy per Si atom -12399.583459 kJ/mol
# Density = 1.622606 g / cm^3
# Si number density = 16.263074 Si / 1000 Ang^3
#
#
#
# Elastic Constant Matrix: (Units=GPa)
#
#
# Indices 1 2 3 4 5 6 
#
# 1 80.7560 21.9918 55.5025 0.0000 -12.1050 0.0000
# 2 21.9918 44.7288 44.3023 0.0000 -7.0650 0.0000
# 3 55.5025 44.3023 144.1732 0.0000 -4.6856 0.0000
# 4 0.0000 0.0000 0.0000 28.0768 0.0000 -2.3545
# 5 -12.1050 -7.0650 -4.6856 0.0000 15.9073 0.0000
# 6 0.0000 0.0000 0.0000 -2.3545 0.0000 13.1792
#
#
#
# Elastic Compliance Matrix: (Units=1/GPa)
#
#
# Indices 1 2 3 4 5 6 
#
# 1 0.019012 -0.000822 -0.006672 0.000000 0.012137 0.000000
# 2 -0.000822 0.034392 -0.009870 0.000000 0.011742 0.000000
# 3 -0.006672 -0.009870 0.012348 0.000000 -0.005823 0.000000
# 4 0.000000 0.000000 0.000000 0.036158 0.000000 0.006460
# 5 0.012137 0.011742 -0.005823 0.000000 0.075599 0.000000
# 6 0.000000 0.000000 0.000000 0.006460 0.000000 0.077031
#
#
# Mechanical properties :
#
#
# Convention : Reuss Voigt Hill
#
# Bulk Modulus (GPa) = 32.23358 57.02791 44.63074
# Shear Modulus (GPa) = 16.68838 21.29008 18.98923
#
# Velocity S-wave (km/s) = 3.20684 3.62208 3.42076
# Velocity P-wave (km/s) = 5.79438 7.25497 6.56542
#
# Compressibility (1/GPa) = 0.03102355
#
# Stress axis : x y z
#
# Youngs Moduli (GPa) = 52.59946 29.07686 80.98350
#
# Poissons Ratio (x) = 0.02391 0.54031
# Poissons Ratio (y) = 0.04324 0.79930
# Poissons Ratio (z) = 0.35093 0.28699
#
# Static dielectric constant tensor:
#      x y z
#    x 3.007120 0.000000 0.077110 
#    y 0.000000 3.003980 0.000000 
#    z 0.077110 0.000000 3.236760 
# 
# 
# High freq. dielectric constant tensor:
#      x y z
#    x 1.589370 0.000000 0.003670 
#    y 0.000000 1.616850 0.000000 
#    z 0.003670 0.000000 1.633320 
# 
# From -- ./inp_files/244196.got.cif
#   From: 2010.06.25/outbox.cif.g09.slc.cpg/sg12_123_cif.got.tgz:244196.got - 2010.06.28 00:19:55.
