data_PCOD8080335
_publ_section_title
;
Structure prediction by ZEFSAII (Michael W. Deem and Ramdas Pophale) SiO2 
 PCOD8080335
Probable space group: C 2/M
;
_chemical_formula_sum "Si O2"
_cell_formula_units_Z 56
_cell_length_a 31.666435
_cell_length_b 7.698822
_cell_length_c 14.706717
_cell_angle_alpha 90.000000
_cell_angle_beta 61.800402
_cell_angle_gamma 90.000000
_cell_volume 3159.848731
_symmetry_space_group_name_H-M "C 2/M"
_symmetry_group_IT_number 12
_symmetry_cell_setting 'monoclinic'
loop_
_space_group_symop_operation_xyz
x,y,z
-x,y,-z
-x,-y,-z
x,-y,z
1/2+x,1/2+y,z
1/2-x,1/2+y,-z
1/2-x,1/2-y,-z
1/2+x,1/2-y,z
loop_
_atom_site_type_symbol
_atom_site_label
_atom_site_fract_x
_atom_site_fract_y
_atom_site_fract_z
Si Si1 0.375422 0.198650 0.796150
Si Si2 0.284567 0.192409 0.221823
Si Si3 0.616493 0.798119 0.551684
Si Si4 0.059764 0.000000 0.339460
Si Si5 0.052413 0.000000 0.560576
Si Si6 0.796212 0.296258 0.012446
Si Si7 0.183920 0.306791 0.319764
Si Si8 0.200246 0.295411 0.598822
O O1 0.418637 0.327877 0.729524
O O2 0.334361 0.211873 0.763168
O O3 0.395167 0.000000 0.782948
O O4 0.346862 0.258319 0.915771
O O5 0.295522 0.290973 0.114767
O O6 0.227130 0.174907 0.291666
O O7 0.303715 0.286248 0.294785
O O8 0.306725 0.000000 0.195366
O O9 0.570612 0.671829 0.595870
O O10 0.640101 0.767676 0.430181
O O11 0.654255 0.731787 0.588892
O O12 0.601081 0.000000 0.581888
O O13 0.068975 0.000000 0.438201
O O14 0.004208 0.000000 0.373489
O O15 0.794333 0.500000 0.027627
O O16 0.750000 0.250000 0.000000
O O17 0.203962 0.500000 0.318548
O O18 0.198594 0.500000 0.608740
O O19 0.250000 0.250000 0.500000
#
# Coordination Sequence:
#
# PCOD8080335 Si02
#       8
#     8   8   8   4   4   8   8   8
#     4  10  21  36  53  75 108 147 180 216 267 322
#     4  10  20  30  46  72 105 144 189 222 248 305
#     4  10  21  36  53  75 108 147 180 216 267 322
#     4  11  24  38  58  83 105 137 183 230 277 325
#     4  11  24  38  58  83 105 137 183 230 277 325
#     4  10  20  31  47  73 105 144 183 219 259 314
#     4  10  18  28  44  71 106 143 178 210 253 310
#     4  10  20  31  47  73 105 144 183 219 259 314
#
# _framework density 17.722366999999998
#
# number of rings (size 3 to 8) (size 9 to 14) (size 15 to 20)
#    0.000    1.857    4.286    0.000    4.000    0.571 
#    0.000    1.429    0.000    0.000    0.000    2.000 
#    0.000    5.714    0.000    0.000    0.000    0.000 
#
# Total GULP energy -346924.875291 kJ/mol
# GULP energy per Si atom -12390.174118 kJ/mol
# Density = 1.768203 g / cm^3
# Si number density = 17.722367 Si / 1000 Ang^3
#
#
#
# Elastic Constant Matrix: (Units=GPa)
#
#
# Indices 1 2 3 4 5 6 
#
# 1 104.6173 42.6043 52.5875 0.0000 4.6361 0.0000
# 2 42.6043 68.8740 33.0667 0.0000 -8.3517 0.0000
# 3 52.5875 33.0667 104.8433 0.0000 15.0209 0.0000
# 4 0.0000 0.0000 0.0000 17.2085 0.0000 -4.9603
# 5 4.6361 -8.3517 15.0209 0.0000 28.7889 0.0000
# 6 0.0000 0.0000 0.0000 -4.9603 0.0000 19.6613
#
#
#
# Elastic Compliance Matrix: (Units=1/GPa)
#
#
# Indices 1 2 3 4 5 6 
#
# 1 0.015084 -0.007133 -0.005049 0.000000 -0.001864 0.000000
# 2 -0.007133 0.022599 -0.005030 0.000000 0.010329 0.000000
# 3 -0.005049 -0.005030 0.014860 0.000000 -0.008400 0.000000
# 4 0.000000 0.000000 0.000000 0.062668 0.000000 0.015811
# 5 -0.001864 0.010329 -0.008400 0.000000 0.042415 0.000000
# 6 0.000000 0.000000 0.000000 0.015811 0.000000 0.054850
#
#
# Mechanical properties :
#
#
# Convention : Reuss Voigt Hill
#
# Bulk Modulus (GPa) = 55.18763 59.42794 57.30779
# Shear Modulus (GPa) = 19.76760 23.13681 21.45221
#
# Velocity S-wave (km/s) = 3.34339 3.61711 3.48294
# Velocity P-wave (km/s) = 6.79059 7.14494 6.97002
#
# Compressibility (1/GPa) = 0.01812000
#
# Stress axis : x y z
#
# Youngs Moduli (GPa) = 66.29545 44.25058 67.29296
#
# Poissons Ratio (x) = 0.31562 0.33978
# Poissons Ratio (y) = 0.47285 0.33846
# Poissons Ratio (z) = 0.33475 0.22257
#
# Static dielectric constant tensor:
#      x y z
#    x 3.203830 0.000000 0.427600 
#    y 0.000000 3.797720 0.000000 
#    z 0.427600 0.000000 3.599110 
# 
# 
# High freq. dielectric constant tensor:
#      x y z
#    x 1.653590 0.000000 0.023000 
#    y 0.000000 1.685480 0.000000 
#    z 0.023000 0.000000 1.676930 
# 
# From -- ./inp_files/248181.got.cif
#   From: 2010.06.25/outbox.cif.g09.slc.cpg/sg12_125_cif.got.tgz:248181.got - 2010.06.28 00:19:55.
