data_PCOD8080012
_publ_section_title
;
Structure prediction by ZEFSAII (Michael W. Deem and Ramdas Pophale) SiO2 
 PCOD8080012
Probable space group: C 2/M
;
_chemical_formula_sum "Si O2"
_cell_formula_units_Z 48
_cell_length_a 19.959723
_cell_length_b 9.077408
_cell_length_c 15.456911
_cell_angle_alpha 90.000000
_cell_angle_beta 90.800072
_cell_angle_gamma 90.000000
_cell_volume 2800.249505
_symmetry_space_group_name_H-M "C 2/M"
_symmetry_group_IT_number 12
_symmetry_cell_setting 'monoclinic'
loop_
_space_group_symop_operation_xyz
x,y,z
-x,y,-z
-x,-y,-z
x,-y,z
1/2+x,1/2+y,z
1/2-x,1/2+y,-z
1/2-x,1/2-y,-z
1/2+x,1/2-y,z
loop_
_atom_site_type_symbol
_atom_site_label
_atom_site_fract_x
_atom_site_fract_y
_atom_site_fract_z
Si Si1 0.179119 0.175613 0.241318
Si Si2 0.669135 0.337382 0.576509
Si Si3 0.925846 0.174825 0.901901
Si Si4 0.320064 0.324738 0.233061
Si Si5 0.075109 0.825019 0.905282
Si Si6 0.671695 0.163825 0.414077
O O1 0.127058 0.234228 0.168528
O O2 0.250419 0.242295 0.216817
O O3 0.152272 0.233745 0.332907
O O4 0.184270 0.000000 0.245202
O O5 0.640041 0.500000 0.557636
O O6 0.648538 0.283996 0.672392
O O7 0.640294 0.229658 0.502099
O O8 0.749035 0.342432 0.574903
O O9 0.000555 0.233023 0.880511
O O10 0.926595 0.000000 0.900573
O O11 0.905118 0.228905 0.997829
O O12 0.307128 0.500000 0.227245
O O13 0.371348 0.263231 0.162284
O O14 0.075785 0.000000 0.900840
O O15 0.642416 0.000000 0.399704
#
# Coordination Sequence:
#
# PCOD8080012 Si02
#       6
#     8   8   8   8   8   8
#     4  10  18  27  42  67  95 117 142 180 222 260
#     4   8  14  24  38  60  87 112 141 178 218 257
#     4   8  15  27  45  67  88 115 149 183 218 255
#     4   9  17  28  45  68  91 116 145 180 221 259
#     4   8  14  28  47  65  87 115 150 185 215 255
#     4   9  16  26  41  61  85 116 149 178 214 258
#
# _framework density 17.141331000000001
#
# number of rings (size 3 to 8) (size 9 to 14) (size 15 to 20)
#    0.000    3.333    0.000    3.000    0.000    4.667 
#    0.000    0.000    0.000    4.000    0.000   12.833 
#    0.000    0.000    0.000    0.000    0.000    0.000 
#
# Total GULP energy -297421.748976 kJ/mol
# GULP energy per Si atom -12392.572874 kJ/mol
# Density = 1.710232 g / cm^3
# Si number density = 17.141331 Si / 1000 Ang^3
#
#
#
# Elastic Constant Matrix: (Units=GPa)
#
#
# Indices 1 2 3 4 5 6 
#
# 1 70.6331 31.5400 78.6557 0.0000 2.6797 0.0000
# 2 31.5400 56.2777 47.4934 0.0000 0.6762 0.0000
# 3 78.6557 47.4934 167.3646 0.0000 0.9295 0.0000
# 4 0.0000 0.0000 0.0000 18.4158 0.0000 0.0094
# 5 2.6797 0.6762 0.9295 0.0000 7.4388 0.0000
# 6 0.0000 0.0000 0.0000 0.0094 0.0000 13.0377
#
#
#
# Elastic Compliance Matrix: (Units=1/GPa)
#
#
# Indices 1 2 3 4 5 6 
#
# 1 0.032199 -0.006846 -0.013138 0.000000 -0.009335 0.000000
# 2 -0.006846 0.024832 -0.003833 0.000000 0.000688 0.000000
# 3 -0.013138 -0.003833 0.013218 0.000000 0.003429 0.000000
# 4 0.000000 0.000000 0.000000 0.054301 0.000000 -0.000039
# 5 -0.009335 0.000688 0.003429 0.000000 0.137301 0.000000
# 6 0.000000 0.000000 0.000000 -0.000039 0.000000 0.076701
#
#
# Mechanical properties :
#
#
# Convention : Reuss Voigt Hill
#
# Bulk Modulus (GPa) = 44.21811 67.73931 55.97871
# Shear Modulus (GPa) = 12.69921 16.88420 14.79171
#
# Velocity S-wave (km/s) = 2.72482 3.14187 2.94075
# Velocity P-wave (km/s) = 5.97927 7.26400 6.65272
#
# Compressibility (1/GPa) = 0.02261517
#
# Stress axis : x y z
#
# Youngs Moduli (GPa) = 31.05710 40.27002 75.65455
#
# Poissons Ratio (x) = 0.27569 0.99393
# Poissons Ratio (y) = 0.21262 0.28999
# Poissons Ratio (z) = 0.40802 0.15436
#
# Static dielectric constant tensor:
#      x y z
#    x 3.001300 0.000000 -0.055040 
#    y 0.000000 3.014820 0.000000 
#    z -0.055040 0.000000 3.631810 
# 
# 
# High freq. dielectric constant tensor:
#      x y z
#    x 1.618410 0.000000 -0.002370 
#    y 0.000000 1.633940 0.000000 
#    z -0.002370 0.000000 1.678230 
# 
# From -- ./inp_files/236324.got.cif
#   From: 2010.06.25/outbox.cif.g09.slc.cpg/sg12_119_cif.got.tgz:236324.got - 2010.06.28 00:19:55.
