data_PCOD8080103
_publ_section_title
;
Structure prediction by ZEFSAII (Michael W. Deem and Ramdas Pophale) SiO2 
 PCOD8080103
Probable space group: C 2/M
;
_chemical_formula_sum "Si O2"
_cell_formula_units_Z 64
_cell_length_a 19.071207
_cell_length_b 8.975483
_cell_length_c 23.193897
_cell_angle_alpha 90.000000
_cell_angle_beta 60.140876
_cell_angle_gamma 90.000000
_cell_volume 3443.143499
_symmetry_space_group_name_H-M "C 2/M"
_symmetry_group_IT_number 12
_symmetry_cell_setting 'monoclinic'
loop_
_space_group_symop_operation_xyz
x,y,z
-x,y,-z
-x,-y,-z
x,-y,z
1/2+x,1/2+y,z
1/2-x,1/2+y,-z
1/2-x,1/2-y,-z
1/2+x,1/2-y,z
loop_
_atom_site_type_symbol
_atom_site_label
_atom_site_fract_x
_atom_site_fract_y
_atom_site_fract_z
Si Si1 0.431283 0.829741 0.220018
Si Si2 0.755361 0.673238 0.328730
Si Si3 0.186587 0.169401 0.156755
Si Si4 0.640835 0.827606 0.289701
Si Si5 0.064406 0.827791 0.102941
Si Si6 0.040859 0.327848 0.661736
Si Si7 0.312923 0.828478 0.015346
Si Si8 0.200689 0.823146 0.571262
O O1 0.335106 0.802454 0.256914
O O2 0.474541 0.730432 0.153778
O O3 0.464721 0.782229 0.269011
O O4 0.453275 0.000000 0.197996
O O5 0.744853 0.500000 0.348887
O O6 0.678589 0.729873 0.324916
O O7 0.761796 0.766687 0.384357
O O8 0.175858 0.281437 0.213617
O O9 0.121972 0.207925 0.133631
O O10 0.278263 0.188764 0.094593
O O11 0.173601 0.000000 0.183736
O O12 0.545038 0.799169 0.332641
O O13 0.661901 0.000000 0.290692
O O14 0.059880 0.000000 0.090269
O O15 0.099471 0.746818 0.031113
O O16 0.068341 0.500000 0.645889
O O17 0.107289 0.226462 0.603001
O O18 0.318577 0.000000 0.995373
O O19 0.250000 0.750000 0.000000
O O20 0.250000 0.750000 0.500000
O O21 0.207038 0.000000 0.565399
#
# Coordination Sequence:
#
# PCOD8080103 Si02
#       8
#     8   8   8   8   8   8   8   8
#     4   9  17  32  52  74 103 141 178 221 273 320
#     4  10  22  39  57  81 114 146 180 222 268 319
#     4   9  18  30  45  70 103 140 178 219 272 325
#     4  11  21  34  55  82 112 146 181 222 271 321
#     4  10  18  27  45  73 102 134 177 227 274 323
#     4   9  19  35  55  83 114 144 181 222 266 316
#     4   9  17  28  42  65  98 135 176 223 274 325
#     4  11  22  39  64  89 114 146 181 218 261 312
#
# _framework density 18.587665999999999
#
# number of rings (size 3 to 8) (size 9 to 14) (size 15 to 20)
#    0.000    2.250    1.250    4.125    0.000    6.000 
#    0.000    0.625    0.000    4.500    0.000    5.250 
#    0.000    0.000    0.000    0.000    0.000    0.000 
#
# Total GULP energy -396775.587784 kJ/mol
# GULP energy per Si atom -12399.237118 kJ/mol
# Density = 1.854536 g / cm^3
# Si number density = 18.587666 Si / 1000 Ang^3
#
#
#
# Elastic Constant Matrix: (Units=GPa)
#
#
# Indices 1 2 3 4 5 6 
#
# 1 75.5439 39.7492 29.0943 0.0001 -8.8388 0.0003
# 2 39.7492 127.0270 61.6368 0.0002 -14.4829 0.0004
# 3 29.0943 61.6368 100.7471 0.0000 -21.7391 0.0001
# 4 0.0001 0.0002 0.0000 35.8981 0.0001 -3.7940
# 5 -8.8388 -14.4829 -21.7391 0.0001 18.3555 0.0001
# 6 0.0003 0.0004 0.0001 -3.7940 0.0001 27.9389
#
#
#
# Elastic Compliance Matrix: (Units=1/GPa)
#
#
# Indices 1 2 3 4 5 6 
#
# 1 0.016295 -0.003968 -0.001693 0.000000 0.002710 0.000000
# 2 -0.003968 0.012175 -0.006236 0.000000 0.000310 0.000000
# 3 -0.001693 -0.006236 0.017452 0.000000 0.014934 0.000000
# 4 0.000000 0.000000 0.000000 0.028262 0.000000 0.003838
# 5 0.002710 0.000310 0.014934 0.000000 0.073716 0.000000
# 6 0.000000 0.000000 0.000000 0.003838 0.000000 0.036314
#
#
# Mechanical properties :
#
#
# Convention : Reuss Voigt Hill
#
# Bulk Modulus (GPa) = 45.19234 62.69764 53.94499
# Shear Modulus (GPa) = 23.21429 27.96101 25.58765
#
# Velocity S-wave (km/s) = 3.53782 3.88271 3.71427
# Velocity P-wave (km/s) = 6.40735 7.34197 6.89053
#
# Compressibility (1/GPa) = 0.02212765
#
# Stress axis : x y z
#
# Youngs Moduli (GPa) = 61.37033 82.13348 57.29918
#
# Poissons Ratio (x) = 0.32594 0.09701
# Poissons Ratio (y) = 0.24354 0.35731
# Poissons Ratio (z) = 0.10390 0.51217
#
# Static dielectric constant tensor:
#      x y z
#    x 3.266510 0.000000 -0.250380 
#    y 0.000000 3.526850 0.000000 
#    z -0.250380 0.000000 3.469420 
# 
# 
# High freq. dielectric constant tensor:
#      x y z
#    x 1.693300 0.000000 -0.021880 
#    y 0.000000 1.731590 0.000000 
#    z -0.021880 0.000000 1.714180 
# 
# From -- ./inp_files/345530.got.cif
#   From: 2010.06.25/outbox.cif.g09.slc.cpg/sg12_173_cif.got.tgz:345530.got - 2010.06.28 00:19:55.
