data_PCOD8080829
_publ_section_title
;
Structure prediction by ZEFSAII (Michael W. Deem and Ramdas Pophale) SiO2 
 PCOD8080829
Probable space group: C 2/M
;
_chemical_formula_sum "Si O2"
_cell_formula_units_Z 64
_cell_length_a 25.168815
_cell_length_b 9.379981
_cell_length_c 15.323528
_cell_angle_alpha 90.000000
_cell_angle_beta 72.790483
_cell_angle_gamma 90.000000
_cell_volume 3455.660727
_symmetry_space_group_name_H-M "C 2/M"
_symmetry_group_IT_number 12
_symmetry_cell_setting 'monoclinic'
loop_
_space_group_symop_operation_xyz
x,y,z
-x,y,-z
-x,-y,-z
x,-y,z
1/2+x,1/2+y,z
1/2-x,1/2+y,-z
1/2-x,1/2-y,-z
1/2+x,1/2-y,z
loop_
_atom_site_type_symbol
_atom_site_label
_atom_site_fract_x
_atom_site_fract_y
_atom_site_fract_z
Si Si1 0.076721 0.669608 0.700638
Si Si2 0.261148 0.336720 0.733736
Si Si3 0.887249 0.834684 0.677640
Si Si4 0.105677 0.343761 0.492332
Si Si5 0.964860 0.830480 0.800830
Si Si6 0.235686 0.655000 0.427240
Si Si7 0.941034 0.334430 0.982541
Si Si8 0.643042 0.164062 0.835145
O O1 0.065834 0.500000 0.707496
O O2 0.091638 0.720254 0.594811
O O3 0.125236 0.714883 0.745812
O O4 0.022819 0.754235 0.756503
O O5 0.261448 0.500000 0.700610
O O6 0.323106 0.294707 0.735775
O O7 0.240943 0.234594 0.667384
O O8 0.209118 0.313643 0.825466
O O9 0.912023 0.757317 0.579441
O O10 0.924429 0.791107 0.740869
O O11 0.891411 0.000000 0.653332
O O12 0.077364 0.500000 0.494732
O O13 0.170613 0.363236 0.452733
O O14 0.936912 0.764640 0.899973
O O15 0.972708 0.000000 0.807259
O O16 0.264380 0.500000 0.421058
O O17 0.250000 0.750000 0.500000
O O18 0.930708 0.500000 0.961815
O O19 0.894129 0.267825 0.070077
O O20 0.000000 0.316679 0.000000
O O21 0.626662 0.000000 0.846306
#
# Coordination Sequence:
#
# PCOD8080829 Si02
#       8
#     8   8   8   8   8   8   8   8
#     4  10  19  34  54  79 107 136 175 222 266 309
#     4   9  17  33  55  75  99 136 176 214 257 306
#     4   9  20  37  54  73 106 147 180 210 255 313
#     4   9  19  33  52  76 103 137 181 226 259 296
#     4  11  23  37  53  77 108 142 175 213 262 317
#     4  10  18  29  46  71 103 138 175 215 260 308
#     4  10  19  36  60  82 104 133 171 215 264 316
#     4   9  17  32  57  83 105 131 170 217 264 314
#
# _framework density 18.520337000000001
#
# number of rings (size 3 to 8) (size 9 to 14) (size 15 to 20)
#    0.000    2.375    1.250    1.500    0.000    4.750 
#    0.000    5.625    0.000    0.000    0.000    0.000 
#    0.000    0.000    0.000    0.000    0.000    0.000 
#
# Total GULP energy -396465.773822 kJ/mol
# GULP energy per Si atom -12389.555432 kJ/mol
# Density = 1.847818 g / cm^3
# Si number density = 18.520337 Si / 1000 Ang^3
#
#
#
# Elastic Constant Matrix: (Units=GPa)
#
#
# Indices 1 2 3 4 5 6 
#
# 1 53.5312 11.9973 23.8197 0.0000 -1.5175 0.0000
# 2 11.9973 54.7894 25.0951 0.0000 6.8152 0.0000
# 3 23.8197 25.0951 115.3625 0.0000 -2.8931 0.0000
# 4 0.0000 0.0000 0.0000 28.0397 0.0000 1.6675
# 5 -1.5175 6.8152 -2.8931 0.0000 30.9611 0.0000
# 6 0.0000 0.0000 0.0000 1.6675 0.0000 19.7113
#
#
#
# Elastic Compliance Matrix: (Units=1/GPa)
#
#
# Indices 1 2 3 4 5 6 
#
# 1 0.021033 -0.003114 -0.003631 0.000000 0.001377 0.000000
# 2 -0.003114 0.021498 -0.004166 0.000000 -0.005274 0.000000
# 3 -0.003631 -0.004166 0.010367 0.000000 0.001708 0.000000
# 4 0.000000 0.000000 0.000000 0.035844 0.000000 -0.003032
# 5 0.001377 -0.005274 0.001708 0.000000 0.033687 0.000000
# 6 0.000000 0.000000 0.000000 -0.003032 0.000000 0.050989
#
#
# Mechanical properties :
#
#
# Convention : Reuss Voigt Hill
#
# Bulk Modulus (GPa) = 32.17845 38.38972 35.28408
# Shear Modulus (GPa) = 24.31934 26.59380 25.45657
#
# Velocity S-wave (km/s) = 3.62762 3.79347 3.71147
# Velocity P-wave (km/s) = 5.91258 6.32144 6.12043
#
# Compressibility (1/GPa) = 0.03107670
#
# Stress axis : x y z
#
# Youngs Moduli (GPa) = 47.54373 46.51677 96.45944
#
# Poissons Ratio (x) = 0.14485 0.35024
# Poissons Ratio (y) = 0.14805 0.40183
# Poissons Ratio (z) = 0.17263 0.19378
#
# Static dielectric constant tensor:
#      x y z
#    x 3.254100 0.000000 -0.180050 
#    y 0.000000 3.631960 0.000000 
#    z -0.180050 0.000000 3.414210 
# 
# 
# High freq. dielectric constant tensor:
#      x y z
#    x 1.713640 0.000000 -0.010630 
#    y 0.000000 1.706830 0.000000 
#    z -0.010630 0.000000 1.713330 
# 
# From -- ./inp_files/243966.got.cif
#   From: 2010.06.25/outbox.cif.g09.slc.cpg/sg12_122_cif.got.tgz:243966.got - 2010.06.28 00:19:55.
