data_PCOD8080271
_publ_section_title
;
Structure prediction by ZEFSAII (Michael W. Deem and Ramdas Pophale) SiO2 
 PCOD8080271
Probable space group: C 2/M
;
_chemical_formula_sum "Si O2"
_cell_formula_units_Z 64
_cell_length_a 32.071663
_cell_length_b 9.218180
_cell_length_c 15.983713
_cell_angle_alpha 90.000000
_cell_angle_beta 53.687879
_cell_angle_gamma 90.000000
_cell_volume 3807.792106
_symmetry_space_group_name_H-M "C 2/M"
_symmetry_group_IT_number 12
_symmetry_cell_setting 'monoclinic'
loop_
_space_group_symop_operation_xyz
x,y,z
-x,y,-z
-x,-y,-z
x,-y,z
1/2+x,1/2+y,z
1/2-x,1/2+y,-z
1/2-x,1/2-y,-z
1/2+x,1/2-y,z
loop_
_atom_site_type_symbol
_atom_site_label
_atom_site_fract_x
_atom_site_fract_y
_atom_site_fract_z
Si Si1 0.894405 0.171107 0.069318
Si Si2 0.940998 0.665861 0.164240
Si Si3 0.545745 0.829302 0.134288
Si Si4 0.024247 0.672336 0.344542
Si Si5 0.836267 0.667272 0.380313
Si Si6 0.322444 0.170995 0.582842
Si Si7 0.708194 0.330992 0.717959
Si Si8 0.422041 0.827240 0.555115
O O1 0.933265 0.231752 0.093546
O O2 0.835344 0.214308 0.162993
O O3 0.901999 0.000000 0.053157
O O4 0.906784 0.245885 0.966024
O O5 0.942175 0.500000 0.130489
O O6 0.896022 0.688968 0.285217
O O7 0.993804 0.709287 0.146225
O O8 0.540406 0.766857 0.234725
O O9 0.557289 0.000000 0.120206
O O10 0.022830 0.500000 0.341719
O O11 0.065711 0.725878 0.364905
O O12 0.967078 0.727923 0.438711
O O13 0.819764 0.500000 0.396380
O O14 0.828782 0.733345 0.481617
O O15 0.799117 0.751055 0.361124
O O16 0.265179 0.209166 0.685998
O O17 0.366703 0.237543 0.590931
O O18 0.331205 0.000000 0.568083
O O19 0.704005 0.500000 0.702649
O O20 0.421347 0.000000 0.555286
#
# Coordination Sequence:
#
# PCOD8080271 Si02
#       8
#     8   8   8   8   8   8   8   8
#     4  10  20  31  41  56  82 115 148 178 204 234
#     4   9  17  28  42  62  87 111 135 168 209 250
#     4  10  18  28  44  64  85 109 138 171 208 249
#     4   8  14  24  40  66  94 110 125 162 213 255
#     4   9  16  26  42  64  87 110 137 168 205 249
#     4   9  15  24  41  62  83 110 141 169 202 248
#     4   9  18  30  41  57  84 115 145 175 204 236
#     4   8  13  23  41  66  92 110 127 161 210 256
#
# _framework density 16.807639999999999
#
# number of rings (size 3 to 8) (size 9 to 14) (size 15 to 20)
#    0.000    3.000    0.000    2.625    0.000    5.500 
#    0.000    0.000    0.000    0.750    0.000    4.375 
#    0.000    0.000    0.000    0.000    0.000    0.375 
#
# Total GULP energy -396660.823379 kJ/mol
# GULP energy per Si atom -12395.650731 kJ/mol
# Density = 1.676939 g / cm^3
# Si number density = 16.807640 Si / 1000 Ang^3
#
#
#
# Elastic Constant Matrix: (Units=GPa)
#
#
# Indices 1 2 3 4 5 6 
#
# 1 132.0775 27.0526 75.0962 0.0000 -5.5422 0.0000
# 2 27.0526 27.3422 30.2608 -0.0002 1.4286 -0.0004
# 3 75.0962 30.2608 134.2993 0.0000 8.5661 0.0000
# 4 0.0000 -0.0002 0.0000 13.6428 0.0000 -3.8555
# 5 -5.5422 1.4286 8.5661 0.0000 18.8010 0.0000
# 6 0.0000 -0.0004 0.0000 -3.8555 0.0000 11.6283
#
#
#
# Elastic Compliance Matrix: (Units=1/GPa)
#
#
# Indices 1 2 3 4 5 6 
#
# 1 0.012577 -0.006039 -0.006116 0.000000 0.006953 0.000000
# 2 -0.006039 0.051656 -0.008135 0.000002 -0.001999 0.000002
# 3 -0.006116 -0.008135 0.013157 0.000000 -0.007179 0.000000
# 4 0.000000 0.000002 0.000000 0.080877 0.000000 0.026815
# 5 0.006953 -0.001999 -0.007179 0.000000 0.058661 0.000000
# 6 0.000000 0.000002 0.000000 0.026815 0.000000 0.094888
#
#
# Mechanical properties :
#
#
# Convention : Reuss Voigt Hill
#
# Bulk Modulus (GPa) = 27.16576 62.05980 44.61278
# Shear Modulus (GPa) = 13.71121 19.56839 16.63980
#
# Velocity S-wave (km/s) = 2.85927 3.41582 3.14986
# Velocity P-wave (km/s) = 5.20561 7.24988 6.31107
#
# Compressibility (1/GPa) = 0.03681105
#
# Stress axis : x y z
#
# Youngs Moduli (GPa) = 79.50942 19.35868 76.00739
#
# Poissons Ratio (x) = 0.11691 0.46483
# Poissons Ratio (y) = 0.48015 0.61833
# Poissons Ratio (z) = 0.48624 0.15749
#
# Static dielectric constant tensor:
#      x y z
#    x 3.313090 0.000000 -0.040410 
#    y 0.000000 2.776990 0.000000 
#    z -0.040410 0.000000 3.339980 
# 
# 
# High freq. dielectric constant tensor:
#      x y z
#    x 1.636930 0.000000 -0.009170 
#    y 0.000000 1.604850 0.000000 
#    z -0.009170 0.000000 1.649560 
# 
# From -- ./inp_files/248959.got.cif
#   From: 2010.06.25/outbox.cif.g09.slc.cpg/sg12_125_cif.got.tgz:248959.got - 2010.06.28 00:19:55.
