data_PCOD8080063
_publ_section_title
;
Structure prediction by ZEFSAII (Michael W. Deem and Ramdas Pophale) SiO2 
 PCOD8080063
Probable space group: C 2/M
;
_chemical_formula_sum "Si O2"
_cell_formula_units_Z 64
_cell_length_a 23.532017
_cell_length_b 9.014926
_cell_length_c 18.598093
_cell_angle_alpha 90.000000
_cell_angle_beta 114.552462
_cell_angle_gamma 90.000000
_cell_volume 3588.650807
_symmetry_space_group_name_H-M "C 2/M"
_symmetry_group_IT_number 12
_symmetry_cell_setting 'monoclinic'
loop_
_space_group_symop_operation_xyz
x,y,z
-x,y,-z
-x,-y,-z
x,-y,z
1/2+x,1/2+y,z
1/2-x,1/2+y,-z
1/2-x,1/2-y,-z
1/2+x,1/2-y,z
loop_
_atom_site_type_symbol
_atom_site_label
_atom_site_fract_x
_atom_site_fract_y
_atom_site_fract_z
Si Si1 0.242852 0.325365 0.107018
Si Si2 0.532022 0.175627 0.804568
Si Si3 0.656857 0.174474 0.934172
Si Si4 0.274264 0.823619 0.739405
Si Si5 0.454205 0.175897 0.348229
Si Si6 0.592328 0.824050 0.432557
Si Si7 0.155968 0.323260 0.609180
Si Si8 0.104942 0.676562 0.279158
O O1 0.253387 0.500000 0.110609
O O2 0.305006 0.249622 0.110128
O O3 0.229851 0.268582 0.180533
O O4 0.183669 0.279185 0.026077
O O5 0.584208 0.226290 0.890271
O O6 0.554445 0.231927 0.738088
O O7 0.462343 0.236477 0.785896
O O8 0.527303 0.000000 0.799797
O O9 0.662736 0.000000 0.924768
O O10 0.220579 0.751848 0.663576
O O11 0.340004 0.763574 0.742707
O O12 0.269073 0.000000 0.731349
O O13 0.521762 0.232281 0.412115
O O14 0.398230 0.240141 0.367080
O O15 0.451557 0.000000 0.351510
O O16 0.639113 0.770067 0.519463
O O17 0.615064 0.765722 0.366407
O O18 0.590489 0.000000 0.430176
O O19 0.162518 0.500000 0.618141
O O20 0.105291 0.500000 0.278633
#
# Coordination Sequence:
#
# PCOD8080063 Si02
#       8
#     8   8   8   8   8   8   8   8
#     4   9  18  30  43  64  94 120 138 164 209 261
#     4   8  13  23  42  65  84 106 141 179 211 247
#     4   9  16  28  48  71  90 108 137 177 214 249
#     4  10  20  32  43  58  87 123 149 169 205 258
#     4   8  13  22  39  65  91 107 127 172 227 262
#     4   8  14  25  42  64  86 108 140 182 221 253
#     4  10  18  27  44  68  87 107 142 185 220 250
#     4   8  15  28  43  59  84 117 146 175 214 254
#
# _framework density 17.834
#
# number of rings (size 3 to 8) (size 9 to 14) (size 15 to 20)
#    0.000    3.250    0.000    2.625    0.000    3.500 
#    0.000    0.625    0.000    6.000    0.000    3.500 
#    0.000    5.000    0.000    0.000    0.000    0.000 
#
# Total GULP energy -396532.419934 kJ/mol
# GULP energy per Si atom -12391.638123 kJ/mol
# Density = 1.779341 g / cm^3
# Si number density = 17.834000 Si / 1000 Ang^3
#
#
#
# Elastic Constant Matrix: (Units=GPa)
#
#
# Indices 1 2 3 4 5 6 
#
# 1 130.6881 13.0702 72.8976 0.0000 15.8126 0.0000
# 2 13.0702 8.2102 13.7949 0.0000 3.2654 0.0000
# 3 72.8976 13.7949 127.3967 0.0000 25.0975 0.0000
# 4 0.0000 0.0000 0.0000 17.7020 0.0000 4.2317
# 5 15.8126 3.2654 25.0975 0.0000 24.6682 0.0000
# 6 0.0000 0.0000 0.0000 4.2317 0.0000 16.2955
#
#
#
# Elastic Compliance Matrix: (Units=1/GPa)
#
#
# Indices 1 2 3 4 5 6 
#
# 1 0.011774 -0.009025 -0.005639 0.000000 -0.000616 0.000000
# 2 -0.009025 0.156143 -0.011020 0.000000 -0.003672 0.000000
# 3 -0.005639 -0.011020 0.014095 0.000000 -0.009267 0.000000
# 4 0.000000 0.000000 0.000000 0.060230 0.000000 -0.015641
# 5 -0.000616 -0.003672 -0.009267 0.000000 0.050847 0.000000
# 6 0.000000 0.000000 0.000000 -0.015641 0.000000 0.065428
#
#
# Mechanical properties :
#
#
# Convention : Reuss Voigt Hill
#
# Bulk Modulus (GPa) = 7.65435 51.75783 29.70609
# Shear Modulus (GPa) = 11.02700 22.83530 16.93115
#
# Velocity S-wave (km/s) = 2.48929 3.58220 3.08454
# Velocity P-wave (km/s) = 3.54449 6.79666 5.42024
#
# Compressibility (1/GPa) = 0.13064473
#
# Stress axis : x y z
#
# Youngs Moduli (GPa) = 84.93171 6.40440 70.94744
#
# Poissons Ratio (x) = 0.05780 0.40005
# Poissons Ratio (y) = 0.76648 0.78185
# Poissons Ratio (z) = 0.47891 0.07058
#
# Static dielectric constant tensor:
#      x y z
#    x 3.560300 0.000000 0.099910 
#    y 0.000000 2.737530 0.000000 
#    z 0.099910 0.000000 3.633750 
# 
# 
# High freq. dielectric constant tensor:
#      x y z
#    x 1.687260 0.000000 0.009860 
#    y 0.000000 1.628400 0.000000 
#    z 0.009860 0.000000 1.699200 
# 
# From -- ./inp_files/282909.got.cif
#   From: 2010.06.25/outbox.cif.g09.slc.cpg/sg12_142_cif.got.tgz:282909.got - 2010.06.28 00:19:55.
