data_PCOD8080726
_publ_section_title
;
Structure prediction by ZEFSAII (Michael W. Deem and Ramdas Pophale) SiO2 
 PCOD8080726
Probable space group: C 2/M
;
_chemical_formula_sum "Si O2"
_cell_formula_units_Z 56
_cell_length_a 15.506069
_cell_length_b 17.778124
_cell_length_c 14.841359
_cell_angle_alpha 90.000000
_cell_angle_beta 49.244639
_cell_angle_gamma 90.000000
_cell_volume 3099.175636
_symmetry_space_group_name_H-M "C 2/M"
_symmetry_group_IT_number 12
_symmetry_cell_setting 'monoclinic'
loop_
_space_group_symop_operation_xyz
x,y,z
-x,y,-z
-x,-y,-z
x,-y,z
1/2+x,1/2+y,z
1/2-x,1/2+y,-z
1/2-x,1/2-y,-z
1/2+x,1/2-y,z
loop_
_atom_site_type_symbol
_atom_site_label
_atom_site_fract_x
_atom_site_fract_y
_atom_site_fract_z
Si Si1 0.372030 0.832727 0.237668
Si Si2 0.599558 0.177070 0.577917
Si Si3 0.124615 0.413308 0.266421
Si Si4 0.722016 0.587350 0.198368
Si Si5 0.897521 0.586836 0.925184
Si Si6 0.041500 0.809296 0.379441
Si Si7 0.730962 0.804399 0.316154
O O1 0.351969 0.845008 0.357614
O O2 0.284555 0.887413 0.246925
O O3 0.499118 0.856701 0.122727
O O4 0.347802 0.744445 0.231077
O O5 0.496983 0.120958 0.621401
O O6 0.556762 0.264388 0.607669
O O7 0.703003 0.167660 0.436713
O O8 0.123289 0.500000 0.293231
O O9 0.146755 0.400269 0.145440
O O10 0.230309 0.375294 0.248377
O O11 0.696078 0.500000 0.220019
O O12 0.600908 0.630114 0.273264
O O13 0.796174 0.609121 0.060921
O O14 0.936765 0.500000 0.913164
O O15 0.129462 0.747401 0.352411
O O16 0.000000 0.850046 0.500000
#
# Coordination Sequence:
#
# PCOD8080726 Si02
#       7
#     8   8   8   8   8   8   8
#     4  10  18  29  45  67  94 124 153 183 226 277
#     4   9  17  30  47  67  94 124 151 186 231 275
#     4   9  17  30  48  69  92 120 157 197 234 272
#     4  10  19  31  48  69  94 123 152 187 231 273
#     4   9  18  32  48  67  93 122 152 191 235 272
#     4   8  16  31  48  67  92 122 155 187 223 270
#     4   9  17  29  46  68  94 124 153 187 232 272
#
# _framework density 18.069320999999999
#
# number of rings (size 3 to 8) (size 9 to 14) (size 15 to 20)
#    0.000    2.857    0.000    2.571    0.000    3.143 
#    0.000   12.857    0.000    0.857    0.000    0.000 
#    0.000   24.000    0.000    0.000    0.000    0.000 
#
# Total GULP energy -347036.382317 kJ/mol
# GULP energy per Si atom -12394.156511 kJ/mol
# Density = 1.802819 g / cm^3
# Si number density = 18.069321 Si / 1000 Ang^3
#
#
#
# Elastic Constant Matrix: (Units=GPa)
#
#
# Indices 1 2 3 4 5 6 
#
# 1 49.3535 37.9928 30.4823 0.0000 6.8036 0.0000
# 2 37.9928 100.7735 57.0751 0.0000 0.3504 0.0000
# 3 30.4823 57.0751 103.6358 0.0000 4.3212 0.0000
# 4 0.0000 0.0000 0.0000 29.2593 0.0000 -1.8105
# 5 6.8036 0.3504 4.3212 0.0000 15.5026 0.0000
# 6 0.0000 0.0000 0.0000 -1.8105 0.0000 27.2881
#
#
#
# Elastic Compliance Matrix: (Units=1/GPa)
#
#
# Indices 1 2 3 4 5 6 
#
# 1 0.031825 -0.010108 -0.003259 0.000000 -0.012830 0.000000
# 2 -0.010108 0.017688 -0.007018 0.000000 0.005992 0.000000
# 3 -0.003259 -0.007018 0.014576 0.000000 -0.002474 0.000000
# 4 0.000000 0.000000 0.000000 0.034318 0.000000 0.002277
# 5 -0.012830 0.005992 -0.002474 0.000000 0.070690 0.000000
# 6 0.000000 0.000000 0.000000 0.002277 0.000000 0.036797
#
#
# Mechanical properties :
#
#
# Convention : Reuss Voigt Hill
#
# Bulk Modulus (GPa) = 42.88389 56.09591 49.48990
# Shear Modulus (GPa) = 19.65125 22.95751 21.30438
#
# Velocity S-wave (km/s) = 3.30138 3.56831 3.43743
# Velocity P-wave (km/s) = 6.19004 6.93465 6.57290
#
# Compressibility (1/GPa) = 0.02331878
#
# Stress axis : x y z
#
# Youngs Moduli (GPa) = 31.42219 56.53534 68.60623
#
# Poissons Ratio (x) = 0.57145 0.22358
# Poissons Ratio (y) = 0.31761 0.48149
# Poissons Ratio (z) = 0.10240 0.39677
#
# Static dielectric constant tensor:
#      x y z
#    x 3.342370 0.000000 0.095340 
#    y 0.000000 3.458160 0.000000 
#    z 0.095340 0.000000 3.412180 
# 
# 
# High freq. dielectric constant tensor:
#      x y z
#    x 1.679970 0.000000 0.019680 
#    y 0.000000 1.687400 0.000000 
#    z 0.019680 0.000000 1.690430 
# 
# From -- ./inp_files/177058.got.cif
#   From: 2010.06.25/outbox.cif.g09.slc.cpg/sg12_89_cif.got.tgz:177058.got - 2010.06.28 00:19:55.
