data_PCOD8080310
_publ_section_title
;
Structure prediction by ZEFSAII (Michael W. Deem and Ramdas Pophale) SiO2 
 PCOD8080310
Probable space group: C 2/M
;
_chemical_formula_sum "Si O2"
_cell_formula_units_Z 64
_cell_length_a 19.254100
_cell_length_b 9.263960
_cell_length_c 20.360517
_cell_angle_alpha 90.000000
_cell_angle_beta 96.207637
_cell_angle_gamma 90.000000
_cell_volume 3610.395185
_symmetry_space_group_name_H-M "C 2/M"
_symmetry_group_IT_number 12
_symmetry_cell_setting 'monoclinic'
loop_
_space_group_symop_operation_xyz
x,y,z
-x,y,-z
-x,-y,-z
x,-y,z
1/2+x,1/2+y,z
1/2-x,1/2+y,-z
1/2-x,1/2-y,-z
1/2+x,1/2-y,z
loop_
_atom_site_type_symbol
_atom_site_label
_atom_site_fract_x
_atom_site_fract_y
_atom_site_fract_z
Si Si1 0.969015 0.166233 0.780275
Si Si2 0.075821 0.163097 0.475547
Si Si3 0.373564 0.834892 0.404015
Si Si4 0.798965 0.665927 0.271311
Si Si5 0.477991 0.167616 0.646610
Si Si6 0.755996 0.170372 0.069009
Si Si7 0.378366 0.664583 0.173916
Si Si8 0.826276 0.167240 0.831100
O O1 0.905433 0.207104 0.821604
O O2 0.967874 0.267601 0.717333
O O3 0.039420 0.191028 0.830239
O O4 0.963040 0.000000 0.756190
O O5 0.130248 0.234443 0.532232
O O6 0.000000 0.167953 0.500000
O O7 0.075590 0.252503 0.408058
O O8 0.099895 0.000000 0.463374
O O9 0.308306 0.795050 0.349465
O O10 0.443303 0.806853 0.369105
O O11 0.370690 0.000000 0.427908
O O12 0.818311 0.500000 0.263275
O O13 0.856605 0.748573 0.235583
O O14 0.720907 0.700401 0.238285
O O15 0.458131 0.000000 0.646140
O O16 0.832818 0.208784 0.105659
O O17 0.696742 0.231409 0.111483
O O18 0.744744 0.000000 0.058570
O O19 0.750000 0.250000 0.000000
O O20 0.362197 0.500000 0.189525
O O21 0.818476 0.000000 0.851524
#
# Coordination Sequence:
#
# PCOD8080310 Si02
#       8
#     8   8   8   8   8   8   8   8
#     4  10  19  32  50  74 103 132 162 200 245 292
#     4   9  17  27  40  62  92 126 163 206 252 297
#     4   9  16  26  42  66  94 123 160 205 250 294
#     4   9  16  29  48  71  97 127 164 203 246 292
#     4  10  18  28  44  67  96 130 163 201 250 297
#     4  10  20  36  57  79 102 132 165 200 238 282
#     4   9  18  31  50  75 101 128 163 201 239 284
#     4   9  19  34  53  76 103 133 163 198 241 290
#
# _framework density 17.726590999999999
#
# number of rings (size 3 to 8) (size 9 to 14) (size 15 to 20)
#    0.000    2.625    1.250    1.125    0.000    3.500 
#    0.000    0.625    0.000    4.500    0.000    0.000 
#    0.000    0.000    0.000    0.000    0.000    0.000 
#
# Total GULP energy -396729.846892 kJ/mol
# GULP energy per Si atom -12397.807715 kJ/mol
# Density = 1.768624 g / cm^3
# Si number density = 17.726591 Si / 1000 Ang^3
#
#
#
# Elastic Constant Matrix: (Units=GPa)
#
#
# Indices 1 2 3 4 5 6 
#
# 1 90.6251 38.6346 44.4400 0.0000 6.5600 0.0000
# 2 38.6346 97.3836 64.6921 0.0000 6.2206 0.0000
# 3 44.4400 64.6921 115.3440 0.0000 17.7874 0.0000
# 4 0.0000 0.0000 0.0000 34.7596 0.0000 0.9568
# 5 6.5600 6.2206 17.7874 0.0000 18.1540 0.0000
# 6 0.0000 0.0000 0.0000 0.9568 0.0000 18.1136
#
#
#
# Elastic Compliance Matrix: (Units=1/GPa)
#
#
# Indices 1 2 3 4 5 6 
#
# 1 0.014203 -0.003219 -0.003588 0.000000 -0.000514 0.000000
# 2 -0.003219 0.017345 -0.009130 0.000000 0.004166 0.000000
# 3 -0.003588 -0.009130 0.017070 0.000000 -0.012300 0.000000
# 4 0.000000 0.000000 0.000000 0.028811 0.000000 -0.001522
# 5 -0.000514 0.004166 -0.012300 0.000000 0.065894 0.000000
# 6 0.000000 0.000000 0.000000 -0.001522 0.000000 0.055287
#
#
# Mechanical properties :
#
#
# Convention : Reuss Voigt Hill
#
# Bulk Modulus (GPa) = 59.72209 66.54291 63.13250
# Shear Modulus (GPa) = 21.18061 24.57785 22.87923
#
# Velocity S-wave (km/s) = 3.46041 3.72761 3.59649
# Velocity P-wave (km/s) = 7.05193 7.49311 7.27587
#
# Compressibility (1/GPa) = 0.01674422
#
# Stress axis : x y z
#
# Youngs Moduli (GPa) = 70.40694 57.65424 58.58333
#
# Poissons Ratio (x) = 0.18556 0.21018
# Poissons Ratio (y) = 0.22661 0.53489
# Poissons Ratio (z) = 0.25260 0.52640
#
# Static dielectric constant tensor:
#      x y z
#    x 3.229430 0.000000 0.313240 
#    y 0.000000 3.376360 0.000000 
#    z 0.313240 0.000000 3.225230 
# 
# 
# High freq. dielectric constant tensor:
#      x y z
#    x 1.660320 0.000000 0.024030 
#    y 0.000000 1.691700 0.000000 
#    z 0.024030 0.000000 1.674870 
# 
# From -- ./inp_files/281284.got.cif
#   From: 2010.06.25/outbox.cif.g09.slc.cpg/sg12_141_cif.got.tgz:281284.got - 2010.06.28 00:19:55.
