data_PCOD8080314
_publ_section_title
;
Structure prediction by ZEFSAII (Michael W. Deem and Ramdas Pophale) SiO2 
 PCOD8080314
Probable space group: C 2/M
;
_chemical_formula_sum "Si O2"
_cell_formula_units_Z 48
_cell_length_a 27.903002
_cell_length_b 9.075434
_cell_length_c 15.905758
_cell_angle_alpha 90.000000
_cell_angle_beta 135.588008
_cell_angle_gamma 90.000000
_cell_volume 2818.737447
_symmetry_space_group_name_H-M "C 2/M"
_symmetry_group_IT_number 12
_symmetry_cell_setting 'monoclinic'
loop_
_space_group_symop_operation_xyz
x,y,z
-x,y,-z
-x,-y,-z
x,-y,z
1/2+x,1/2+y,z
1/2-x,1/2+y,-z
1/2-x,1/2-y,-z
1/2+x,1/2-y,z
loop_
_atom_site_type_symbol
_atom_site_label
_atom_site_fract_x
_atom_site_fract_y
_atom_site_fract_z
Si Si1 0.524074 0.325371 0.396930
Si Si2 0.123042 0.327920 0.037762
Si Si3 0.022870 0.673096 0.220926
Si Si4 0.924860 0.166119 0.867484
Si Si5 0.253278 0.674595 0.093431
Si Si6 0.396221 0.325951 0.342096
O O1 0.524936 0.500000 0.381152
O O2 0.540937 0.240256 0.333302
O O3 0.450522 0.271165 0.340231
O O4 0.581698 0.276385 0.536785
O O5 0.125329 0.500000 0.061656
O O6 0.126117 0.242330 0.130033
O O7 0.187837 0.275868 0.065038
O O8 0.055330 0.287283 0.900226
O O9 0.035508 0.500000 0.237970
O O10 0.075153 0.743756 0.219380
O O11 0.899922 0.000000 0.818958
O O12 0.000000 0.169077 0.000000
O O13 0.255181 0.500000 0.083065
O O14 0.320841 0.733831 0.226078
O O15 0.250000 0.750000 0.000000
O O16 0.397920 0.500000 0.342002
#
# Coordination Sequence:
#
# PCOD8080314 Si02
#       6
#     8   8   8   8   8   8
#     4   9  16  29  48  67  88 118 156 191 220 256
#     4   9  18  30  44  65  95 124 146 178 227 273
#     4  10  18  28  44  68  95 119 145 182 229 272
#     4   9  17  29  46  67  89 116 151 187 222 264
#     4  10  19  31  47  68  94 123 152 181 219 267
#     4   8  16  30  47  66  90 121 154 187 222 259
#
# _framework density 17.028901000000001
#
# number of rings (size 3 to 8) (size 9 to 14) (size 15 to 20)
#    0.000    2.833    0.000    3.000    0.000    3.333 
#    0.000    2.500    0.000    1.000    0.000    0.000 
#    0.000    0.000    0.000    0.000    0.000    0.000 
#
# Total GULP energy -297568.236068 kJ/mol
# GULP energy per Si atom -12398.676503 kJ/mol
# Density = 1.699014 g / cm^3
# Si number density = 17.028901 Si / 1000 Ang^3
#
#
#
# Elastic Constant Matrix: (Units=GPa)
#
#
# Indices 1 2 3 4 5 6 
#
# 1 146.1728 54.1243 72.8398 0.0000 -23.4159 0.0000
# 2 54.1243 65.0373 40.2269 0.0000 -15.8434 0.0000
# 3 72.8398 40.2269 102.4696 0.0000 -16.8145 0.0000
# 4 0.0000 0.0000 0.0000 21.4617 0.0000 -10.7431
# 5 -23.4159 -15.8434 -16.8145 0.0000 33.3874 0.0000
# 6 0.0000 0.0000 0.0000 -10.7431 0.0000 27.9197
#
#
#
# Elastic Compliance Matrix: (Units=1/GPa)
#
#
# Indices 1 2 3 4 5 6 
#
# 1 0.012560 -0.005967 -0.006110 0.000000 0.002900 0.000000
# 2 -0.005967 0.024360 -0.004482 0.000000 0.005118 0.000000
# 3 -0.006110 -0.004482 0.016144 0.000000 0.001718 0.000000
# 4 0.000000 0.000000 0.000000 0.057710 0.000000 0.022206
# 5 0.002900 0.005118 0.001718 0.000000 0.035279 0.000000
# 6 0.000000 0.000000 0.000000 0.022206 0.000000 0.044362
#
#
# Mechanical properties :
#
#
# Convention : Reuss Voigt Hill
#
# Bulk Modulus (GPa) = 50.13381 72.00687 61.07034
# Shear Modulus (GPa) = 21.72209 26.31968 24.02089
#
# Velocity S-wave (km/s) = 3.57543 3.93566 3.75986
# Velocity P-wave (km/s) = 6.82270 7.93911 7.40199
#
# Compressibility (1/GPa) = 0.01994662
#
# Stress axis : x y z
#
# Youngs Moduli (GPa) = 79.61982 41.05046 61.94441
#
# Poissons Ratio (x) = 0.24494 0.37846
# Poissons Ratio (y) = 0.47507 0.27763
# Poissons Ratio (z) = 0.48645 0.18399
#
# Static dielectric constant tensor:
#      x y z
#    x 3.299500 0.000000 0.045540 
#    y 0.000000 3.041590 0.000000 
#    z 0.045540 0.000000 3.296520 
# 
# 
# High freq. dielectric constant tensor:
#      x y z
#    x 1.656600 0.000000 -0.017670 
#    y 0.000000 1.644530 0.000000 
#    z -0.017670 0.000000 1.637730 
# 
# From -- ./inp_files/230415.got.cif
#   From: 2010.06.25/outbox.cif.g09.slc.cpg/sg12_116_cif.got.tgz:230415.got - 2010.06.28 00:19:55.
