data_PCOD8080487
_publ_section_title
;
Structure prediction by ZEFSAII (Michael W. Deem and Ramdas Pophale) SiO2 
 PCOD8080487
Probable space group: C 2/M
;
_chemical_formula_sum "Si O2"
_cell_formula_units_Z 56
_cell_length_a 15.028811
_cell_length_b 17.705878
_cell_length_c 17.354947
_cell_angle_alpha 90.000000
_cell_angle_beta 39.267639
_cell_angle_gamma 90.000000
_cell_volume 2923.011102
_symmetry_space_group_name_H-M "C 2/M"
_symmetry_group_IT_number 12
_symmetry_cell_setting 'monoclinic'
loop_
_space_group_symop_operation_xyz
x,y,z
-x,y,-z
-x,-y,-z
x,-y,z
1/2+x,1/2+y,z
1/2-x,1/2+y,-z
1/2-x,1/2-y,-z
1/2+x,1/2-y,z
loop_
_atom_site_type_symbol
_atom_site_label
_atom_site_fract_x
_atom_site_fract_y
_atom_site_fract_z
Si Si1 0.630801 0.911223 0.969970
Si Si2 0.345842 0.915995 0.399240
Si Si3 0.783258 0.774825 0.283230
Si Si4 0.835660 0.212640 0.786843
Si Si5 0.152631 0.416104 0.419880
Si Si6 0.354297 0.705350 0.487286
Si Si7 0.456347 0.813710 0.827168
O O1 0.603466 0.870461 0.069362
O O2 0.662323 0.000000 0.961471
O O3 0.500000 0.900370 0.000000
O O4 0.769128 0.870457 0.843172
O O5 0.339734 0.916058 0.494245
O O6 0.199591 0.880679 0.467318
O O7 0.475410 0.865185 0.284785
O O8 0.360680 0.000000 0.354913
O O9 0.761717 0.756297 0.208486
O O10 0.775979 0.865255 0.299923
O O11 0.655627 0.742100 0.421425
O O12 0.933035 0.743496 0.208918
O O13 0.837914 0.262010 0.864432
O O14 0.991044 0.203819 0.649756
O O15 0.174256 0.500000 0.371560
O O16 0.000000 0.384135 0.500000
O O17 0.250000 0.750000 0.500000
#
# Coordination Sequence:
#
# PCOD8080487 Si02
#       7
#     8   8   8   8   8   8   8
#     4  11  25  45  64  89 120 158 211 264 310 356
#     4  10  19  32  54  83 119 158 192 242 302 355
#     4  11  20  35  59  87 122 160 198 249 300 365
#     4  12  22  38  66  89 118 164 204 246 311 367
#     4  10  18  28  46  80 121 155 189 232 292 362
#     4  11  19  35  55  89 125 156 196 247 297 368
#     4  11  21  40  62  87 116 156 208 254 302 360
#
# _framework density 19.158325999999999
#
# number of rings (size 3 to 8) (size 9 to 14) (size 15 to 20)
#    0.000    1.143    5.714    3.000    0.000    0.571 
#    0.000    1.429    0.000    2.571    0.000    2.000 
#    0.000    0.000    0.000    0.000    0.000    0.000 
#
# Total GULP energy -347121.316571 kJ/mol
# GULP energy per Si atom -12397.189878 kJ/mol
# Density = 1.911472 g / cm^3
# Si number density = 19.158326 Si / 1000 Ang^3
#
#
#
# Elastic Constant Matrix: (Units=GPa)
#
#
# Indices 1 2 3 4 5 6 
#
# 1 98.5071 55.4396 26.7375 0.0003 7.9481 -0.0001
# 2 55.4396 148.4074 36.0251 0.0004 -3.8192 -0.0001
# 3 26.7375 36.0251 62.5342 0.0012 4.6951 -0.0003
# 4 0.0003 0.0004 0.0012 37.2252 -0.0004 1.2793
# 5 7.9481 -3.8192 4.6951 -0.0004 21.1738 0.0000
# 6 -0.0001 -0.0001 -0.0003 1.2793 0.0000 28.4843
#
#
#
# Elastic Compliance Matrix: (Units=1/GPa)
#
#
# Indices 1 2 3 4 5 6 
#
# 1 0.014005 -0.004671 -0.002887 0.000000 -0.005459 0.000000
# 2 -0.004671 0.009519 -0.003811 0.000000 0.004315 0.000000
# 3 -0.002887 -0.003811 0.019719 -0.000001 -0.003976 0.000000
# 4 0.000000 0.000000 -0.000001 0.026905 0.000001 -0.001208
# 5 -0.005459 0.004315 -0.003976 0.000001 0.050937 0.000000
# 6 0.000000 0.000000 0.000000 -0.001208 0.000000 0.035161
#
#
# Mechanical properties :
#
#
# Convention : Reuss Voigt Hill
#
# Bulk Modulus (GPa) = 48.76734 60.65036 54.70885
# Shear Modulus (GPa) = 26.90772 30.12643 28.51708
#
# Velocity S-wave (km/s) = 3.75172 3.96978 3.86229
# Velocity P-wave (km/s) = 6.65413 7.26212 6.96476
#
# Compressibility (1/GPa) = 0.02050553
#
# Stress axis : x y z
#
# Youngs Moduli (GPa) = 71.40485 105.04946 50.71150
#
# Poissons Ratio (x) = 0.49072 0.14640
# Poissons Ratio (y) = 0.33356 0.19324
# Poissons Ratio (z) = 0.20614 0.40031
#
# Static dielectric constant tensor:
#      x y z
#    x 3.450570 0.000000 0.105510 
#    y 0.000000 4.054860 0.000000 
#    z 0.105510 0.000000 3.402800 
# 
# 
# High freq. dielectric constant tensor:
#      x y z
#    x 1.747950 0.000000 0.012400 
#    y 0.000000 1.754160 0.000000 
#    z 0.012400 0.000000 1.724730 
# 
# From -- ./inp_files/271390.got.cif
#   From: 2010.06.25/outbox.cif.g09.slc.cpg/sg12_136_cif.got.tgz:271390.got - 2010.06.28 00:19:55.
