data_PCOD8080938
_publ_section_title
;
Structure prediction by ZEFSAII (Michael W. Deem and Ramdas Pophale) SiO2 
 PCOD8080938
Probable space group: C 2/M
;
_chemical_formula_sum "Si O2"
_cell_formula_units_Z 56
_cell_length_a 29.575403
_cell_length_b 8.950686
_cell_length_c 20.667623
_cell_angle_alpha 90.000000
_cell_angle_beta 32.635506
_cell_angle_gamma 90.000000
_cell_volume 2950.544051
_symmetry_space_group_name_H-M "C 2/M"
_symmetry_group_IT_number 12
_symmetry_cell_setting 'monoclinic'
loop_
_space_group_symop_operation_xyz
x,y,z
-x,y,-z
-x,-y,-z
x,-y,z
1/2+x,1/2+y,z
1/2-x,1/2+y,-z
1/2-x,1/2-y,-z
1/2+x,1/2-y,z
loop_
_atom_site_type_symbol
_atom_site_label
_atom_site_fract_x
_atom_site_fract_y
_atom_site_fract_z
Si Si1 0.871093 0.822726 0.432492
Si Si2 0.290789 0.823442 0.296514
Si Si3 0.464779 0.825571 0.720425
Si Si4 0.915157 0.325714 0.637490
Si Si5 0.100265 0.324418 0.065449
Si Si6 0.580353 0.177020 0.755218
Si Si7 0.754295 0.322106 0.198661
O O1 0.789021 0.762486 0.568057
O O2 0.950425 0.768413 0.378355
O O3 0.868959 0.752668 0.363969
O O4 0.873516 0.000000 0.423868
O O5 0.376648 0.773735 0.229056
O O6 0.289424 0.762122 0.225011
O O7 0.285329 0.000000 0.301008
O O8 0.418445 0.787600 0.709648
O O9 0.403833 0.780023 0.853713
O O10 0.488684 0.000000 0.696191
O O11 0.900626 0.500000 0.642787
O O12 0.838737 0.237043 0.699090
O O13 0.000000 0.272206 0.500000
O O14 0.105791 0.500000 0.050350
O O15 0.016176 0.267796 0.130056
O O16 0.182915 0.255733 0.931972
O O17 0.585741 0.000000 0.738144
O O18 0.750304 0.500000 0.201658
#
# Coordination Sequence:
#
# PCOD8080938 Si02
#       7
#     8   8   8   8   8   8   8
#     4  10  18  29  47  75 103 124 158 204 246 285
#     4   9  18  30  47  72 100 130 163 201 241 284
#     4   9  18  34  53  71  96 130 164 198 239 290
#     4  10  21  36  53  74  99 128 162 197 239 294
#     4   8  16  31  51  73  95 124 164 203 236 280
#     4   9  17  32  51  70  97 133 166 195 236 287
#     4  10  20  34  51  73 100 127 161 204 244 282
#
# _framework density 18.97955
#
# number of rings (size 3 to 8) (size 9 to 14) (size 15 to 20)
#    0.000    2.714    0.000    2.571    0.000    2.000 
#    0.000    7.857    0.000    0.000    0.000    5.000 
#    0.000    0.000    0.000    0.000    0.000    0.000 
#
# Total GULP energy -347111.813063 kJ/mol
# GULP energy per Si atom -12396.850467 kJ/mol
# Density = 1.893635 g / cm^3
# Si number density = 18.979550 Si / 1000 Ang^3
#
#
#
# Elastic Constant Matrix: (Units=GPa)
#
#
# Indices 1 2 3 4 5 6 
#
# 1 143.4003 23.4861 64.5556 -0.0046 10.0129 0.0029
# 2 23.4861 29.1902 19.5048 -0.0322 1.4168 0.0064
# 3 64.5556 19.5048 140.5831 -0.0158 6.7844 0.0049
# 4 -0.0046 -0.0322 -0.0158 20.1326 0.0066 -2.3832
# 5 10.0129 1.4168 6.7844 0.0066 21.6539 -0.0030
# 6 0.0029 0.0064 0.0049 -2.3832 -0.0030 21.8974
#
#
#
# Elastic Compliance Matrix: (Units=1/GPa)
#
#
# Indices 1 2 3 4 5 6 
#
# 1 0.009641 -0.005236 -0.003556 -0.000008 -0.003002 0.000000
# 2 -0.005236 0.040617 -0.003269 0.000061 0.000788 -0.000004
# 3 -0.003556 -0.003269 0.009250 0.000001 -0.001040 -0.000001
# 4 -0.000008 0.000061 0.000001 0.050319 -0.000015 0.005476
# 5 -0.003002 0.000788 -0.001040 -0.000015 0.047843 0.000005
# 6 0.000000 -0.000004 -0.000001 0.005476 0.000005 0.046264
#
#
# Mechanical properties :
#
#
# Convention : Reuss Voigt Hill
#
# Bulk Modulus (GPa) = 28.25924 58.69629 43.47776
# Shear Modulus (GPa) = 20.84628 26.44525 23.64577
#
# Velocity S-wave (km/s) = 3.31774 3.73682 3.53350
# Velocity P-wave (km/s) = 5.44042 7.04355 6.29324
#
# Compressibility (1/GPa) = 0.03538666
#
# Stress axis : x y z
#
# Youngs Moduli (GPa) = 103.71923 24.62035 108.10896
#
# Poissons Ratio (x) = 0.12890 0.38444
# Poissons Ratio (y) = 0.54303 0.35342
# Poissons Ratio (z) = 0.36883 0.08049
#
# Static dielectric constant tensor:
#      x y z
#    x 3.687150 -0.000010 0.150990 
#    y -0.000010 3.107910 0.000020 
#    z 0.150990 0.000020 3.743110 
# 
# 
# High freq. dielectric constant tensor:
#      x y z
#    x 1.747140 0.000000 0.004020 
#    y 0.000000 1.699420 0.000000 
#    z 0.004020 0.000000 1.739930 
# 
# From -- ./inp_files/320277.got.cif
#   From: 2010.06.25/outbox.cif.g09.slc.cpg/sg12_161_cif.got.tgz:320277.got - 2010.06.28 00:19:55.
