data_PCOD8080746
_publ_section_title
;
Structure prediction by ZEFSAII (Michael W. Deem and Ramdas Pophale) SiO2 
 PCOD8080746
Probable space group: C 2/M
;
_chemical_formula_sum "Si O2"
_cell_formula_units_Z 64
_cell_length_a 26.777759
_cell_length_b 12.200942
_cell_length_c 15.186418
_cell_angle_alpha 90.000000
_cell_angle_beta 134.026338
_cell_angle_gamma 90.000000
_cell_volume 3567.501409
_symmetry_space_group_name_H-M "C 2/M"
_symmetry_group_IT_number 12
_symmetry_cell_setting 'monoclinic'
loop_
_space_group_symop_operation_xyz
x,y,z
-x,y,-z
-x,-y,-z
x,-y,z
1/2+x,1/2+y,z
1/2-x,1/2+y,-z
1/2-x,1/2-y,-z
1/2+x,1/2-y,z
loop_
_atom_site_type_symbol
_atom_site_label
_atom_site_fract_x
_atom_site_fract_y
_atom_site_fract_z
Si Si1 0.534305 0.243607 0.833591
Si Si2 0.759794 0.767259 0.143641
Si Si3 0.783824 0.127185 0.359231
Si Si4 0.140767 0.123973 0.070728
Si Si5 0.659182 0.869737 0.887478
Si Si6 0.333859 0.720963 0.720794
Si Si7 0.097567 0.874817 0.366102
Si Si8 0.948818 0.385012 0.858914
O O1 0.588042 0.184515 0.834731
O O2 0.478090 0.320182 0.714631
O O3 0.489148 0.149078 0.821265
O O4 0.571038 0.312563 0.956521
O O5 0.784985 0.833826 0.259726
O O6 0.704591 0.673725 0.096446
O O7 0.823997 0.701177 0.179394
O O8 0.723527 0.854858 0.033866
O O9 0.737604 0.210239 0.362023
O O10 0.862006 0.136143 0.492036
O O11 0.757995 0.000000 0.333708
O O12 0.159582 0.126163 0.197755
O O13 0.130779 0.000000 0.028424
O O14 0.649295 0.000000 0.856704
O O15 0.351596 0.677367 0.645825
O O16 0.392280 0.803125 0.825209
O O17 0.085293 0.000000 0.324249
O O18 0.911921 0.500000 0.789953
O O19 0.000000 0.404403 0.000000
#
# Coordination Sequence:
#
# PCOD8080746 Si02
#       8
#     8   8   8   8   8   8   8   8
#     4  10  20  33  49  76 104 139 174 212 255 305
#     4   9  20  34  54  82 105 129 166 212 263 315
#     4  10  20  36  55  76 103 138 175 214 256 302
#     4  10  18  30  49  74 105 135 167 208 257 306
#     4  10  19  35  58  81 105 131 164 214 271 317
#     4  10  19  32  50  77 103 136 176 214 254 301
#     4  10  21  35  52  73 105 144 179 213 251 300
#     4  10  18  29  45  71 104 134 166 206 254 306
#
# _framework density 17.939727000000001
#
# number of rings (size 3 to 8) (size 9 to 14) (size 15 to 20)
#    0.000    2.125    1.250    2.625    0.000    0.000 
#    0.000    4.375    0.000   17.250    0.000    0.000 
#    0.000    0.000    0.000    0.000    0.000    0.000 
#
# Total GULP energy -396548.298116 kJ/mol
# GULP energy per Si atom -12392.134316 kJ/mol
# Density = 1.789890 g / cm^3
# Si number density = 17.939727 Si / 1000 Ang^3
#
#
#
# Elastic Constant Matrix: (Units=GPa)
#
#
# Indices 1 2 3 4 5 6 
#
# 1 65.3487 26.3611 28.5517 0.0000 6.7594 0.0000
# 2 26.3611 112.0729 34.3384 0.0000 4.0545 0.0000
# 3 28.5517 34.3384 77.4049 0.0000 2.9079 0.0000
# 4 0.0000 0.0000 0.0000 26.8896 0.0000 7.3290
# 5 6.7594 4.0545 2.9079 0.0000 21.3068 0.0000
# 6 0.0000 0.0000 0.0000 7.3290 0.0000 -40.1191
#
#
#
# Elastic Compliance Matrix: (Units=1/GPa)
#
#
# Indices 1 2 3 4 5 6 
#
# 1 0.019398 -0.002604 -0.005817 0.000000 -0.004864 0.000000
# 2 -0.002604 0.010715 -0.003766 0.000000 -0.000699 0.000000
# 3 -0.005817 -0.003766 0.016725 0.000000 0.000279 0.000000
# 4 0.000000 0.000000 0.000000 0.035425 0.000000 0.006472
# 5 -0.004864 -0.000699 0.000279 0.000000 0.048571 0.000000
# 6 0.000000 0.000000 0.000000 0.006472 0.000000 -0.023744
#
#
# Mechanical properties :
#
#
# Convention : Reuss Voigt Hill
#
# Bulk Modulus (GPa) = 44.51954 48.14768 46.33361
# Shear Modulus (GPa) = 35.98337 12.65381 24.31859
#
# Velocity S-wave (km/s) = 4.48347 2.65873 3.68580
# Velocity P-wave (km/s) = 7.18832 6.02677 6.63302
#
# Compressibility (1/GPa) = 0.02246205
#
# Stress axis : x y z
#
# Youngs Moduli (GPa) = 51.55235 93.33058 59.79049
#
# Poissons Ratio (x) = 0.24307 0.34780
# Poissons Ratio (y) = 0.13426 0.22519
# Poissons Ratio (z) = 0.29988 0.35151
#
# Static dielectric constant tensor:
#      x y z
#    x 3.231190 0.000000 0.044250 
#    y 0.000000 3.514890 0.000000 
#    z 0.044250 0.000000 3.064240 
# 
# 
# High freq. dielectric constant tensor:
#      x y z
#    x 1.687050 0.000000 0.003900 
#    y 0.000000 1.707710 0.000000 
#    z 0.003900 0.000000 1.677200 
# 
# From -- ./inp_files/245961.got.cif
#   From: 2010.06.25/outbox.cif.g09.slc.cpg/sg12_123_cif.got.tgz:245961.got - 2010.06.28 00:19:55.
