data_PCOD8080468
_publ_section_title
;
Structure prediction by ZEFSAII (Michael W. Deem and Ramdas Pophale) SiO2 
 PCOD8080468
Probable space group: C 2/M
;
_chemical_formula_sum "Si O2"
_cell_formula_units_Z 48
_cell_length_a 17.018571
_cell_length_b 13.944810
_cell_length_c 24.930295
_cell_angle_alpha 90.000000
_cell_angle_beta 151.651358
_cell_angle_gamma 90.000000
_cell_volume 2809.353039
_symmetry_space_group_name_H-M "C 2/M"
_symmetry_group_IT_number 12
_symmetry_cell_setting 'monoclinic'
loop_
_space_group_symop_operation_xyz
x,y,z
-x,y,-z
-x,-y,-z
x,-y,z
1/2+x,1/2+y,z
1/2-x,1/2+y,-z
1/2-x,1/2-y,-z
1/2+x,1/2-y,z
loop_
_atom_site_type_symbol
_atom_site_label
_atom_site_fract_x
_atom_site_fract_y
_atom_site_fract_z
Si Si1 0.535494 0.113090 0.105930
Si Si2 0.755894 0.194418 0.322748
Si Si3 0.112585 0.888305 0.376232
Si Si4 0.098808 0.885679 0.487108
Si Si5 0.693994 0.105616 0.610383
Si Si6 0.245246 0.886106 0.861434
O O1 0.587827 0.157874 0.194320
O O2 0.667015 0.148063 0.140486
O O3 0.539409 0.000000 0.114962
O O4 0.352524 0.149148 0.977552
O O5 0.767567 0.157307 0.391100
O O6 0.740566 0.310358 0.311947
O O7 0.917282 0.157235 0.388514
O O8 0.155571 0.850873 0.461894
O O9 0.261664 0.867935 0.424763
O O10 0.940978 0.843464 0.249480
O O11 0.078070 0.000000 0.362356
O O12 0.090450 0.000000 0.488802
O O13 0.500000 0.101728 0.500000
O O14 0.769279 0.000000 0.670526
O O15 0.246861 0.000000 0.863744
#
# Coordination Sequence:
#
# PCOD8080468 Si02
#       6
#     8   8   8   8   8   8
#     4   9  15  25  45  72 105 125 142 178 229 295
#     4  11  18  29  44  73  98 126 151 183 240 283
#     4   9  17  31  49  67  94 126 159 193 228 271
#     4  10  18  28  46  73 102 124 143 179 241 301
#     4  10  21  36  48  62  88 127 172 207 226 254
#     4   8  14  25  44  72  97 125 151 179 227 278
#
# _framework density 17.085784
#
# number of rings (size 3 to 8) (size 9 to 14) (size 15 to 20)
#    0.000    2.500    3.333    3.000    0.000    0.667 
#    0.000    0.833    0.000    0.000    0.000    2.333 
#    0.000    0.000    0.000    2.333    0.000    0.000 
#
# Total GULP energy -297346.108221 kJ/mol
# GULP energy per Si atom -12389.421176 kJ/mol
# Density = 1.704690 g / cm^3
# Si number density = 17.085784 Si / 1000 Ang^3
#
#
#
# Elastic Constant Matrix: (Units=GPa)
#
#
# Indices 1 2 3 4 5 6 
#
# 1 84.4380 20.8179 52.0732 0.0006 3.0047 0.0001
# 2 20.8179 75.3120 22.7322 0.0015 -11.2963 0.0007
# 3 52.0732 22.7322 127.0879 0.0040 -23.3112 0.0015
# 4 0.0006 0.0015 0.0040 9.6270 0.0019 -4.6519
# 5 3.0047 -11.2963 -23.3112 0.0019 17.0452 0.0008
# 6 0.0001 0.0007 0.0015 -4.6519 0.0008 6.5100
#
#
#
# Elastic Compliance Matrix: (Units=1/GPa)
#
#
# Indices 1 2 3 4 5 6 
#
# 1 0.021901 -0.006027 -0.012463 0.000020 -0.024899 0.000020
# 2 -0.006027 0.016524 0.002292 -0.000013 0.015148 -0.000013
# 3 -0.012463 0.002292 0.017682 -0.000025 0.027899 -0.000026
# 4 0.000020 -0.000013 -0.000025 0.158658 -0.000070 0.113374
# 5 -0.024899 0.015148 0.027899 -0.000070 0.111250 -0.000072
# 6 0.000020 -0.000013 -0.000026 0.113374 -0.000072 0.234625
#
#
# Mechanical properties :
#
#
# Convention : Reuss Voigt Hill
#
# Bulk Modulus (GPa) = 42.17086 53.12050 47.64568
# Shear Modulus (GPa) = 8.32032 19.38409 13.85220
#
# Velocity S-wave (km/s) = 2.20914 3.37191 2.85045
# Velocity P-wave (km/s) = 5.58950 6.80571 6.22737
#
# Compressibility (1/GPa) = 0.02371306
#
# Stress axis : x y z
#
# Youngs Moduli (GPa) = 45.66067 60.51715 56.55349
#
# Poissons Ratio (x) = 0.36472 0.70481
# Poissons Ratio (y) = 0.27518 -0.12964
# Poissons Ratio (z) = 0.56906 -0.13872
#
# Static dielectric constant tensor:
#      x y z
#    x 3.151210 0.000000 -0.118410 
#    y 0.000000 3.195680 0.000000 
#    z -0.118410 0.000000 3.369710 
# 
# 
# High freq. dielectric constant tensor:
#      x y z
#    x 1.644140 0.000000 -0.008300 
#    y 0.000000 1.632920 0.000000 
#    z -0.008300 0.000000 1.647850 
# 
# From -- ./inp_files/343596.got.cif
#   From: 2010.06.25/outbox.cif.g09.slc.cpg/sg12_172_cif.got.tgz:343596.got - 2010.06.28 00:19:55.
