data_PCOD8080968
_publ_section_title
;
Structure prediction by ZEFSAII (Michael W. Deem and Ramdas Pophale) SiO2 
 PCOD8080968
Probable space group: C 2/M
;
_chemical_formula_sum "Si O2"
_cell_formula_units_Z 48
_cell_length_a 18.256709
_cell_length_b 8.929486
_cell_length_c 31.315419
_cell_angle_alpha 90.000000
_cell_angle_beta 31.959120
_cell_angle_gamma 90.000000
_cell_volume 2702.219396
_symmetry_space_group_name_H-M "C 2/M"
_symmetry_group_IT_number 12
_symmetry_cell_setting 'monoclinic'
loop_
_space_group_symop_operation_xyz
x,y,z
-x,y,-z
-x,-y,-z
x,-y,z
1/2+x,1/2+y,z
1/2-x,1/2+y,-z
1/2-x,1/2-y,-z
1/2+x,1/2-y,z
loop_
_atom_site_type_symbol
_atom_site_label
_atom_site_fract_x
_atom_site_fract_y
_atom_site_fract_z
Si Si1 0.085191 0.823615 0.246194
Si Si2 0.591543 0.169547 0.735880
Si Si3 0.090247 0.675005 0.329301
Si Si4 0.915730 0.825552 0.582188
Si Si5 0.103128 0.327249 0.914878
Si Si6 0.125321 0.670463 0.811360
O O1 0.988682 0.783887 0.254237
O O2 0.023978 0.748688 0.319537
O O3 0.240903 0.761558 0.160123
O O4 0.086242 0.000000 0.252577
O O5 0.753989 0.207187 0.654652
O O6 0.535630 0.191713 0.812538
O O7 0.564047 0.000000 0.733893
O O8 0.061373 0.500000 0.342335
O O9 0.025702 0.742258 0.404715
O O10 0.252722 0.709760 0.249171
O O11 0.000000 0.763101 0.500000
O O12 0.944266 0.000000 0.574740
O O13 0.113629 0.500000 0.922427
O O14 0.040829 0.306320 0.897452
O O15 0.000000 0.246971 0.000000
O O16 0.188165 0.500000 0.779877
#
# Coordination Sequence:
#
# PCOD8080968 Si02
#       6
#     8   8   8   8   8   8
#     4  10  19  31  48  69  94 125 160 195 234 280
#     4   9  17  30  48  70  95 122 154 192 233 276
#     4  10  18  29  48  71  95 123 157 194 231 276
#     4   9  18  34  54  73  95 124 156 190 231 279
#     4   8  14  27  48  70  90 119 161 200 232 273
#     4   8  15  29  48  68  92 125 160 191 230 281
#
# _framework density 17.763176000000001
#
# number of rings (size 3 to 8) (size 9 to 14) (size 15 to 20)
#    0.000    3.000    0.000    4.000    0.000    3.000 
#    0.000    1.667    0.000   12.500    0.000    0.000 
#    0.000    0.000    0.000    0.000    0.000    0.000 
#
# Total GULP energy -297369.574669 kJ/mol
# GULP energy per Si atom -12390.398945 kJ/mol
# Density = 1.772275 g / cm^3
# Si number density = 17.763176 Si / 1000 Ang^3
#
#
#
# Elastic Constant Matrix: (Units=GPa)
#
#
# Indices 1 2 3 4 5 6 
#
# 1 131.4638 42.5597 51.4452 -0.0024 30.9362 0.0461
# 2 42.5597 65.7002 24.4606 0.0000 11.2345 0.0236
# 3 51.4452 24.4606 91.4092 -0.0016 36.1424 0.0005
# 4 -0.0024 0.0000 -0.0016 10.9552 -0.0004 2.4954
# 5 30.9362 11.2345 36.1424 -0.0004 31.6492 0.0014
# 6 0.0461 0.0236 0.0005 2.4954 0.0014 31.6967
#
#
#
# Elastic Compliance Matrix: (Units=1/GPa)
#
#
# Indices 1 2 3 4 5 6 
#
# 1 0.012061 -0.005690 -0.002557 0.000005 -0.006849 -0.000013
# 2 -0.005690 0.019629 -0.002725 0.000000 0.001705 -0.000006
# 3 -0.002557 -0.002725 0.021400 0.000000 -0.020971 0.000006
# 4 0.000005 0.000000 0.000000 0.092948 -0.000004 -0.007317
# 5 -0.006849 0.001705 -0.020971 -0.000004 0.061635 0.000006
# 6 -0.000013 -0.000006 0.000006 -0.007317 0.000006 0.032125
#
#
# Mechanical properties :
#
#
# Convention : Reuss Voigt Hill
#
# Bulk Modulus (GPa) = 32.10597 58.38935 45.24766
# Shear Modulus (GPa) = 18.37399 26.20074 22.28736
#
# Velocity S-wave (km/s) = 3.21968 3.84474 3.54601
# Velocity P-wave (km/s) = 5.65115 7.25615 6.50335
#
# Compressibility (1/GPa) = 0.03114685
#
# Stress axis : x y z
#
# Youngs Moduli (GPa) = 82.91047 50.94442 46.72883
#
# Poissons Ratio (x) = 0.28986 0.11950
# Poissons Ratio (y) = 0.47174 0.12733
# Poissons Ratio (z) = 0.21203 0.13881
#
# Static dielectric constant tensor:
#      x y z
#    x 3.407710 -0.000020 0.458610 
#    y -0.000020 3.023030 0.000000 
#    z 0.458610 0.000000 3.364870 
# 
# 
# High freq. dielectric constant tensor:
#      x y z
#    x 1.687930 0.000000 0.038150 
#    y 0.000000 1.667070 0.000000 
#    z 0.038150 0.000000 1.658920 
# 
# From -- ./inp_files/273589.got.cif
#   From: 2010.06.25/outbox.cif.g09.slc.cpg/sg12_137_cif.got.tgz:273589.got - 2010.06.28 00:19:55.
