data_PCOD8080116
_publ_section_title
;
Structure prediction by ZEFSAII (Michael W. Deem and Ramdas Pophale) SiO2 
 PCOD8080116
Probable space group: C 2/M
;
_chemical_formula_sum "Si O2"
_cell_formula_units_Z 56
_cell_length_a 12.732113
_cell_length_b 21.258743
_cell_length_c 12.227400
_cell_angle_alpha 90.000000
_cell_angle_beta 95.929840
_cell_angle_gamma 90.000000
_cell_volume 3291.865637
_symmetry_space_group_name_H-M "C 2/M"
_symmetry_group_IT_number 12
_symmetry_cell_setting 'monoclinic'
loop_
_space_group_symop_operation_xyz
x,y,z
-x,y,-z
-x,-y,-z
x,-y,z
1/2+x,1/2+y,z
1/2-x,1/2+y,-z
1/2-x,1/2-y,-z
1/2+x,1/2-y,z
loop_
_atom_site_type_symbol
_atom_site_label
_atom_site_fract_x
_atom_site_fract_y
_atom_site_fract_z
Si Si1 0.875191 0.646528 0.777602
Si Si2 0.374531 0.071395 0.988941
Si Si3 0.256206 0.070067 0.591469
Si Si4 0.244413 0.234060 0.322120
Si Si5 0.910152 0.568767 0.420843
Si Si6 0.624572 0.682979 0.508420
Si Si7 0.618733 0.857045 0.795766
O O1 0.849245 0.596238 0.679821
O O2 0.817196 0.711258 0.746511
O O3 0.998252 0.664712 0.801489
O O4 0.833169 0.613786 0.883965
O O5 0.335511 0.106605 0.094122
O O6 0.328144 0.000000 0.978630
O O7 0.500000 0.067028 0.000000
O O8 0.302235 0.065873 0.475472
O O9 0.158111 0.117756 0.571259
O O10 0.219847 0.000000 0.626407
O O11 0.332361 0.259026 0.415667
O O12 0.166053 0.190364 0.387249
O O13 0.302509 0.198884 0.228554
O O14 0.958090 0.500000 0.401780
O O15 0.880373 0.595897 0.303255
O O16 0.000000 0.606887 0.500000
O O17 0.500000 0.686349 0.500000
#
# Coordination Sequence:
#
# PCOD8080116 Si02
#       7
#     8   8   8   8   8   8   8
#     4  10  20  33  50  72 101 135 168 203 248 294
#     4   9  19  33  51  75 101 128 160 204 253 296
#     4  10  19  31  49  73  99 130 168 203 247 303
#     4  10  21  33  49  73  98 136 171 203 242 302
#     4  10  18  27  46  75 102 127 157 200 250 301
#     4  10  20  34  49  71 103 134 167 206 251 294
#     4  11  19  32  51  73 102 132 165 204 250 293
#
# _framework density 17.011631000000001
#
# number of rings (size 3 to 8) (size 9 to 14) (size 15 to 20)
#    0.000    2.000    2.857    1.714    0.000    2.571 
#    0.000    0.000    0.000    0.000    0.000    0.000 
#    0.000   11.429    0.000    0.000    0.000    0.000 
#
# Total GULP energy -347020.061680 kJ/mol
# GULP energy per Si atom -12393.573631 kJ/mol
# Density = 1.697291 g / cm^3
# Si number density = 17.011631 Si / 1000 Ang^3
#
#
#
# Elastic Constant Matrix: (Units=GPa)
#
#
# Indices 1 2 3 4 5 6 
#
# 1 75.2854 35.9049 21.4778 0.0000 -3.1906 0.0000
# 2 35.9049 103.8840 48.5708 0.0000 -6.0559 0.0000
# 3 21.4778 48.5708 110.2629 0.0000 -7.1153 0.0000
# 4 0.0000 0.0000 0.0000 41.8446 0.0000 -0.9414
# 5 -3.1906 -6.0559 -7.1153 0.0000 18.7507 0.0000
# 6 0.0000 0.0000 0.0000 -0.9414 0.0000 20.9035
#
#
#
# Elastic Compliance Matrix: (Units=1/GPa)
#
#
# Indices 1 2 3 4 5 6 
#
# 1 0.015979 -0.005095 -0.000819 0.000000 0.000763 0.000000
# 2 -0.005095 0.013817 -0.004984 0.000000 0.001704 0.000000
# 3 -0.000819 -0.004984 0.011595 0.000000 0.002651 0.000000
# 4 0.000000 0.000000 0.000000 0.023922 0.000000 0.001077
# 5 0.000763 0.001704 0.002651 0.000000 0.055017 0.000000
# 6 0.000000 0.000000 0.000000 0.001077 0.000000 0.047887
#
#
# Mechanical properties :
#
#
# Convention : Reuss Voigt Hill
#
# Bulk Modulus (GPa) = 51.03390 55.70435 53.36913
# Shear Modulus (GPa) = 25.43944 28.53167 26.98556
#
# Velocity S-wave (km/s) = 3.87125 4.09979 3.98716
# Velocity P-wave (km/s) = 7.07437 7.43149 7.25512
#
# Compressibility (1/GPa) = 0.01959482
#
# Stress axis : x y z
#
# Youngs Moduli (GPa) = 62.58306 72.37604 86.24299
#
# Poissons Ratio (x) = 0.36879 0.07061
# Poissons Ratio (y) = 0.31889 0.42982
# Poissons Ratio (z) = 0.05124 0.36071
#
# Static dielectric constant tensor:
#      x y z
#    x -3.433110 0.000000 0.994890 
#    y 0.000000 3.403810 0.000000 
#    z 0.994890 0.000000 3.077610 
# 
# 
# High freq. dielectric constant tensor:
#      x y z
#    x 1.623160 0.000000 -0.002000 
#    y 0.000000 1.660690 0.000000 
#    z -0.002000 0.000000 1.656160 
# 
# From -- ./inp_files/133222.got.cif
#   From: 2010.06.25/outbox.cif.g09.slc.cpg/sg12_67_cif.got.tgz:133222.got - 2010.06.28 00:19:55.
