data_PCOD8080359
_publ_section_title
;
Structure prediction by ZEFSAII (Michael W. Deem and Ramdas Pophale) SiO2 
 PCOD8080359
Probable space group: C 2/M
;
_chemical_formula_sum "Si O2"
_cell_formula_units_Z 64
_cell_length_a 27.230424
_cell_length_b 9.347444
_cell_length_c 16.676974
_cell_angle_alpha 90.000000
_cell_angle_beta 101.313770
_cell_angle_gamma 90.000000
_cell_volume 4162.383000
_symmetry_space_group_name_H-M "C 2/M"
_symmetry_group_IT_number 12
_symmetry_cell_setting 'monoclinic'
loop_
_space_group_symop_operation_xyz
x,y,z
-x,y,-z
-x,-y,-z
x,-y,z
1/2+x,1/2+y,z
1/2-x,1/2+y,-z
1/2-x,1/2-y,-z
1/2+x,1/2-y,z
loop_
_atom_site_type_symbol
_atom_site_label
_atom_site_fract_x
_atom_site_fract_y
_atom_site_fract_z
Si Si1 0.625763 0.834525 0.165157
Si Si2 0.800990 0.835495 0.508920
Si Si3 0.862381 0.162088 0.070240
Si Si4 0.786221 0.837232 0.328271
Si Si5 0.674828 0.164083 0.342538
Si Si6 0.295313 0.660981 0.903095
Si Si7 0.685034 0.165082 0.813689
Si Si8 0.943578 0.167984 0.966537
O O1 0.631229 0.815033 0.262744
O O2 0.676369 0.775306 0.142176
O O3 0.577147 0.749834 0.118345
O O4 0.620442 0.000000 0.139881
O O5 0.750000 0.750000 0.500000
O O6 0.818004 0.824189 0.421479
O O7 0.839203 0.761459 0.584404
O O8 0.793130 0.000000 0.531135
O O9 0.858363 0.262575 0.146743
O O10 0.868890 0.000000 0.102559
O O11 0.812390 0.178337 0.000512
O O12 0.910492 0.209334 0.033319
O O13 0.728624 0.788926 0.323142
O O14 0.812870 0.735685 0.272930
O O15 0.787335 0.000000 0.296677
O O16 0.678559 0.000000 0.372083
O O17 0.308910 0.500000 0.877784
O O18 0.236624 0.689344 0.877711
O O19 0.671560 0.000000 0.798026
O O20 0.940078 0.000000 0.947379
O O21 0.000000 0.218430 0.000000
#
# Coordination Sequence:
#
# PCOD8080359 Si02
#       8
#     8   8   8   8   8   8   8   8
#     4  10  18  28  45  68  90 114 146 183 221 259
#     4   9  17  27  40  57  80 113 151 186 218 253
#     4   9  18  31  45  60  82 112 142 177 220 260
#     4   9  17  29  40  55  83 119 152 180 216 253
#     4   9  17  28  41  60  86 115 148 183 217 254
#     4   9  18  30  41  58  84 116 151 180 213 253
#     4  11  20  27  40  62  86 114 150 185 212 250
#     4   9  19  36  53  67  86 112 143 180 223 269
#
# _framework density 15.375807999999999
#
# number of rings (size 3 to 8) (size 9 to 14) (size 15 to 20)
#    0.000    2.625    1.250    3.000    0.000    6.250 
#    0.000    0.000    0.000    0.000    0.000    0.000 
#    0.000    1.000    0.000   11.250    0.000    5.625 
#
# Total GULP energy -396678.169805 kJ/mol
# GULP energy per Si atom -12396.192806 kJ/mol
# Density = 1.534081 g / cm^3
# Si number density = 15.375808 Si / 1000 Ang^3
#
#
#
# Elastic Constant Matrix: (Units=GPa)
#
#
# Indices 1 2 3 4 5 6 
#
# 1 50.8981 31.8631 38.1567 0.0000 2.3288 0.0000
# 2 31.8631 92.8526 62.9204 0.0000 -1.0961 0.0000
# 3 38.1567 62.9204 100.5053 0.0000 -2.3849 0.0000
# 4 0.0000 0.0000 0.0000 32.0077 0.0000 -1.0155
# 5 2.3288 -1.0961 -2.3849 0.0000 13.4982 0.0000
# 6 0.0000 0.0000 0.0000 -1.0155 0.0000 15.5680
#
#
#
# Elastic Compliance Matrix: (Units=1/GPa)
#
#
# Indices 1 2 3 4 5 6 
#
# 1 0.029009 -0.004277 -0.008498 0.000000 -0.006854 0.000000
# 2 -0.004277 0.019340 -0.010473 0.000000 0.000458 0.000000
# 3 -0.008498 -0.010473 0.019830 0.000000 0.004119 0.000000
# 4 0.000000 0.000000 0.000000 0.031307 0.000000 0.002042
# 5 -0.006854 0.000458 0.004119 0.000000 0.076032 0.000000
# 6 0.000000 0.000000 0.000000 0.002042 0.000000 0.064367
#
#
# Mechanical properties :
#
#
# Convention : Reuss Voigt Hill
#
# Bulk Modulus (GPa) = 46.11934 56.68184 51.40059
# Shear Modulus (GPa) = 17.02945 19.63582 18.33264
#
# Velocity S-wave (km/s) = 3.33160 3.57747 3.45672
# Velocity P-wave (km/s) = 6.69770 7.34906 7.03093
#
# Compressibility (1/GPa) = 0.02168288
#
# Stress axis : x y z
#
# Youngs Moduli (GPa) = 34.47200 51.70750 50.42775
#
# Poissons Ratio (x) = 0.22114 0.42856
# Poissons Ratio (y) = 0.14743 0.52812
# Poissons Ratio (z) = 0.29296 0.54152
#
# Static dielectric constant tensor:
#      x y z
#    x 2.536300 0.000000 0.085580 
#    y 0.000000 3.067650 0.000000 
#    z 0.085580 0.000000 3.175870 
# 
# 
# High freq. dielectric constant tensor:
#      x y z
#    x 1.526640 0.000000 0.000340 
#    y 0.000000 1.601930 0.000000 
#    z 0.000340 0.000000 1.590020 
# 
# From -- ./inp_files/248508.got.cif
#   From: 2010.06.25/outbox.cif.g09.slc.cpg/sg12_125_cif.got.tgz:248508.got - 2010.06.28 00:19:55.
