data_PCOD8080072
_publ_section_title
;
Structure prediction by ZEFSAII (Michael W. Deem and Ramdas Pophale) SiO2 
 PCOD8080072
Probable space group: C 2/M
;
_chemical_formula_sum "Si O2"
_cell_formula_units_Z 56
_cell_length_a 19.792619
_cell_length_b 13.617620
_cell_length_c 19.495906
_cell_angle_alpha 90.000000
_cell_angle_beta 36.489688
_cell_angle_gamma 90.000000
_cell_volume 3124.854809
_symmetry_space_group_name_H-M "C 2/M"
_symmetry_group_IT_number 12
_symmetry_cell_setting 'monoclinic'
loop_
_space_group_symop_operation_xyz
x,y,z
-x,y,-z
-x,-y,-z
x,-y,z
1/2+x,1/2+y,z
1/2-x,1/2+y,-z
1/2-x,1/2-y,-z
1/2+x,1/2-y,z
loop_
_atom_site_type_symbol
_atom_site_label
_atom_site_fract_x
_atom_site_fract_y
_atom_site_fract_z
Si Si1 0.767935 0.708600 0.772626
Si Si2 0.876935 0.804493 0.241202
Si Si3 0.873775 0.889723 0.619955
Si Si4 0.996933 0.384453 0.579105
Si Si5 0.213215 0.615875 0.482847
Si Si6 0.077675 0.889502 0.002807
Si Si7 0.692170 0.109674 0.655519
O O1 0.710467 0.669434 0.749119
O O2 0.808982 0.821280 0.728762
O O3 0.874933 0.643837 0.708946
O O4 0.678164 0.689948 0.907548
O O5 0.825490 0.847025 0.353026
O O6 0.892085 0.686330 0.237767
O O7 0.000959 0.850910 0.128408
O O8 0.810843 0.889658 0.598495
O O9 0.000000 0.850951 0.500000
O O10 0.876679 0.000000 0.648713
O O11 0.010274 0.500000 0.566611
O O12 0.000000 0.339690 0.500000
O O13 0.099561 0.339195 0.540266
O O14 0.211021 0.500000 0.479639
O O15 0.217933 0.648695 0.558066
O O16 0.123586 0.000000 0.981314
O O17 0.000000 0.893450 0.000000
O O18 0.637532 0.000000 0.700279
#
# Coordination Sequence:
#
# PCOD8080072 Si02
#       7
#     8   8   8   8   8   8   8
#     4  10  18  29  47  69  99 127 158 196 240 284
#     4  10  18  30  48  68  96 129 162 197 239 285
#     4   9  18  32  51  73  97 126 162 205 247 283
#     4  10  18  27  44  71 100 127 155 191 240 295
#     4  10  19  30  47  73 100 127 157 196 245 295
#     4   9  18  30  46  70  98 129 161 196 237 285
#     4   9  19  33  48  71  98 125 162 202 244 289
#
# _framework density 17.920832999999998
#
# number of rings (size 3 to 8) (size 9 to 14) (size 15 to 20)
#    0.000    2.429    1.429    1.714    2.000    1.143 
#    0.000    0.714    0.000    5.143    0.000    0.000 
#    0.000    0.000    0.000    0.000    0.000    0.000 
#
# Total GULP energy -347027.800699 kJ/mol
# GULP energy per Si atom -12393.850025 kJ/mol
# Density = 1.788004 g / cm^3
# Si number density = 17.920833 Si / 1000 Ang^3
#
#
#
# Elastic Constant Matrix: (Units=GPa)
#
#
# Indices 1 2 3 4 5 6 
#
# 1 53.6182 21.8943 34.3805 0.0000 1.8090 0.0000
# 2 21.8943 68.2699 61.3598 0.0000 -0.4347 0.0000
# 3 34.3805 61.3598 129.3314 0.0000 -12.0826 0.0000
# 4 0.0000 0.0000 0.0000 30.2672 0.0000 -1.7061
# 5 1.8090 -0.4347 -12.0826 0.0000 16.2325 0.0000
# 6 0.0000 0.0000 0.0000 -1.7061 0.0000 16.1912
#
#
#
# Elastic Compliance Matrix: (Units=1/GPa)
#
#
# Indices 1 2 3 4 5 6 
#
# 1 0.023575 -0.002415 -0.005774 0.000000 -0.006990 0.000000
# 2 -0.002415 0.027057 -0.013006 0.000000 -0.008688 0.000000
# 3 -0.005774 -0.013006 0.016621 0.000000 0.012667 0.000000
# 4 0.000000 0.000000 0.000000 0.033236 0.000000 0.003502
# 5 -0.006990 -0.008688 0.012667 0.000000 0.071580 0.000000
# 6 0.000000 0.000000 0.000000 0.003502 0.000000 0.062131
#
#
# Mechanical properties :
#
#
# Convention : Reuss Voigt Hill
#
# Bulk Modulus (GPa) = 40.22315 54.05429 47.13872
# Shear Modulus (GPa) = 17.55131 21.44384 19.49758
#
# Velocity S-wave (km/s) = 3.13290 3.46293 3.30204
# Velocity P-wave (km/s) = 5.96493 6.79834 6.39523
#
# Compressibility (1/GPa) = 0.02486131
#
# Stress axis : x y z
#
# Youngs Moduli (GPa) = 42.41807 36.95899 60.16440
#
# Poissons Ratio (x) = 0.08927 0.34739
# Poissons Ratio (y) = 0.10246 0.78252
# Poissons Ratio (z) = 0.24492 0.48070
#
# Static dielectric constant tensor:
#      x y z
#    x 3.216500 0.000000 -0.067220 
#    y 0.000000 3.537880 0.000000 
#    z -0.067220 0.000000 3.285050 
# 
# 
# High freq. dielectric constant tensor:
#      x y z
#    x 1.662240 0.000000 -0.008170 
#    y 0.000000 1.705640 0.000000 
#    z -0.008170 0.000000 1.670800 
# 
# From -- ./inp_files/156127.got.cif
#   From: 2010.06.25/outbox.cif.g09.slc.cpg/sg12_79_cif.got.tgz:156127.got - 2010.06.28 00:19:55.
