data_PCOD8080097
_publ_section_title
;
Structure prediction by ZEFSAII (Michael W. Deem and Ramdas Pophale) SiO2 
 PCOD8080097
Probable space group: C 2/M
;
_chemical_formula_sum "Si O2"
_cell_formula_units_Z 48
_cell_length_a 28.389833
_cell_length_b 8.602119
_cell_length_c 21.729778
_cell_angle_alpha 90.000000
_cell_angle_beta 31.726570
_cell_angle_gamma 90.000000
_cell_volume 2790.607680
_symmetry_space_group_name_H-M "C 2/M"
_symmetry_group_IT_number 12
_symmetry_cell_setting 'monoclinic'
loop_
_space_group_symop_operation_xyz
x,y,z
-x,y,-z
-x,-y,-z
x,-y,z
1/2+x,1/2+y,z
1/2-x,1/2+y,-z
1/2-x,1/2-y,-z
1/2+x,1/2-y,z
loop_
_atom_site_type_symbol
_atom_site_label
_atom_site_fract_x
_atom_site_fract_y
_atom_site_fract_z
Si Si1 0.637130 0.182172 0.963301
Si Si2 0.599931 0.820836 0.445684
Si Si3 0.545716 0.172493 0.883029
Si Si4 0.298147 0.321793 0.232685
Si Si5 0.268472 0.182626 0.913022
Si Si6 0.079534 0.818242 0.336098
O O1 0.531333 0.229370 0.078928
O O2 0.648633 0.000000 0.964717
O O3 0.683641 0.214093 0.846241
O O4 0.683184 0.282257 0.965026
O O5 0.696948 0.791273 0.368794
O O6 0.524447 0.719180 0.564327
O O7 0.607163 0.775744 0.366061
O O8 0.571914 0.000000 0.481725
O O9 0.633157 0.282792 0.787795
O O10 0.578097 0.000000 0.829037
O O11 0.500000 0.171082 0.000000
O O12 0.310601 0.500000 0.198601
O O13 0.357816 0.265226 0.789070
O O14 0.284971 0.000000 0.897989
O O15 0.250000 0.250000 0.000000
O O16 0.091578 0.000000 0.334965
#
# Coordination Sequence:
#
# PCOD8080097 Si02
#       6
#     8   8   8   8   8   8
#     4  10  19  32  48  68  97 131 166 205 248 293
#     4  10  19  31  48  72 103 135 165 204 249 295
#     4   8  16  28  43  65  96 130 162 199 243 293
#     4  10  18  27  45  72 101 133 165 199 245 296
#     4  12  24  38  54  73  98 131 169 210 250 295
#     4  11  21  33  50  72  97 131 169 206 248 298
#
# _framework density 17.200555000000001
#
# number of rings (size 3 to 8) (size 9 to 14) (size 15 to 20)
#    0.000    1.833    1.667    6.500    0.000    5.667 
#    0.000    0.000    0.000    0.000    0.000    1.167 
#    0.000    0.000    0.000    0.000    0.000    0.000 
#
# Total GULP energy -297526.993193 kJ/mol
# GULP energy per Si atom -12396.958050 kJ/mol
# Density = 1.716141 g / cm^3
# Si number density = 17.200555 Si / 1000 Ang^3
#
#
#
# Elastic Constant Matrix: (Units=GPa)
#
#
# Indices 1 2 3 4 5 6 
#
# 1 76.6865 22.2249 50.9969 0.0010 -24.9876 -0.0013
# 2 22.2249 63.8533 22.6792 0.0071 -12.6539 -0.0041
# 3 50.9969 22.6792 93.4776 -0.0008 -18.8436 0.0006
# 4 0.0010 0.0071 -0.0008 25.6328 -0.0004 -5.4415
# 5 -24.9876 -12.6539 -18.8436 -0.0004 32.2045 0.0016
# 6 -0.0013 -0.0041 0.0006 -5.4415 0.0016 27.7035
#
#
#
# Elastic Compliance Matrix: (Units=1/GPa)
#
#
# Indices 1 2 3 4 5 6 
#
# 1 0.024584 -0.002486 -0.010385 0.000000 0.012021 0.000000
# 2 -0.002486 0.018092 -0.002255 -0.000005 0.003861 0.000001
# 3 -0.010385 -0.002255 0.017128 0.000001 0.001078 -0.000001
# 4 0.000000 -0.000005 0.000001 0.040710 -0.000001 0.007996
# 5 0.012021 0.003861 0.001078 -0.000001 0.042526 -0.000002
# 6 0.000000 0.000001 -0.000001 0.007996 -0.000002 0.037667
#
#
# Mechanical properties :
#
#
# Convention : Reuss Voigt Hill
#
# Bulk Modulus (GPa) = 33.83941 47.31327 40.57634
# Shear Modulus (GPa) = 22.64384 26.31591 24.47987
#
# Velocity S-wave (km/s) = 3.63224 3.91569 3.77663
# Velocity P-wave (km/s) = 6.10795 6.92893 6.53135
#
# Compressibility (1/GPa) = 0.02955134
#
# Stress axis : x y z
#
# Youngs Moduli (GPa) = 40.67703 55.27266 58.38424
#
# Poissons Ratio (x) = 0.13740 0.60634
# Poissons Ratio (y) = 0.10112 0.13166
# Poissons Ratio (z) = 0.42245 0.12464
#
# Static dielectric constant tensor:
#      x y z
#    x 3.384660 -0.000010 -0.543610 
#    y -0.000010 3.325310 0.000020 
#    z -0.543610 0.000020 3.158120 
# 
# 
# High freq. dielectric constant tensor:
#      x y z
#    x 1.641880 0.000000 -0.046760 
#    y 0.000000 1.679140 0.000000 
#    z -0.046760 0.000000 1.635420 
# 
# From -- ./inp_files/329016.got.cif
#   From: 2010.06.25/outbox.cif.g09.slc.cpg/sg12_165_cif.got.tgz:329016.got - 2010.06.28 00:19:55.
