data_PCOD8080686
_publ_section_title
;
Structure prediction by ZEFSAII (Michael W. Deem and Ramdas Pophale) SiO2 
 PCOD8080686
Probable space group: C 2/M
;
_chemical_formula_sum "Si O2"
_cell_formula_units_Z 64
_cell_length_a 27.581044
_cell_length_b 18.274952
_cell_length_c 26.086513
_cell_angle_alpha 90.000000
_cell_angle_beta 18.945150
_cell_angle_gamma 90.000000
_cell_volume 4268.895963
_symmetry_space_group_name_H-M "C 2/M"
_symmetry_group_IT_number 12
_symmetry_cell_setting 'monoclinic'
loop_
_space_group_symop_operation_xyz
x,y,z
-x,y,-z
-x,-y,-z
x,-y,z
1/2+x,1/2+y,z
1/2-x,1/2+y,-z
1/2-x,1/2-y,-z
1/2+x,1/2-y,z
loop_
_atom_site_type_symbol
_atom_site_label
_atom_site_fract_x
_atom_site_fract_y
_atom_site_fract_z
Si Si1 0.925322 0.165071 0.720700
Si Si2 0.581773 0.292270 0.721454
Si Si3 0.924354 0.583719 0.825501
Si Si4 0.575466 0.416285 0.174400
Si Si5 0.425243 0.165057 0.928731
Si Si6 0.918252 0.292288 0.384971
Si Si7 0.925553 0.584100 0.127415
Si Si8 0.925521 0.084096 0.521512
O O1 0.965589 0.113266 0.728294
O O2 0.983759 0.247340 0.672111
O O3 0.009294 0.134317 0.587846
O O4 0.750037 0.167346 0.885264
O O5 0.511200 0.372263 0.783248
O O6 0.483753 0.247321 0.860377
O O7 0.750010 0.300766 0.574025
O O8 0.578482 0.249985 0.671521
O O9 0.975904 0.500000 0.770738
O O10 0.965443 0.613253 0.840661
O O11 0.011084 0.627733 0.694463
O O12 0.749906 0.593415 0.989477
O O13 0.523827 0.500000 0.222845
O O14 0.509238 0.134285 0.893606
O O15 0.965718 0.500000 0.099480
O O16 0.750016 0.596441 0.298727
O O17 0.000000 0.608908 0.000000
O O18 0.000000 0.108873 0.500000
O O19 0.965673 0.000000 0.469107
#
# Coordination Sequence:
#
# PCOD8080686 Si02
#       8
#     8   8   8   8   8   8   8   8
#     4  10  18  29  45  62  83 113 146 177 212 253
#     4   9  17  28  41  59  83 110 141 176 212 250
#     4   9  17  28  42  61  85 113 144 176 211 253
#     4   9  17  28  42  61  85 113 144 176 211 253
#     4  10  18  29  45  62  83 113 146 177 212 253
#     4   9  17  28  41  59  83 110 141 176 212 250
#     4  10  20  32  45  62  85 112 143 179 215 250
#     4  10  20  32  45  62  85 112 143 179 215 250
#
# _framework density 14.992167
#
# number of rings (size 3 to 8) (size 9 to 14) (size 15 to 20)
#    0.000    2.500    0.000    3.000    0.000    7.000 
#    0.000    0.000    0.000    0.000    0.000    0.000 
#    0.000    1.000    0.000    3.750    0.000    5.750 
#
# Total GULP energy -396842.755281 kJ/mol
# GULP energy per Si atom -12401.336103 kJ/mol
# Density = 1.495804 g / cm^3
# Si number density = 14.992167 Si / 1000 Ang^3
#
#
#
# Elastic Constant Matrix: (Units=GPa)
#
#
# Indices 1 2 3 4 5 6 
#
# 1 76.1450 48.9914 38.9526 -0.0040 -4.7371 0.0110
# 2 48.9914 106.1991 44.8568 0.0196 1.1836 0.0004
# 3 38.9526 44.8568 78.6426 0.0253 3.9829 0.0006
# 4 -0.0040 0.0196 0.0253 25.5973 -0.0077 -3.9040
# 5 -4.7371 1.1836 3.9829 -0.0077 24.2878 -0.0017
# 6 0.0110 0.0004 0.0006 -3.9040 -0.0017 12.0604
#
#
#
# Elastic Compliance Matrix: (Units=1/GPa)
#
#
# Indices 1 2 3 4 5 6 
#
# 1 0.021605 -0.007099 -0.006941 0.000015 0.005698 -0.000013
# 2 -0.007099 0.014745 -0.004828 -0.000007 -0.001311 0.000004
# 3 -0.006941 -0.004828 0.019123 -0.000018 -0.004254 -0.000001
# 4 0.000015 -0.000007 -0.000018 0.041095 0.000020 0.013303
# 5 0.005698 -0.001311 -0.004254 0.000020 0.043046 0.000008
# 6 -0.000013 0.000004 -0.000001 0.013303 0.000008 0.087222
#
#
# Mechanical properties :
#
#
# Convention : Reuss Voigt Hill
#
# Bulk Modulus (GPa) = 56.37560 58.50982 57.44271
# Shear Modulus (GPa) = 18.48539 20.93482 19.71011
#
# Velocity S-wave (km/s) = 3.51522 3.74088 3.62980
# Velocity P-wave (km/s) = 7.35940 7.60069 7.48102
#
# Compressibility (1/GPa) = 0.01773817
#
# Stress axis : x y z
#
# Youngs Moduli (GPa) = 46.28494 67.82045 52.29329
#
# Poissons Ratio (x) = 0.48143 0.36297
# Poissons Ratio (y) = 0.32856 0.25246
# Poissons Ratio (z) = 0.32126 0.32742
#
# Static dielectric constant tensor:
#      x y z
#    x 2.696580 0.000000 -0.092350 
#    y 0.000000 2.935180 0.000020 
#    z -0.092350 0.000020 3.017160 
# 
# 
# High freq. dielectric constant tensor:
#      x y z
#    x 1.543190 0.000000 -0.012820 
#    y 0.000000 1.563130 0.000010 
#    z -0.012820 0.000010 1.587670 
# 
# From -- ./inp_files/97696.got.cif
#   From: 2010.06.25/outbox.cif.g09.slc.cpg/sg12_49_cif.got.tgz:97696.got - 2010.06.28 00:19:55.
