data_PCOD8080397
_publ_section_title
;
Structure prediction by ZEFSAII (Michael W. Deem and Ramdas Pophale) SiO2 
 PCOD8080397
Probable space group: C 2/M
;
_chemical_formula_sum "Si O2"
_cell_formula_units_Z 48
_cell_length_a 19.412013
_cell_length_b 9.190673
_cell_length_c 16.440613
_cell_angle_alpha 90.000000
_cell_angle_beta 110.366994
_cell_angle_gamma 90.000000
_cell_volume 2749.787451
_symmetry_space_group_name_H-M "C 2/M"
_symmetry_group_IT_number 12
_symmetry_cell_setting 'monoclinic'
loop_
_space_group_symop_operation_xyz
x,y,z
-x,y,-z
-x,-y,-z
x,-y,z
1/2+x,1/2+y,z
1/2-x,1/2+y,-z
1/2-x,1/2-y,-z
1/2+x,1/2-y,z
loop_
_atom_site_type_symbol
_atom_site_label
_atom_site_fract_x
_atom_site_fract_y
_atom_site_fract_z
Si Si1 0.913051 0.671051 0.224452
Si Si2 0.834205 0.334925 0.353408
Si Si3 0.673160 0.169000 0.469811
Si Si4 0.205263 0.330835 0.225687
Si Si5 0.221125 0.172718 0.908437
Si Si6 0.923293 0.671244 0.717456
O O1 0.904908 0.500000 0.199929
O O2 0.896621 0.702663 0.312829
O O3 0.858467 0.762973 0.145550
O O4 0.994484 0.733819 0.240452
O O5 0.808411 0.500000 0.331174
O O6 0.864658 0.308501 0.457015
O O7 0.761580 0.240926 0.311026
O O8 0.750000 0.250000 0.500000
O O9 0.618104 0.234417 0.379271
O O10 0.688617 0.000000 0.458213
O O11 0.218365 0.500000 0.242245
O O12 0.220899 0.285553 0.139073
O O13 0.122620 0.288283 0.219713
O O14 0.215231 0.000000 0.919075
O O15 0.250000 0.250000 0.000000
O O16 0.931306 0.500000 0.709085
#
# Coordination Sequence:
#
# PCOD8080397 Si02
#       6
#     8   8   8   8   8   8
#     4   9  18  33  51  72 101 130 159 199 245 289
#     4   9  17  28  45  71  98 129 167 204 240 276
#     4  10  18  28  45  70  99 132 171 206 235 274
#     4   9  17  31  51  72  95 127 164 197 236 288
#     4  10  20  35  56  77  96 122 158 198 241 295
#     4   9  17  30  49  72  99 132 165 200 240 282
#
# _framework density 17.455894000000001
#
# number of rings (size 3 to 8) (size 9 to 14) (size 15 to 20)
#    0.000    2.667    1.667    0.500    0.000    1.333 
#    0.000    5.833    0.000    5.000    0.000    5.833 
#    0.000    0.000    0.000    0.000    0.000    0.000 
#
# Total GULP energy -297482.867383 kJ/mol
# GULP energy per Si atom -12395.119474 kJ/mol
# Density = 1.741616 g / cm^3
# Si number density = 17.455894 Si / 1000 Ang^3
#
#
#
# Elastic Constant Matrix: (Units=GPa)
#
#
# Indices 1 2 3 4 5 6 
#
# 1 152.8006 37.8923 74.7381 0.0000 5.3993 0.0000
# 2 37.8923 41.7930 40.6103 0.0000 2.0997 0.0000
# 3 74.7381 40.6103 135.0459 0.0000 1.4910 0.0000
# 4 0.0000 0.0000 0.0000 22.6871 0.0000 2.2044
# 5 5.3993 2.0997 1.4910 0.0000 19.5872 0.0000
# 6 0.0000 0.0000 0.0000 2.2044 0.0000 21.6817
#
#
#
# Elastic Compliance Matrix: (Units=1/GPa)
#
#
# Indices 1 2 3 4 5 6 
#
# 1 0.009738 -0.004972 -0.003874 0.000000 -0.001856 0.000000
# 2 -0.004972 0.036504 -0.008205 0.000000 -0.001918 0.000000
# 3 -0.003874 -0.008205 0.012004 0.000000 0.001034 0.000000
# 4 0.000000 0.000000 0.000000 0.044518 0.000000 -0.004526
# 5 -0.001856 -0.001918 0.001034 0.000000 0.051692 0.000000
# 6 0.000000 0.000000 0.000000 -0.004526 0.000000 0.046582
#
#
# Mechanical properties :
#
#
# Convention : Reuss Voigt Hill
#
# Bulk Modulus (GPa) = 41.41405 70.68010 56.04708
# Shear Modulus (GPa) = 20.56036 24.55112 22.55574
#
# Velocity S-wave (km/s) = 3.43570 3.75436 3.59856
# Velocity P-wave (km/s) = 6.28611 7.70533 7.03162
#
# Compressibility (1/GPa) = 0.02414640
#
# Stress axis : x y z
#
# Youngs Moduli (GPa) = 102.69509 27.39432 83.30229
#
# Poissons Ratio (x) = 0.13619 0.32267
# Poissons Ratio (y) = 0.51055 0.68347
# Poissons Ratio (z) = 0.39779 0.22476
#
# Static dielectric constant tensor:
#      x y z
#    x 3.483850 0.000000 -0.195120 
#    y 0.000000 3.119730 0.000000 
#    z -0.195120 0.000000 3.328670 
# 
# 
# High freq. dielectric constant tensor:
#      x y z
#    x 1.671130 0.000000 -0.015370 
#    y 0.000000 1.656320 0.000000 
#    z -0.015370 0.000000 1.669040 
# 
# From -- ./inp_files/230455.got.cif
#   From: 2010.06.25/outbox.cif.g09.slc.cpg/sg12_116_cif.got.tgz:230455.got - 2010.06.28 00:19:55.
