data_PCOD8080226
_publ_section_title
;
Structure prediction by ZEFSAII (Michael W. Deem and Ramdas Pophale) SiO2 
 PCOD8080226
Probable space group: C 2/M
;
_chemical_formula_sum "Si O2"
_cell_formula_units_Z 48
_cell_length_a 23.762872
_cell_length_b 9.573781
_cell_length_c 13.808530
_cell_angle_alpha 90.000000
_cell_angle_beta 109.543265
_cell_angle_gamma 90.000000
_cell_volume 2960.466471
_symmetry_space_group_name_H-M "C 2/M"
_symmetry_group_IT_number 12
_symmetry_cell_setting 'monoclinic'
loop_
_space_group_symop_operation_xyz
x,y,z
-x,y,-z
-x,-y,-z
x,-y,z
1/2+x,1/2+y,z
1/2-x,1/2+y,-z
1/2-x,1/2-y,-z
1/2+x,1/2-y,z
loop_
_atom_site_type_symbol
_atom_site_label
_atom_site_fract_x
_atom_site_fract_y
_atom_site_fract_z
Si Si1 0.491996 0.336270 0.885672
Si Si2 0.367708 0.162769 0.357912
Si Si3 0.432790 0.158742 0.582396
Si Si4 0.246669 0.663084 0.596980
Si Si5 0.377392 0.341360 0.704515
Si Si6 0.552125 0.836828 0.760250
O O1 0.505374 0.500000 0.882279
O O2 0.424044 0.296836 0.815646
O O3 0.540712 0.254044 0.849362
O O4 0.500000 0.286089 0.000000
O O5 0.422299 0.192715 0.463518
O O6 0.305607 0.225533 0.363532
O O7 0.388304 0.216998 0.262883
O O8 0.357708 0.000000 0.339369
O O9 0.386057 0.250714 0.614281
O O10 0.499897 0.190350 0.652438
O O11 0.415382 0.000000 0.595079
O O12 0.234824 0.500000 0.564104
O O13 0.250000 0.750000 0.500000
O O14 0.308125 0.678135 0.694478
O O15 0.391005 0.500000 0.683227
O O16 0.555979 0.000000 0.791633
#
# Coordination Sequence:
#
# PCOD8080226 Si02
#       6
#     8   8   8   8   8   8
#     4   9  18  33  50  65  84 111 143 184 230 265
#     4   9  16  26  41  62  90 121 145 169 209 256
#     4   9  15  25  42  62  87 118 146 172 206 253
#     4  10  18  28  43  63  90 121 150 175 204 249
#     4   9  17  28  43  65  88 112 147 183 212 250
#     4   9  17  28  44  66  88 111 144 181 215 256
#
# _framework density 16.213660999999998
#
# number of rings (size 3 to 8) (size 9 to 14) (size 15 to 20)
#    0.000    2.833    1.667    0.500    0.000    2.333 
#    0.000    1.667    0.000    5.000    0.000    0.000 
#    0.000    0.000    0.000    0.000    0.000    0.000 
#
# Total GULP energy -297336.011290 kJ/mol
# GULP energy per Si atom -12389.000470 kJ/mol
# Density = 1.617676 g / cm^3
# Si number density = 16.213661 Si / 1000 Ang^3
#
#
#
# Elastic Constant Matrix: (Units=GPa)
#
#
# Indices 1 2 3 4 5 6 
#
# 1 119.8765 35.6665 61.1796 0.0000 -24.1797 0.0000
# 2 35.6665 38.0236 28.9480 0.0000 -11.4140 0.0000
# 3 61.1796 28.9480 78.8014 0.0000 -21.0022 0.0000
# 4 0.0000 0.0000 0.0000 18.4727 0.0000 -4.0641
# 5 -24.1797 -11.4140 -21.0022 0.0000 22.5151 0.0000
# 6 0.0000 0.0000 0.0000 -4.0641 0.0000 19.0360
#
#
#
# Elastic Compliance Matrix: (Units=1/GPa)
#
#
# Indices 1 2 3 4 5 6 
#
# 1 0.015683 -0.006768 -0.008139 0.000000 0.005820 0.000000
# 2 -0.006768 0.040542 -0.008116 0.000000 0.005714 0.000000
# 3 -0.008139 -0.008116 0.024707 0.000000 0.010192 0.000000
# 4 0.000000 0.000000 0.000000 0.056802 0.000000 0.012127
# 5 0.005820 0.005714 0.010192 0.000000 0.063068 0.000000
# 6 0.000000 0.000000 0.000000 0.012127 0.000000 0.055121
#
#
# Mechanical properties :
#
#
# Convention : Reuss Voigt Hill
#
# Bulk Modulus (GPa) = 28.66450 54.25443 41.45946
# Shear Modulus (GPa) = 15.94411 19.39860 17.67135
#
# Velocity S-wave (km/s) = 3.13928 3.46271 3.30495
# Velocity P-wave (km/s) = 5.55497 7.03718 6.33954
#
# Compressibility (1/GPa) = 0.03488636
#
# Stress axis : x y z
#
# Youngs Moduli (GPa) = 63.76347 24.66603 40.47513
#
# Poissons Ratio (x) = 0.16693 0.32941
# Poissons Ratio (y) = 0.43153 0.32850
# Poissons Ratio (z) = 0.51895 0.20019
#
# Static dielectric constant tensor:
#      x y z
#    x 3.464680 0.000000 -0.019750 
#    y 0.000000 2.959610 0.000000 
#    z -0.019750 0.000000 2.918060 
# 
# 
# High freq. dielectric constant tensor:
#      x y z
#    x 1.628100 0.000000 -0.000310 
#    y 0.000000 1.605500 0.000000 
#    z -0.000310 0.000000 1.592760 
# 
# From -- ./inp_files/164178.got.cif
#   From: 2010.06.25/outbox.cif.g09.slc.cpg/sg12_83_cif.got.tgz:164178.got - 2010.06.28 00:19:55.
