data_PCOD8080811
_publ_section_title
;
Structure prediction by ZEFSAII (Michael W. Deem and Ramdas Pophale) SiO2 
 PCOD8080811
Probable space group: C 2/M
;
_chemical_formula_sum "Si O2"
_cell_formula_units_Z 56
_cell_length_a 27.711089
_cell_length_b 8.889440
_cell_length_c 13.761869
_cell_angle_alpha 90.000000
_cell_angle_beta 96.637372
_cell_angle_gamma 90.000000
_cell_volume 3367.323143
_symmetry_space_group_name_H-M "C 2/M"
_symmetry_group_IT_number 12
_symmetry_cell_setting 'monoclinic'
loop_
_space_group_symop_operation_xyz
x,y,z
-x,y,-z
-x,-y,-z
x,-y,z
1/2+x,1/2+y,z
1/2-x,1/2+y,-z
1/2-x,1/2-y,-z
1/2+x,1/2-y,z
loop_
_atom_site_type_symbol
_atom_site_label
_atom_site_fract_x
_atom_site_fract_y
_atom_site_fract_z
Si Si1 0.659988 0.677263 0.323548
Si Si2 0.458351 0.324166 0.414195
Si Si3 0.515910 0.825820 0.778798
Si Si4 0.761367 0.327468 0.403928
Si Si5 0.446753 0.669330 0.032091
Si Si6 0.589579 0.174149 0.157623
Si Si7 0.864043 0.676661 0.476141
O O1 0.649028 0.500000 0.317616
O O2 0.717842 0.715041 0.319001
O O3 0.632820 0.757889 0.230169
O O4 0.641431 0.738657 0.422722
O O5 0.500000 0.282930 0.500000
O O6 0.446488 0.500000 0.410978
O O7 0.476727 0.273874 0.313942
O O8 0.410407 0.233643 0.429768
O O9 0.553031 0.768071 0.869956
O O10 0.460720 0.800143 0.798242
O O11 0.526968 0.000000 0.759948
O O12 0.755946 0.500000 0.426504
O O13 0.750000 0.250000 0.500000
O O14 0.817808 0.290529 0.392336
O O15 0.429339 0.500000 0.051546
O O16 0.500000 0.668278 0.000000
O O17 0.410194 0.743871 0.946534
O O18 0.599447 0.000000 0.141083
O O19 0.869365 0.500000 0.499599
#
# Coordination Sequence:
#
# PCOD8080811 Si02
#       7
#     8   8   8   8   8   8   8
#     4  10  18  29  46  69  96 123 152 188 232 276
#     4  11  23  35  47  66  93 125 160 194 227 267
#     4  10  20  33  48  66  92 125 158 192 228 269
#     4   8  16  29  45  65  89 118 151 188 229 274
#     4   9  17  30  48  68  91 120 153 189 230 274
#     4  10  19  30  46  70  97 123 153 189 230 273
#     4  10  19  32  48  66  91 123 158 193 230 272
#
# _framework density 16.630421999999999
#
# number of rings (size 3 to 8) (size 9 to 14) (size 15 to 20)
#    0.000    2.286    0.000    3.429    0.000    8.000 
#    0.000    0.000    0.000    0.000    0.000    1.000 
#    0.000    0.000    0.000    0.000    0.000    0.000 
#
# Total GULP energy -347014.643860 kJ/mol
# GULP energy per Si atom -12393.380138 kJ/mol
# Density = 1.659257 g / cm^3
# Si number density = 16.630422 Si / 1000 Ang^3
#
#
#
# Elastic Constant Matrix: (Units=GPa)
#
#
# Indices 1 2 3 4 5 6 
#
# 1 74.2119 37.6209 37.3282 0.0000 23.4374 0.0000
# 2 37.6209 53.0542 26.8232 0.0000 19.3353 0.0000
# 3 37.3282 26.8232 100.1801 0.0000 25.1362 0.0000
# 4 0.0000 0.0000 0.0000 31.4988 0.0000 3.0350
# 5 23.4374 19.3353 25.1362 0.0000 25.7310 0.0000
# 6 0.0000 0.0000 0.0000 3.0350 0.0000 19.6356
#
#
#
# Elastic Compliance Matrix: (Units=1/GPa)
#
#
# Indices 1 2 3 4 5 6 
#
# 1 0.024370 -0.011958 -0.003396 0.000000 -0.009894 0.000000
# 2 -0.011958 0.032398 -0.001117 0.000000 -0.012362 0.000000
# 3 -0.003396 -0.001117 0.013989 0.000000 -0.009732 0.000000
# 4 0.000000 0.000000 0.000000 0.032227 0.000000 -0.004981
# 5 -0.009894 -0.012362 -0.009732 0.000000 0.066672 0.000000
# 6 0.000000 0.000000 0.000000 -0.004981 0.000000 0.051698
#
#
# Mechanical properties :
#
#
# Convention : Reuss Voigt Hill
#
# Bulk Modulus (GPa) = 26.44521 47.88786 37.16653
# Shear Modulus (GPa) = 18.73355 23.75135 21.24245
#
# Velocity S-wave (km/s) = 3.35992 3.78324 3.57785
# Velocity P-wave (km/s) = 5.56672 6.92399 6.28212
#
# Compressibility (1/GPa) = 0.03781404
#
# Stress axis : x y z
#
# Youngs Moduli (GPa) = 41.03442 30.86612 71.48711
#
# Poissons Ratio (x) = 0.36909 0.24278
# Poissons Ratio (y) = 0.49068 0.07987
# Poissons Ratio (z) = 0.13936 0.03448
#
# Static dielectric constant tensor:
#      x y z
#    x 3.941880 0.000000 0.496170 
#    y 0.000000 3.311080 0.000000 
#    z 0.496170 0.000000 3.148120 
# 
# 
# High freq. dielectric constant tensor:
#      x y z
#    x 1.617960 0.000000 0.027280 
#    y 0.000000 1.661690 0.000000 
#    z 0.027280 0.000000 1.627180 
# 
# From -- ./inp_files/186842.got.cif
#   From: 2010.06.25/outbox.cif.g09.slc.cpg/sg12_94_cif.got.tgz:186842.got - 2010.06.28 00:19:55.
