data_PCOD8080504
_publ_section_title
;
Structure prediction by ZEFSAII (Michael W. Deem and Ramdas Pophale) SiO2 
 PCOD8080504
Probable space group: C 2/M
;
_chemical_formula_sum "Si O2"
_cell_formula_units_Z 64
_cell_length_a 23.374861
_cell_length_b 8.770781
_cell_length_c 17.501857
_cell_angle_alpha 90.000000
_cell_angle_beta 76.216914
_cell_angle_gamma 90.000000
_cell_volume 3484.834760
_symmetry_space_group_name_H-M "C 2/M"
_symmetry_group_IT_number 12
_symmetry_cell_setting 'monoclinic'
loop_
_space_group_symop_operation_xyz
x,y,z
-x,y,-z
-x,-y,-z
x,-y,z
1/2+x,1/2+y,z
1/2-x,1/2+y,-z
1/2-x,1/2-y,-z
1/2+x,1/2-y,z
loop_
_atom_site_type_symbol
_atom_site_label
_atom_site_fract_x
_atom_site_fract_y
_atom_site_fract_z
Si Si1 0.433339 0.680662 0.440499
Si Si2 0.602157 0.318364 0.106487
Si Si3 0.379542 0.318692 0.306020
Si Si4 0.153016 0.319571 0.240088
Si Si5 0.469780 0.319219 0.151776
Si Si6 0.716320 0.318504 0.777491
Si Si7 0.127083 0.181046 0.931065
Si Si8 0.933149 0.180424 0.609956
O O1 0.435246 0.500000 0.438333
O O2 0.388702 0.744698 0.389576
O O3 0.412037 0.731422 0.531540
O O4 0.499635 0.735981 0.401407
O O5 0.603118 0.500000 0.114056
O O6 0.640591 0.246610 0.160877
O O7 0.535639 0.252634 0.131965
O O8 0.630238 0.261968 0.017322
O O9 0.377934 0.500000 0.307784
O O10 0.435469 0.264166 0.238422
O O11 0.318928 0.258174 0.286694
O O12 0.152599 0.500000 0.235270
O O13 0.217145 0.256860 0.245409
O O14 0.105526 0.266147 0.316070
O O15 0.473834 0.500000 0.148356
O O16 0.433652 0.261090 0.088997
O O17 0.715504 0.500000 0.777925
O O18 0.683101 0.258599 0.864622
O O19 0.126535 0.000000 0.929554
O O20 0.926731 0.000000 0.624597
#
# Coordination Sequence:
#
# PCOD8080504 Si02
#       8
#     8   8   8   8   8   8   8   8
#     4   8  14  26  49  77  97 111 136 181 231 274
#     4  10  18  28  47  72  92 113 147 192 236 273
#     4   8  12  22  42  66  90 117 147 179 221 268
#     4  11  22  33  43  60  91 128 160 186 216 259
#     4   8  13  22  42  73  99 111 132 182 237 275
#     4   8  16  29  42  59  89 125 156 186 219 260
#     4   8  14  26  45  69  92 114 146 190 233 267
#     4   9  17  31  50  73  97 116 139 179 230 275
#
# _framework density 18.365289000000001
#
# number of rings (size 3 to 8) (size 9 to 14) (size 15 to 20)
#    0.000    3.250    0.000    3.750    0.000    4.000 
#    0.000    1.875    0.000    2.250    0.000   14.875 
#    0.000    0.000    0.000    0.000    0.000    0.000 
#
# Total GULP energy -396503.963386 kJ/mol
# GULP energy per Si atom -12390.748856 kJ/mol
# Density = 1.832349 g / cm^3
# Si number density = 18.365289 Si / 1000 Ang^3
#
#
#
# Elastic Constant Matrix: (Units=GPa)
#
#
# Indices 1 2 3 4 5 6 
#
# 1 91.5099 12.0651 48.9456 0.0000 20.6699 0.0000
# 2 12.0651 16.6467 13.9074 0.0000 4.0462 0.0000
# 3 48.9456 13.9074 136.3410 0.0000 32.4317 0.0000
# 4 0.0000 0.0000 0.0000 12.3533 0.0000 1.1315
# 5 20.6699 4.0462 32.4317 0.0000 24.7457 0.0000
# 6 0.0000 0.0000 0.0000 1.1315 0.0000 14.9618
#
#
#
# Elastic Compliance Matrix: (Units=1/GPa)
#
#
# Indices 1 2 3 4 5 6 
#
# 1 0.015102 -0.006640 -0.002909 0.000000 -0.007717 0.000000
# 2 -0.006640 0.068726 -0.004755 0.000000 0.000541 0.000000
# 3 -0.002909 -0.004755 0.011770 0.000000 -0.012219 0.000000
# 4 0.000000 0.000000 0.000000 0.081515 0.000000 -0.006165
# 5 -0.007717 0.000541 -0.012219 0.000000 0.062783 0.000000
# 6 0.000000 0.000000 0.000000 -0.006165 0.000000 0.067303
#
#
# Mechanical properties :
#
#
# Convention : Reuss Voigt Hill
#
# Bulk Modulus (GPa) = 14.92750 43.81486 29.37118
# Shear Modulus (GPa) = 13.96113 21.71745 17.83929
#
# Velocity S-wave (km/s) = 2.76015 3.44252 3.12004
# Velocity P-wave (km/s) = 4.27828 6.30162 5.38582
#
# Compressibility (1/GPa) = 0.06699043
#
# Stress axis : x y z
#
# Youngs Moduli (GPa) = 66.21640 14.55056 84.95894
#
# Poissons Ratio (x) = 0.09661 0.24711
# Poissons Ratio (y) = 0.43967 0.40402
# Poissons Ratio (z) = 0.19260 0.06919
#
# Static dielectric constant tensor:
#      x y z
#    x 3.645250 0.000000 0.208800 
#    y 0.000000 2.712960 0.000000 
#    z 0.208800 0.000000 3.778630 
# 
# 
# High freq. dielectric constant tensor:
#      x y z
#    x 1.708020 0.000000 0.010600 
#    y 0.000000 1.642300 0.000000 
#    z 0.010600 0.000000 1.724010 
# 
# From -- ./inp_files/281316.got.cif
#   From: 2010.06.25/outbox.cif.g09.slc.cpg/sg12_141_cif.got.tgz:281316.got - 2010.06.28 00:19:55.
