data_PCOD8080804
_publ_section_title
;
Structure prediction by ZEFSAII (Michael W. Deem and Ramdas Pophale) SiO2 
 PCOD8080804
Probable space group: C 2/M
;
_chemical_formula_sum "Si O2"
_cell_formula_units_Z 40
_cell_length_a 23.624066
_cell_length_b 10.443354
_cell_length_c 10.117147
_cell_angle_alpha 90.000000
_cell_angle_beta 100.555216
_cell_angle_gamma 90.000000
_cell_volume 2453.810674
_symmetry_space_group_name_H-M "C 2/M"
_symmetry_group_IT_number 12
_symmetry_cell_setting 'monoclinic'
loop_
_space_group_symop_operation_xyz
x,y,z
-x,y,-z
-x,-y,-z
x,-y,z
1/2+x,1/2+y,z
1/2-x,1/2+y,-z
1/2-x,1/2-y,-z
1/2+x,1/2-y,z
loop_
_atom_site_type_symbol
_atom_site_label
_atom_site_fract_x
_atom_site_fract_y
_atom_site_fract_z
Si Si1 0.553515 0.358200 0.111605
Si Si2 0.386396 0.143031 0.734654
Si Si3 0.796622 0.352214 0.473590
Si Si4 0.793257 0.642292 0.173952
Si Si5 0.831841 0.222486 0.936602
O O1 0.542506 0.500000 0.167740
O O2 0.562863 0.250196 0.229755
O O3 0.611266 0.366192 0.045819
O O4 0.500000 0.314272 0.000000
O O5 0.354230 0.166321 0.583040
O O6 0.341351 0.159032 0.837970
O O7 0.412743 0.000000 0.751031
O O8 0.773801 0.500000 0.476704
O O9 0.750000 0.250000 0.500000
O O10 0.812790 0.319988 0.329592
O O11 0.813896 0.500000 0.148928
O O12 0.724152 0.646261 0.134516
O O13 0.824309 0.735349 0.084565
#
# Coordination Sequence:
#
# PCOD8080804 Si02
#       5
#     8   8   8   8   8
#     4   9  18  33  53  73  93 121 159 201 241 282
#     4   9  18  30  47  71  96 120 157 198 230 277
#     4  10  18  30  45  67  97 130 160 190 233 282
#     4  10  18  29  46  69 101 132 154 188 237 286
#     4   9  18  29  47  71  96 123 159 194 232 275
#
# _framework density 16.301176000000002
#
# number of rings (size 3 to 8) (size 9 to 14) (size 15 to 20)
#    1.200    1.400    2.000    1.200    0.000    1.200 
#    0.000    1.000    0.000    1.200    0.000    7.000 
#    0.000    0.000    0.000    0.000    0.000    0.000 
#
# Total GULP energy -247767.287239 kJ/mol
# GULP energy per Si atom -12388.364362 kJ/mol
# Density = 1.626407 g / cm^3
# Si number density = 16.301176 Si / 1000 Ang^3
#
#
#
# Elastic Constant Matrix: (Units=GPa)
#
#
# Indices 1 2 3 4 5 6 
#
# 1 43.9854 11.3644 26.0620 0.0000 15.8991 0.0000
# 2 11.3644 97.5492 49.8933 0.0000 19.8394 0.0000
# 3 26.0620 49.8933 120.9572 0.0000 16.5555 0.0000
# 4 0.0000 0.0000 0.0000 23.2634 0.0000 7.0817
# 5 15.8991 19.8394 16.5555 0.0000 21.1410 0.0000
# 6 0.0000 0.0000 0.0000 7.0817 0.0000 19.9335
#
#
#
# Elastic Compliance Matrix: (Units=1/GPa)
#
#
# Indices 1 2 3 4 5 6 
#
# 1 0.034016 0.003945 -0.005542 0.000000 -0.024943 0.000000
# 2 0.003945 0.015163 -0.005321 0.000000 -0.013029 0.000000
# 3 -0.005542 -0.005321 0.011651 0.000000 0.000038 0.000000
# 4 0.000000 0.000000 0.000000 0.048199 0.000000 -0.017123
# 5 -0.024943 -0.013029 0.000038 0.000000 0.078258 0.000000
# 6 0.000000 0.000000 0.000000 -0.017123 0.000000 0.056250
#
#
# Mechanical properties :
#
#
# Convention : Reuss Voigt Hill
#
# Bulk Modulus (GPa) = 21.27994 48.57015 34.92504
# Shear Modulus (GPa) = 18.31244 24.54571 21.42908
#
# Velocity S-wave (km/s) = 3.35532 3.88463 3.62964
# Velocity P-wave (km/s) = 5.30033 7.06970 6.24796
#
# Compressibility (1/GPa) = 0.04699262
#
# Stress axis : x y z
#
# Youngs Moduli (GPa) = 29.39828 65.94912 85.82675
#
# Poissons Ratio (x) = -0.26016 0.47568
# Poissons Ratio (y) = -0.11597 0.45671
# Poissons Ratio (z) = 0.16294 0.35093
#
# Static dielectric constant tensor:
#      x y z
#    x 2.718330 0.000000 0.135960 
#    y 0.000000 3.068500 0.000000 
#    z 0.135960 0.000000 3.075320 
# 
# 
# High freq. dielectric constant tensor:
#      x y z
#    x 1.588470 0.000000 0.017510 
#    y 0.000000 1.633620 0.000000 
#    z 0.017510 0.000000 1.623730 
# 
# From -- ./inp_files/93821.got.cif
#   From: 2010.06.25/outbox.cif.g09.slc.cpg/sg12_47_cif.got.tgz:93821.got - 2010.06.28 00:19:55.
