data_PCOD8080029
_publ_section_title
;
Structure prediction by ZEFSAII (Michael W. Deem and Ramdas Pophale) SiO2 
 PCOD8080029
Probable space group: C 2/M
;
_chemical_formula_sum "Si O2"
_cell_formula_units_Z 56
_cell_length_a 24.346415
_cell_length_b 8.984719
_cell_length_c 17.657629
_cell_angle_alpha 90.000000
_cell_angle_beta 62.916569
_cell_angle_gamma 90.000000
_cell_volume 3438.982685
_symmetry_space_group_name_H-M "C 2/M"
_symmetry_group_IT_number 12
_symmetry_cell_setting 'monoclinic'
loop_
_space_group_symop_operation_xyz
x,y,z
-x,y,-z
-x,-y,-z
x,-y,z
1/2+x,1/2+y,z
1/2-x,1/2+y,-z
1/2-x,1/2-y,-z
1/2+x,1/2-y,z
loop_
_atom_site_type_symbol
_atom_site_label
_atom_site_fract_x
_atom_site_fract_y
_atom_site_fract_z
Si Si1 0.652405 0.176196 0.270730
Si Si2 0.831931 0.834266 0.889466
Si Si3 0.313638 0.834915 0.043616
Si Si4 0.828115 0.170045 0.504685
Si Si5 0.208863 0.171574 0.634541
Si Si6 0.430356 0.327938 0.558532
Si Si7 0.218886 0.323905 0.775128
O O1 0.638813 0.231128 0.193813
O O2 0.595524 0.225458 0.358372
O O3 0.714015 0.249220 0.265465
O O4 0.659713 0.000000 0.265900
O O5 0.758839 0.837497 0.926847
O O6 0.859567 0.000000 0.865294
O O7 0.848809 0.771182 0.962302
O O8 0.321694 0.779055 0.125489
O O9 0.341257 0.000000 0.016458
O O10 0.835175 0.201256 0.410198
O O11 0.778388 0.280575 0.571348
O O12 0.893375 0.198676 0.503561
O O13 0.805291 0.000000 0.531647
O O14 0.183887 0.266263 0.721927
O O15 0.209536 0.000000 0.657761
O O16 0.500000 0.277807 0.500000
O O17 0.426281 0.500000 0.586485
O O18 0.229117 0.500000 0.766582
#
# Coordination Sequence:
#
# PCOD8080029 Si02
#       7
#     8   8   8   8   8   8   8
#     4  11  20  29  43  62  85 114 149 185 221 262
#     4   9  16  26  40  57  81 113 145 177 214 258
#     4   8  15  25  37  56  82 112 144 176 212 253
#     4   9  18  31  45  62  87 115 146 183 223 266
#     4  10  18  27  43  66  88 115 147 181 220 263
#     4  10  20  34  50  65  85 116 152 189 227 264
#     4  10  18  28  42  61  88 119 148 180 217 261
#
# _framework density 16.283885999999999
#
# number of rings (size 3 to 8) (size 9 to 14) (size 15 to 20)
#    0.000    2.429    1.429    3.429    0.000    4.857 
#    0.000    0.000    0.000    0.000    0.000    0.000 
#    0.000    1.143    0.000   13.143    0.000    3.571 
#
# Total GULP energy -347111.050618 kJ/mol
# GULP energy per Si atom -12396.823236 kJ/mol
# Density = 1.624682 g / cm^3
# Si number density = 16.283886 Si / 1000 Ang^3
#
#
#
# Elastic Constant Matrix: (Units=GPa)
#
#
# Indices 1 2 3 4 5 6 
#
# 1 56.7489 26.1420 43.1071 0.0000 12.2816 0.0001
# 2 26.1420 99.1458 57.9051 0.0000 14.3327 0.0001
# 3 43.1071 57.9051 117.5708 0.0000 33.8319 0.0000
# 4 0.0000 0.0000 0.0000 30.6556 0.0000 7.3512
# 5 12.2816 14.3327 33.8319 0.0000 24.8566 0.0000
# 6 0.0001 0.0001 0.0000 7.3512 0.0000 14.1010
#
#
#
# Elastic Compliance Matrix: (Units=1/GPa)
#
#
# Indices 1 2 3 4 5 6 
#
# 1 0.024629 -0.001715 -0.008167 0.000000 -0.000064 0.000000
# 2 -0.001715 0.014351 -0.007071 0.000000 0.002197 0.000000
# 3 -0.008167 -0.007071 0.020791 0.000000 -0.020186 0.000000
# 4 0.000000 0.000000 0.000000 0.037281 0.000000 -0.019436
# 5 -0.000064 0.002197 -0.020186 0.000000 0.066470 0.000000
# 6 0.000000 0.000000 0.000000 -0.019436 0.000000 0.081050
#
#
# Mechanical properties :
#
#
# Convention : Reuss Voigt Hill
#
# Bulk Modulus (GPa) = 38.66309 58.64155 48.65232
# Shear Modulus (GPa) = 17.41549 23.67671 20.54610
#
# Velocity S-wave (km/s) = 3.27386 3.81727 3.55596
# Velocity P-wave (km/s) = 6.17135 7.45110 6.84122
#
# Compressibility (1/GPa) = 0.02586446
#
# Stress axis : x y z
#
# Youngs Moduli (GPa) = 40.60215 69.68314 48.09666
#
# Poissons Ratio (x) = 0.11949 0.39282
# Poissons Ratio (y) = 0.06962 0.34011
# Poissons Ratio (z) = 0.33161 0.49276
#
# Static dielectric constant tensor:
#      x y z
#    x 2.731720 0.000000 0.463100 
#    y 0.000000 3.197410 0.000000 
#    z 0.463100 0.000000 3.286920 
# 
# 
# High freq. dielectric constant tensor:
#      x y z
#    x 1.563710 0.000000 0.043090 
#    y 0.000000 1.636780 0.000000 
#    z 0.043090 0.000000 1.627040 
# 
# From -- ./inp_files/287359.got.cif
#   From: 2010.06.25/outbox.cif.g09.slc.cpg/sg12_144_cif.got.tgz:287359.got - 2010.06.28 00:19:55.
