data_PCOD8080223
_publ_section_title
;
Structure prediction by ZEFSAII (Michael W. Deem and Ramdas Pophale) SiO2 
 PCOD8080223
Probable space group: C 2/M
;
_chemical_formula_sum "Si O2"
_cell_formula_units_Z 64
_cell_length_a 30.153102
_cell_length_b 9.447446
_cell_length_c 30.774980
_cell_angle_alpha 90.000000
_cell_angle_beta 28.698825
_cell_angle_gamma 90.000000
_cell_volume 4209.895664
_symmetry_space_group_name_H-M "C 2/M"
_symmetry_group_IT_number 12
_symmetry_cell_setting 'monoclinic'
loop_
_space_group_symop_operation_xyz
x,y,z
-x,y,-z
-x,-y,-z
x,-y,z
1/2+x,1/2+y,z
1/2-x,1/2+y,-z
1/2-x,1/2-y,-z
1/2+x,1/2-y,z
loop_
_atom_site_type_symbol
_atom_site_label
_atom_site_fract_x
_atom_site_fract_y
_atom_site_fract_z
Si Si1 0.224873 0.332882 0.426363
Si Si2 0.737351 0.662852 0.075570
Si Si3 0.116716 0.164115 0.095186
Si Si4 0.411501 0.167592 0.633218
Si Si5 0.614851 0.334588 0.261430
Si Si6 0.384377 0.833692 0.561714
Si Si7 0.916484 0.832736 0.393504
Si Si8 0.421250 0.333124 0.291173
O O1 0.209779 0.500000 0.446916
O O2 0.196437 0.287141 0.401822
O O3 0.164290 0.249129 0.512800
O O4 0.331326 0.289067 0.341011
O O5 0.766683 0.500000 0.050968
O O6 0.663219 0.692257 0.101705
O O7 0.691425 0.708648 0.160297
O O8 0.829928 0.753014 0.988601
O O9 0.012248 0.224650 0.188327
O O10 0.118863 0.000000 0.080676
O O11 0.361309 0.247795 0.715633
O O12 0.517365 0.222903 0.540204
O O13 0.363051 0.215873 0.629391
O O14 0.403863 0.000000 0.647748
O O15 0.619306 0.500000 0.268051
O O16 0.514351 0.292149 0.330107
O O17 0.395816 0.000000 0.553834
O O18 0.914602 0.774838 0.345856
O O19 0.897378 0.000000 0.412639
O O20 0.432806 0.500000 0.285016
#
# Coordination Sequence:
#
# PCOD8080223 Si02
#       8
#     8   8   8   8   8   8   8   8
#     4  10  18  29  45  63  83 114 153 178 200 245
#     4   9  17  29  44  61  85 113 138 170 213 255
#     4   9  16  29  45  62  83 110 142 174 209 249
#     4   9  16  28  44  60  84 112 141 177 216 250
#     4  10  18  28  43  63  88 116 141 168 210 258
#     4   8  15  27  42  61  84 111 140 178 217 245
#     4  10  18  29  41  59  90 121 143 169 207 244
#     4   9  17  29  45  62  85 117 146 174 209 247
#
# _framework density 15.202275999999999
#
# number of rings (size 3 to 8) (size 9 to 14) (size 15 to 20)
#    0.000    2.750    2.500    1.125    0.000    0.500 
#    0.000    3.125    0.000    0.000    0.000    0.875 
#    0.000    7.000    0.000    0.000    0.000    0.000 
#
# Total GULP energy -396677.286962 kJ/mol
# GULP energy per Si atom -12396.165218 kJ/mol
# Density = 1.516768 g / cm^3
# Si number density = 15.202276 Si / 1000 Ang^3
#
#
#
# Elastic Constant Matrix: (Units=GPa)
#
#
# Indices 1 2 3 4 5 6 
#
# 1 98.1350 29.3090 67.4037 -0.0266 6.4301 0.0055
# 2 29.3090 34.5490 46.5690 -0.0172 4.4002 0.0054
# 3 67.4037 46.5690 134.9840 -0.0264 4.6074 0.0068
# 4 -0.0266 -0.0172 -0.0264 25.7228 0.0155 5.5175
# 5 6.4301 4.4002 4.6074 0.0155 23.4860 0.0005
# 6 0.0055 0.0054 0.0068 5.5175 0.0005 17.0340
#
#
#
# Elastic Compliance Matrix: (Units=1/GPa)
#
#
# Indices 1 2 3 4 5 6 
#
# 1 0.016118 -0.004937 -0.006268 0.000009 -0.002258 -0.000004
# 2 -0.004937 0.056626 -0.016868 0.000023 -0.005948 -0.000017
# 3 -0.006268 -0.016868 0.016300 -0.000002 0.001679 0.000002
# 4 0.000009 0.000023 -0.000002 0.041779 -0.000034 -0.013532
# 5 -0.002258 -0.005948 0.001679 -0.000034 0.043982 0.000012
# 6 -0.000004 -0.000017 0.000002 -0.013532 0.000012 0.063089
#
#
# Mechanical properties :
#
#
# Convention : Reuss Voigt Hill
#
# Bulk Modulus (GPa) = 30.39599 61.58125 45.98862
# Shear Modulus (GPa) = 16.39319 21.54099 18.96709
#
# Velocity S-wave (km/s) = 3.28737 3.76833 3.53604
# Velocity P-wave (km/s) = 5.86914 7.71555 6.85480
#
# Compressibility (1/GPa) = 0.03289908
#
# Stress axis : x y z
#
# Youngs Moduli (GPa) = 62.04405 17.65975 61.34918
#
# Poissons Ratio (x) = 0.08718 0.38454
# Poissons Ratio (y) = 0.30629 1.03481
# Poissons Ratio (z) = 0.38889 0.29788
#
# Static dielectric constant tensor:
#      x y z
#    x 3.030610 -0.000020 0.033770 
#    y -0.000020 2.699860 0.000020 
#    z 0.033770 0.000020 2.952090 
# 
# 
# High freq. dielectric constant tensor:
#      x y z
#    x 1.570120 0.000000 0.008840 
#    y 0.000000 1.560340 0.000000 
#    z 0.008840 0.000000 1.572070 
# 
# From -- ./inp_files/384508.got.cif
#   From: 2010.06.25/outbox.cif.g09.slc.cpg/sg12_193_cif.got.tgz:384508.got - 2010.06.28 00:19:55.
