data_PCOD8080922
_publ_section_title
;
Structure prediction by ZEFSAII (Michael W. Deem and Ramdas Pophale) SiO2 
 PCOD8080922
Probable space group: C 2/M
;
_chemical_formula_sum "Si O2"
_cell_formula_units_Z 40
_cell_length_a 23.544933
_cell_length_b 13.318450
_cell_length_c 23.725575
_cell_angle_alpha 90.000000
_cell_angle_beta 161.017561
_cell_angle_gamma 90.000000
_cell_volume 2420.042737
_symmetry_space_group_name_H-M "C 2/M"
_symmetry_group_IT_number 12
_symmetry_cell_setting 'monoclinic'
loop_
_space_group_symop_operation_xyz
x,y,z
-x,y,-z
-x,-y,-z
x,-y,z
1/2+x,1/2+y,z
1/2-x,1/2+y,-z
1/2-x,1/2-y,-z
1/2+x,1/2-y,z
loop_
_atom_site_type_symbol
_atom_site_label
_atom_site_fract_x
_atom_site_fract_y
_atom_site_fract_z
Si Si1 0.812784 0.618674 0.990959
Si Si2 0.018001 0.616099 0.078355
Si Si3 0.950120 0.803017 0.629053
Si Si4 0.085272 0.115925 0.522366
Si Si5 0.894817 0.614659 0.644616
O O1 0.793071 0.500000 0.968771
O O2 0.885128 0.662751 0.999291
O O3 0.948899 0.647263 0.167406
O O4 0.624659 0.666886 0.827057
O O5 0.969911 0.500000 0.025830
O O6 0.209221 0.630030 0.282427
O O7 0.000000 0.668903 0.000000
O O8 0.986005 0.818093 0.596322
O O9 0.903399 0.687046 0.598221
O O10 0.790643 0.874173 0.498184
O O11 0.000000 0.156248 0.500000
O O12 0.031015 0.000000 0.461704
O O13 0.915220 0.500000 0.643471
#
# Coordination Sequence:
#
# PCOD8080922 Si02
#       5
#     8   8   8   8   8
#     4  10  18  30  48  70 100 129 159 197 241 290
#     4   9  16  26  41  66  99 129 153 187 236 289
#     4  11  20  32  52  73  97 130 167 198 242 292
#     4  10  18  29  47  73 102 127 157 196 242 294
#     4  10  21  35  49  70 100 130 165 206 239 283
#
# _framework density 16.528634
#
# number of rings (size 3 to 8) (size 9 to 14) (size 15 to 20)
#    0.000    2.000    2.000    3.600    0.000    3.200 
#    0.000    0.000    0.000    0.600    0.000    0.000 
#    0.000    3.200    0.000    0.000    0.000    0.000 
#
# Total GULP energy -247965.145215 kJ/mol
# GULP energy per Si atom -12398.257261 kJ/mol
# Density = 1.649101 g / cm^3
# Si number density = 16.528634 Si / 1000 Ang^3
#
#
#
# Elastic Constant Matrix: (Units=GPa)
#
#
# Indices 1 2 3 4 5 6 
#
# 1 92.3120 43.7631 31.4625 0.0044 -3.4319 0.0001
# 2 43.7631 55.8573 22.0111 0.0005 -9.2886 -0.0006
# 3 31.4625 22.0111 89.4652 0.0087 5.2808 0.0004
# 4 0.0044 0.0005 0.0087 15.4162 0.0020 -3.3428
# 5 -3.4319 -9.2886 5.2808 0.0020 22.7275 0.0000
# 6 0.0001 -0.0006 0.0004 -3.3428 0.0000 20.1909
#
#
#
# Elastic Compliance Matrix: (Units=1/GPa)
#
#
# Indices 1 2 3 4 5 6 
#
# 1 0.018094 -0.013349 -0.002959 -0.000003 -0.002036 -0.000001
# 2 -0.013349 0.031855 -0.003845 0.000004 0.011897 0.000002
# 3 -0.002959 -0.003845 0.013468 -0.000006 -0.005148 -0.000001
# 4 -0.000003 0.000004 -0.000006 0.067282 -0.000003 0.011139
# 5 -0.002036 0.011897 -0.005148 -0.000003 0.049750 0.000000
# 6 -0.000001 0.000002 -0.000001 0.011139 0.000000 0.051372
#
#
# Mechanical properties :
#
#
# Convention : Reuss Voigt Hill
#
# Bulk Modulus (GPa) = 43.26879 48.01200 45.64040
# Shear Modulus (GPa) = 17.86797 21.02676 19.44737
#
# Velocity S-wave (km/s) = 3.29147 3.57058 3.43386
# Velocity P-wave (km/s) = 6.37808 6.79040 6.58747
#
# Compressibility (1/GPa) = 0.02311134
#
# Stress axis : x y z
#
# Youngs Moduli (GPa) = 55.26688 31.39233 74.25073
#
# Poissons Ratio (x) = 0.41905 0.21969
# Poissons Ratio (y) = 0.73776 0.28550
# Poissons Ratio (z) = 0.16352 0.12070
#
# Static dielectric constant tensor:
#      x y z
#    x 3.198190 0.000000 0.046180 
#    y 0.000000 2.679510 -0.000020 
#    z 0.046180 -0.000020 3.268560 
# 
# 
# High freq. dielectric constant tensor:
#      x y z
#    x 1.635760 0.000000 0.005590 
#    y 0.000000 1.577670 0.000000 
#    z 0.005590 0.000000 1.658680 
# 
# From -- ./inp_files/84648.got.cif
#   From: 2010.06.25/outbox.cif.g09.slc.cpg/sg12_43_cif.got.tgz:84648.got - 2010.06.28 00:19:55.
