data_PCOD8080632
_publ_section_title
;
Structure prediction by ZEFSAII (Michael W. Deem and Ramdas Pophale) SiO2 
 PCOD8080632
Probable space group: C 2/M
;
_chemical_formula_sum "Si O2"
_cell_formula_units_Z 56
_cell_length_a 28.833071
_cell_length_b 9.158368
_cell_length_c 29.280054
_cell_angle_alpha 90.000000
_cell_angle_beta 153.810593
_cell_angle_gamma 90.000000
_cell_volume 3412.354277
_symmetry_space_group_name_H-M "C 2/M"
_symmetry_group_IT_number 12
_symmetry_cell_setting 'monoclinic'
loop_
_space_group_symop_operation_xyz
x,y,z
-x,y,-z
-x,-y,-z
x,-y,z
1/2+x,1/2+y,z
1/2-x,1/2+y,-z
1/2-x,1/2-y,-z
1/2+x,1/2-y,z
loop_
_atom_site_type_symbol
_atom_site_label
_atom_site_fract_x
_atom_site_fract_y
_atom_site_fract_z
Si Si1 0.994253 0.668204 0.380608
Si Si2 0.398408 0.670735 0.601359
Si Si3 0.134779 0.337315 0.239053
Si Si4 0.823915 0.332661 0.298545
Si Si5 0.121844 0.835546 0.568527
Si Si6 0.910346 0.828618 0.887550
Si Si7 0.836814 0.329049 0.634317
O O1 0.023799 0.500000 0.398158
O O2 0.009269 0.756276 0.346934
O O3 0.069468 0.731167 0.485710
O O4 0.873880 0.684551 0.292125
O O5 0.420611 0.500000 0.624077
O O6 0.287052 0.706324 0.479201
O O7 0.402548 0.737692 0.655604
O O8 0.088062 0.500000 0.193905
O O9 0.256387 0.338923 0.335010
O O10 0.073702 0.236544 0.149026
O O11 0.121388 0.279494 0.279079
O O12 0.833276 0.500000 0.323883
O O13 0.892074 0.231274 0.393006
O O14 0.702079 0.284823 0.189926
O O15 0.075025 0.000000 0.525343
O O16 0.923109 0.000000 0.893602
O O17 0.000000 0.764447 0.000000
O O18 0.855438 0.500000 0.642202
#
# Coordination Sequence:
#
# PCOD8080632 Si02
#       7
#     8   8   8   8   8   8   8
#     4  11  20  29  42  61  90 126 157 184 220 265
#     4  10  19  30  44  64  91 122 159 193 220 258
#     4   9  17  30  47  67  93 121 150 185 224 271
#     4   9  19  32  44  63  89 119 153 185 224 276
#     4  10  18  29  43  63  90 121 155 188 220 258
#     4   9  18  33  51  70  91 115 148 191 233 273
#     4   9  17  31  45  63  91 122 155 188 224 264
#
# _framework density 16.410957
#
# number of rings (size 3 to 8) (size 9 to 14) (size 15 to 20)
#    0.000    2.429    1.429    1.714    0.000    4.857 
#    0.000    0.000    0.000    0.000    0.000    1.000 
#    0.000    0.000    0.000    0.000    0.000    0.000 
#
# Total GULP energy -347151.530050 kJ/mol
# GULP energy per Si atom -12398.268930 kJ/mol
# Density = 1.637360 g / cm^3
# Si number density = 16.410957 Si / 1000 Ang^3
#
#
#
# Elastic Constant Matrix: (Units=GPa)
#
#
# Indices 1 2 3 4 5 6 
#
# 1 132.0017 56.9888 38.3567 0.0001 -19.5046 0.0000
# 2 56.9888 74.0241 28.6959 0.0000 -8.2306 0.0000
# 3 38.3567 28.6959 61.6564 0.0003 -17.5307 0.0002
# 4 0.0001 0.0000 0.0003 16.1809 0.0002 -5.6431
# 5 -19.5046 -8.2306 -17.5307 0.0002 18.8421 0.0001
# 6 0.0000 0.0000 0.0002 -5.6431 0.0001 30.1115
#
#
#
# Elastic Compliance Matrix: (Units=1/GPa)
#
#
# Indices 1 2 3 4 5 6 
#
# 1 0.012884 -0.008302 -0.001890 0.000000 0.007952 0.000000
# 2 -0.008302 0.021833 -0.006429 0.000000 -0.005039 0.000000
# 3 -0.001890 -0.006429 0.025878 -0.000001 0.019312 0.000000
# 4 0.000000 0.000000 -0.000001 0.066123 -0.000001 0.012392
# 5 0.007952 -0.005039 0.019312 -0.000001 0.077071 -0.000001
# 6 0.000000 0.000000 0.000000 0.012392 -0.000001 0.035532
#
#
# Mechanical properties :
#
#
# Convention : Reuss Voigt Hill
#
# Bulk Modulus (GPa) = 36.56105 57.30723 46.93414
# Shear Modulus (GPa) = 17.75054 22.60296 20.17675
#
# Velocity S-wave (km/s) = 3.29238 3.71524 3.51018
# Velocity P-wave (km/s) = 6.06464 7.30752 6.71490
#
# Compressibility (1/GPa) = 0.02735151
#
# Stress axis : x y z
#
# Youngs Moduli (GPa) = 77.61430 45.80275 38.64272
#
# Poissons Ratio (x) = 0.38026 0.07305
# Poissons Ratio (y) = 0.64437 0.24844
# Poissons Ratio (z) = 0.14672 0.29447
#
# Static dielectric constant tensor:
#      x y z
#    x 3.285900 0.000000 -0.048780 
#    y 0.000000 3.244370 0.000000 
#    z -0.048780 0.000000 2.823210 
# 
# 
# High freq. dielectric constant tensor:
#      x y z
#    x 1.636940 0.000000 -0.006000 
#    y 0.000000 1.639750 0.000000 
#    z -0.006000 0.000000 1.579290 
# 
# From -- ./inp_files/243041.got.cif
#   From: 2010.06.25/outbox.cif.g09.slc.cpg/sg12_122_cif.got.tgz:243041.got - 2010.06.28 00:19:55.
