data_PCOD8080696
_publ_section_title
;
Structure prediction by ZEFSAII (Michael W. Deem and Ramdas Pophale) SiO2 
 PCOD8080696
Probable space group: C 2/M
;
_chemical_formula_sum "Si O2"
_cell_formula_units_Z 48
_cell_length_a 22.976431
_cell_length_b 9.615529
_cell_length_c 20.639545
_cell_angle_alpha 90.000000
_cell_angle_beta 134.859843
_cell_angle_gamma 90.000000
_cell_volume 3232.218038
_symmetry_space_group_name_H-M "C 2/M"
_symmetry_group_IT_number 12
_symmetry_cell_setting 'monoclinic'
loop_
_space_group_symop_operation_xyz
x,y,z
-x,y,-z
-x,-y,-z
x,-y,z
1/2+x,1/2+y,z
1/2-x,1/2+y,-z
1/2-x,1/2-y,-z
1/2+x,1/2-y,z
loop_
_atom_site_type_symbol
_atom_site_label
_atom_site_fract_x
_atom_site_fract_y
_atom_site_fract_z
Si Si1 0.508923 0.156759 0.752500
Si Si2 0.855526 0.161244 0.636257
Si Si3 0.792363 0.840794 0.443892
Si Si4 0.188103 0.656794 0.912317
Si Si5 0.120932 0.656649 0.727403
Si Si6 0.091932 0.162540 0.584377
O O1 0.442342 0.269458 0.722093
O O2 0.592937 0.180387 0.860055
O O3 0.532819 0.174033 0.694909
O O4 0.475002 0.000000 0.737339
O O5 0.840487 0.182142 0.548425
O O6 0.785120 0.238479 0.621839
O O7 0.857383 0.000000 0.657814
O O8 0.853974 0.800532 0.435237
O O9 0.761842 0.000000 0.414234
O O10 0.214598 0.500000 0.947904
O O11 0.192095 0.684899 0.837492
O O12 0.250000 0.750000 0.000000
O O13 0.128849 0.500000 0.706349
O O14 0.131257 0.763271 0.677200
O O15 0.000000 0.218072 0.500000
O O16 0.090925 0.000000 0.598933
#
# Coordination Sequence:
#
# PCOD8080696 Si02
#       6
#     8   8   8   8   8   8
#     4   8  16  29  44  63  91 118 140 177 227 267
#     4  10  18  29  45  64  83 114 158 194 221 259
#     4   9  19  31  42  59  89 121 150 188 228 260
#     4   8  16  29  45  68  94 118 146 181 226 274
#     4   8  17  30  43  64  92 119 147 179 220 267
#     4  10  19  30  44  64  90 121 155 187 220 262
#
# _framework density 14.850484
#
# number of rings (size 3 to 8) (size 9 to 14) (size 15 to 20)
#    1.000    2.167    0.000    1.500    0.000    5.000 
#    0.000    0.000    0.000    0.000    0.000    1.167 
#    0.000    9.333    0.000    0.000    0.000    0.000 
#
# Total GULP energy -297363.593736 kJ/mol
# GULP energy per Si atom -12390.149739 kJ/mol
# Density = 1.481668 g / cm^3
# Si number density = 14.850484 Si / 1000 Ang^3
#
#
#
# Elastic Constant Matrix: (Units=GPa)
#
#
# Indices 1 2 3 4 5 6 
#
# 1 86.7559 57.3510 43.9111 0.0000 5.9959 0.0000
# 2 57.3510 98.3824 57.2218 0.0000 9.3898 0.0000
# 3 43.9111 57.2218 76.2322 0.0000 7.0235 0.0000
# 4 0.0000 0.0000 0.0000 31.0014 0.0000 1.2253
# 5 5.9959 9.3898 7.0235 0.0000 14.2441 0.0000
# 6 0.0000 0.0000 0.0000 1.2253 0.0000 22.3245
#
#
#
# Elastic Compliance Matrix: (Units=1/GPa)
#
#
# Indices 1 2 3 4 5 6 
#
# 1 0.019713 -0.008659 -0.004837 0.000000 -0.000205 0.000000
# 2 -0.008659 0.022259 -0.011214 0.000000 -0.005499 0.000000
# 3 -0.004837 -0.011214 0.024569 0.000000 -0.002686 0.000000
# 4 0.000000 0.000000 0.000000 0.032327 0.000000 -0.001774
# 5 -0.000205 -0.005499 -0.002686 0.000000 0.075241 0.000000
# 6 0.000000 0.000000 0.000000 -0.001774 0.000000 0.044891
#
#
# Mechanical properties :
#
#
# Convention : Reuss Voigt Hill
#
# Bulk Modulus (GPa) = 58.40415 64.25983 61.33199
# Shear Modulus (GPa) = 18.23985 20.37311 19.30648
#
# Velocity S-wave (km/s) = 3.50842 3.70791 3.60954
# Velocity P-wave (km/s) = 7.47164 7.85472 7.66557
#
# Compressibility (1/GPa) = 0.01712207
#
# Stress axis : x y z
#
# Youngs Moduli (GPa) = 50.72871 44.92530 40.70200
#
# Poissons Ratio (x) = 0.38899 0.19686
# Poissons Ratio (y) = 0.43924 0.45644
# Poissons Ratio (z) = 0.24535 0.50380
#
# Static dielectric constant tensor:
#      x y z
#    x 2.687740 0.000000 0.060830 
#    y 0.000000 2.843970 0.000000 
#    z 0.060830 0.000000 2.569750 
# 
# 
# High freq. dielectric constant tensor:
#      x y z
#    x 1.548200 0.000000 0.009200 
#    y 0.000000 1.576760 0.000000 
#    z 0.009200 0.000000 1.540690 
# 
# From -- ./inp_files/323422.got.cif
#   From: 2010.06.25/outbox.cif.g09.slc.cpg/sg12_162_cif.got.tgz:323422.got - 2010.06.28 00:19:55.
