data_PCOD8080945
_publ_section_title
;
Structure prediction by ZEFSAII (Michael W. Deem and Ramdas Pophale) SiO2 
 PCOD8080945
Probable space group: C 2/M
;
_chemical_formula_sum "Si O2"
_cell_formula_units_Z 64
_cell_length_a 27.466487
_cell_length_b 13.809414
_cell_length_c 8.637342
_cell_angle_alpha 90.000000
_cell_angle_beta 84.958674
_cell_angle_gamma 90.000000
_cell_volume 3263.436666
_symmetry_space_group_name_H-M "C 2/M"
_symmetry_group_IT_number 12
_symmetry_cell_setting 'monoclinic'
loop_
_space_group_symop_operation_xyz
x,y,z
-x,y,-z
-x,-y,-z
x,-y,z
1/2+x,1/2+y,z
1/2-x,1/2+y,-z
1/2-x,1/2-y,-z
1/2+x,1/2-y,z
loop_
_atom_site_type_symbol
_atom_site_label
_atom_site_fract_x
_atom_site_fract_y
_atom_site_fract_z
Si Si1 0.521242 0.701192 0.321803
Si Si2 0.782603 0.276362 0.345841
Si Si3 0.609777 0.389516 0.419930
Si Si4 0.120360 0.610922 0.639277
Si Si5 0.202657 0.887017 0.195182
Si Si6 0.831526 0.112715 0.137209
Si Si7 0.081331 0.200727 0.748171
Si Si8 0.548431 0.102702 0.384524
O O1 0.500000 0.710038 0.500000
O O2 0.564658 0.622602 0.310178
O O3 0.476321 0.674201 0.220250
O O4 0.544011 0.806309 0.268928
O O5 0.750000 0.250000 0.500000
O O6 0.823989 0.352181 0.386297
O O7 0.750644 0.326708 0.221419
O O8 0.803897 0.176275 0.273036
O O9 0.611575 0.500000 0.473715
O O10 0.659506 0.357378 0.324052
O O11 0.602464 0.323724 0.571704
O O12 0.118553 0.500000 0.702672
O O13 0.090365 0.683227 0.763615
O O14 0.096270 0.616878 0.476915
O O15 0.214455 0.000000 0.205818
O O16 0.186792 0.859777 0.026882
O O17 0.889428 0.139354 0.131375
O O18 0.823209 0.000000 0.177950
O O19 0.500000 0.096793 0.500000
O O20 0.553689 0.000000 0.291815
#
# Coordination Sequence:
#
# PCOD8080945 Si02
#       8
#     8   8   8   8   8   8   8   8
#     4   9  16  27  45  73 107 134 170 215 267 318
#     4  11  23  36  57  82 107 135 175 229 273 318
#     4  10  19  31  50  74 103 139 177 219 264 311
#     4  10  18  29  47  76 106 133 165 210 264 316
#     4  10  21  39  57  75 104 144 181 219 267 321
#     4  10  22  38  56  76 106 144 179 215 266 325
#     4  10  18  31  50  80 106 137 172 222 264 316
#     4   9  14  24  44  70 107 135 156 202 263 319
#
# _framework density 19.611229000000002
#
# number of rings (size 3 to 8) (size 9 to 14) (size 15 to 20)
#    0.000    2.125    3.750    2.625    0.000    4.750 
#    0.000    0.625    0.000    2.250    0.000    0.000 
#    0.000    5.000    0.000    0.000    0.000    0.000 
#
# Total GULP energy -396572.981057 kJ/mol
# GULP energy per Si atom -12392.905658 kJ/mol
# Density = 1.956659 g / cm^3
# Si number density = 19.611229 Si / 1000 Ang^3
#
#
#
# Elastic Constant Matrix: (Units=GPa)
#
#
# Indices 1 2 3 4 5 6 
#
# 1 138.6131 40.0623 22.7627 0.0000 33.9189 0.0000
# 2 40.0623 94.0631 23.4515 0.0000 8.5039 0.0000
# 3 22.7627 23.4515 40.2940 0.0000 17.2245 0.0000
# 4 0.0000 0.0000 0.0000 18.1166 0.0000 4.3419
# 5 33.9189 8.5039 17.2245 0.0000 22.4759 0.0000
# 6 0.0000 0.0000 0.0000 4.3419 0.0000 47.9769
#
#
#
# Elastic Compliance Matrix: (Units=1/GPa)
#
#
# Indices 1 2 3 4 5 6 
#
# 1 0.013092 -0.004771 0.004543 0.000000 -0.021434 0.000000
# 2 -0.004771 0.014198 -0.009443 0.000000 0.009065 0.000000
# 3 0.004543 -0.009443 0.043353 0.000000 -0.036507 0.000000
# 4 0.000000 0.000000 0.000000 0.056422 0.000000 -0.005106
# 5 -0.021434 0.009065 -0.036507 0.000000 0.101387 0.000000
# 6 0.000000 0.000000 0.000000 -0.005106 0.000000 0.021305
#
#
# Mechanical properties :
#
#
# Convention : Reuss Voigt Hill
#
# Bulk Modulus (GPa) = 19.49267 49.50260 34.49763
# Shear Modulus (GPa) = 17.47037 30.16013 23.81525
#
# Velocity S-wave (km/s) = 2.98792 3.92586 3.48856
# Velocity P-wave (km/s) = 4.67597 6.77101 5.81856
#
# Compressibility (1/GPa) = 0.05130134
#
# Stress axis : x y z
#
# Youngs Moduli (GPa) = 76.38144 70.43255 23.06658
#
# Poissons Ratio (x) = 0.33603 -0.10480
# Poissons Ratio (y) = 0.36442 0.21782
# Poissons Ratio (z) = -0.34703 0.66510
#
# Static dielectric constant tensor:
#      x y z
#    x 4.034900 0.000000 0.299640 
#    y 0.000000 3.950910 0.000000 
#    z 0.299640 0.000000 2.987310 
# 
# 
# High freq. dielectric constant tensor:
#      x y z
#    x 1.785150 0.000000 0.023160 
#    y 0.000000 1.779870 0.000000 
#    z 0.023160 0.000000 1.695970 
# 
# From -- ./inp_files/104569.got.cif
#   From: 2010.06.25/outbox.cif.g09.slc.cpg/sg12_53_cif.got.tgz:104569.got - 2010.06.28 00:19:55.
