data_PCOD8080312
_publ_section_title
;
Structure prediction by ZEFSAII (Michael W. Deem and Ramdas Pophale) SiO2 
 PCOD8080312
Probable space group: C 2/M
;
_chemical_formula_sum "Si O2"
_cell_formula_units_Z 56
_cell_length_a 30.550389
_cell_length_b 9.295227
_cell_length_c 16.912631
_cell_angle_alpha 90.000000
_cell_angle_beta 134.351237
_cell_angle_gamma 90.000000
_cell_volume 3434.275984
_symmetry_space_group_name_H-M "C 2/M"
_symmetry_group_IT_number 12
_symmetry_cell_setting 'monoclinic'
loop_
_space_group_symop_operation_xyz
x,y,z
-x,y,-z
-x,-y,-z
x,-y,z
1/2+x,1/2+y,z
1/2-x,1/2+y,-z
1/2-x,1/2-y,-z
1/2+x,1/2-y,z
loop_
_atom_site_type_symbol
_atom_site_label
_atom_site_fract_x
_atom_site_fract_y
_atom_site_fract_z
Si Si1 0.693931 0.829674 0.600932
Si Si2 0.972810 0.670789 0.346370
Si Si3 0.487762 0.830744 0.191008
Si Si4 0.407343 0.828800 0.413970
Si Si5 0.554189 0.668535 0.010928
Si Si6 0.170885 0.168944 0.259411
Si Si7 0.629848 0.169362 0.360731
O O1 0.656423 0.769345 0.629943
O O2 0.764355 0.780615 0.695755
O O3 0.662429 0.772628 0.481038
O O4 0.689162 0.000000 0.594470
O O5 0.976791 0.500000 0.348831
O O6 0.917952 0.722041 0.336155
O O7 0.962622 0.725871 0.244139
O O8 0.037173 0.729364 0.461588
O O9 0.558753 0.789100 0.273668
O O10 0.477925 0.000000 0.167956
O O11 0.448885 0.750208 0.075681
O O12 0.407900 0.000000 0.416714
O O13 0.547970 0.500000 0.986620
O O14 0.618673 0.710289 0.131135
O O15 0.500000 0.722000 0.000000
O O16 0.161960 0.251324 0.329355
O O17 0.169989 0.000000 0.277162
O O18 0.639031 0.000000 0.361418
#
# Coordination Sequence:
#
# PCOD8080312 Si02
#       7
#     8   8   8   8   8   8   8
#     4   9  16  27  43  65  91 117 143 176 217 263
#     4   8  13  22  39  67  95 113 132 169 223 268
#     4  10  18  28  46  70  92 112 140 180 225 263
#     4   8  12  21  40  65  93 115 133 169 220 265
#     4  10  20  33  45  59  84 120 158 188 210 243
#     4  10  20  32  45  61  86 121 156 181 209 254
#     4  10  18  28  44  68  94 114 138 177 224 266
#
# _framework density 16.306201999999999
#
# number of rings (size 3 to 8) (size 9 to 14) (size 15 to 20)
#    0.000    2.714    2.857    1.286    0.000    0.857 
#    0.000    0.000    0.000    0.857    0.000    4.000 
#    0.000    0.000    0.000    0.000    0.000    0.000 
#
# Total GULP energy -347035.164865 kJ/mol
# GULP energy per Si atom -12394.113031 kJ/mol
# Density = 1.626909 g / cm^3
# Si number density = 16.306202 Si / 1000 Ang^3
#
#
#
# Elastic Constant Matrix: (Units=GPa)
#
#
# Indices 1 2 3 4 5 6 
#
# 1 169.1001 25.0269 78.9460 0.0000 -11.8157 0.0000
# 2 25.0269 12.5378 17.1301 0.0000 -1.4576 0.0000
# 3 78.9460 17.1301 98.2161 0.0000 -4.1014 0.0000
# 4 0.0000 0.0000 0.0000 4.1526 0.0000 -0.1496
# 5 -11.8157 -1.4576 -4.1014 0.0000 29.9319 0.0000
# 6 0.0000 0.0000 0.0000 -0.1496 0.0000 11.3665
#
#
#
# Elastic Compliance Matrix: (Units=1/GPa)
#
#
# Indices 1 2 3 4 5 6 
#
# 1 0.011061 -0.012818 -0.006537 0.000000 0.002847 0.000000
# 2 -0.012818 0.119768 -0.010614 0.000000 -0.000682 0.000000
# 3 -0.006537 -0.010614 0.017256 0.000000 -0.000733 0.000000
# 4 0.000000 0.000000 0.000000 0.240929 0.000000 0.003170
# 5 0.002847 -0.000682 -0.000733 0.000000 0.034399 0.000000
# 6 0.000000 0.000000 0.000000 0.003170 0.000000 0.088019
#
#
# Mechanical properties :
#
#
# Convention : Reuss Voigt Hill
#
# Bulk Modulus (GPa) = 11.34454 58.00666 34.67560
# Shear Modulus (GPa) = 8.32287 19.67360 13.99823
#
# Velocity S-wave (km/s) = 2.26168 3.47725 2.93313
# Velocity P-wave (km/s) = 3.71383 7.19530 5.72560
#
# Compressibility (1/GPa) = 0.08814815
#
# Stress axis : x y z
#
# Youngs Moduli (GPa) = 90.40535 8.34945 57.94952
#
# Poissons Ratio (x) = 0.10702 0.37879
# Poissons Ratio (y) = 1.15882 0.61510
# Poissons Ratio (z) = 0.59094 0.08862
#
# Static dielectric constant tensor:
#      x y z
#    x 3.507990 0.000000 -0.085110 
#    y 0.000000 2.637820 0.000000 
#    z -0.085110 0.000000 3.054720 
# 
# 
# High freq. dielectric constant tensor:
#      x y z
#    x 1.635460 0.000000 -0.008970 
#    y 0.000000 1.579980 0.000000 
#    z -0.008970 0.000000 1.615210 
# 
# From -- ./inp_files/249290.got.cif
#   From: 2010.06.25/outbox.cif.g09.slc.cpg/sg12_125_cif.got.tgz:249290.got - 2010.06.28 00:19:55.
