data_PCOD8080159
_publ_section_title
;
Structure prediction by ZEFSAII (Michael W. Deem and Ramdas Pophale) SiO2 
 PCOD8080159
Probable space group: C 2/M
;
_chemical_formula_sum "Si O2"
_cell_formula_units_Z 56
_cell_length_a 9.855009
_cell_length_b 18.701024
_cell_length_c 17.614331
_cell_angle_alpha 90.000000
_cell_angle_beta 114.519535
_cell_angle_gamma 90.000000
_cell_volume 2953.547525
_symmetry_space_group_name_H-M "C 2/M"
_symmetry_group_IT_number 12
_symmetry_cell_setting 'monoclinic'
loop_
_space_group_symop_operation_xyz
x,y,z
-x,y,-z
-x,-y,-z
x,-y,z
1/2+x,1/2+y,z
1/2-x,1/2+y,-z
1/2-x,1/2-y,-z
1/2+x,1/2-y,z
loop_
_atom_site_type_symbol
_atom_site_label
_atom_site_fract_x
_atom_site_fract_y
_atom_site_fract_z
Si Si1 0.826387 0.818893 0.480188
Si Si2 0.160927 0.680441 0.004303
Si Si3 0.704932 0.183465 0.291013
Si Si4 0.112355 0.666443 0.830563
Si Si5 0.331547 0.916168 0.442890
Si Si6 0.130888 0.164718 0.819310
Si Si7 0.197792 0.851786 0.264362
O O1 0.750000 0.750000 0.500000
O O2 0.748897 0.841834 0.384383
O O3 0.794930 0.882635 0.531724
O O4 0.000000 0.805820 0.500000
O O5 0.861594 0.634706 0.078527
O O6 0.253041 0.635462 0.089601
O O7 0.250000 0.750000 0.000000
O O8 0.000000 0.703243 0.000000
O O9 0.549045 0.145593 0.237614
O O10 0.816580 0.152579 0.254331
O O11 0.704056 0.269255 0.290095
O O12 0.118308 0.751888 0.834545
O O13 0.233010 0.633797 0.801948
O O14 0.500000 0.887687 0.500000
O O15 0.288146 0.897647 0.346579
O O16 0.324955 0.000000 0.454145
O O17 0.973401 0.123996 0.785990
#
# Coordination Sequence:
#
# PCOD8080159 Si02
#       7
#     8   8   8   8   8   8   8
#     4  12  24  36  58  86 116 153 196 241 294 349
#     4  10  18  28  41  69 110 150 180 212 279 346
#     4  10  18  30  49  74 106 143 184 228 276 339
#     4   9  18  27  46  70 104 144 179 223 266 339
#     4  11  24  42  61  82 114 153 197 251 300 348
#     4   9  18  28  45  70 106 144 180 221 274 335
#     4  10  19  32  50  75 104 141 187 229 280 333
#
# _framework density 18.960251
#
# number of rings (size 3 to 8) (size 9 to 14) (size 15 to 20)
#    0.000    1.857    2.857    2.143   10.000    0.286 
#    0.000    0.000    0.000    0.000    0.000    2.000 
#    0.000    1.143    0.000    0.000    0.000    0.000 
#
# Total GULP energy -347025.018613 kJ/mol
# GULP energy per Si atom -12393.750665 kJ/mol
# Density = 1.891710 g / cm^3
# Si number density = 18.960251 Si / 1000 Ang^3
#
#
#
# Elastic Constant Matrix: (Units=GPa)
#
#
# Indices 1 2 3 4 5 6 
#
# 1 166.9200 23.2770 65.4451 0.0000 0.5257 0.0000
# 2 23.2770 32.4417 14.2725 0.0000 -2.2223 0.0000
# 3 65.4451 14.2725 172.9372 0.0000 0.1447 0.0000
# 4 0.0000 0.0000 0.0000 9.0717 0.0000 0.2338
# 5 0.5257 -2.2223 0.1447 0.0000 39.8584 0.0000
# 6 0.0000 0.0000 0.0000 0.2338 0.0000 11.6368
#
#
#
# Elastic Compliance Matrix: (Units=1/GPa)
#
#
# Indices 1 2 3 4 5 6 
#
# 1 0.007584 -0.004360 -0.002510 0.000000 -0.000334 0.000000
# 2 -0.004360 0.034621 -0.001209 0.000000 0.001992 0.000000
# 3 -0.002510 -0.001209 0.006832 0.000000 -0.000059 0.000000
# 4 0.000000 0.000000 0.000000 0.110290 0.000000 -0.002216
# 5 -0.000334 0.001992 -0.000059 0.000000 0.025205 0.000000
# 6 0.000000 0.000000 0.000000 -0.002216 0.000000 0.085979
#
#
# Mechanical properties :
#
#
# Convention : Reuss Voigt Hill
#
# Bulk Modulus (GPa) = 30.41427 64.25425 47.33426
# Shear Modulus (GPa) = 16.79943 30.06698 23.43321
#
# Velocity S-wave (km/s) = 2.97986 3.98652 3.51937
# Velocity P-wave (km/s) = 5.28350 7.42646 6.44467
#
# Compressibility (1/GPa) = 0.03287931
#
# Stress axis : x y z
#
# Youngs Moduli (GPa) = 131.85551 28.88397 146.36773
#
# Poissons Ratio (x) = 0.12594 0.36737
# Poissons Ratio (y) = 0.57492 0.17694
# Poissons Ratio (z) = 0.33095 0.03492
#
# Static dielectric constant tensor:
#      x y z
#    x 3.562930 0.000000 -0.282430 
#    y 0.000000 2.755710 0.000000 
#    z -0.282430 0.000000 3.519430 
# 
# 
# High freq. dielectric constant tensor:
#      x y z
#    x 1.757740 0.000000 -0.001020 
#    y 0.000000 1.646270 0.000000 
#    z -0.001020 0.000000 1.766390 
# 
# From -- ./inp_files/257689.got.cif
#   From: 2010.06.25/outbox.cif.g09.slc.cpg/sg12_129_cif.got.tgz:257689.got - 2010.06.28 00:19:55.
