data_PCOD8080582
_publ_section_title
;
Structure prediction by ZEFSAII (Michael W. Deem and Ramdas Pophale) SiO2 
 PCOD8080582
Probable space group: C 2/M
;
_chemical_formula_sum "Si O2"
_cell_formula_units_Z 56
_cell_length_a 20.099063
_cell_length_b 9.282304
_cell_length_c 29.224098
_cell_angle_alpha 90.000000
_cell_angle_beta 145.376467
_cell_angle_gamma 90.000000
_cell_volume 3097.847394
_symmetry_space_group_name_H-M "C 2/M"
_symmetry_group_IT_number 12
_symmetry_cell_setting 'monoclinic'
loop_
_space_group_symop_operation_xyz
x,y,z
-x,y,-z
-x,-y,-z
x,-y,z
1/2+x,1/2+y,z
1/2-x,1/2+y,-z
1/2-x,1/2-y,-z
1/2+x,1/2-y,z
loop_
_atom_site_type_symbol
_atom_site_label
_atom_site_fract_x
_atom_site_fract_y
_atom_site_fract_z
Si Si1 0.194263 0.666731 0.570265
Si Si2 0.973980 0.833064 0.839243
Si Si3 0.581790 0.169178 0.814563
Si Si4 0.787388 0.334417 0.312273
Si Si5 0.563910 0.333049 0.337773
Si Si6 0.993640 0.832277 0.591739
Si Si7 0.698423 0.663775 0.011910
O O1 0.168568 0.500000 0.545277
O O2 0.208945 0.696921 0.631851
O O3 0.311295 0.718989 0.610841
O O4 0.084582 0.757790 0.491058
O O5 0.842154 0.794281 0.779298
O O6 0.013626 0.735871 0.819164
O O7 0.978551 0.000000 0.825554
O O8 0.057626 0.807188 0.931708
O O9 0.539649 0.242230 0.744052
O O10 0.723644 0.199717 0.898859
O O11 0.553994 0.000000 0.796778
O O12 0.819011 0.500000 0.319800
O O13 0.876589 0.233385 0.335722
O O14 0.542573 0.500000 0.314245
O O15 0.563136 0.302632 0.391157
O O16 0.001549 0.000000 0.585022
O O17 0.722501 0.500000 0.012840
O O18 0.750000 0.750000 0.000000
#
# Coordination Sequence:
#
# PCOD8080582 Si02
#       7
#     8   8   8   8   8   8   8
#     4  10  20  37  58  76  97 131 177 215 250 307
#     4   9  16  31  52  73 103 141 172 201 248 307
#     4  10  18  28  48  80 108 130 165 215 258 293
#     4  10  20  35  56  77 101 138 175 207 248 305
#     4  10  21  38  55  73 102 140 175 206 253 312
#     4  11  24  37  52  76 105 135 169 215 263 304
#     4   8  15  26  44  73 105 132 163 205 251 297
#
# _framework density 18.077069000000002
#
# number of rings (size 3 to 8) (size 9 to 14) (size 15 to 20)
#    0.000    2.286    1.429    1.714    0.000    5.143 
#    0.000    0.000    0.000    0.857    0.000    6.000 
#    0.000    0.000    0.000    0.000    0.000    0.000 
#
# Total GULP energy -347041.402163 kJ/mol
# GULP energy per Si atom -12394.335792 kJ/mol
# Density = 1.803592 g / cm^3
# Si number density = 18.077069 Si / 1000 Ang^3
#
#
#
# Elastic Constant Matrix: (Units=GPa)
#
#
# Indices 1 2 3 4 5 6 
#
# 1 53.4187 20.0402 15.0135 0.0000 15.7904 0.0000
# 2 20.0402 61.8559 40.2242 0.0000 8.4684 0.0001
# 3 15.0135 40.2242 114.6030 0.0000 27.3822 0.0000
# 4 0.0000 0.0000 0.0000 28.9448 0.0000 0.2507
# 5 15.7904 8.4684 27.3822 0.0000 18.9177 0.0000
# 6 0.0000 0.0001 0.0000 0.2507 0.0000 24.3981
#
#
#
# Elastic Compliance Matrix: (Units=1/GPa)
#
#
# Indices 1 2 3 4 5 6 
#
# 1 0.029315 -0.009784 0.006716 0.000000 -0.029810 0.000000
# 2 -0.009784 0.024260 -0.010073 0.000000 0.011887 0.000000
# 3 0.006716 -0.010073 0.017799 0.000000 -0.026860 0.000000
# 4 0.000000 0.000000 0.000000 0.034552 0.000000 -0.000355
# 5 -0.029810 0.011887 -0.026860 0.000000 0.111300 0.000000
# 6 0.000000 0.000000 0.000000 -0.000355 0.000000 0.040991
#
#
# Mechanical properties :
#
#
# Convention : Reuss Voigt Hill
#
# Bulk Modulus (GPa) = 22.17693 42.27036 32.22364
# Shear Modulus (GPa) = 16.69292 24.75875 20.72583
#
# Velocity S-wave (km/s) = 3.04210 3.70486 3.38971
# Velocity P-wave (km/s) = 4.96324 6.46030 5.76061
#
# Compressibility (1/GPa) = 0.04509191
#
# Stress axis : x y z
#
# Youngs Moduli (GPa) = 34.11257 41.22091 56.18209
#
# Poissons Ratio (x) = 0.40330 -0.37734
# Poissons Ratio (y) = 0.33375 0.56594
# Poissons Ratio (z) = -0.22911 0.41523
#
# Static dielectric constant tensor:
#      x y z
#    x 3.011280 0.000000 0.227400 
#    y 0.000000 3.346000 0.000000 
#    z 0.227400 0.000000 3.941740 
# 
# 
# High freq. dielectric constant tensor:
#      x y z
#    x 1.659330 0.000000 0.014110 
#    y 0.000000 1.702120 0.000000 
#    z 0.014110 0.000000 1.721120 
# 
# From -- ./inp_files/230942.got.cif
#   From: 2010.06.25/outbox.cif.g09.slc.cpg/sg12_116_cif.got.tgz:230942.got - 2010.06.28 00:19:55.
