data_PCOD8080258
_publ_section_title
;
Structure prediction by ZEFSAII (Michael W. Deem and Ramdas Pophale) SiO2 
 PCOD8080258
Probable space group: C 2/M
;
_chemical_formula_sum "Si O2"
_cell_formula_units_Z 64
_cell_length_a 24.970905
_cell_length_b 8.912843
_cell_length_c 19.292361
_cell_angle_alpha 90.000000
_cell_angle_beta 64.233816
_cell_angle_gamma 90.000000
_cell_volume 3866.838562
_symmetry_space_group_name_H-M "C 2/M"
_symmetry_group_IT_number 12
_symmetry_cell_setting 'monoclinic'
loop_
_space_group_symop_operation_xyz
x,y,z
-x,y,-z
-x,-y,-z
x,-y,z
1/2+x,1/2+y,z
1/2-x,1/2+y,-z
1/2-x,1/2-y,-z
1/2+x,1/2-y,z
loop_
_atom_site_type_symbol
_atom_site_label
_atom_site_fract_x
_atom_site_fract_y
_atom_site_fract_z
Si Si1 0.388138 0.676614 0.584491
Si Si2 0.749905 0.676578 0.163664
Si Si3 0.806864 0.672768 0.997799
Si Si4 0.076795 0.677735 0.574472
Si Si5 0.744850 0.322977 0.319473
Si Si6 0.301027 0.177139 0.426345
Si Si7 0.632629 0.176766 0.168149
Si Si8 0.958067 0.176209 0.684268
O O1 0.390583 0.500000 0.568318
O O2 0.422604 0.759424 0.503641
O O3 0.320969 0.740137 0.626612
O O4 0.420495 0.718418 0.637506
O O5 0.733142 0.500000 0.172782
O O6 0.767305 0.731392 0.231210
O O7 0.692219 0.767761 0.172479
O O8 0.807215 0.708823 0.080600
O O9 0.794933 0.500000 0.992879
O O10 0.863470 0.716022 0.917540
O O11 0.750000 0.750000 0.000000
O O12 0.072083 0.500000 0.574423
O O13 0.135108 0.732553 0.583325
O O14 0.021364 0.743596 0.646962
O O15 0.739062 0.500000 0.322470
O O16 0.791626 0.270401 0.351700
O O17 0.250000 0.250000 0.500000
O O18 0.294754 0.000000 0.437171
O O19 0.575843 0.263855 0.228978
O O20 0.624887 0.000000 0.185722
O O21 0.967698 0.000000 0.685657
#
# Coordination Sequence:
#
# PCOD8080258 Si02
#       8
#     8   8   8   8   8   8   8   8
#     4  10  19  33  51  69  91 124 162 192 226 275
#     4   9  15  28  47  68  94 126 161 188 220 277
#     4   8  15  25  41  65  94 125 153 183 224 274
#     4  11  23  35  48  70  95 122 155 198 242 276
#     4   9  16  29  50  71  92 122 158 194 226 266
#     4  10  20  34  51  69  91 120 156 194 237 276
#     4  10  18  28  43  68 100 127 150 188 236 275
#     4  11  22  35  50  68  91 127 165 193 224 278
#
# _framework density 16.550988
#
# number of rings (size 3 to 8) (size 9 to 14) (size 15 to 20)
#    0.000    2.250    2.500    1.500    0.000    3.500 
#    0.000    0.625    0.000    0.000    0.000    0.875 
#    0.000    7.000    0.000    0.000    0.000    0.000 
#
# Total GULP energy -396545.060006 kJ/mol
# GULP energy per Si atom -12392.033125 kJ/mol
# Density = 1.651332 g / cm^3
# Si number density = 16.550988 Si / 1000 Ang^3
#
#
#
# Elastic Constant Matrix: (Units=GPa)
#
#
# Indices 1 2 3 4 5 6 
#
# 1 70.4718 26.4545 49.3537 0.0000 -7.7245 0.0002
# 2 26.4545 36.8354 32.8597 0.0000 -4.4696 0.0001
# 3 49.3537 32.8597 159.9565 0.0000 -2.4361 0.0000
# 4 0.0000 0.0000 0.0000 23.9909 0.0000 -3.6840
# 5 -7.7245 -4.4696 -2.4361 0.0000 20.3105 0.0000
# 6 0.0002 0.0001 0.0000 -3.6840 0.0000 17.2476
#
#
#
# Elastic Compliance Matrix: (Units=1/GPa)
#
#
# Indices 1 2 3 4 5 6 
#
# 1 0.022115 -0.011281 -0.004424 0.000000 0.005397 0.000000
# 2 -0.011281 0.039875 -0.004651 0.000000 0.003927 0.000000
# 3 -0.004424 -0.004651 0.008546 0.000000 -0.001681 0.000000
# 4 0.000000 0.000000 0.000000 0.043096 0.000000 0.009205
# 5 0.005397 0.003927 -0.001681 0.000000 0.051951 0.000000
# 6 0.000000 0.000000 0.000000 0.009205 0.000000 0.059945
#
#
# Mechanical properties :
#
#
# Convention : Reuss Voigt Hill
#
# Bulk Modulus (GPa) = 33.52929 53.84438 43.68683
# Shear Modulus (GPa) = 18.10404 22.88285 20.49345
#
# Velocity S-wave (km/s) = 3.31090 3.72232 3.52263
# Velocity P-wave (km/s) = 5.90917 7.14684 6.55727
#
# Compressibility (1/GPa) = 0.02982467
#
# Stress axis : x y z
#
# Youngs Moduli (GPa) = 45.21910 25.07822 117.00777
#
# Poissons Ratio (x) = 0.28291 0.51760
# Poissons Ratio (y) = 0.51012 0.54420
# Poissons Ratio (z) = 0.20003 0.11664
#
# Static dielectric constant tensor:
#      x y z
#    x 3.103220 0.000000 0.260450 
#    y 0.000000 3.034040 0.000000 
#    z 0.260450 0.000000 3.848630 
# 
# 
# High freq. dielectric constant tensor:
#      x y z
#    x 1.596310 0.000000 0.004960 
#    y 0.000000 1.632350 0.000000 
#    z 0.004960 0.000000 1.653940 
# 
# From -- ./inp_files/323642.got.cif
#   From: 2010.06.25/outbox.cif.g09.slc.cpg/sg12_162_cif.got.tgz:323642.got - 2010.06.28 00:19:55.
