data_PCOD8080730
_publ_section_title
;
Structure prediction by ZEFSAII (Michael W. Deem and Ramdas Pophale) SiO2 
 PCOD8080730
Probable space group: C 2/M
;
_chemical_formula_sum "Si O2"
_cell_formula_units_Z 64
_cell_length_a 24.161639
_cell_length_b 9.568426
_cell_length_c 18.009675
_cell_angle_alpha 90.000000
_cell_angle_beta 119.259130
_cell_angle_gamma 90.000000
_cell_volume 3632.431675
_symmetry_space_group_name_H-M "C 2/M"
_symmetry_group_IT_number 12
_symmetry_cell_setting 'monoclinic'
loop_
_space_group_symop_operation_xyz
x,y,z
-x,y,-z
-x,-y,-z
x,-y,z
1/2+x,1/2+y,z
1/2-x,1/2+y,-z
1/2-x,1/2-y,-z
1/2+x,1/2-y,z
loop_
_atom_site_type_symbol
_atom_site_label
_atom_site_fract_x
_atom_site_fract_y
_atom_site_fract_z
Si Si1 0.188752 0.341694 0.466704
Si Si2 0.602420 0.836011 0.273290
Si Si3 0.675590 0.839497 0.625299
Si Si4 0.970678 0.665566 0.250299
Si Si5 0.209416 0.839953 0.071361
Si Si6 0.842780 0.336966 0.090991
Si Si7 0.044384 0.667284 0.594921
Si Si8 0.308688 0.663845 0.769033
O O1 0.210805 0.500000 0.468992
O O2 0.250000 0.250000 0.500000
O O3 0.137132 0.297413 0.372677
O O4 0.158403 0.321111 0.527668
O O5 0.529565 0.788736 0.237308
O O6 0.631915 0.747388 0.225661
O O7 0.607784 0.000000 0.257993
O O8 0.616274 0.774731 0.630974
O O9 0.743639 0.772161 0.691152
O O10 0.682507 0.000000 0.653319
O O11 0.967680 0.500000 0.253780
O O12 0.905762 0.722565 0.171847
O O13 0.978964 0.722305 0.340074
O O14 0.165548 0.743091 0.991860
O O15 0.194792 0.000000 0.041318
O O16 0.283712 0.807298 0.106861
O O17 0.192201 0.806929 0.144390
O O18 0.849495 0.500000 0.076792
O O19 0.044545 0.500000 0.590552
O O20 0.000000 0.727513 0.500000
O O21 0.316966 0.500000 0.756029
#
# Coordination Sequence:
#
# PCOD8080730 Si02
#       8
#     8   8   8   8   8   8   8   8
#     4  10  18  29  45  67  96 128 162 198 234 276
#     4  10  20  32  47  70 100 130 163 202 237 280
#     4   9  16  26  43  67  94 123 158 196 237 284
#     4   9  17  30  47  69  99 130 160 195 241 291
#     4   9  18  32  52  77 100 121 155 202 244 288
#     4   9  17  32  54  76  98 126 155 192 247 298
#     4   9  15  24  42  69  98 125 154 195 242 282
#     4  10  19  32  49  70  97 128 160 198 242 285
#
# _framework density 17.619050999999999
#
# number of rings (size 3 to 8) (size 9 to 14) (size 15 to 20)
#    0.000    2.625    1.250    1.500    0.000    6.500 
#    0.000    1.250    0.000    3.750    0.000    1.750 
#    0.000    5.000    0.000    0.000    0.000    0.000 
#
# Total GULP energy -396720.231775 kJ/mol
# GULP energy per Si atom -12397.507243 kJ/mol
# Density = 1.757895 g / cm^3
# Si number density = 17.619051 Si / 1000 Ang^3
#
#
#
# Elastic Constant Matrix: (Units=GPa)
#
#
# Indices 1 2 3 4 5 6 
#
# 1 137.1487 35.9659 67.3209 0.0000 -0.6383 0.0000
# 2 35.9659 33.8076 37.2878 0.0000 -2.8465 0.0000
# 3 67.3209 37.2878 122.3914 0.0000 1.7110 0.0000
# 4 0.0000 0.0000 0.0000 21.5946 0.0000 -1.2349
# 5 -0.6383 -2.8465 1.7110 0.0000 29.7124 0.0000
# 6 0.0000 0.0000 0.0000 -1.2349 0.0000 21.6632
#
#
#
# Elastic Compliance Matrix: (Units=1/GPa)
#
#
# Indices 1 2 3 4 5 6 
#
# 1 0.011178 -0.007739 -0.003787 0.000000 -0.000283 0.000000
# 2 -0.007739 0.050678 -0.011257 0.000000 0.005337 0.000000
# 3 -0.003787 -0.011257 0.013710 0.000000 -0.001949 0.000000
# 4 0.000000 0.000000 0.000000 0.046459 0.000000 0.002648
# 5 -0.000283 0.005337 -0.001949 0.000000 0.034273 0.000000
# 6 0.000000 0.000000 0.000000 0.002648 0.000000 0.046312
#
#
# Mechanical properties :
#
#
# Convention : Reuss Voigt Hill
#
# Bulk Modulus (GPa) = 33.33328 63.83299 48.58314
# Shear Modulus (GPa) = 19.36647 24.77892 22.07269
#
# Velocity S-wave (km/s) = 3.31898 3.75423 3.54329
# Velocity P-wave (km/s) = 5.80064 7.42297 6.66138
#
# Compressibility (1/GPa) = 0.03000004
#
# Stress axis : x y z
#
# Youngs Moduli (GPa) = 89.45844 19.73245 72.93765
#
# Poissons Ratio (x) = 0.15271 0.27620
# Poissons Ratio (y) = 0.69234 0.82108
# Poissons Ratio (z) = 0.33876 0.22213
#
# Static dielectric constant tensor:
#      x y z
#    x 3.522560 0.000000 -0.015070 
#    y 0.000000 2.739290 0.000000 
#    z -0.015070 0.000000 3.291640 
# 
# 
# High freq. dielectric constant tensor:
#      x y z
#    x 1.687440 0.000000 -0.002020 
#    y 0.000000 1.630480 0.000000 
#    z -0.002020 0.000000 1.683520 
# 
# From -- ./inp_files/232514.got.cif
#   From: 2010.06.25/outbox.cif.g09.slc.cpg/sg12_117_cif.got.tgz:232514.got - 2010.06.28 00:19:55.
