data_PCOD8080210
_publ_section_title
;
Structure prediction by ZEFSAII (Michael W. Deem and Ramdas Pophale) SiO2 
 PCOD8080210
Probable space group: C 2/M
;
_chemical_formula_sum "Si O2"
_cell_formula_units_Z 56
_cell_length_a 29.076364
_cell_length_b 9.114022
_cell_length_c 24.608293
_cell_angle_alpha 90.000000
_cell_angle_beta 152.154437
_cell_angle_gamma 90.000000
_cell_volume 3046.015901
_symmetry_space_group_name_H-M "C 2/M"
_symmetry_group_IT_number 12
_symmetry_cell_setting 'monoclinic'
loop_
_space_group_symop_operation_xyz
x,y,z
-x,y,-z
-x,-y,-z
x,-y,z
1/2+x,1/2+y,z
1/2-x,1/2+y,-z
1/2-x,1/2-y,-z
1/2+x,1/2-y,z
loop_
_atom_site_type_symbol
_atom_site_label
_atom_site_fract_x
_atom_site_fract_y
_atom_site_fract_z
Si Si1 0.229798 0.674886 0.782005
Si Si2 0.932874 0.674032 0.309507
Si Si3 0.724222 0.826398 0.560860
Si Si4 0.442439 0.325837 0.775398
Si Si5 0.049237 0.825410 0.996016
Si Si6 0.872449 0.325468 0.431974
Si Si7 0.473147 0.826305 0.701766
O O1 0.233804 0.500000 0.783251
O O2 0.173442 0.725276 0.778510
O O3 0.167373 0.739238 0.666233
O O4 0.340266 0.738308 0.895450
O O5 0.941162 0.500000 0.317619
O O6 0.018046 0.732972 0.439317
O O7 0.951828 0.727768 0.267431
O O8 0.830559 0.765104 0.654617
O O9 0.701456 0.771824 0.598016
O O10 0.637616 0.774846 0.429969
O O11 0.728094 0.000000 0.565342
O O12 0.449608 0.500000 0.777684
O O13 0.487264 0.271989 0.879316
O O14 0.502719 0.253896 0.788564
O O15 0.051651 0.000000 0.001275
O O16 0.000000 0.763630 0.000000
O O17 0.874156 0.500000 0.430223
O O18 0.479364 0.000000 0.716558
#
# Coordination Sequence:
#
# PCOD8080210 Si02
#       7
#     8   8   8   8   8   8   8
#     4   9  14  21  35  55  81 110 137 167 205 247
#     4   8  14  23  36  56  81 108 136 168 206 245
#     4   8  14  24  39  60  85 110 134 167 210 249
#     4  10  18  28  43  62  84 110 140 170 202 244
#     4   9  17  27  39  58  83 108 134 167 207 248
#     4   8  12  19  34  57  83 107 131 164 209 252
#     4   9  17  29  43  60  84 111 139 171 207 243
#
# _framework density 18.38467
#
# number of rings (size 3 to 8) (size 9 to 14) (size 15 to 20)
#    0.000    3.286    0.000    3.429    0.000    5.143 
#    0.000    0.714    0.000    0.429    0.000    0.000 
#    0.000   11.429    0.000    0.000    0.000    0.000 
#
# Total GULP energy -346929.458691 kJ/mol
# GULP energy per Si atom -12390.337810 kJ/mol
# Density = 1.834283 g / cm^3
# Si number density = 18.384670 Si / 1000 Ang^3
#
#
#
# Elastic Constant Matrix: (Units=GPa)
#
#
# Indices 1 2 3 4 5 6 
#
# 1 176.1771 18.4064 82.4773 0.0000 -1.7326 0.0000
# 2 18.4064 8.2822 12.0344 0.0000 -3.5868 0.0000
# 3 82.4773 12.0344 86.4020 0.0000 2.8880 0.0000
# 4 0.0000 0.0000 0.0000 6.2224 0.0000 -3.3447
# 5 -1.7326 -3.5868 2.8880 0.0000 35.3370 0.0000
# 6 0.0000 0.0000 0.0000 -3.3447 0.0000 16.4910
#
#
#
# Elastic Compliance Matrix: (Units=1/GPa)
#
#
# Indices 1 2 3 4 5 6 
#
# 1 0.011087 -0.011548 -0.008978 0.000000 0.000105 0.000000
# 2 -0.011548 0.174512 -0.013894 0.000000 0.018283 0.000000
# 3 -0.008978 -0.013894 0.022202 0.000000 -0.003665 0.000000
# 4 0.000000 0.000000 0.000000 0.180373 0.000000 0.036583
# 5 0.000105 0.018283 -0.003665 0.000000 0.030459 0.000000
# 6 0.000000 0.000000 0.000000 0.036583 0.000000 0.068059
#
#
# Mechanical properties :
#
#
# Convention : Reuss Voigt Hill
#
# Bulk Modulus (GPa) = 7.19634 55.18863 31.19249
# Shear Modulus (GPa) = 8.30767 22.13965 15.22366
#
# Velocity S-wave (km/s) = 2.12805 3.47399 2.88073
# Velocity P-wave (km/s) = 3.15610 6.79525 5.29794
#
# Compressibility (1/GPa) = 0.13895950
#
# Stress axis : x y z
#
# Youngs Moduli (GPa) = 90.19706 5.73027 45.04097
#
# Poissons Ratio (x) = 0.06617 0.40439
# Poissons Ratio (y) = 1.04160 0.62581
# Poissons Ratio (z) = 0.80982 0.07962
#
# Static dielectric constant tensor:
#      x y z
#    x 3.750110 0.000000 0.121330 
#    y 0.000000 2.539490 0.000000 
#    z 0.121330 0.000000 3.488420 
# 
# 
# High freq. dielectric constant tensor:
#      x y z
#    x 1.733690 0.000000 0.001150 
#    y 0.000000 1.621470 0.000000 
#    z 0.001150 0.000000 1.700770 
# 
# From -- ./inp_files/324741.got.cif
#   From: 2010.06.25/outbox.cif.g09.slc.cpg/sg12_163_cif.got.tgz:324741.got - 2010.06.28 00:19:55.
