data_PCOD8080009
_publ_section_title
;
Structure prediction by ZEFSAII (Michael W. Deem and Ramdas Pophale) SiO2 
 PCOD8080009
Probable space group: C 2/M
;
_chemical_formula_sum "Si O2"
_cell_formula_units_Z 56
_cell_length_a 23.695300
_cell_length_b 9.041742
_cell_length_c 19.620654
_cell_angle_alpha 90.000000
_cell_angle_beta 52.373102
_cell_angle_gamma 90.000000
_cell_volume 3329.313508
_symmetry_space_group_name_H-M "C 2/M"
_symmetry_group_IT_number 12
_symmetry_cell_setting 'monoclinic'
loop_
_space_group_symop_operation_xyz
x,y,z
-x,y,-z
-x,-y,-z
x,-y,z
1/2+x,1/2+y,z
1/2-x,1/2+y,-z
1/2-x,1/2-y,-z
1/2+x,1/2-y,z
loop_
_atom_site_type_symbol
_atom_site_label
_atom_site_fract_x
_atom_site_fract_y
_atom_site_fract_z
Si Si1 0.799405 0.824738 0.662462
Si Si2 0.950369 0.823519 0.598180
Si Si3 0.353000 0.825187 0.175456
Si Si4 0.429363 0.662937 0.007610
Si Si5 0.537497 0.324578 0.660746
Si Si6 0.470592 0.675594 0.180176
Si Si7 0.190905 0.824529 0.498462
O O1 0.869766 0.762983 0.648778
O O2 0.727950 0.771107 0.753041
O O3 0.799097 0.766205 0.585562
O O4 0.803021 0.000000 0.658830
O O5 0.000000 0.764438 0.500000
O O6 0.979935 0.763335 0.648761
O O7 0.951688 0.000000 0.596017
O O8 0.374123 0.775391 0.083243
O O9 0.402492 0.752834 0.196413
O O10 0.360950 0.000000 0.175399
O O11 0.393860 0.500000 0.029357
O O12 0.500000 0.653208 0.000000
O O13 0.455707 0.717450 0.913518
O O14 0.535632 0.500000 0.661479
O O15 0.520296 0.266288 0.749372
O O16 0.614972 0.268469 0.581473
O O17 0.457193 0.500000 0.186170
O O18 0.250000 0.750000 0.500000
O O19 0.198122 0.000000 0.498017
#
# Coordination Sequence:
#
# PCOD8080009 Si02
#       7
#     8   8   8   8   8   8   8
#     4   9  17  27  40  63  93 116 140 180 222 255
#     4   9  14  25  44  64  86 114 148 186 221 247
#     4  10  18  27  42  66  93 118 144 175 216 267
#     4   8  15  28  44  61  86 117 146 180 217 254
#     4   9  16  26  44  66  86 112 148 183 214 255
#     4   9  17  29  44  66  92 114 143 182 219 258
#     4  10  18  28  42  64  92 117 140 170 213 263
#
# _framework density 16.820284000000001
#
# number of rings (size 3 to 8) (size 9 to 14) (size 15 to 20)
#    0.000    2.857    1.429    2.143    0.000    2.571 
#    0.000    0.714    0.000    0.857    0.000    7.000 
#    0.000    0.000    0.000    0.000    0.000    1.429 
#
# Total GULP energy -347033.751044 kJ/mol
# GULP energy per Si atom -12394.062537 kJ/mol
# Density = 1.678200 g / cm^3
# Si number density = 16.820284 Si / 1000 Ang^3
#
#
#
# Elastic Constant Matrix: (Units=GPa)
#
#
# Indices 1 2 3 4 5 6 
#
# 1 136.8619 24.9882 84.7521 -0.0001 -2.3188 0.0000
# 2 24.9882 27.3397 30.3983 -0.0007 -0.8954 0.0000
# 3 84.7521 30.3983 170.1441 0.0000 3.0407 0.0000
# 4 -0.0001 -0.0007 0.0000 17.3442 0.0000 -0.0256
# 5 -2.3188 -0.8954 3.0407 0.0000 17.0561 0.0000
# 6 0.0000 0.0000 0.0000 -0.0256 0.0000 13.8859
#
#
#
# Elastic Compliance Matrix: (Units=1/GPa)
#
#
# Indices 1 2 3 4 5 6 
#
# 1 0.011158 -0.004877 -0.004724 0.000000 0.002103 0.000000
# 2 -0.004877 0.048030 -0.006205 0.000002 0.002965 0.000000
# 3 -0.004724 -0.006205 0.009387 0.000000 -0.002641 0.000000
# 4 0.000000 0.000002 0.000000 0.057656 0.000000 0.000106
# 5 0.002103 0.002965 -0.002641 0.000000 0.059542 0.000000
# 6 0.000000 0.000000 0.000000 0.000106 0.000000 0.072016
#
#
# Mechanical properties :
#
#
# Convention : Reuss Voigt Hill
#
# Bulk Modulus (GPa) = 27.05415 68.29142 47.67279
# Shear Modulus (GPa) = 16.57149 22.60439 19.58794
#
# Velocity S-wave (km/s) = 3.14221 3.66987 3.41624
# Velocity P-wave (km/s) = 5.41145 7.65807 6.63060
#
# Compressibility (1/GPa) = 0.03696290
#
# Stress axis : x y z
#
# Youngs Moduli (GPa) = 89.61944 20.82013 106.53555
#
# Poissons Ratio (x) = 0.10153 0.50332
# Poissons Ratio (y) = 0.43704 0.66106
# Poissons Ratio (z) = 0.42340 0.12919
#
# Static dielectric constant tensor:
#      x y z
#    x 3.221320 0.000000 0.112820 
#    y 0.000000 2.756030 0.000000 
#    z 0.112820 0.000000 3.644680 
# 
# 
# High freq. dielectric constant tensor:
#      x y z
#    x 1.629900 0.000000 0.003890 
#    y 0.000000 1.604600 0.000000 
#    z 0.003890 0.000000 1.660830 
# 
# From -- ./inp_files/323569.got.cif
#   From: 2010.06.25/outbox.cif.g09.slc.cpg/sg12_162_cif.got.tgz:323569.got - 2010.06.28 00:19:55.
