data_PCOD8080579
_publ_section_title
;
Structure prediction by ZEFSAII (Michael W. Deem and Ramdas Pophale) SiO2 
 PCOD8080579
Probable space group: C 2/M
;
_chemical_formula_sum "Si O2"
_cell_formula_units_Z 56
_cell_length_a 26.515312
_cell_length_b 8.849843
_cell_length_c 13.516564
_cell_angle_alpha 90.000000
_cell_angle_beta 60.059493
_cell_angle_gamma 90.000000
_cell_volume 2748.459161
_symmetry_space_group_name_H-M "C 2/M"
_symmetry_group_IT_number 12
_symmetry_cell_setting 'monoclinic'
loop_
_space_group_symop_operation_xyz
x,y,z
-x,y,-z
-x,-y,-z
x,-y,z
1/2+x,1/2+y,z
1/2-x,1/2+y,-z
1/2-x,1/2-y,-z
1/2+x,1/2-y,z
loop_
_atom_site_type_symbol
_atom_site_label
_atom_site_fract_x
_atom_site_fract_y
_atom_site_fract_z
Si Si1 0.908886 0.321826 0.742020
Si Si2 0.988308 0.175698 0.269492
Si Si3 0.919962 0.175536 0.534685
Si Si4 0.612730 0.171533 0.728922
Si Si5 0.681052 0.826268 0.463884
Si Si6 0.778948 0.675897 0.267267
Si Si7 0.218142 0.821103 0.123682
O O1 0.901322 0.500000 0.754968
O O2 0.941384 0.269505 0.609054
O O3 0.846518 0.243867 0.808095
O O4 0.950408 0.265678 0.791662
O O5 0.956841 0.218623 0.402656
O O6 0.945159 0.225953 0.222680
O O7 0.001345 0.000000 0.245415
O O8 0.853439 0.220813 0.580083
O O9 0.925110 0.000000 0.556697
O O10 0.658372 0.202128 0.596000
O O11 0.651137 0.207500 0.789722
O O12 0.590276 0.000000 0.749669
O O13 0.747327 0.773353 0.384181
O O14 0.673304 0.000000 0.440194
O O15 0.766853 0.500000 0.300622
O O16 0.756813 0.724990 0.180995
O O17 0.214409 0.000000 0.115929
O O18 0.250000 0.750000 0.000000
#
# Coordination Sequence:
#
# PCOD8080579 Si02
#       7
#     8   8   8   8   8   8   8
#     4  12  23  36  57  82 111 147 188 236 286 336
#     4  10  21  35  53  80 115 155 192 227 273 332
#     4  10  19  32  50  76 113 153 192 229 275 333
#     4   9  19  34  51  79 115 152 190 226 269 330
#     4  10  18  28  48  78 113 149 190 230 269 326
#     4  10  20  35  56  78 110 150 185 229 286 337
#     4  11  24  42  63  86 112 144 187 239 292 342
#
# _framework density 20.375052
#
# number of rings (size 3 to 8) (size 9 to 14) (size 15 to 20)
#    0.000    1.714    1.429    3.857    0.000    5.143 
#    0.000    0.000    0.000    0.857    0.000    6.000 
#    0.000    0.000    0.000    0.000    0.000    0.000 
#
# Total GULP energy -347120.142681 kJ/mol
# GULP energy per Si atom -12397.147953 kJ/mol
# Density = 2.032868 g / cm^3
# Si number density = 20.375052 Si / 1000 Ang^3
#
#
#
# Elastic Constant Matrix: (Units=GPa)
#
#
# Indices 1 2 3 4 5 6 
#
# 1 172.6400 58.3268 28.0747 0.0000 -1.2337 0.0000
# 2 58.3268 92.5569 24.1887 0.0000 -0.9466 0.0000
# 3 28.0747 24.1887 37.3718 0.0000 2.5426 0.0000
# 4 0.0000 0.0000 0.0000 23.2607 0.0000 -3.5084
# 5 -1.2337 -0.9466 2.5426 0.0000 11.0785 0.0000
# 6 0.0000 0.0000 0.0000 -3.5084 0.0000 33.4404
#
#
#
# Elastic Compliance Matrix: (Units=1/GPa)
#
#
# Indices 1 2 3 4 5 6 
#
# 1 0.007675 -0.003965 -0.003286 0.000000 0.001270 0.000000
# 2 -0.003965 0.015157 -0.006999 0.000000 0.002460 0.000000
# 3 -0.003286 -0.006999 0.034359 0.000000 -0.008850 0.000000
# 4 0.000000 0.000000 0.000000 0.043682 0.000000 0.004583
# 5 0.001270 0.002460 -0.008850 0.000000 0.092648 0.000000
# 6 0.000000 0.000000 0.000000 0.004583 0.000000 0.030385
#
#
# Mechanical properties :
#
#
# Convention : Reuss Voigt Hill
#
# Bulk Modulus (GPa) = 34.85399 58.19435 46.52417
# Shear Modulus (GPa) = 19.08611 26.35447 22.72029
#
# Velocity S-wave (km/s) = 3.06394 3.60038 3.34294
# Velocity P-wave (km/s) = 5.44613 6.77549 6.14685
#
# Compressibility (1/GPa) = 0.02869112
#
# Stress axis : x y z
#
# Youngs Moduli (GPa) = 130.28510 65.97556 29.10456
#
# Poissons Ratio (x) = 0.26160 0.09564
# Poissons Ratio (y) = 0.51659 0.20370
# Poissons Ratio (z) = 0.42812 0.46176
#
# Static dielectric constant tensor:
#      x y z
#    x 4.108340 0.000000 -0.011490 
#    y 0.000000 3.636440 0.000000 
#    z -0.011490 0.000000 3.039660 
# 
# 
# High freq. dielectric constant tensor:
#      x y z
#    x 1.821700 0.000000 -0.002870 
#    y 0.000000 1.797890 0.000000 
#    z -0.002870 0.000000 1.738620 
# 
# From -- ./inp_files/243626.got.cif
#   From: 2010.06.25/outbox.cif.g09.slc.cpg/sg12_122_cif.got.tgz:243626.got - 2010.06.28 00:19:55.
