data_PCOD8080776
_publ_section_title
;
Structure prediction by ZEFSAII (Michael W. Deem and Ramdas Pophale) SiO2 
 PCOD8080776
Probable space group: C 2/M
;
_chemical_formula_sum "Si O2"
_cell_formula_units_Z 64
_cell_length_a 22.557342
_cell_length_b 8.978486
_cell_length_c 20.879910
_cell_angle_alpha 90.000000
_cell_angle_beta 115.588598
_cell_angle_gamma 90.000000
_cell_volume 3814.054978
_symmetry_space_group_name_H-M "C 2/M"
_symmetry_group_IT_number 12
_symmetry_cell_setting 'monoclinic'
loop_
_space_group_symop_operation_xyz
x,y,z
-x,y,-z
-x,-y,-z
x,-y,z
1/2+x,1/2+y,z
1/2-x,1/2+y,-z
1/2-x,1/2-y,-z
1/2+x,1/2-y,z
loop_
_atom_site_type_symbol
_atom_site_label
_atom_site_fract_x
_atom_site_fract_y
_atom_site_fract_z
Si Si1 0.603149 0.174988 0.705612
Si Si2 0.731235 0.826265 0.392088
Si Si3 0.150602 0.826485 0.459654
Si Si4 0.315527 0.324575 0.005489
Si Si5 0.254035 0.177031 0.269807
Si Si6 0.788027 0.330828 0.871439
Si Si7 0.018065 0.672437 0.435077
Si Si8 0.137086 0.165628 0.841422
O O1 0.671242 0.234444 0.706845
O O2 0.542479 0.233642 0.635447
O O3 0.595414 0.226923 0.775827
O O4 0.603837 0.000000 0.705336
O O5 0.800113 0.793219 0.458993
O O6 0.671539 0.767506 0.407489
O O7 0.729045 0.736335 0.325524
O O8 0.721051 0.000000 0.373623
O O9 0.079300 0.775249 0.447849
O O10 0.150565 0.000000 0.441694
O O11 0.303701 0.500000 0.990374
O O12 0.334615 0.249585 0.946358
O O13 0.250000 0.250000 0.000000
O O14 0.371167 0.295574 0.086545
O O15 0.206264 0.243742 0.192996
O O16 0.249585 0.000000 0.265999
O O17 0.812020 0.500000 0.873447
O O18 0.713737 0.322422 0.861036
O O19 0.034377 0.500000 0.427650
O O20 0.000000 0.693962 0.500000
O O21 0.111081 0.000000 0.815790
#
# Coordination Sequence:
#
# PCOD8080776 Si02
#       8
#     8   8   8   8   8   8   8   8
#     4   9  18  29  43  64  89 120 155 188 225 271
#     4  10  20  34  51  69  91 118 149 188 231 274
#     4  10  21  35  51  71  91 116 152 190 229 272
#     4   9  15  23  35  53  78 112 151 186 224 268
#     4  10  18  29  46  67  92 122 155 189 225 269
#     4   9  16  25  37  57  85 116 149 185 225 268
#     4  10  20  34  50  68  93 123 153 187 228 272
#     4   8  15  25  37  54  80 114 149 186 224 263
#
# _framework density 16.780041000000001
#
# number of rings (size 3 to 8) (size 9 to 14) (size 15 to 20)
#    0.000    2.625    0.000    3.375    0.000    7.250 
#    0.000    0.000    0.000    0.000    0.000    0.000 
#    0.000    1.000    0.000   10.500    0.000    8.250 
#
# Total GULP energy -396682.310310 kJ/mol
# GULP energy per Si atom -12396.322197 kJ/mol
# Density = 1.674185 g / cm^3
# Si number density = 16.780041 Si / 1000 Ang^3
#
#
#
# Elastic Constant Matrix: (Units=GPa)
#
#
# Indices 1 2 3 4 5 6 
#
# 1 42.7062 19.9683 28.7749 0.0000 -7.7086 0.0000
# 2 19.9683 69.4648 40.5299 0.0000 -10.9567 0.0000
# 3 28.7749 40.5299 121.9107 0.0000 -19.4408 0.0000
# 4 0.0000 0.0000 0.0000 33.2911 0.0000 -5.8509
# 5 -7.7086 -10.9567 -19.4408 0.0000 18.5035 0.0000
# 6 0.0000 0.0000 0.0000 -5.8509 0.0000 20.7486
#
#
#
# Elastic Compliance Matrix: (Units=1/GPa)
#
#
# Indices 1 2 3 4 5 6 
#
# 1 0.029731 -0.005161 -0.004581 0.000000 0.004517 0.000000
# 2 -0.005161 0.019184 -0.004434 0.000000 0.004551 0.000000
# 3 -0.004581 -0.004434 0.012055 0.000000 0.008131 0.000000
# 4 0.000000 0.000000 0.000000 0.031604 0.000000 0.008912
# 5 0.004517 0.004551 0.008131 0.000000 0.067164 0.000000
# 6 0.000000 0.000000 0.000000 0.008912 0.000000 0.050709
#
#
# Mechanical properties :
#
#
# Convention : Reuss Voigt Hill
#
# Bulk Modulus (GPa) = 30.65848 45.84753 38.25301
# Shear Modulus (GPa) = 20.02621 24.16256 22.09438
#
# Velocity S-wave (km/s) = 3.45839 3.79879 3.63258
# Velocity P-wave (km/s) = 5.85301 6.82811 6.35928
#
# Compressibility (1/GPa) = 0.03261740
#
# Stress axis : x y z
#
# Youngs Moduli (GPa) = 33.63474 52.12602 82.95383
#
# Poissons Ratio (x) = 0.26902 0.38005
# Poissons Ratio (y) = 0.17359 0.36782
# Poissons Ratio (z) = 0.15410 0.23113
#
# Static dielectric constant tensor:
#      x y z
#    x 2.698970 0.000000 -0.106510 
#    y 0.000000 3.222350 0.000000 
#    z -0.106510 0.000000 3.374370 
# 
# 
# High freq. dielectric constant tensor:
#      x y z
#    x 1.584000 0.000000 -0.019400 
#    y 0.000000 1.657240 0.000000 
#    z -0.019400 0.000000 1.661180 
# 
# From -- ./inp_files/323794.got.cif
#   From: 2010.06.25/outbox.cif.g09.slc.cpg/sg12_162_cif.got.tgz:323794.got - 2010.06.28 00:19:55.
