data_PCOD8080080
_publ_section_title
;
Structure prediction by ZEFSAII (Michael W. Deem and Ramdas Pophale) SiO2 
 PCOD8080080
Probable space group: C 2/M
;
_chemical_formula_sum "Si O2"
_cell_formula_units_Z 64
_cell_length_a 14.009858
_cell_length_b 19.064430
_cell_length_c 14.222275
_cell_angle_alpha 90.000000
_cell_angle_beta 106.568628
_cell_angle_gamma 90.000000
_cell_volume 3640.903497
_symmetry_space_group_name_H-M "C 2/M"
_symmetry_group_IT_number 12
_symmetry_cell_setting 'monoclinic'
loop_
_space_group_symop_operation_xyz
x,y,z
-x,y,-z
-x,-y,-z
x,-y,z
1/2+x,1/2+y,z
1/2-x,1/2+y,-z
1/2-x,1/2-y,-z
1/2+x,1/2-y,z
loop_
_atom_site_type_symbol
_atom_site_label
_atom_site_fract_x
_atom_site_fract_y
_atom_site_fract_z
Si Si1 0.599320 0.795649 0.416531
Si Si2 0.950041 0.921456 0.701858
Si Si3 0.888436 0.917411 0.989688
Si Si4 0.368759 0.814794 0.363748
Si Si5 0.772916 0.916738 0.775304
Si Si6 0.257654 0.669822 0.318621
Si Si7 0.337124 0.583455 0.183008
Si Si8 0.101671 0.851051 0.486164
O O1 0.482374 0.802840 0.365281
O O2 0.634420 0.832319 0.524831
O O3 0.649431 0.827838 0.336983
O O4 0.638532 0.714922 0.434028
O O5 0.864516 0.886075 0.739814
O O6 0.918014 0.918473 0.584028
O O7 0.058367 0.887951 0.745284
O O8 0.959917 0.000000 0.741646
O O9 0.804561 0.895932 0.890079
O O10 0.903002 0.000000 0.995347
O O11 0.840860 0.893032 0.075299
O O12 0.000000 0.885484 0.000000
O O13 0.326717 0.879061 0.289590
O O14 0.305043 0.746395 0.318766
O O15 0.756442 0.000000 0.758814
O O16 0.253639 0.626826 0.218668
O O17 0.324293 0.625483 0.411285
O O18 0.318928 0.500000 0.190187
O O19 0.000000 0.820545 0.500000
#
# Coordination Sequence:
#
# PCOD8080080 Si02
#       8
#     8   8   8   8   8   8   8   8
#     4  10  19  34  51  70 100 139 173 207 246 296
#     4  10  18  27  44  74 108 130 157 202 254 303
#     4   9  16  31  53  76 104 133 162 201 255 314
#     4  10  19  35  53  74  99 133 177 212 245 295
#     4  10  19  32  53  77  98 130 171 215 255 293
#     4  11  20  32  51  73 103 138 170 204 251 302
#     4  10  19  31  48  75 106 133 163 202 253 309
#     4  11  17  30  48  72  99 135 171 197 242 304
#
# _framework density 17.578054999999999
#
# number of rings (size 3 to 8) (size 9 to 14) (size 15 to 20)
#    0.000    1.875    5.000    3.000    0.000    0.750 
#    0.000    3.125    0.000    0.750    0.000    2.625 
#    0.000    0.000    0.000    0.000    0.000    0.000 
#
# Total GULP energy -396481.850567 kJ/mol
# GULP energy per Si atom -12390.057830 kJ/mol
# Density = 1.753805 g / cm^3
# Si number density = 17.578055 Si / 1000 Ang^3
#
#
#
# Elastic Constant Matrix: (Units=GPa)
#
#
# Indices 1 2 3 4 5 6 
#
# 1 90.4894 27.0417 44.7577 0.0000 -17.2016 0.0000
# 2 27.0417 43.7507 37.8952 0.0000 -4.8561 0.0000
# 3 44.7577 37.8952 111.6895 0.0000 -14.8421 0.0000
# 4 0.0000 0.0000 0.0000 18.5177 0.0000 -1.2942
# 5 -17.2016 -4.8561 -14.8421 0.0000 30.8460 0.0000
# 6 0.0000 0.0000 0.0000 -1.2942 0.0000 19.3486
#
#
#
# Elastic Compliance Matrix: (Units=1/GPa)
#
#
# Indices 1 2 3 4 5 6 
#
# 1 0.015732 -0.006073 -0.003424 0.000000 0.006170 0.000000
# 2 -0.006073 0.034715 -0.009688 0.000000 -0.002583 0.000000
# 3 -0.003424 -0.009688 0.014055 0.000000 0.003328 0.000000
# 4 0.000000 0.000000 0.000000 0.054256 0.000000 0.003629
# 5 0.006170 -0.002583 0.003328 0.000000 0.037054 0.000000
# 6 0.000000 0.000000 0.000000 0.003629 0.000000 0.051926
#
#
# Mechanical properties :
#
#
# Convention : Reuss Voigt Hill
#
# Bulk Modulus (GPa) = 38.26775 51.70210 44.98493
# Shear Modulus (GPa) = 19.62165 22.82481 21.22323
#
# Velocity S-wave (km/s) = 3.34467 3.60736 3.47849
# Velocity P-wave (km/s) = 6.06079 6.84306 6.46377
#
# Compressibility (1/GPa) = 0.02613166
#
# Stress axis : x y z
#
# Youngs Moduli (GPa) = 63.56313 28.80562 71.15001
#
# Poissons Ratio (x) = 0.17495 0.24361
# Poissons Ratio (y) = 0.38605 0.68931
# Poissons Ratio (z) = 0.21764 0.27907
#
# Static dielectric constant tensor:
#      x y z
#    x 3.243300 0.000000 -0.109330 
#    y 0.000000 2.906630 0.000000 
#    z -0.109330 0.000000 3.342150 
# 
# 
# High freq. dielectric constant tensor:
#      x y z
#    x 1.671370 0.000000 -0.012180 
#    y 0.000000 1.640300 0.000000 
#    z -0.012180 0.000000 1.674250 
# 
# From -- ./inp_files/215957.got.cif
#   From: 2010.06.25/outbox.cif.g09.slc.cpg/sg12_108_cif.got.tgz:215957.got - 2010.06.28 00:19:55.
