data_PCOD8080094
_publ_section_title
;
Structure prediction by ZEFSAII (Michael W. Deem and Ramdas Pophale) SiO2 
 PCOD8080094
Probable space group: C 2/M
;
_chemical_formula_sum "Si O2"
_cell_formula_units_Z 64
_cell_length_a 19.633955
_cell_length_b 19.481564
_cell_length_c 17.466430
_cell_angle_alpha 90.000000
_cell_angle_beta 145.915833
_cell_angle_gamma 90.000000
_cell_volume 3744.050949
_symmetry_space_group_name_H-M "C 2/M"
_symmetry_group_IT_number 12
_symmetry_cell_setting 'monoclinic'
loop_
_space_group_symop_operation_xyz
x,y,z
-x,y,-z
-x,-y,-z
x,-y,z
1/2+x,1/2+y,z
1/2-x,1/2+y,-z
1/2-x,1/2-y,-z
1/2+x,1/2-y,z
loop_
_atom_site_type_symbol
_atom_site_label
_atom_site_fract_x
_atom_site_fract_y
_atom_site_fract_z
Si Si1 0.993230 0.081770 0.405308
Si Si2 0.235726 0.923814 0.323720
Si Si3 0.379088 0.681898 0.584058
Si Si4 0.401340 0.080630 0.181893
Si Si5 0.489845 0.390802 0.168880
Si Si6 0.302093 0.574461 0.115105
Si Si7 0.368818 0.834467 0.565828
Si Si8 0.705510 0.419875 0.123582
O O1 0.096228 0.123820 0.456553
O O2 0.000000 0.101699 0.500000
O O3 0.862276 0.107220 0.247814
O O4 0.011948 0.000000 0.409973
O O5 0.329647 0.874204 0.453156
O O6 0.218546 0.894158 0.222484
O O7 0.107988 0.930468 0.248733
O O8 0.293424 0.000000 0.374139
O O9 0.462204 0.675054 0.738365
O O10 0.407365 0.757493 0.577280
O O11 0.237866 0.671391 0.471509
O O12 0.522675 0.124829 0.292461
O O13 0.333162 0.091179 0.199268
O O14 0.430404 0.000000 0.196644
O O15 0.313891 0.111362 0.032190
O O16 0.409760 0.435815 0.152792
O O17 0.401689 0.373954 0.014881
O O18 0.254144 0.500000 0.093876
O O19 0.665844 0.500000 0.083483
#
# Coordination Sequence:
#
# PCOD8080094 Si02
#       8
#     8   8   8   8   8   8   8   8
#     4   9  17  32  55  78  96 115 151 210 265 297
#     4  10  18  27  45  71  98 130 166 197 231 281
#     4   9  20  35  50  69  93 125 161 208 241 285
#     4   9  17  30  48  69  98 132 163 193 229 281
#     4   9  15  27  47  67  91 124 159 201 246 278
#     4   8  14  26  46  72  97 119 151 199 247 283
#     4  10  20  34  48  64  97 135 167 195 234 279
#     4   9  17  28  43  71 104 125 151 199 244 281
#
# _framework density 17.093785
#
# number of rings (size 3 to 8) (size 9 to 14) (size 15 to 20)
#    0.000    2.875    0.000    2.625    0.000    5.500 
#    2.250    7.500    0.000    0.750    0.000    3.500 
#    0.000    0.000    0.000    0.000    0.000    0.000 
#
# Total GULP energy -396420.490459 kJ/mol
# GULP energy per Si atom -12388.140327 kJ/mol
# Density = 1.705488 g / cm^3
# Si number density = 17.093785 Si / 1000 Ang^3
#
#
#
# Elastic Constant Matrix: (Units=GPa)
#
#
# Indices 1 2 3 4 5 6 
#
# 1 58.0327 32.9519 57.4783 -0.0002 -15.5025 -0.0001
# 2 32.9519 78.3436 50.8280 -0.0002 -3.7974 -0.0001
# 3 57.4783 50.8280 143.3398 -0.0005 -12.7154 -0.0003
# 4 -0.0002 -0.0002 -0.0005 12.5513 -0.0003 3.1503
# 5 -15.5025 -3.7974 -12.7154 -0.0003 31.7905 -0.0002
# 6 -0.0001 -0.0001 -0.0003 3.1503 -0.0002 17.2733
#
#
#
# Elastic Compliance Matrix: (Units=1/GPa)
#
#
# Indices 1 2 3 4 5 6 
#
# 1 0.034804 -0.007394 -0.010271 0.000000 0.011980 0.000000
# 2 -0.007394 0.018154 -0.003732 0.000000 -0.002930 0.000000
# 3 -0.010271 -0.003732 0.012374 0.000000 -0.000505 0.000000
# 4 0.000000 0.000000 0.000000 0.083495 0.000001 -0.015228
# 5 0.011980 -0.002930 -0.000505 0.000001 0.036746 0.000000
# 6 0.000000 0.000000 0.000000 -0.015228 0.000000 0.060670
#
#
# Mechanical properties :
#
#
# Convention : Reuss Voigt Hill
#
# Bulk Modulus (GPa) = 44.37374 62.47027 53.42201
# Shear Modulus (GPa) = 16.86059 21.55355 19.20707
#
# Velocity S-wave (km/s) = 3.14404 3.55477 3.35569
# Velocity P-wave (km/s) = 6.26062 7.31255 6.80694
#
# Compressibility (1/GPa) = 0.02253585
#
# Stress axis : x y z
#
# Youngs Moduli (GPa) = 28.73256 55.08539 80.81612
#
# Poissons Ratio (x) = 0.40731 0.83009
# Poissons Ratio (y) = 0.21245 0.30162
# Poissons Ratio (z) = 0.29512 0.20559
#
# Static dielectric constant tensor:
#      x y z
#    x 3.014470 0.000000 -0.141840 
#    y 0.000000 2.955240 0.000000 
#    z -0.141840 0.000000 3.420210 
# 
# 
# High freq. dielectric constant tensor:
#      x y z
#    x 1.637060 0.000000 -0.006340 
#    y 0.000000 1.627280 0.000000 
#    z -0.006340 0.000000 1.670680 
# 
# From -- ./inp_files/169208.got.cif
#   From: 2010.06.25/outbox.cif.g09.slc.cpg/sg12_85_cif.got.tgz:169208.got - 2010.06.28 00:19:55.
