data_PCOD8080074
_publ_section_title
;
Structure prediction by ZEFSAII (Michael W. Deem and Ramdas Pophale) SiO2 
 PCOD8080074
Probable space group: C 2/M
;
_chemical_formula_sum "Si O2"
_cell_formula_units_Z 64
_cell_length_a 23.804432
_cell_length_b 8.852866
_cell_length_c 17.444004
_cell_angle_alpha 90.000000
_cell_angle_beta 86.131152
_cell_angle_gamma 90.000000
_cell_volume 3667.727431
_symmetry_space_group_name_H-M "C 2/M"
_symmetry_group_IT_number 12
_symmetry_cell_setting 'monoclinic'
loop_
_space_group_symop_operation_xyz
x,y,z
-x,y,-z
-x,-y,-z
x,-y,z
1/2+x,1/2+y,z
1/2-x,1/2+y,-z
1/2-x,1/2-y,-z
1/2+x,1/2-y,z
loop_
_atom_site_type_symbol
_atom_site_label
_atom_site_fract_x
_atom_site_fract_y
_atom_site_fract_z
Si Si1 0.945311 0.320725 0.726016
Si Si2 0.034685 0.167670 0.816850
Si Si3 0.173463 0.321454 0.205666
Si Si4 0.128098 0.324681 0.893198
Si Si5 0.693886 0.824976 0.035207
Si Si6 0.987572 0.180877 0.415267
Si Si7 0.705248 0.319421 0.761520
Si Si8 0.614450 0.665045 0.663668
O O1 0.950215 0.500000 0.719646
O O2 0.881521 0.262344 0.744837
O O3 0.981062 0.265316 0.795858
O O4 0.965201 0.248758 0.644326
O O5 0.067331 0.249266 0.883420
O O6 0.077038 0.153585 0.742753
O O7 0.015350 0.000000 0.844435
O O8 0.169504 0.500000 0.200230
O O9 0.176160 0.254969 0.119053
O O10 0.229248 0.272508 0.248015
O O11 0.124515 0.500000 0.871568
O O12 0.178314 0.250849 0.839836
O O13 0.142458 0.299174 0.981097
O O14 0.708128 0.000000 0.043382
O O15 0.750000 0.750000 0.000000
O O16 0.924996 0.245504 0.397008
O O17 0.000000 0.234383 0.500000
O O18 0.988552 0.000000 0.406226
O O19 0.697348 0.500000 0.766923
O O20 0.672942 0.256766 0.686985
O O21 0.629733 0.500000 0.629886
#
# Coordination Sequence:
#
# PCOD8080074 Si02
#       8
#     8   8   8   8   8   8   8   8
#     4  10  19  32  50  72  97 124 160 203 242 288
#     4   9  17  31  49  66  90 126 161 196 243 297
#     4   9  18  31  47  67  95 132 164 196 248 301
#     4  10  18  27  44  71  95 118 158 212 253 281
#     4  10  19  31  46  67  96 127 165 206 248 293
#     4   9  17  31  51  74 100 127 156 194 242 295
#     4   9  15  27  47  66  91 127 164 199 237 287
#     4   7  12  23  43  69  87 110 153 193 224 267
#
# _framework density 17.449497999999998
#
# number of rings (size 3 to 8) (size 9 to 14) (size 15 to 20)
#    0.000    2.875    1.250    2.625    0.000    0.750 
#    0.000    3.125    0.000    4.500    0.000    0.000 
#    0.000    0.000    0.000    0.000    0.000    0.125 
#
# Total GULP energy -396459.622335 kJ/mol
# GULP energy per Si atom -12389.363198 kJ/mol
# Density = 1.740978 g / cm^3
# Si number density = 17.449498 Si / 1000 Ang^3
#
#
#
# Elastic Constant Matrix: (Units=GPa)
#
#
# Indices 1 2 3 4 5 6 
#
# 1 147.3154 28.5317 76.5875 0.0000 20.7157 0.0000
# 2 28.5317 47.9604 26.0564 0.0000 5.0850 0.0000
# 3 76.5875 26.0564 103.4791 0.0000 22.7999 0.0000
# 4 0.0000 0.0000 0.0000 17.3726 0.0000 2.4964
# 5 20.7157 5.0850 22.7999 0.0000 28.5729 0.0000
# 6 0.0000 0.0000 0.0000 2.4964 0.0000 21.4324
#
#
#
# Elastic Compliance Matrix: (Units=1/GPa)
#
#
# Indices 1 2 3 4 5 6 
#
# 1 0.011378 -0.002572 -0.007349 0.000000 -0.001927 0.000000
# 2 -0.002572 0.024747 -0.004572 0.000000 0.001109 0.000000
# 3 -0.007349 -0.004572 0.018080 0.000000 -0.008285 0.000000
# 4 0.000000 0.000000 0.000000 0.058542 0.000000 -0.006819
# 5 -0.001927 0.001109 -0.008285 0.000000 0.042809 0.000000
# 6 0.000000 0.000000 0.000000 -0.006819 0.000000 0.047453
#
#
# Mechanical properties :
#
#
# Convention : Reuss Voigt Hill
#
# Bulk Modulus (GPa) = 39.65305 62.34512 50.99908
# Shear Modulus (GPa) = 20.79866 24.64752 22.72309
#
# Velocity S-wave (km/s) = 3.45619 3.76241 3.61254
# Velocity P-wave (km/s) = 6.22099 7.39464 6.83306
#
# Compressibility (1/GPa) = 0.02521874
#
# Stress axis : x y z
#
# Youngs Moduli (GPa) = 87.89037 40.40894 55.31103
#
# Poissons Ratio (x) = 0.10392 0.40647
# Poissons Ratio (y) = 0.22604 0.25290
# Poissons Ratio (z) = 0.64588 0.18476
#
# Static dielectric constant tensor:
#      x y z
#    x 3.628530 0.000000 0.439600 
#    y 0.000000 3.102710 0.000000 
#    z 0.439600 0.000000 3.223540 
# 
# 
# High freq. dielectric constant tensor:
#      x y z
#    x 1.675620 0.000000 0.034300 
#    y 0.000000 1.653770 0.000000 
#    z 0.034300 0.000000 1.645510 
# 
# From -- ./inp_files/291563.got.cif
#   From: 2010.06.25/outbox.cif.g09.slc.cpg/sg12_146_cif.got.tgz:291563.got - 2010.06.28 00:19:55.
