data_PCOD8080599
_publ_section_title
;
Structure prediction by ZEFSAII (Michael W. Deem and Ramdas Pophale) SiO2 
 PCOD8080599
Probable space group: C 2/M
;
_chemical_formula_sum "Si O2"
_cell_formula_units_Z 64
_cell_length_a 12.179912
_cell_length_b 19.920938
_cell_length_c 20.983694
_cell_angle_alpha 90.000000
_cell_angle_beta 141.906982
_cell_angle_gamma 90.000000
_cell_volume 3141.078504
_symmetry_space_group_name_H-M "C 2/M"
_symmetry_group_IT_number 12
_symmetry_cell_setting 'monoclinic'
loop_
_space_group_symop_operation_xyz
x,y,z
-x,y,-z
-x,-y,-z
x,-y,z
1/2+x,1/2+y,z
1/2-x,1/2+y,-z
1/2-x,1/2-y,-z
1/2+x,1/2-y,z
loop_
_atom_site_type_symbol
_atom_site_label
_atom_site_fract_x
_atom_site_fract_y
_atom_site_fract_z
Si Si1 0.133046 0.743840 0.609528
Si Si2 0.632379 0.077532 0.368803
Si Si3 0.074679 0.817645 0.907295
Si Si4 0.800420 0.660296 0.241750
Si Si5 0.543764 0.168696 0.944839
Si Si6 0.506466 0.726649 0.268035
Si Si7 0.700256 0.075211 0.252937
Si Si8 0.445436 0.636540 0.594201
O O1 0.181128 0.683358 0.677622
O O2 0.317510 0.771717 0.663545
O O3 0.000000 0.708503 0.500000
O O4 0.033152 0.806594 0.591864
O O5 0.426980 0.097889 0.285668
O O6 0.675351 0.093040 0.315396
O O7 0.760249 0.116197 0.476838
O O8 0.653683 0.000000 0.394574
O O9 0.054021 0.748041 0.936489
O O10 0.908885 0.860995 0.860435
O O11 0.068224 0.805994 0.829165
O O12 0.264673 0.856545 0.997369
O O13 0.850033 0.725803 0.222459
O O14 0.394449 0.130639 0.835151
O O15 0.500000 0.154986 0.000000
O O16 0.577393 0.667240 0.346220
O O17 0.912690 0.075879 0.337066
O O18 0.629714 0.000000 0.205017
#
# Coordination Sequence:
#
# PCOD8080599 Si02
#       8
#     8   8   8   8   8   8   8   8
#     4  10  18  28  49  81 112 142 177 225 277 326
#     4  11  23  38  56  79 112 154 195 231 270 326
#     4  10  21  36  60  87 114 143 178 230 288 343
#     4  10  19  33  53  79 111 145 180 222 274 332
#     4  11  22  39  61  87 114 144 185 233 288 339
#     4  10  19  33  55  85 116 144 176 226 285 337
#     4  11  23  38  57  81 111 147 190 239 281 325
#     4  11  20  34  58  84 114 149 187 228 277 334
#
# _framework density 20.375166
#
# number of rings (size 3 to 8) (size 9 to 14) (size 15 to 20)
#    0.000    1.500    0.000    8.250    0.000    4.250 
#    0.000    0.625    0.000   15.375    0.000    0.000 
#    0.000    0.000    0.000    0.000    0.000    0.000 
#
# Total GULP energy -396433.830146 kJ/mol
# GULP energy per Si atom -12388.557192 kJ/mol
# Density = 2.032879 g / cm^3
# Si number density = 20.375166 Si / 1000 Ang^3
#
#
#
# Elastic Constant Matrix: (Units=GPa)
#
#
# Indices 1 2 3 4 5 6 
#
# 1 81.0872 11.9498 27.3547 -0.0012 8.4959 -0.0001
# 2 11.9498 48.8346 14.0483 -0.0017 -4.2383 -0.0002
# 3 27.3547 14.0483 74.5706 -0.0064 3.2089 -0.0012
# 4 -0.0012 -0.0017 -0.0064 26.0555 -0.0013 1.3038
# 5 8.4959 -4.2383 3.2089 -0.0013 42.2902 -0.0001
# 6 -0.0001 -0.0002 -0.0012 1.3038 -0.0001 18.5237
#
#
#
# Elastic Compliance Matrix: (Units=1/GPa)
#
#
# Indices 1 2 3 4 5 6 
#
# 1 0.014598 -0.002443 -0.004773 -0.000001 -0.002815 0.000000
# 2 -0.002443 0.022324 -0.003438 0.000001 0.002989 0.000000
# 3 -0.004773 -0.003438 0.015834 0.000003 -0.000587 0.000001
# 4 -0.000001 0.000001 0.000003 0.038515 0.000001 -0.002711
# 5 -0.002815 0.002989 -0.000587 0.000001 0.024556 0.000000
# 6 0.000000 0.000000 0.000001 -0.002711 0.000000 0.054176
#
#
# Mechanical properties :
#
#
# Convention : Reuss Voigt Hill
#
# Bulk Modulus (GPa) = 31.80032 34.57757 33.18895
# Shear Modulus (GPa) = 24.77784 27.44986 26.11385
#
# Velocity S-wave (km/s) = 3.49102 3.67443 3.58390
# Velocity P-wave (km/s) = 5.64720 5.91686 5.78360
#
# Compressibility (1/GPa) = 0.03144622
#
# Stress axis : x y z
#
# Youngs Moduli (GPa) = 68.50366 44.79579 63.15491
#
# Poissons Ratio (x) = 0.10945 0.30147
# Poissons Ratio (y) = 0.16737 0.21712
# Poissons Ratio (z) = 0.32700 0.15400
#
# Static dielectric constant tensor:
#      x y z
#    x 4.224870 0.000000 0.283100 
#    y 0.000000 3.261070 0.000000 
#    z 0.283100 0.000000 4.601380 
# 
# 
# High freq. dielectric constant tensor:
#      x y z
#    x 1.812730 0.000000 0.007470 
#    y 0.000000 1.747690 0.000000 
#    z 0.007470 0.000000 1.811410 
# 
# From -- ./inp_files/306806.got.cif
#   From: 2010.06.25/outbox.cif.g09.slc.cpg/sg12_154_cif.got.tgz:306806.got - 2010.06.28 00:19:55.
