data_PCOD8080534
_publ_section_title
;
Structure prediction by ZEFSAII (Michael W. Deem and Ramdas Pophale) SiO2 
 PCOD8080534
Probable space group: C 2/M
;
_chemical_formula_sum "Si O2"
_cell_formula_units_Z 56
_cell_length_a 18.948404
_cell_length_b 9.044432
_cell_length_c 29.912225
_cell_angle_alpha 90.000000
_cell_angle_beta 142.238174
_cell_angle_gamma 90.000000
_cell_volume 3139.236118
_symmetry_space_group_name_H-M "C 2/M"
_symmetry_group_IT_number 12
_symmetry_cell_setting 'monoclinic'
loop_
_space_group_symop_operation_xyz
x,y,z
-x,y,-z
-x,-y,-z
x,-y,z
1/2+x,1/2+y,z
1/2-x,1/2+y,-z
1/2-x,1/2-y,-z
1/2+x,1/2-y,z
loop_
_atom_site_type_symbol
_atom_site_label
_atom_site_fract_x
_atom_site_fract_y
_atom_site_fract_z
Si Si1 0.174594 0.325435 0.999875
Si Si2 0.579842 0.669191 0.716024
Si Si3 0.776215 0.325767 0.284917
Si Si4 0.045115 0.174215 0.570350
Si Si5 0.267568 0.829949 0.874550
Si Si6 0.408829 0.825746 0.860025
Si Si7 0.630795 0.331753 0.440875
O O1 0.195407 0.500000 0.007901
O O2 0.042121 0.283528 0.925877
O O3 0.250000 0.250000 0.000000
O O4 0.212218 0.256612 0.066938
O O5 0.607830 0.500000 0.713821
O O6 0.642477 0.785798 0.715855
O O7 0.632549 0.691406 0.792158
O O8 0.441794 0.694016 0.641972
O O9 0.763985 0.500000 0.284764
O O10 0.834222 0.256600 0.358524
O O11 0.650649 0.255561 0.212032
O O12 0.000000 0.228721 0.500000
O O13 0.948755 0.221819 0.558092
O O14 0.068570 0.000000 0.582920
O O15 0.352181 0.766956 0.878258
O O16 0.300510 0.000000 0.897088
O O17 0.387820 0.000000 0.844666
O O18 0.664560 0.500000 0.464402
O O19 0.750000 0.250000 0.500000
#
# Coordination Sequence:
#
# PCOD8080534 Si02
#       7
#     8   8   8   8   8   8   8
#     4  10  20  33  50  72  99 129 158 194 243 293
#     4   8  15  30  50  69  91 123 163 200 236 283
#     4  10  18  28  47  75 101 122 152 201 250 282
#     4   9  18  34  53  70  94 131 168 197 232 285
#     4   8  14  29  54  75  88 115 165 209 233 271
#     4   9  17  32  53  72  92 124 165 200 232 283
#     4   9  17  29  47  71  96 124 156 192 236 281
#
# _framework density 17.838735
#
# number of rings (size 3 to 8) (size 9 to 14) (size 15 to 20)
#    0.000    3.000    0.000    3.429    0.000    4.857 
#    0.000    4.286    0.000    7.714    0.000    0.000 
#    0.000    0.000    0.000    0.000    0.000    0.000 
#
# Total GULP energy -346924.466218 kJ/mol
# GULP energy per Si atom -12390.159508 kJ/mol
# Density = 1.779813 g / cm^3
# Si number density = 17.838735 Si / 1000 Ang^3
#
#
#
# Elastic Constant Matrix: (Units=GPa)
#
#
# Indices 1 2 3 4 5 6 
#
# 1 75.8721 27.8850 76.5017 0.0001 1.4832 -0.0003
# 2 27.8850 53.2234 57.6533 0.0001 -1.1213 -0.0009
# 3 76.5017 57.6533 204.4437 0.0000 -1.3640 -0.0002
# 4 0.0001 0.0001 0.0000 24.4414 0.0000 5.2131
# 5 1.4832 -1.1213 -1.3640 0.0000 28.8829 0.0000
# 6 -0.0003 -0.0009 -0.0002 5.2131 0.0000 21.9585
#
#
#
# Elastic Compliance Matrix: (Units=1/GPa)
#
#
# Indices 1 2 3 4 5 6 
#
# 1 0.021733 -0.003743 -0.007088 0.000000 -0.001596 0.000000
# 2 -0.003743 0.027711 -0.006408 0.000000 0.000965 0.000001
# 3 -0.007088 -0.006408 0.009354 0.000000 0.000557 0.000000
# 4 0.000000 0.000000 0.000000 0.043097 0.000000 -0.010231
# 5 -0.001596 0.000965 0.000557 0.000000 0.034768 0.000000
# 6 0.000000 0.000001 0.000000 -0.010231 0.000000 0.047969
#
#
# Mechanical properties :
#
#
# Convention : Reuss Voigt Hill
#
# Bulk Modulus (GPa) = 41.11417 73.06881 57.09149
# Shear Modulus (GPa) = 22.00551 26.48983 24.24767
#
# Velocity S-wave (km/s) = 3.51605 3.85770 3.69083
# Velocity P-wave (km/s) = 6.29136 7.80334 7.08778
#
# Compressibility (1/GPa) = 0.02432252
#
# Stress axis : x y z
#
# Youngs Moduli (GPa) = 46.01225 36.08699 106.90421
#
# Poissons Ratio (x) = 0.13506 0.75771
# Poissons Ratio (y) = 0.17221 0.68500
# Poissons Ratio (z) = 0.32612 0.23123
#
# Static dielectric constant tensor:
#      x y z
#    x 2.976170 0.000000 -0.117600 
#    y 0.000000 3.015440 0.000000 
#    z -0.117600 0.000000 3.873060 
# 
# 
# High freq. dielectric constant tensor:
#      x y z
#    x 1.642530 0.000000 -0.002230 
#    y 0.000000 1.663640 0.000000 
#    z -0.002230 0.000000 1.720020 
# 
# From -- ./inp_files/377763.got.cif
#   From: 2010.06.25/outbox.cif.g09.slc.cpg/sg12_189_cif.got.tgz:377763.got - 2010.06.28 00:19:55.
