data_PCOD8080991
_publ_section_title
;
Structure prediction by ZEFSAII (Michael W. Deem and Ramdas Pophale) SiO2 
 PCOD8080991
Probable space group: C 2/M
;
_chemical_formula_sum "Si O2"
_cell_formula_units_Z 64
_cell_length_a 23.757850
_cell_length_b 8.681034
_cell_length_c 17.250778
_cell_angle_alpha 90.000000
_cell_angle_beta 86.314875
_cell_angle_gamma 90.000000
_cell_volume 3550.490670
_symmetry_space_group_name_H-M "C 2/M"
_symmetry_group_IT_number 12
_symmetry_cell_setting 'monoclinic'
loop_
_space_group_symop_operation_xyz
x,y,z
-x,y,-z
-x,-y,-z
x,-y,z
1/2+x,1/2+y,z
1/2-x,1/2+y,-z
1/2-x,1/2-y,-z
1/2+x,1/2-y,z
loop_
_atom_site_type_symbol
_atom_site_label
_atom_site_fract_x
_atom_site_fract_y
_atom_site_fract_z
Si Si1 0.974336 0.176094 0.175761
Si Si2 0.931294 0.182876 0.727259
Si Si3 0.496109 0.177611 0.414337
Si Si4 0.798396 0.677248 0.230621
Si Si5 0.125473 0.815633 0.910647
Si Si6 0.183453 0.680578 0.215252
Si Si7 0.807751 0.317789 0.963104
Si Si8 0.095244 0.673807 0.692762
O O1 0.938895 0.242116 0.105005
O O2 0.932216 0.195689 0.251616
O O3 0.033984 0.249372 0.199421
O O4 0.985885 0.000000 0.156890
O O5 0.867885 0.241010 0.735491
O O6 0.960212 0.237639 0.645651
O O7 0.932886 0.000000 0.728147
O O8 0.500000 0.249939 0.500000
O O9 0.430830 0.196046 0.390854
O O10 0.514479 0.000000 0.414932
O O11 0.784816 0.500000 0.213482
O O12 0.829260 0.747724 0.153154
O O13 0.740681 0.766760 0.252206
O O14 0.837070 0.694293 0.305117
O O15 0.129819 0.000000 0.907823
O O16 0.139462 0.752605 0.994543
O O17 0.176608 0.500000 0.223640
O O18 0.184366 0.734112 0.125998
O O19 0.806458 0.500000 0.972141
O O20 0.750000 0.250000 0.000000
O O21 0.079563 0.500000 0.723789
#
# Coordination Sequence:
#
# PCOD8080991 Si02
#       8
#     8   8   8   8   8   8   8   8
#     4   8  16  30  48  70  96 128 164 204 251 297
#     4  10  20  35  54  76 103 134 169 208 249 299
#     4   9  17  32  56  83 110 137 162 195 244 299
#     4  10  18  29  48  72  99 131 169 211 251 292
#     4  10  18  30  49  72  98 127 165 213 257 301
#     4  11  23  36  50  70  99 135 172 211 257 307
#     4  11  22  34  49  70  98 131 171 217 262 304
#     4   8  15  27  46  75 103 128 163 203 241 288
#
# _framework density 18.025676000000001
#
# number of rings (size 3 to 8) (size 9 to 14) (size 15 to 20)
#    0.000    2.375    1.250    1.875    0.000    3.250 
#    0.000    0.625    0.000    4.500    0.000    0.000 
#    0.000    0.000    0.000    0.000    0.000    0.000 
#
# Total GULP energy -396437.995987 kJ/mol
# GULP energy per Si atom -12388.687375 kJ/mol
# Density = 1.798465 g / cm^3
# Si number density = 18.025676 Si / 1000 Ang^3
#
#
#
# Elastic Constant Matrix: (Units=GPa)
#
#
# Indices 1 2 3 4 5 6 
#
# 1 115.3069 16.7658 52.7789 0.0000 8.1434 0.0000
# 2 16.7658 41.5474 25.6855 0.0000 -1.9102 0.0000
# 3 52.7789 25.6855 81.8283 0.0000 14.3971 0.0000
# 4 0.0000 0.0000 0.0000 19.2787 0.0000 1.0603
# 5 8.1434 -1.9102 14.3971 0.0000 26.5025 0.0000
# 6 0.0000 0.0000 0.0000 1.0603 0.0000 22.6528
#
#
#
# Elastic Compliance Matrix: (Units=1/GPa)
#
#
# Indices 1 2 3 4 5 6 
#
# 1 0.012314 0.000042 -0.008061 0.000000 0.000598 0.000000
# 2 0.000042 0.031486 -0.011397 0.000000 0.008448 0.000000
# 3 -0.008061 -0.011397 0.022894 0.000000 -0.010782 0.000000
# 4 0.000000 0.000000 0.000000 0.052005 0.000000 -0.002434
# 5 0.000598 0.008448 -0.010782 0.000000 0.044014 0.000000
# 6 0.000000 0.000000 0.000000 -0.002434 0.000000 0.044259
#
#
# Mechanical properties :
#
#
# Convention : Reuss Voigt Hill
#
# Bulk Modulus (GPa) = 35.88998 47.68256 41.78627
# Shear Modulus (GPa) = 19.60092 23.25029 21.42561
#
# Velocity S-wave (km/s) = 3.30114 3.59533 3.45137
# Velocity P-wave (km/s) = 5.87228 6.61402 6.25416
#
# Compressibility (1/GPa) = 0.02786293
#
# Stress axis : x y z
#
# Youngs Moduli (GPa) = 81.20986 31.76015 43.67937
#
# Poissons Ratio (x) = -0.00133 0.35209
# Poissons Ratio (y) = -0.00339 0.49779
# Poissons Ratio (z) = 0.65461 0.36196
#
# Static dielectric constant tensor:
#      x y z
#    x 3.682140 0.000000 0.474990 
#    y 0.000000 3.348240 0.000000 
#    z 0.474990 0.000000 3.180070 
# 
# 
# High freq. dielectric constant tensor:
#      x y z
#    x 1.706540 0.000000 0.033380 
#    y 0.000000 1.701530 0.000000 
#    z 0.033380 0.000000 1.654120 
# 
# From -- ./inp_files/287508.got.cif
#   From: 2010.06.25/outbox.cif.g09.slc.cpg/sg12_144_cif.got.tgz:287508.got - 2010.06.28 00:19:55.
