data_PCOD8080940
_publ_section_title
;
Structure prediction by ZEFSAII (Michael W. Deem and Ramdas Pophale) SiO2 
 PCOD8080940
Probable space group: C 2/M
;
_chemical_formula_sum "Si O2"
_cell_formula_units_Z 64
_cell_length_a 20.691020
_cell_length_b 8.676706
_cell_length_c 24.410686
_cell_angle_alpha 90.000000
_cell_angle_beta 52.456941
_cell_angle_gamma 90.000000
_cell_volume 3474.823783
_symmetry_space_group_name_H-M "C 2/M"
_symmetry_group_IT_number 12
_symmetry_cell_setting 'monoclinic'
loop_
_space_group_symop_operation_xyz
x,y,z
-x,y,-z
-x,-y,-z
x,-y,z
1/2+x,1/2+y,z
1/2-x,1/2+y,-z
1/2-x,1/2-y,-z
1/2+x,1/2-y,z
loop_
_atom_site_type_symbol
_atom_site_label
_atom_site_fract_x
_atom_site_fract_y
_atom_site_fract_z
Si Si1 0.150127 0.683619 0.285436
Si Si2 0.684684 0.182479 0.492677
Si Si3 0.209448 0.182450 0.145536
Si Si4 0.182581 0.182984 0.994285
Si Si5 0.578374 0.179617 0.132175
Si Si6 0.911612 0.679006 0.273674
Si Si7 0.531829 0.182475 0.638157
Si Si8 0.240448 0.318052 0.346933
O O1 0.154326 0.500000 0.276651
O O2 0.203796 0.761628 0.210626
O O3 0.186506 0.741352 0.324217
O O4 0.057550 0.746649 0.329975
O O5 0.750000 0.250000 0.500000
O O6 0.594394 0.234333 0.558300
O O7 0.701386 0.248139 0.423256
O O8 0.692790 0.000000 0.490094
O O9 0.294341 0.252012 0.077534
O O10 0.131237 0.242190 0.152612
O O11 0.212895 0.000000 0.140217
O O12 0.182041 0.000000 0.994069
O O13 0.250000 0.250000 0.000000
O O14 0.096928 0.246428 0.062671
O O15 0.483602 0.207703 0.193111
O O16 0.600848 0.000000 0.120551
O O17 0.890594 0.500000 0.290521
O O18 0.937511 0.748349 0.319340
O O19 0.832900 0.764702 0.291497
O O20 0.526411 0.000000 0.645517
O O21 0.238991 0.500000 0.349417
#
# Coordination Sequence:
#
# PCOD8080940 Si02
#       8
#     8   8   8   8   8   8   8   8
#     4  10  20  37  54  74 107 143 180 220 268 321
#     4  10  19  33  53  79 105 136 176 220 269 316
#     4  11  20  31  50  77 107 141 177 219 266 315
#     4  10  18  29  47  75 109 142 174 216 266 313
#     4  10  18  31  51  77 107 140 179 221 264 311
#     4  10  19  33  55  78 104 143 180 217 263 319
#     4   9  17  32  55  77 100 138 181 216 261 318
#     4  10  22  35  53  80 108 138 176 226 271 315
#
# _framework density 18.418201
#
# number of rings (size 3 to 8) (size 9 to 14) (size 15 to 20)
#    0.000    2.000    2.500    4.125    0.000    2.000 
#    0.000    3.125    0.000    0.750    0.000    7.875 
#    0.000    0.000    0.000    0.000    0.000    0.000 
#
# Total GULP energy -396755.908986 kJ/mol
# GULP energy per Si atom -12398.622156 kJ/mol
# Density = 1.837628 g / cm^3
# Si number density = 18.418201 Si / 1000 Ang^3
#
#
#
# Elastic Constant Matrix: (Units=GPa)
#
#
# Indices 1 2 3 4 5 6 
#
# 1 106.5666 23.2374 64.5306 0.0002 3.0936 0.0006
# 2 23.2374 67.7001 46.3088 0.0002 2.6323 0.0020
# 3 64.5306 46.3088 168.9769 0.0000 -5.1298 0.0000
# 4 0.0002 0.0002 0.0000 26.3412 -0.0001 -1.5037
# 5 3.0936 2.6323 -5.1298 -0.0001 22.4409 -0.0002
# 6 0.0006 0.0020 0.0000 -1.5037 -0.0002 21.9615
#
#
#
# Elastic Compliance Matrix: (Units=1/GPa)
#
#
# Indices 1 2 3 4 5 6 
#
# 1 0.012441 -0.001063 -0.004539 0.000000 -0.002628 0.000000
# 2 -0.001063 0.018515 -0.004763 0.000000 -0.003114 -0.000002
# 3 -0.004539 -0.004763 0.009056 0.000000 0.003254 0.000001
# 4 0.000000 0.000000 0.000000 0.038112 0.000000 0.002610
# 5 -0.002628 -0.003114 0.003254 0.000000 0.046033 0.000001
# 6 0.000000 -0.000002 0.000001 0.002610 0.000001 0.045713
#
#
# Mechanical properties :
#
#
# Convention : Reuss Voigt Hill
#
# Bulk Modulus (GPa) = 51.86453 67.93303 59.89878
# Shear Modulus (GPa) = 25.37733 28.09317 26.73525
#
# Velocity S-wave (km/s) = 3.71595 3.90974 3.81408
# Velocity P-wave (km/s) = 6.82873 7.57266 7.21030
#
# Compressibility (1/GPa) = 0.01928100
#
# Stress axis : x y z
#
# Youngs Moduli (GPa) = 80.38128 54.01108 110.42903
#
# Poissons Ratio (x) = 0.05740 0.50129
# Poissons Ratio (y) = 0.08543 0.52594
# Poissons Ratio (z) = 0.36489 0.25724
#
# Static dielectric constant tensor:
#      x y z
#    x 3.008450 0.000000 -0.045820 
#    y 0.000000 3.237640 0.000000 
#    z -0.045820 0.000000 4.020940 
# 
# 
# High freq. dielectric constant tensor:
#      x y z
#    x 1.679290 0.000000 -0.013640 
#    y 0.000000 1.701740 0.000000 
#    z -0.013640 0.000000 1.735880 
# 
# From -- ./inp_files/319954.got.cif
#   From: 2010.06.25/outbox.cif.g09.slc.cpg/sg12_160_cif.got.tgz:319954.got - 2010.06.28 00:19:55.
