data_PCOD8080451
_publ_section_title
;
Structure prediction by ZEFSAII (Michael W. Deem and Ramdas Pophale) SiO2 
 PCOD8080451
Probable space group: C 2/M
;
_chemical_formula_sum "Si O2"
_cell_formula_units_Z 64
_cell_length_a 28.109751
_cell_length_b 10.422827
_cell_length_c 24.459958
_cell_angle_alpha 90.000000
_cell_angle_beta 28.503686
_cell_angle_gamma 90.000000
_cell_volume 3419.893568
_symmetry_space_group_name_H-M "C 2/M"
_symmetry_group_IT_number 12
_symmetry_cell_setting 'monoclinic'
loop_
_space_group_symop_operation_xyz
x,y,z
-x,y,-z
-x,-y,-z
x,-y,z
1/2+x,1/2+y,z
1/2-x,1/2+y,-z
1/2-x,1/2-y,-z
1/2+x,1/2-y,z
loop_
_atom_site_type_symbol
_atom_site_label
_atom_site_fract_x
_atom_site_fract_y
_atom_site_fract_z
Si Si1 0.293480 0.745590 0.547059
Si Si2 0.508650 0.147443 0.224209
Si Si3 0.599827 0.851262 0.364246
Si Si4 0.650056 0.635623 0.616355
Si Si5 0.370523 0.854104 0.209075
Si Si6 0.996202 0.352304 0.649318
Si Si7 0.268560 0.851167 0.200943
Si Si8 0.420884 0.148765 0.960794
O O1 0.310723 0.632333 0.485647
O O2 0.244205 0.861746 0.562282
O O3 0.223413 0.711128 0.667763
O O4 0.399737 0.781459 0.465137
O O5 0.416800 0.240310 0.303946
O O6 0.550598 0.176974 0.242865
O O7 0.589773 0.172085 0.094159
O O8 0.471058 0.000000 0.258777
O O9 0.500000 0.833418 0.500000
O O10 0.580426 0.811581 0.320529
O O11 0.680419 0.748424 0.304044
O O12 0.637233 0.000000 0.331335
O O13 0.593033 0.500000 0.683636
O O14 0.353574 0.842336 0.161472
O O15 0.475664 0.788889 0.120868
O O16 0.372460 0.000000 0.227055
O O17 0.021080 0.500000 0.616959
O O18 0.229457 0.000000 0.235996
O O19 0.322708 0.799267 0.090857
O O20 0.424756 0.000000 0.972119
#
# Coordination Sequence:
#
# PCOD8080451 Si02
#       8
#     8   8   8   8   8   8   8   8
#     4  10  18  28  46  71 106 140 168 205 252 305
#     4   9  17  32  53  74 102 138 175 207 245 306
#     4  10  21  39  59  76 101 137 174 212 259 310
#     4  10  19  28  43  73 109 138 166 205 253 302
#     4  10  18  30  51  78 104 136 174 209 250 307
#     4   9  18  32  51  74  98 136 183 215 246 302
#     4  10  21  36  57  81 103 129 172 222 259 296
#     4   9  17  32  54  78 104 136 170 207 253 308
#
# _framework density 18.714032
#
# number of rings (size 3 to 8) (size 9 to 14) (size 15 to 20)
#    0.000    2.375    1.250    1.875    0.000    4.750 
#    0.000    5.000    0.000    0.750    0.000    0.000 
#    0.000    0.000    0.000    0.000    0.000    0.000 
#
# Total GULP energy -396438.441402 kJ/mol
# GULP energy per Si atom -12388.701294 kJ/mol
# Density = 1.867144 g / cm^3
# Si number density = 18.714032 Si / 1000 Ang^3
#
#
#
# Elastic Constant Matrix: (Units=GPa)
#
#
# Indices 1 2 3 4 5 6 
#
# 1 72.2745 19.4285 17.6994 -0.0002 7.1710 -0.0005
# 2 19.4285 71.6865 25.4171 -0.0025 -0.7036 -0.0029
# 3 17.6994 25.4171 84.7476 -0.0014 16.9587 -0.0008
# 4 -0.0002 -0.0025 -0.0014 20.7637 0.0009 -1.4429
# 5 7.1710 -0.7036 16.9587 0.0009 25.7567 0.0006
# 6 -0.0005 -0.0029 -0.0008 -1.4429 0.0006 -17.7666
#
#
#
# Elastic Compliance Matrix: (Units=1/GPa)
#
#
# Indices 1 2 3 4 5 6 
#
# 1 0.015537 -0.003740 -0.001425 0.000000 -0.003490 0.000000
# 2 -0.003740 0.016884 -0.005279 0.000001 0.004978 -0.000002
# 3 -0.001425 -0.005279 0.015698 0.000001 -0.010084 0.000000
# 4 0.000000 0.000001 0.000001 0.047891 -0.000002 -0.003889
# 5 -0.003490 0.004978 -0.010084 -0.000002 0.046572 0.000001
# 6 0.000000 -0.000002 0.000000 -0.003889 0.000001 -0.055969
#
#
# Mechanical properties :
#
#
# Convention : Reuss Voigt Hill
#
# Bulk Modulus (GPa) = 36.72185 39.31096 38.01641
# Shear Modulus (GPa) = 42.89056 16.82831 29.85944
#
# Velocity S-wave (km/s) = 4.79257 3.00198 3.99878
# Velocity P-wave (km/s) = 7.09155 5.75044 6.45592
#
# Compressibility (1/GPa) = 0.02723174
#
# Stress axis : x y z
#
# Youngs Moduli (GPa) = 64.36398 59.22880 63.70110
#
# Poissons Ratio (x) = 0.22150 0.09077
# Poissons Ratio (y) = 0.24071 0.33626
# Poissons Ratio (z) = 0.09171 0.31266
#
# Static dielectric constant tensor:
#      x y z
#    x 3.643160 0.000000 0.295730 
#    y 0.000000 3.201390 0.000000 
#    z 0.295730 0.000000 3.331630 
# 
# 
# High freq. dielectric constant tensor:
#      x y z
#    x 1.727470 0.000000 0.026400 
#    y 0.000000 1.700090 0.000000 
#    z 0.026400 0.000000 1.709610 
# 
# From -- ./inp_files/351766.got.cif
#   From: 2010.06.25/outbox.cif.g09.slc.cpg/sg12_176_cif.got.tgz:351766.got - 2010.06.28 00:19:55.
