data_PCOD8080703
_publ_section_title
;
Structure prediction by ZEFSAII (Michael W. Deem and Ramdas Pophale) SiO2 
 PCOD8080703
Probable space group: C 2/M
;
_chemical_formula_sum "Si O2"
_cell_formula_units_Z 56
_cell_length_a 20.511517
_cell_length_b 9.205357
_cell_length_c 24.303598
_cell_angle_alpha 90.000000
_cell_angle_beta 46.113400
_cell_angle_gamma 90.000000
_cell_volume 3307.284101
_symmetry_space_group_name_H-M "C 2/M"
_symmetry_group_IT_number 12
_symmetry_cell_setting 'monoclinic'
loop_
_space_group_symop_operation_xyz
x,y,z
-x,y,-z
-x,-y,-z
x,-y,z
1/2+x,1/2+y,z
1/2-x,1/2+y,-z
1/2-x,1/2-y,-z
1/2+x,1/2-y,z
loop_
_atom_site_type_symbol
_atom_site_label
_atom_site_fract_x
_atom_site_fract_y
_atom_site_fract_z
Si Si1 0.234414 0.169645 0.952561
Si Si2 0.084738 0.331746 0.206473
Si Si3 0.460154 0.339006 0.349704
Si Si4 0.552750 0.171679 0.808882
Si Si5 0.187371 0.833582 0.659649
Si Si6 0.967385 0.167936 0.958016
Si Si7 0.193735 0.171963 0.485957
O O1 0.311899 0.218059 0.863820
O O2 0.138096 0.210214 0.983249
O O3 0.244077 0.000000 0.959533
O O4 0.250000 0.250000 0.000000
O O5 0.077101 0.500000 0.221824
O O6 0.045330 0.261513 0.285322
O O7 0.027226 0.286279 0.186487
O O8 0.500075 0.500000 0.327649
O O9 0.383665 0.324459 0.348138
O O10 0.412602 0.302727 0.436438
O O11 0.645386 0.251415 0.736827
O O12 0.569501 0.000000 0.801610
O O13 0.525358 0.230293 0.884424
O O14 0.279121 0.748147 0.587671
O O15 0.210828 0.000000 0.661127
O O16 0.982370 0.000000 0.932628
O O17 0.000000 0.200223 0.000000
O O18 0.250000 0.250000 0.500000
O O19 0.216440 0.000000 0.471295
#
# Coordination Sequence:
#
# PCOD8080703 Si02
#       7
#     8   8   8   8   8   8   8
#     4  10  19  32  49  69  92 119 156 197 235 280
#     4   9  17  27  41  63  87 113 149 189 229 270
#     4   8  15  24  35  54  82 115 147 181 223 268
#     4  10  18  29  45  65  89 117 152 193 235 277
#     4   9  16  25  38  57  82 115 152 187 226 273
#     4  10  21  35  50  68  93 125 157 194 240 285
#     4   9  15  23  34  52  80 115 152 185 224 272
#
# _framework density 16.932321999999999
#
# number of rings (size 3 to 8) (size 9 to 14) (size 15 to 20)
#    0.000    2.714    1.429    2.143    0.000    5.429 
#    0.000    0.000    0.000    0.000    0.000    0.000 
#    0.000    1.143    0.000   13.143    0.000    6.714 
#
# Total GULP energy -347030.444153 kJ/mol
# GULP energy per Si atom -12393.944434 kJ/mol
# Density = 1.689378 g / cm^3
# Si number density = 16.932322 Si / 1000 Ang^3
#
#
#
# Elastic Constant Matrix: (Units=GPa)
#
#
# Indices 1 2 3 4 5 6 
#
# 1 49.5220 27.1387 40.5754 0.0000 -5.5292 -0.0002
# 2 27.1387 91.6327 77.9034 0.0000 -7.4393 -0.0001
# 3 40.5754 77.9034 168.4301 0.0000 -23.9612 0.0000
# 4 0.0000 0.0000 0.0000 39.4962 0.0000 -2.3147
# 5 -5.5292 -7.4393 -23.9612 0.0000 12.6047 0.0000
# 6 -0.0002 -0.0001 0.0000 -2.3147 0.0000 10.4209
#
#
#
# Elastic Compliance Matrix: (Units=1/GPa)
#
#
# Indices 1 2 3 4 5 6 
#
# 1 0.025990 -0.003971 -0.004298 0.000000 0.000886 0.000000
# 2 -0.003971 0.019072 -0.008924 0.000000 -0.007451 0.000000
# 3 -0.004298 -0.008924 0.013820 0.000000 0.019120 0.000000
# 4 0.000000 0.000000 0.000000 0.025653 0.000000 0.005698
# 5 0.000886 -0.007451 0.019120 0.000000 0.111672 0.000000
# 6 0.000000 0.000000 0.000000 0.005698 0.000000 0.097226
#
#
# Mechanical properties :
#
#
# Convention : Reuss Voigt Hill
#
# Bulk Modulus (GPa) = 40.82594 66.75775 53.79185
# Shear Modulus (GPa) = 14.88158 23.43553 19.15856
#
# Velocity S-wave (km/s) = 2.96782 3.72435 3.36739
# Velocity P-wave (km/s) = 5.99229 7.61618 6.85251
#
# Compressibility (1/GPa) = 0.02449423
#
# Stress axis : x y z
#
# Youngs Moduli (GPa) = 38.47639 52.43368 72.35664
#
# Poissons Ratio (x) = 0.20823 0.31100
# Poissons Ratio (y) = 0.15280 0.64575
# Poissons Ratio (z) = 0.16538 0.46794
#
# Static dielectric constant tensor:
#      x y z
#    x 2.745050 0.000000 -0.444060 
#    y 0.000000 3.246640 0.000000 
#    z -0.444060 0.000000 3.931130 
# 
# 
# High freq. dielectric constant tensor:
#      x y z
#    x 1.575010 0.000000 -0.022770 
#    y 0.000000 1.661320 0.000000 
#    z -0.022770 0.000000 1.674030 
# 
# From -- ./inp_files/287075.got.cif
#   From: 2010.06.25/outbox.cif.g09.slc.cpg/sg12_144_cif.got.tgz:287075.got - 2010.06.28 00:19:55.
