data_PCOD8080362
_publ_section_title
;
Structure prediction by ZEFSAII (Michael W. Deem and Ramdas Pophale) SiO2 
 PCOD8080362
Probable space group: C 2/M
;
_chemical_formula_sum "Si O2"
_cell_formula_units_Z 64
_cell_length_a 18.095996
_cell_length_b 9.195097
_cell_length_c 21.178701
_cell_angle_alpha 90.000000
_cell_angle_beta 74.385049
_cell_angle_gamma 90.000000
_cell_volume 3393.954875
_symmetry_space_group_name_H-M "C 2/M"
_symmetry_group_IT_number 12
_symmetry_cell_setting 'monoclinic'
loop_
_space_group_symop_operation_xyz
x,y,z
-x,y,-z
-x,-y,-z
x,-y,z
1/2+x,1/2+y,z
1/2-x,1/2+y,-z
1/2-x,1/2-y,-z
1/2+x,1/2-y,z
loop_
_atom_site_type_symbol
_atom_site_label
_atom_site_fract_x
_atom_site_fract_y
_atom_site_fract_z
Si Si1 0.379654 0.160612 0.850700
Si Si2 0.377943 0.831291 0.630940
Si Si3 0.277478 0.344747 0.049520
Si Si4 0.191897 0.828420 0.240648
Si Si5 0.524762 0.334810 0.566417
Si Si6 0.657039 0.162645 0.866552
Si Si7 0.491225 0.834093 0.930950
Si Si8 0.828047 0.669409 0.498948
O O1 0.292170 0.133307 0.887317
O O2 0.374299 0.270423 0.792434
O O3 0.425243 0.233530 0.900153
O O4 0.415013 0.000000 0.824890
O O5 0.317722 0.754553 0.691238
O O6 0.459658 0.750885 0.620158
O O7 0.343544 0.813841 0.569394
O O8 0.388838 0.000000 0.646178
O O9 0.309014 0.500000 0.018367
O O10 0.343748 0.262104 0.071178
O O11 0.250000 0.250000 0.000000
O O12 0.280346 0.791678 0.200283
O O13 0.179671 0.000000 0.252249
O O14 0.500000 0.338536 0.500000
O O15 0.533934 0.500000 0.590139
O O16 0.604247 0.247391 0.556024
O O17 0.567577 0.175294 0.868647
O O18 0.678086 0.000000 0.883472
O O19 0.466474 0.000000 0.948842
O O20 0.500000 0.762995 0.000000
O O21 0.823808 0.500000 0.480312
O O22 0.750000 0.750000 0.500000
#
# Coordination Sequence:
#
# PCOD8080362 Si02
#       8
#     8   8   8   8   8   8   8   8
#     4   9  18  32  50  70  94 126 164 205 248 299
#     4  10  20  35  56  79 104 139 182 221 259 310
#     4  10  18  28  45  68  92 121 157 198 245 297
#     4  10  20  34  52  73  99 133 172 214 259 307
#     4   9  17  31  53  80 109 140 175 218 266 312
#     4   9  18  32  49  70  96 125 161 206 254 306
#     4   9  16  29  51  75  97 125 163 207 258 315
#     4  10  20  34  54  82 115 147 179 219 265 310
#
# _framework density 18.857057999999999
#
# number of rings (size 3 to 8) (size 9 to 14) (size 15 to 20)
#    0.000    2.500    0.000    2.625    0.000    6.000 
#    0.000    1.875    0.000    6.000    0.000    0.000 
#    0.000    0.000    0.000    0.000    0.000    0.000 
#
# Total GULP energy -396430.863268 kJ/mol
# GULP energy per Si atom -12388.464477 kJ/mol
# Density = 1.881414 g / cm^3
# Si number density = 18.857058 Si / 1000 Ang^3
#
#
#
# Elastic Constant Matrix: (Units=GPa)
#
#
# Indices 1 2 3 4 5 6 
#
# 1 94.2786 31.2782 17.5333 0.0000 -9.8769 0.0000
# 2 31.2782 119.9079 29.9830 0.0000 -7.7225 0.0000
# 3 17.5333 29.9830 57.4581 0.0000 -10.7066 0.0000
# 4 0.0000 0.0000 0.0000 29.8945 0.0000 0.2347
# 5 -9.8769 -7.7225 -10.7066 0.0000 23.4202 0.0000
# 6 0.0000 0.0000 0.0000 0.2347 0.0000 25.8283
#
#
#
# Elastic Compliance Matrix: (Units=1/GPa)
#
#
# Indices 1 2 3 4 5 6 
#
# 1 0.012127 -0.002502 -0.001744 0.000000 0.003492 0.000000
# 2 -0.002502 0.010127 -0.004477 0.000000 0.000237 0.000000
# 3 -0.001744 -0.004477 0.021709 0.000000 0.007713 0.000000
# 4 0.000000 0.000000 0.000000 0.033453 0.000000 -0.000304
# 5 0.003492 0.000237 0.007713 0.000000 0.047775 0.000000
# 6 0.000000 0.000000 0.000000 -0.000304 0.000000 0.038720
#
#
# Mechanical properties :
#
#
# Convention : Reuss Voigt Hill
#
# Bulk Modulus (GPa) = 37.71119 47.69259 42.70189
# Shear Modulus (GPa) = 26.28841 28.68529 27.48685
#
# Velocity S-wave (km/s) = 3.73780 3.90448 3.82205
# Velocity P-wave (km/s) = 6.21853 6.75819 6.49397
#
# Compressibility (1/GPa) = 0.02651733
#
# Stress axis : x y z
#
# Youngs Moduli (GPa) = 82.45892 98.74401 46.06284
#
# Poissons Ratio (x) = 0.24710 0.08034
# Poissons Ratio (y) = 0.20635 0.20621
# Poissons Ratio (z) = 0.14382 0.44205
#
# Static dielectric constant tensor:
#      x y z
#    x 3.292010 0.000000 0.018710 
#    y 0.000000 3.762160 0.000000 
#    z 0.018710 0.000000 3.057600 
# 
# 
# High freq. dielectric constant tensor:
#      x y z
#    x 1.726700 0.000000 -0.011510 
#    y 0.000000 1.733560 0.000000 
#    z -0.011510 0.000000 1.705930 
# 
# From -- ./inp_files/341972.got.cif
#   From: 2010.06.25/outbox.cif.g09.slc.cpg/sg12_171_cif.got.tgz:341972.got - 2010.06.28 00:19:55.
