data_PCOD8080017
_publ_section_title
;
Structure prediction by ZEFSAII (Michael W. Deem and Ramdas Pophale) SiO2 
 PCOD8080017
Probable space group: C 2/M
;
_chemical_formula_sum "Si O2"
_cell_formula_units_Z 48
_cell_length_a 24.597332
_cell_length_b 9.037227
_cell_length_c 13.928355
_cell_angle_alpha 90.000000
_cell_angle_beta 109.808212
_cell_angle_gamma 90.000000
_cell_volume 2912.964544
_symmetry_space_group_name_H-M "C 2/M"
_symmetry_group_IT_number 12
_symmetry_cell_setting 'monoclinic'
loop_
_space_group_symop_operation_xyz
x,y,z
-x,y,-z
-x,-y,-z
x,-y,z
1/2+x,1/2+y,z
1/2-x,1/2+y,-z
1/2-x,1/2-y,-z
1/2+x,1/2-y,z
loop_
_atom_site_type_symbol
_atom_site_label
_atom_site_fract_x
_atom_site_fract_y
_atom_site_fract_z
Si Si1 0.273003 0.168256 0.740585
Si Si2 0.210471 0.824987 0.054806
Si Si3 0.534984 0.675053 0.164945
Si Si4 0.301279 0.329233 0.476630
Si Si5 0.376813 0.827257 0.657464
Si Si6 0.418137 0.674440 0.009151
O O1 0.269403 0.278994 0.827243
O O2 0.212728 0.185581 0.645294
O O3 0.327487 0.209407 0.706250
O O4 0.279385 0.000000 0.781667
O O5 0.215581 0.000000 0.048087
O O6 0.250000 0.750000 0.000000
O O7 0.144834 0.768200 0.996905
O O8 0.543024 0.500000 0.183929
O O9 0.562375 0.760051 0.271410
O O10 0.467040 0.719426 0.116211
O O11 0.566212 0.734903 0.087174
O O12 0.303392 0.500000 0.508868
O O13 0.250000 0.250000 0.500000
O O14 0.360482 0.249617 0.545654
O O15 0.383704 0.000000 0.643258
O O16 0.417920 0.500000 0.998835
#
# Coordination Sequence:
#
# PCOD8080017 Si02
#       6
#     8   8   8   8   8   8
#     4   9  18  31  44  63  92 122 155 193 227 268
#     4  11  21  33  49  68  91 124 160 194 231 271
#     4   9  15  28  48  67  90 121 156 190 228 277
#     4   9  17  28  43  64  92 123 154 188 229 277
#     4  10  18  27  42  69  99 124 152 185 230 282
#     4   8  16  29  46  67  89 119 158 193 228 275
#
# _framework density 16.478057
#
# number of rings (size 3 to 8) (size 9 to 14) (size 15 to 20)
#    0.000    2.667    1.667    3.500    0.000    3.333 
#    0.000    3.333    0.000    0.000    0.000    1.167 
#    0.000    9.333    0.000    0.000    0.000    0.000 
#
# Total GULP energy -297446.195677 kJ/mol
# GULP energy per Si atom -12393.591487 kJ/mol
# Density = 1.644055 g / cm^3
# Si number density = 16.478057 Si / 1000 Ang^3
#
#
#
# Elastic Constant Matrix: (Units=GPa)
#
#
# Indices 1 2 3 4 5 6 
#
# 1 92.2807 38.9486 54.7635 0.0000 20.0898 0.0000
# 2 38.9486 84.3822 48.5992 0.0000 14.5829 0.0000
# 3 54.7635 48.5992 88.5722 0.0000 32.0833 0.0000
# 4 0.0000 0.0000 0.0000 30.0073 0.0000 4.5362
# 5 20.0898 14.5829 32.0833 0.0000 32.8411 0.0000
# 6 0.0000 0.0000 0.0000 4.5362 0.0000 19.5349
#
#
#
# Elastic Compliance Matrix: (Units=1/GPa)
#
#
# Indices 1 2 3 4 5 6 
#
# 1 0.017537 -0.002736 -0.009125 0.000000 -0.000599 0.000000
# 2 -0.002736 0.017883 -0.009055 0.000000 0.002579 0.000000
# 3 -0.009125 -0.009055 0.028511 0.000000 -0.018251 0.000000
# 4 0.000000 0.000000 0.000000 0.034538 0.000000 -0.008020
# 5 -0.000599 0.002579 -0.018251 0.000000 0.047500 0.000000
# 6 0.000000 0.000000 0.000000 -0.008020 0.000000 0.053053
#
#
# Mechanical properties :
#
#
# Convention : Reuss Voigt Hill
#
# Bulk Modulus (GPa) = 45.24885 61.09532 53.17209
# Shear Modulus (GPa) = 20.14347 24.67158 22.40753
#
# Velocity S-wave (km/s) = 3.50014 3.87361 3.69160
# Velocity P-wave (km/s) = 6.62226 7.56067 7.10697
#
# Compressibility (1/GPa) = 0.02210001
#
# Stress axis : x y z
#
# Youngs Moduli (GPa) = 57.02391 55.91889 35.07362
#
# Poissons Ratio (x) = 0.15297 0.32004
# Poissons Ratio (y) = 0.15599 0.31759
# Poissons Ratio (z) = 0.52034 0.50635
#
# Static dielectric constant tensor:
#      x y z
#    x 3.138570 0.000000 0.419750 
#    y 0.000000 3.058970 0.000000 
#    z 0.419750 0.000000 3.183530 
# 
# 
# High freq. dielectric constant tensor:
#      x y z
#    x 1.598110 0.000000 0.041680 
#    y 0.000000 1.631670 0.000000 
#    z 0.041680 0.000000 1.623890 
# 
# From -- ./inp_files/179310.got.cif
#   From: 2010.06.25/outbox.cif.g09.slc.cpg/sg12_90_cif.got.tgz:179310.got - 2010.06.28 00:19:55.
