data_PCOD8080849
_publ_section_title
;
Structure prediction by ZEFSAII (Michael W. Deem and Ramdas Pophale) SiO2 
 PCOD8080849
Probable space group: C 2/M
;
_chemical_formula_sum "Si O2"
_cell_formula_units_Z 56
_cell_length_a 27.802779
_cell_length_b 8.769256
_cell_length_c 13.949507
_cell_angle_alpha 90.000000
_cell_angle_beta 81.450153
_cell_angle_gamma 90.000000
_cell_volume 3363.228985
_symmetry_space_group_name_H-M "C 2/M"
_symmetry_group_IT_number 12
_symmetry_cell_setting 'monoclinic'
loop_
_space_group_symop_operation_xyz
x,y,z
-x,y,-z
-x,-y,-z
x,-y,z
1/2+x,1/2+y,z
1/2-x,1/2+y,-z
1/2-x,1/2-y,-z
1/2+x,1/2-y,z
loop_
_atom_site_type_symbol
_atom_site_label
_atom_site_fract_x
_atom_site_fract_y
_atom_site_fract_z
Si Si1 0.734884 0.319528 0.286864
Si Si2 0.413348 0.674917 0.158286
Si Si3 0.709841 0.679073 0.079725
Si Si4 0.491365 0.832227 0.890171
Si Si5 0.887134 0.679765 0.968993
Si Si6 0.832588 0.822387 0.334598
Si Si7 0.800188 0.681422 0.523205
O O1 0.734760 0.500000 0.301529
O O2 0.720123 0.269792 0.184977
O O3 0.788706 0.257038 0.290789
O O4 0.694579 0.243968 0.369930
O O5 0.411489 0.500000 0.126410
O O6 0.469097 0.719026 0.167908
O O7 0.382089 0.704747 0.262352
O O8 0.391709 0.774949 0.078849
O O9 0.712992 0.500000 0.066864
O O10 0.656635 0.733363 0.067264
O O11 0.750000 0.750000 0.000000
O O12 0.435751 0.774527 0.894348
O O13 0.497887 0.000000 0.841885
O O14 0.500000 0.843791 0.000000
O O15 0.877904 0.500000 0.968109
O O16 0.840665 0.746712 0.437594
O O17 0.819985 0.000000 0.349696
O O18 0.800610 0.500000 0.521994
O O19 0.750000 0.750000 0.500000
#
# Coordination Sequence:
#
# PCOD8080849 Si02
#       7
#     8   8   8   8   8   8   8
#     4  10  20  33  47  65  91 123 156 189 227 269
#     4  10  19  29  46  71  96 123 154 191 233 275
#     4  11  23  35  49  69  94 126 160 193 227 267
#     4   8  16  30  46  65  90 121 154 189 232 276
#     4  10  20  33  48  66  93 127 159 193 230 271
#     4  10  19  30  45  68  96 122 150 187 230 273
#     4  10  18  29  47  67  88 118 152 187 228 272
#
# _framework density 16.650665
#
# number of rings (size 3 to 8) (size 9 to 14) (size 15 to 20)
#    0.000    2.143    0.000    6.857    0.000   10.000 
#    0.000    0.000    0.000    0.000    0.000    1.000 
#    0.000    8.000    0.000    0.000    0.000    0.000 
#
# Total GULP energy -347102.579219 kJ/mol
# GULP energy per Si atom -12396.520686 kJ/mol
# Density = 1.661277 g / cm^3
# Si number density = 16.650665 Si / 1000 Ang^3
#
#
#
# Elastic Constant Matrix: (Units=GPa)
#
#
# Indices 1 2 3 4 5 6 
#
# 1 85.4766 22.0454 51.4093 0.0000 -9.0487 0.0000
# 2 22.0454 71.6307 54.9436 0.0000 -2.6700 0.0000
# 3 51.4093 54.9436 125.9830 0.0000 -8.0210 0.0000
# 4 0.0000 0.0000 0.0000 27.9576 0.0000 -3.9404
# 5 -9.0487 -2.6700 -8.0210 0.0000 20.8483 0.0000
# 6 0.0000 0.0000 0.0000 -3.9404 0.0000 26.4353
#
#
#
# Elastic Compliance Matrix: (Units=1/GPa)
#
#
# Indices 1 2 3 4 5 6 
#
# 1 0.015909 0.000047 -0.006225 0.000000 0.004516 0.000000
# 2 0.000047 0.020993 -0.009228 0.000000 -0.000842 0.000000
# 3 -0.006225 -0.009228 0.014613 0.000000 0.001739 0.000000
# 4 0.000000 0.000000 0.000000 0.036536 0.000000 0.005446
# 5 0.004516 -0.000842 0.001739 0.000000 0.050487 0.000000
# 6 0.000000 0.000000 0.000000 0.005446 0.000000 0.038640
#
#
# Mechanical properties :
#
#
# Convention : Reuss Voigt Hill
#
# Bulk Modulus (GPa) = 48.30293 59.98745 54.14519
# Shear Modulus (GPa) = 23.26764 25.36106 24.31435
#
# Velocity S-wave (km/s) = 3.74224 3.90696 3.82548
# Velocity P-wave (km/s) = 6.90978 7.51383 7.21813
#
# Compressibility (1/GPa) = 0.02070268
#
# Stress axis : x y z
#
# Youngs Moduli (GPa) = 62.85768 47.63474 68.43249
#
# Poissons Ratio (x) = -0.00223 0.42598
# Poissons Ratio (y) = -0.00294 0.63150
# Poissons Ratio (z) = 0.39127 0.43958
#
# Static dielectric constant tensor:
#      x y z
#    x 3.474840 0.000000 -0.263160 
#    y 0.000000 3.285430 0.000000 
#    z -0.263160 0.000000 3.447920 
# 
# 
# High freq. dielectric constant tensor:
#      x y z
#    x 1.612740 0.000000 -0.021390 
#    y 0.000000 1.660100 0.000000 
#    z -0.021390 0.000000 1.633630 
# 
# From -- ./inp_files/247718.got.cif
#   From: 2010.06.25/outbox.cif.g09.slc.cpg/sg12_124_cif.got.tgz:247718.got - 2010.06.28 00:19:55.
