data_PCOD8080400
_publ_section_title
;
Structure prediction by ZEFSAII (Michael W. Deem and Ramdas Pophale) SiO2 
 PCOD8080400
Probable space group: C 2/M
;
_chemical_formula_sum "Si O2"
_cell_formula_units_Z 56
_cell_length_a 27.776357
_cell_length_b 9.750711
_cell_length_c 15.086263
_cell_angle_alpha 90.000000
_cell_angle_beta 49.007418
_cell_angle_gamma 90.000000
_cell_volume 3084.054037
_symmetry_space_group_name_H-M "C 2/M"
_symmetry_group_IT_number 12
_symmetry_cell_setting 'monoclinic'
loop_
_space_group_symop_operation_xyz
x,y,z
-x,y,-z
-x,-y,-z
x,-y,z
1/2+x,1/2+y,z
1/2-x,1/2+y,-z
1/2-x,1/2-y,-z
1/2+x,1/2-y,z
loop_
_atom_site_type_symbol
_atom_site_label
_atom_site_fract_x
_atom_site_fract_y
_atom_site_fract_z
Si Si1 0.442089 0.160752 0.636230
Si Si2 0.701366 0.653592 0.606906
Si Si3 0.959297 0.837051 0.964749
Si Si4 0.178872 0.838741 0.828539
Si Si5 0.127624 0.849320 0.529387
Si Si6 0.818078 0.340239 0.677175
Si Si7 0.014043 0.840874 0.265060
O O1 0.500000 0.202042 0.500000
O O2 0.373277 0.201154 0.678623
O O3 0.440850 0.245762 0.729207
O O4 0.446436 0.000000 0.653238
O O5 0.729934 0.500000 0.583452
O O6 0.750000 0.750000 0.500000
O O7 0.683174 0.717150 0.723229
O O8 0.638588 0.650513 0.621754
O O9 0.886297 0.777270 0.051931
O O10 0.959744 0.000000 0.971836
O O11 0.987461 0.790990 0.835566
O O12 0.000000 0.778189 0.000000
O O13 0.245876 0.801959 0.798415
O O14 0.169676 0.000000 0.837981
O O15 0.171005 0.737619 0.428441
O O16 0.053682 0.817244 0.606645
O O17 0.144076 0.000000 0.470102
O O18 0.822099 0.500000 0.649601
O O19 0.035907 0.000000 0.244025
#
# Coordination Sequence:
#
# PCOD8080400 Si02
#       7
#     8   8   8   8   8   8   8
#     4  10  20  34  52  74 103 139 177 213 254 309
#     4  10  18  28  45  71 101 130 162 201 250 305
#     4   9  17  32  54  78 104 135 172 212 252 305
#     4   9  17  30  49  71  99 134 171 209 249 301
#     4  10  19  29  45  74 106 130 159 208 261 303
#     4  10  19  32  50  73  99 132 171 207 250 305
#     4  10  20  33  53  79 104 133 172 217 263 302
#
# _framework density 18.157917999999999
#
# number of rings (size 3 to 8) (size 9 to 14) (size 15 to 20)
#    0.000    2.286    2.857    0.857    0.000    4.286 
#    0.000    0.714    0.000    2.143    0.000    0.000 
#    0.000    0.000    0.000    0.000    0.000    0.000 
#
# Total GULP energy -346904.073337 kJ/mol
# GULP energy per Si atom -12389.431191 kJ/mol
# Density = 1.811659 g / cm^3
# Si number density = 18.157918 Si / 1000 Ang^3
#
#
#
# Elastic Constant Matrix: (Units=GPa)
#
#
# Indices 1 2 3 4 5 6 
#
# 1 122.7436 23.5399 38.3994 0.0000 -4.0025 0.0000
# 2 23.5399 35.3906 24.4459 0.0001 2.8190 -0.0001
# 3 38.3994 24.4459 72.6183 0.0000 -1.0316 0.0000
# 4 0.0000 0.0001 0.0000 18.0111 0.0000 5.0559
# 5 -4.0025 2.8190 -1.0316 0.0000 32.4396 0.0000
# 6 0.0000 -0.0001 0.0000 5.0559 0.0000 16.5454
#
#
#
# Elastic Compliance Matrix: (Units=1/GPa)
#
#
# Indices 1 2 3 4 5 6 
#
# 1 0.010245 -0.004178 -0.003990 0.000000 0.001500 0.000000
# 2 -0.004178 0.038945 -0.010961 0.000000 -0.004248 0.000000
# 3 -0.003990 -0.010961 0.019586 0.000000 0.001083 0.000000
# 4 0.000000 0.000000 0.000000 0.060731 0.000000 -0.018558
# 5 0.001500 -0.004248 0.001083 0.000000 0.031415 0.000000
# 6 0.000000 0.000000 0.000000 -0.018558 0.000000 0.066111
#
#
# Mechanical properties :
#
#
# Convention : Reuss Voigt Hill
#
# Bulk Modulus (GPa) = 32.76790 44.83588 38.80189
# Shear Modulus (GPa) = 18.15118 23.02371 20.58745
#
# Velocity S-wave (km/s) = 3.16512 3.56472 3.37085
# Velocity P-wave (km/s) = 5.60737 6.45668 6.04696
#
# Compressibility (1/GPa) = 0.03051767
#
# Stress axis : x y z
#
# Youngs Moduli (GPa) = 97.60404 25.67715 51.05780
#
# Poissons Ratio (x) = 0.10729 0.20371
# Poissons Ratio (y) = 0.40782 0.55965
# Poissons Ratio (z) = 0.38942 0.28145
#
# Static dielectric constant tensor:
#      x y z
#    x 3.738460 0.000000 -0.103940 
#    y 0.000000 3.040900 0.000000 
#    z -0.103940 0.000000 3.353160 
# 
# 
# High freq. dielectric constant tensor:
#      x y z
#    x 1.719920 0.000000 -0.005660 
#    y 0.000000 1.666200 0.000000 
#    z -0.005660 0.000000 1.681280 
# 
# From -- ./inp_files/182467.got.cif
#   From: 2010.06.25/outbox.cif.g09.slc.cpg/sg12_92_cif.got.tgz:182467.got - 2010.06.28 00:19:55.
