data_PCOD8080161
_publ_section_title
;
Structure prediction by ZEFSAII (Michael W. Deem and Ramdas Pophale) SiO2 
 PCOD8080161
Probable space group: C 2/M
;
_chemical_formula_sum "Si O2"
_cell_formula_units_Z 60
_cell_length_a 24.213217
_cell_length_b 10.034891
_cell_length_c 21.620595
_cell_angle_alpha 90.000000
_cell_angle_beta 44.663705
_cell_angle_gamma 90.000000
_cell_volume 3692.782296
_symmetry_space_group_name_H-M "C 2/M"
_symmetry_group_IT_number 12
_symmetry_cell_setting 'monoclinic'
loop_
_space_group_symop_operation_xyz
x,y,z
-x,y,-z
-x,-y,-z
x,-y,z
1/2+x,1/2+y,z
1/2-x,1/2+y,-z
1/2-x,1/2-y,-z
1/2+x,1/2-y,z
loop_
_atom_site_type_symbol
_atom_site_label
_atom_site_fract_x
_atom_site_fract_y
_atom_site_fract_z
Si Si1 0.566017 0.340135 0.401360
Si Si2 0.511431 0.349229 0.794794
Si Si3 0.118650 0.853494 0.000732
Si Si4 0.752779 0.149996 0.880080
Si Si5 0.426224 0.342132 0.742275
Si Si6 0.101108 0.653343 0.807424
Si Si7 0.000000 0.257471 0.000000
Si Si8 0.737181 0.350946 0.273110
O O1 0.500000 0.282643 0.500000
O O2 0.567881 0.500000 0.401101
O O3 0.547459 0.289133 0.346426
O O4 0.651936 0.283514 0.354192
O O5 0.546614 0.500000 0.765549
O O6 0.489676 0.298783 0.743005
O O7 0.572901 0.245423 0.773740
O O8 0.432633 0.348541 0.897016
O O9 0.186080 0.746095 0.959380
O O10 0.156780 0.000000 0.962714
O O11 0.065296 0.830982 0.982458
O O12 0.838543 0.208020 0.830073
O O13 0.745233 0.148439 0.812912
O O14 0.738928 0.000000 0.917074
O O15 0.419194 0.500000 0.744535
O O16 0.104519 0.500000 0.782697
O O17 0.187451 0.715096 0.753803
O O18 0.044264 0.655309 0.912747
O O19 0.732754 0.500000 0.302308
#
# Coordination Sequence:
#
# PCOD8080161 Si02
#       8
#     8   8   8   8   8   8   4   8
#     4   8  13  23  45  73  91 106 136 180 226 268
#     4   9  19  32  42  58  87 125 154 177 214 261
#     4  10  19  28  39  58  86 118 154 188 218 251
#     4   9  16  28  45  62  82 115 149 184 226 261
#     4   8  15  29  46  61  86 118 146 176 219 267
#     4  10  18  28  44  64  86 116 153 190 220 253
#     4  10  18  28  42  58  84 120 156 190 218 256
#     4   8  14  25  40  63  91 111 135 181 231 261
#
# _framework density 16.247910999999998
#
# number of rings (size 3 to 8) (size 9 to 14) (size 15 to 20)
#    0.000    3.067    1.333    2.000    0.000    3.200 
#    0.000    0.667    0.000    0.800    0.000    0.000 
#    0.000   18.133    0.000    0.000    0.000    0.000 
#
# Total GULP energy -371663.075936 kJ/mol
# GULP energy per Si atom -12388.769198 kJ/mol
# Density = 1.621093 g / cm^3
# Si number density = 16.247911 Si / 1000 Ang^3
#
#
#
# Elastic Constant Matrix: (Units=GPa)
#
#
# Indices 1 2 3 4 5 6 
#
# 1 124.7000 34.3016 47.3281 0.0000 -5.4816 0.0000
# 2 34.3016 55.5803 20.8140 0.0001 -4.2102 -0.0001
# 3 47.3281 20.8140 61.4840 0.0000 -8.6285 -0.0001
# 4 0.0000 0.0001 0.0000 6.2596 0.0000 0.1470
# 5 -5.4816 -4.2102 -8.6285 0.0000 17.4480 0.0000
# 6 0.0000 -0.0001 -0.0001 0.1470 0.0000 16.0025
#
#
#
# Elastic Compliance Matrix: (Units=1/GPa)
#
#
# Indices 1 2 3 4 5 6 
#
# 1 0.012313 -0.004671 -0.008072 0.000000 -0.001251 0.000000
# 2 -0.004671 0.022419 -0.003698 0.000000 0.002114 0.000000
# 3 -0.008072 -0.003698 0.024983 0.000000 0.008926 0.000000
# 4 0.000000 0.000000 0.000000 0.159790 0.000000 -0.001467
# 5 -0.001251 0.002114 0.008926 0.000000 0.061845 0.000000
# 6 0.000000 0.000000 0.000000 -0.001467 0.000000 0.062504
#
#
# Mechanical properties :
#
#
# Convention : Reuss Voigt Hill
#
# Bulk Modulus (GPa) = 37.26680 49.62797 43.44739
# Shear Modulus (GPa) = 12.96416 17.23004 15.09710
#
# Velocity S-wave (km/s) = 2.82777 3.25998 3.05154
# Velocity P-wave (km/s) = 5.80068 6.69182 6.26212
#
# Compressibility (1/GPa) = 0.02683353
#
# Stress axis : x y z
#
# Youngs Moduli (GPa) = 81.21669 44.60438 40.02799
#
# Poissons Ratio (x) = 0.20833 0.32312
# Poissons Ratio (y) = 0.37933 0.14801
# Poissons Ratio (z) = 0.65560 0.16493
#
# Static dielectric constant tensor:
#      x y z
#    x 3.291640 0.000000 -0.103390 
#    y 0.000000 2.807370 0.000000 
#    z -0.103390 0.000000 3.029640 
# 
# 
# High freq. dielectric constant tensor:
#      x y z
#    x 1.630900 0.000000 -0.010660 
#    y 0.000000 1.583730 0.000000 
#    z -0.010660 0.000000 1.595910 
# 
# From -- ./inp_files/348833.got.cif
#   From: 2010.06.25/outbox.cif.g09.slc.cpg/sg12_175_cif.got.tgz:348833.got - 2010.06.28 00:19:55.
