data_PCOD8080687
_publ_section_title
;
Structure prediction by ZEFSAII (Michael W. Deem and Ramdas Pophale) SiO2 
 PCOD8080687
Probable space group: C 2/M
;
_chemical_formula_sum "Si O2"
_cell_formula_units_Z 64
_cell_length_a 32.866116
_cell_length_b 8.964785
_cell_length_c 13.992302
_cell_angle_alpha 90.000000
_cell_angle_beta 96.713648
_cell_angle_gamma 90.000000
_cell_volume 4094.389397
_symmetry_space_group_name_H-M "C 2/M"
_symmetry_group_IT_number 12
_symmetry_cell_setting 'monoclinic'
loop_
_space_group_symop_operation_xyz
x,y,z
-x,y,-z
-x,-y,-z
x,-y,z
1/2+x,1/2+y,z
1/2-x,1/2+y,-z
1/2-x,1/2-y,-z
1/2+x,1/2-y,z
loop_
_atom_site_type_symbol
_atom_site_label
_atom_site_fract_x
_atom_site_fract_y
_atom_site_fract_z
Si Si1 0.515435 0.174172 0.788303
Si Si2 0.635922 0.323139 0.318326
Si Si3 0.382341 0.176999 0.488477
Si Si4 0.545695 0.667755 0.973696
Si Si5 0.204894 0.664768 0.586689
Si Si6 0.074617 0.674235 0.160715
Si Si7 0.218094 0.665416 0.365513
Si Si8 0.466261 0.177088 0.418112
O O1 0.545677 0.259988 0.868600
O O2 0.468076 0.206077 0.797664
O O3 0.524776 0.237463 0.685398
O O4 0.525377 0.000000 0.800299
O O5 0.635024 0.500000 0.323987
O O6 0.616571 0.256565 0.409211
O O7 0.609697 0.266869 0.222263
O O8 0.682536 0.270177 0.314217
O O9 0.341916 0.223565 0.416611
O O10 0.421434 0.229907 0.438930
O O11 0.382180 0.000000 0.508432
O O12 0.563399 0.500000 0.973279
O O13 0.500000 0.666751 0.000000
O O14 0.573303 0.768024 0.051371
O O15 0.208899 0.500000 0.632702
O O16 0.215014 0.658130 0.478009
O O17 0.237062 0.770533 0.650353
O O18 0.085462 0.500000 0.164337
O O19 0.213865 0.500000 0.320239
O O20 0.500000 0.243683 0.500000
O O21 0.469286 0.000000 0.418819
#
# Coordination Sequence:
#
# PCOD8080687 Si02
#       8
#     8   8   8   8   8   8   8   8
#     4   9  17  29  46  64  82 110 147 182 213 246
#     4  11  20  28  40  60  87 114 140 172 212 256
#     4   9  17  29  43  59  82 114 149 181 211 245
#     4   9  17  29  44  62  84 108 136 173 217 259
#     4   8  14  24  38  56  78 105 138 174 210 246
#     4  10  18  29  45  63  84 110 142 176 211 254
#     4   9  16  26  40  57  78 106 138 170 207 251
#     4   9  16  27  44  64  85 112 149 186 212 238
#
# _framework density 15.631147
#
# number of rings (size 3 to 8) (size 9 to 14) (size 15 to 20)
#    0.000    2.750    0.000    3.750    0.000    7.000 
#    0.000    0.625    0.000    1.500    0.000    0.000 
#    0.000    1.000    0.000    2.750    0.000    4.250 
#
# Total GULP energy -396713.514759 kJ/mol
# GULP energy per Si atom -12397.297336 kJ/mol
# Density = 1.559557 g / cm^3
# Si number density = 15.631147 Si / 1000 Ang^3
#
#
#
# Elastic Constant Matrix: (Units=GPa)
#
#
# Indices 1 2 3 4 5 6 
#
# 1 98.0306 34.7748 48.0342 0.0000 10.9645 0.0000
# 2 34.7748 76.4060 36.8287 0.0000 10.4016 0.0000
# 3 48.0342 36.8287 99.4267 0.0000 8.0012 0.0000
# 4 0.0000 0.0000 0.0000 20.3145 0.0000 8.4511
# 5 10.9645 10.4016 8.0012 0.0000 14.6691 0.0000
# 6 0.0000 0.0000 0.0000 8.4511 0.0000 19.7272
#
#
#
# Elastic Compliance Matrix: (Units=1/GPa)
#
#
# Indices 1 2 3 4 5 6 
#
# 1 0.014650 -0.003292 -0.005402 0.000000 -0.005669 0.000000
# 2 -0.003292 0.017741 -0.004358 0.000000 -0.007742 0.000000
# 3 -0.005402 -0.004358 0.014337 0.000000 -0.000692 0.000000
# 4 0.000000 0.000000 0.000000 0.059902 0.000000 -0.025662
# 5 -0.005669 -0.007742 -0.000692 0.000000 0.078276 0.000000
# 6 0.000000 0.000000 0.000000 -0.025662 0.000000 0.061685
#
#
# Mechanical properties :
#
#
# Convention : Reuss Voigt Hill
#
# Bulk Modulus (GPa) = 48.48660 57.01541 52.75100
# Shear Modulus (GPa) = 17.88474 21.22385 19.55430
#
# Velocity S-wave (km/s) = 3.38623 3.68882 3.54076
# Velocity P-wave (km/s) = 6.80994 7.39580 7.10891
#
# Compressibility (1/GPa) = 0.02062426
#
# Stress axis : x y z
#
# Youngs Moduli (GPa) = 68.26121 56.36714 69.74819
#
# Poissons Ratio (x) = 0.18556 0.37677
# Poissons Ratio (y) = 0.22471 0.30396
# Poissons Ratio (z) = 0.36873 0.24565
#
# Static dielectric constant tensor:
#      x y z
#    x 3.040750 0.000000 0.159150 
#    y 0.000000 3.024270 0.000000 
#    z 0.159150 0.000000 2.832190 
# 
# 
# High freq. dielectric constant tensor:
#      x y z
#    x 1.583010 0.000000 0.024410 
#    y 0.000000 1.597980 0.000000 
#    z 0.024410 0.000000 1.567950 
# 
# From -- ./inp_files/248489.got.cif
#   From: 2010.06.25/outbox.cif.g09.slc.cpg/sg12_125_cif.got.tgz:248489.got - 2010.06.28 00:19:55.
