data_PCOD8080466
_publ_section_title
;
Structure prediction by ZEFSAII (Michael W. Deem and Ramdas Pophale) SiO2 
 PCOD8080466
Probable space group: C 2/M
;
_chemical_formula_sum "Si O2"
_cell_formula_units_Z 56
_cell_length_a 27.652874
_cell_length_b 8.858761
_cell_length_c 18.155145
_cell_angle_alpha 90.000000
_cell_angle_beta 131.321326
_cell_angle_gamma 90.000000
_cell_volume 3340.131555
_symmetry_space_group_name_H-M "C 2/M"
_symmetry_group_IT_number 12
_symmetry_cell_setting 'monoclinic'
loop_
_space_group_symop_operation_xyz
x,y,z
-x,y,-z
-x,-y,-z
x,-y,z
1/2+x,1/2+y,z
1/2-x,1/2+y,-z
1/2-x,1/2-y,-z
1/2+x,1/2-y,z
loop_
_atom_site_type_symbol
_atom_site_label
_atom_site_fract_x
_atom_site_fract_y
_atom_site_fract_z
Si Si1 0.064936 0.334015 0.611254
Si Si2 0.748549 0.821675 0.418559
Si Si3 0.372463 0.676149 0.778155
Si Si4 0.995172 0.175180 0.661196
Si Si5 0.568886 0.169386 0.031224
Si Si6 0.992532 0.173869 0.158435
Si Si7 0.371140 0.821739 0.469545
O O1 0.081629 0.500000 0.660054
O O2 0.055583 0.218010 0.669285
O O3 0.119433 0.281356 0.607812
O O4 0.000000 0.344385 0.500000
O O5 0.750000 0.750000 0.500000
O O6 0.684587 0.773466 0.312438
O O7 0.809201 0.768015 0.432821
O O8 0.750647 0.000000 0.429284
O O9 0.354886 0.500000 0.757877
O O10 0.382792 0.726141 0.873274
O O11 0.434990 0.714996 0.792476
O O12 0.016600 0.213097 0.765393
O O13 0.932451 0.272129 0.579211
O O14 0.978047 0.000000 0.634184
O O15 0.596604 0.000000 0.055664
O O16 0.500000 0.173777 0.000000
O O17 0.560725 0.232130 0.940303
O O18 0.979180 0.000000 0.127604
O O19 0.361623 0.000000 0.471251
#
# Coordination Sequence:
#
# PCOD8080466 Si02
#       7
#     8   8   8   8   8   8   8
#     4   8  16  30  46  65  91 123 157 193 236 284
#     4  12  24  36  50  70  96 126 162 197 231 274
#     4  10  19  33  50  67  94 129 161 193 231 275
#     4  10  18  28  46  72  99 125 157 197 239 282
#     4   9  17  29  46  68  92 120 156 195 234 276
#     4   9  18  30  45  68  96 125 155 190 234 280
#     4  10  20  34  49  66  93 128 163 197 235 279
#
# _framework density 16.765808
#
# number of rings (size 3 to 8) (size 9 to 14) (size 15 to 20)
#    0.000    2.286    0.000    4.714    0.000    7.714 
#    0.000    0.000    0.000    0.000    0.000    1.000 
#    0.000    0.000    0.000    0.000    0.000    0.000 
#
# Total GULP energy -347165.834081 kJ/mol
# GULP energy per Si atom -12398.779789 kJ/mol
# Density = 1.672765 g / cm^3
# Si number density = 16.765808 Si / 1000 Ang^3
#
#
#
# Elastic Constant Matrix: (Units=GPa)
#
#
# Indices 1 2 3 4 5 6 
#
# 1 96.7322 49.9284 48.3662 0.0000 -15.5314 0.0000
# 2 49.9284 108.2128 49.8189 0.0000 -9.1607 0.0000
# 3 48.3662 49.8189 91.8784 0.0000 -16.7369 0.0000
# 4 0.0000 0.0000 0.0000 31.1490 0.0000 -2.6565
# 5 -15.5314 -9.1607 -16.7369 0.0000 20.0237 0.0000
# 6 0.0000 0.0000 0.0000 -2.6565 0.0000 26.8118
#
#
#
# Elastic Compliance Matrix: (Units=1/GPa)
#
#
# Indices 1 2 3 4 5 6 
#
# 1 0.016205 -0.004724 -0.004805 0.000000 0.006392 0.000000
# 2 -0.004724 0.013692 -0.005266 0.000000 -0.001801 0.000000
# 3 -0.004805 -0.005266 0.017872 0.000000 0.008803 0.000000
# 4 0.000000 0.000000 0.000000 0.032377 0.000000 0.003208
# 5 0.006392 -0.001801 0.008803 0.000000 0.061432 0.000000
# 6 0.000000 0.000000 0.000000 0.003208 0.000000 0.037615
#
#
# Mechanical properties :
#
#
# Convention : Reuss Voigt Hill
#
# Bulk Modulus (GPa) = 55.00369 65.89450 60.44909
# Shear Modulus (GPa) = 23.27294 25.51088 24.39191
#
# Velocity S-wave (km/s) = 3.72979 3.90500 3.81840
# Velocity P-wave (km/s) = 7.17124 7.72789 7.45476
#
# Compressibility (1/GPa) = 0.01818060
#
# Stress axis : x y z
#
# Youngs Moduli (GPa) = 61.71117 73.03391 55.95334
#
# Poissons Ratio (x) = 0.34498 0.26884
# Poissons Ratio (y) = 0.29149 0.29464
# Poissons Ratio (z) = 0.29650 0.38459
#
# Static dielectric constant tensor:
#      x y z
#    x 3.337360 0.000000 -0.250110 
#    y 0.000000 3.283740 0.000000 
#    z -0.250110 0.000000 3.086080 
# 
# 
# High freq. dielectric constant tensor:
#      x y z
#    x 1.627040 0.000000 -0.021570 
#    y 0.000000 1.660410 0.000000 
#    z -0.021570 0.000000 1.626550 
# 
# From -- ./inp_files/291836.got.cif
#   From: 2010.06.25/outbox.cif.g09.slc.cpg/sg12_146_cif.got.tgz:291836.got - 2010.06.28 00:19:55.
