data_PCOD8080248
_publ_section_title
;
Structure prediction by ZEFSAII (Michael W. Deem and Ramdas Pophale) SiO2 
 PCOD8080248
Probable space group: C 2/M
;
_chemical_formula_sum "Si O2"
_cell_formula_units_Z 64
_cell_length_a 28.650224
_cell_length_b 9.024835
_cell_length_c 14.560017
_cell_angle_alpha 90.000000
_cell_angle_beta 108.092233
_cell_angle_gamma 90.000000
_cell_volume 3578.555208
_symmetry_space_group_name_H-M "C 2/M"
_symmetry_group_IT_number 12
_symmetry_cell_setting 'monoclinic'
loop_
_space_group_symop_operation_xyz
x,y,z
-x,y,-z
-x,-y,-z
x,-y,z
1/2+x,1/2+y,z
1/2-x,1/2+y,-z
1/2-x,1/2-y,-z
1/2+x,1/2-y,z
loop_
_atom_site_type_symbol
_atom_site_label
_atom_site_fract_x
_atom_site_fract_y
_atom_site_fract_z
Si Si1 0.792763 0.173354 0.413888
Si Si2 0.494726 0.323998 0.889898
Si Si3 0.342900 0.675532 0.266943
Si Si4 0.753867 0.832062 0.096510
Si Si5 0.854448 0.666692 0.959050
Si Si6 0.406715 0.325150 0.145576
Si Si7 0.191379 0.174095 0.367267
Si Si8 0.396870 0.825374 0.793546
O O1 0.836248 0.225150 0.369333
O O2 0.812648 0.208593 0.526840
O O3 0.742411 0.259794 0.360730
O O4 0.780672 0.000000 0.393793
O O5 0.488303 0.500000 0.879889
O O6 0.541383 0.264543 0.859528
O O7 0.449936 0.246690 0.808798
O O8 0.500000 0.274767 0.000000
O O9 0.343039 0.500000 0.263537
O O10 0.294746 0.740267 0.186618
O O11 0.391673 0.730546 0.240369
O O12 0.700951 0.819580 0.112866
O O13 0.768524 0.000000 0.084263
O O14 0.750000 0.750000 0.000000
O O15 0.865617 0.500000 0.999324
O O16 0.888212 0.711421 0.894795
O O17 0.863821 0.774249 0.050372
O O18 0.408291 0.500000 0.143718
O O19 0.144291 0.250456 0.294091
O O20 0.190347 0.000000 0.345492
O O21 0.397316 0.000000 0.773192
#
# Coordination Sequence:
#
# PCOD8080248 Si02
#       8
#     8   8   8   8   8   8   8   8
#     4   9  18  35  57  79 107 138 170 209 255 311
#     4  10  20  34  52  76 105 133 170 220 266 304
#     4   9  17  31  51  72  99 137 174 204 248 305
#     4  10  18  28  43  65  96 130 163 198 235 285
#     4  10  20  31  45  69 100 133 169 208 248 296
#     4  10  19  32  51  72  98 135 170 206 252 301
#     4  10  20  34  55  82 107 133 169 216 263 305
#     4  11  22  35  54  75 101 138 175 214 260 311
#
# _framework density 17.884312000000001
#
# number of rings (size 3 to 8) (size 9 to 14) (size 15 to 20)
#    0.000    2.125    2.500    1.500    0.000    3.750 
#    0.000    2.500    0.000    0.750    0.000    5.250 
#    0.000    0.000    0.000    0.000    0.000    0.000 
#
# Total GULP energy -396550.757805 kJ/mol
# GULP energy per Si atom -12392.211181 kJ/mol
# Density = 1.784361 g / cm^3
# Si number density = 17.884312 Si / 1000 Ang^3
#
#
#
# Elastic Constant Matrix: (Units=GPa)
#
#
# Indices 1 2 3 4 5 6 
#
# 1 124.8065 32.0753 56.7470 0.0000 -17.6517 0.0000
# 2 32.0753 43.1451 25.8772 0.0000 2.7613 0.0000
# 3 56.7470 25.8772 73.0949 0.0000 -11.6915 0.0000
# 4 0.0000 0.0000 0.0000 21.7408 0.0000 4.8444
# 5 -17.6517 2.7613 -11.6915 0.0000 34.6562 0.0000
# 6 0.0000 0.0000 0.0000 4.8444 0.0000 24.0870
#
#
#
# Elastic Compliance Matrix: (Units=1/GPa)
#
#
# Indices 1 2 3 4 5 6 
#
# 1 0.013762 -0.005834 -0.007847 0.000000 0.004827 0.000000
# 2 -0.005834 0.033212 -0.008591 0.000000 -0.008516 0.000000
# 3 -0.007847 -0.008591 0.023555 0.000000 0.004634 0.000000
# 4 0.000000 0.000000 0.000000 0.048155 0.000000 -0.009685
# 5 0.004827 -0.008516 0.004634 0.000000 0.033556 0.000000
# 6 0.000000 0.000000 0.000000 -0.009685 0.000000 0.043464
#
#
# Mechanical properties :
#
#
# Convention : Reuss Voigt Hill
#
# Bulk Modulus (GPa) = 38.48130 52.27175 45.37652
# Shear Modulus (GPa) = 20.08765 24.51992 22.30379
#
# Velocity S-wave (km/s) = 3.35505 3.70676 3.53528
# Velocity P-wave (km/s) = 6.04748 6.90009 6.48781
#
# Compressibility (1/GPa) = 0.02598665
#
# Stress axis : x y z
#
# Youngs Moduli (GPa) = 72.66258 30.10940 42.45329
#
# Poissons Ratio (x) = 0.17565 0.33312
# Poissons Ratio (y) = 0.42391 0.36471
# Poissons Ratio (z) = 0.57017 0.25866
#
# Static dielectric constant tensor:
#      x y z
#    x 3.801100 0.000000 -0.314050 
#    y 0.000000 3.202280 0.000000 
#    z -0.314050 0.000000 3.346690 
# 
# 
# High freq. dielectric constant tensor:
#      x y z
#    x 1.695260 0.000000 -0.015380 
#    y 0.000000 1.677550 0.000000 
#    z -0.015380 0.000000 1.673790 
# 
# From -- ./inp_files/244190.got.cif
#   From: 2010.06.25/outbox.cif.g09.slc.cpg/sg12_123_cif.got.tgz:244190.got - 2010.06.28 00:19:55.
