data_PCOD8080266
_publ_section_title
;
Structure prediction by ZEFSAII (Michael W. Deem and Ramdas Pophale) SiO2 
 PCOD8080266
Probable space group: C 2/M
;
_chemical_formula_sum "Si O2"
_cell_formula_units_Z 56
_cell_length_a 27.609004
_cell_length_b 9.131194
_cell_length_c 16.043242
_cell_angle_alpha 90.000000
_cell_angle_beta 115.820850
_cell_angle_gamma 90.000000
_cell_volume 3640.745439
_symmetry_space_group_name_H-M "C 2/M"
_symmetry_group_IT_number 12
_symmetry_cell_setting 'monoclinic'
loop_
_space_group_symop_operation_xyz
x,y,z
-x,y,-z
-x,-y,-z
x,-y,z
1/2+x,1/2+y,z
1/2-x,1/2+y,-z
1/2-x,1/2-y,-z
1/2+x,1/2-y,z
loop_
_atom_site_type_symbol
_atom_site_label
_atom_site_fract_x
_atom_site_fract_y
_atom_site_fract_z
Si Si1 0.507846 0.673397 0.308133
Si Si2 0.200599 0.329822 0.863969
Si Si3 0.193309 0.672179 0.049747
Si Si4 0.939940 0.160964 0.488435
Si Si5 0.982380 0.673073 0.854412
Si Si6 0.582397 0.827320 0.035850
Si Si7 0.093390 0.672261 0.688609
O O1 0.498435 0.500000 0.295180
O O2 0.554659 0.710477 0.411003
O O3 0.529155 0.737875 0.237769
O O4 0.451553 0.747362 0.290550
O O5 0.213452 0.500000 0.866723
O O6 0.253409 0.244975 0.871922
O O7 0.151006 0.284505 0.768870
O O8 0.186481 0.285431 0.947888
O O9 0.198462 0.500000 0.066596
O O10 0.141218 0.737010 0.058872
O O11 0.906648 0.276427 0.408097
O O12 0.000000 0.150702 0.500000
O O13 0.912736 0.000000 0.461089
O O14 0.983792 0.500000 0.836668
O O15 0.934488 0.713629 0.882772
O O16 0.038450 0.729424 0.936290
O O17 0.583340 0.000000 0.026137
O O18 0.082407 0.500000 0.685130
#
# Coordination Sequence:
#
# PCOD8080266 Si02
#       7
#     8   8   8   8   8   8   8
#     4  10  19  29  41  61  90 116 138 169 209 251
#     4   9  18  29  41  62  87 109 138 174 208 241
#     4   9  16  28  44  60  83 114 143 168 200 246
#     4   8  16  29  41  57  85 114 136 166 209 253
#     4   9  16  28  46  64  84 112 144 174 206 245
#     4   8  15  28  45  64  85 111 143 177 208 240
#     4  10  18  28  44  63  84 111 143 176 207 245
#
# _framework density 15.381467000000001
#
# number of rings (size 3 to 8) (size 9 to 14) (size 15 to 20)
#    0.000    3.000    0.000    3.429    0.000    6.571 
#    0.000    5.714    0.000    0.000    0.000    1.000 
#    0.000    0.000    0.000    0.000    0.000    0.000 
#
# Total GULP energy -347074.998563 kJ/mol
# GULP energy per Si atom -12395.535663 kJ/mol
# Density = 1.534646 g / cm^3
# Si number density = 15.381467 Si / 1000 Ang^3
#
#
#
# Elastic Constant Matrix: (Units=GPa)
#
#
# Indices 1 2 3 4 5 6 
#
# 1 107.5150 37.4445 53.8729 0.0000 1.5103 0.0000
# 2 37.4445 54.4093 47.6819 0.0000 2.8699 0.0000
# 3 53.8729 47.6819 118.7340 0.0000 -1.5926 0.0000
# 4 0.0000 0.0000 0.0000 22.1992 0.0000 1.5863
# 5 1.5103 2.8699 -1.5926 0.0000 21.5787 0.0000
# 6 0.0000 0.0000 0.0000 1.5863 0.0000 19.8642
#
#
#
# Elastic Compliance Matrix: (Units=1/GPa)
#
#
# Indices 1 2 3 4 5 6 
#
# 1 0.013164 -0.005862 -0.003625 0.000000 -0.000409 0.000000
# 2 -0.005862 0.031437 -0.010026 0.000000 -0.004511 0.000000
# 3 -0.003625 -0.010026 0.014128 0.000000 0.002630 0.000000
# 4 0.000000 0.000000 0.000000 0.045305 0.000000 -0.003618
# 5 -0.000409 -0.004511 0.002630 0.000000 0.047165 0.000000
# 6 0.000000 0.000000 0.000000 -0.003618 0.000000 0.050631
#
#
# Mechanical properties :
#
#
# Convention : Reuss Voigt Hill
#
# Bulk Modulus (GPa) = 50.74609 62.07298 56.40954
# Shear Modulus (GPa) = 20.20830 22.17235 21.19033
#
# Velocity S-wave (km/s) = 3.62858 3.80082 3.71570
# Velocity P-wave (km/s) = 7.11469 7.72690 7.42711
#
# Compressibility (1/GPa) = 0.01970595
#
# Stress axis : x y z
#
# Youngs Moduli (GPa) = 75.96220 31.80943 70.78068
#
# Poissons Ratio (x) = 0.18646 0.25655
# Poissons Ratio (y) = 0.44528 0.70962
# Poissons Ratio (z) = 0.27533 0.31891
#
# Static dielectric constant tensor:
#      x y z
#    x 2.941740 0.000000 -0.020480 
#    y 0.000000 2.844250 0.000000 
#    z -0.020480 0.000000 3.153790 
# 
# 
# High freq. dielectric constant tensor:
#      x y z
#    x 1.561970 0.000000 -0.000430 
#    y 0.000000 1.581770 0.000000 
#    z -0.000430 0.000000 1.586830 
# 
# From -- ./inp_files/247924.got.cif
#   From: 2010.06.25/outbox.cif.g09.slc.cpg/sg12_124_cif.got.tgz:247924.got - 2010.06.28 00:19:55.
