data_PCOD8080914
_publ_section_title
;
Structure prediction by ZEFSAII (Michael W. Deem and Ramdas Pophale) SiO2 
 PCOD8080914
Probable space group: C 2/M
;
_chemical_formula_sum "Si O2"
_cell_formula_units_Z 56
_cell_length_a 19.343465
_cell_length_b 8.996544
_cell_length_c 31.267750
_cell_angle_alpha 90.000000
_cell_angle_beta 145.343829
_cell_angle_gamma 90.000000
_cell_volume 3094.225764
_symmetry_space_group_name_H-M "C 2/M"
_symmetry_group_IT_number 12
_symmetry_cell_setting 'monoclinic'
loop_
_space_group_symop_operation_xyz
x,y,z
-x,y,-z
-x,-y,-z
x,-y,z
1/2+x,1/2+y,z
1/2-x,1/2+y,-z
1/2-x,1/2-y,-z
1/2+x,1/2-y,z
loop_
_atom_site_type_symbol
_atom_site_label
_atom_site_fract_x
_atom_site_fract_y
_atom_site_fract_z
Si Si1 0.145470 0.670823 0.421126
Si Si2 0.160311 0.824197 0.811245
Si Si3 0.262192 0.328917 0.938459
Si Si4 0.090610 0.327006 0.298186
Si Si5 0.681317 0.670912 0.264103
Si Si6 0.423497 0.669569 0.097042
Si Si7 0.373496 0.174851 0.292624
O O1 0.158674 0.500000 0.439033
O O2 0.250000 0.750000 0.500000
O O3 0.160860 0.701335 0.378414
O O4 0.012882 0.727673 0.369042
O O5 0.266378 0.768595 0.897307
O O6 0.186644 0.759762 0.777812
O O7 0.033382 0.765961 0.766098
O O8 0.157886 0.000000 0.807969
O O9 0.246586 0.500000 0.917601
O O10 0.146987 0.282651 0.908489
O O11 0.385705 0.302043 0.028399
O O12 0.058258 0.500000 0.276465
O O13 0.177292 0.272813 0.304092
O O14 0.687463 0.500000 0.281956
O O15 0.566602 0.698717 0.174666
O O16 0.801314 0.716077 0.298825
O O17 0.389494 0.500000 0.092825
O O18 0.367423 0.000000 0.279133
#
# Coordination Sequence:
#
# PCOD8080914 Si02
#       7
#     8   8   8   8   8   8   8
#     4   9  19  36  57  80 105 134 170 209 252 306
#     4  11  20  32  51  75 101 136 184 224 257 309
#     4  10  18  29  47  72 103 137 173 222 271 304
#     4  10  20  34  54  80 107 136 171 213 259 307
#     4  10  19  34  55  79 106 137 174 216 259 311
#     4   9  18  30  47  74 103 134 176 219 262 311
#     4   9  20  37  55  77 107 138 170 213 264 310
#
# _framework density 18.098224999999999
#
# number of rings (size 3 to 8) (size 9 to 14) (size 15 to 20)
#    0.000    2.286    1.429    3.000    0.000    4.000 
#    0.000    1.429    0.000    8.571    0.000    0.000 
#    0.000    0.000    0.000    0.000    0.000    0.000 
#
# Total GULP energy -347202.475254 kJ/mol
# GULP energy per Si atom -12400.088402 kJ/mol
# Density = 1.805703 g / cm^3
# Si number density = 18.098225 Si / 1000 Ang^3
#
#
#
# Elastic Constant Matrix: (Units=GPa)
#
#
# Indices 1 2 3 4 5 6 
#
# 1 105.5415 40.6349 41.2761 0.0000 -3.9798 0.0000
# 2 40.6349 83.5240 37.2398 0.0000 -8.9592 0.0001
# 3 41.2761 37.2398 99.5241 0.0000 -8.4594 0.0000
# 4 0.0000 0.0000 0.0000 30.3900 0.0000 -6.7089
# 5 -3.9798 -8.9592 -8.4594 0.0000 19.9348 0.0000
# 6 0.0000 0.0001 0.0000 -6.7089 0.0000 28.0900
#
#
#
# Elastic Compliance Matrix: (Units=1/GPa)
#
#
# Indices 1 2 3 4 5 6 
#
# 1 0.012632 -0.004664 -0.003587 0.000000 -0.001096 0.000000
# 2 -0.004664 0.016462 -0.003813 0.000000 0.004849 0.000000
# 3 -0.003587 -0.003813 0.013233 0.000000 0.003186 0.000000
# 4 0.000000 0.000000 0.000000 0.034737 0.000000 0.008296
# 5 -0.001096 0.004849 0.003186 0.000000 0.053476 0.000000
# 6 0.000000 0.000000 0.000000 0.008296 0.000000 0.037581
#
#
# Mechanical properties :
#
#
# Convention : Reuss Voigt Hill
#
# Bulk Modulus (GPa) = 54.94873 58.54346 56.74609
# Shear Modulus (GPa) = 25.21226 26.97887 26.09557
#
# Velocity S-wave (km/s) = 3.73645 3.86514 3.80134
# Velocity P-wave (km/s) = 7.00300 7.23442 7.11965
#
# Compressibility (1/GPa) = 0.01819878
#
# Stress axis : x y z
#
# Youngs Moduli (GPa) = 79.16326 60.74616 75.56806
#
# Poissons Ratio (x) = 0.28331 0.27107
# Poissons Ratio (y) = 0.36921 0.28816
# Poissons Ratio (z) = 0.28396 0.23164
#
# Static dielectric constant tensor:
#      x y z
#    x 3.220400 0.000000 -0.139980 
#    y 0.000000 3.326140 0.000000 
#    z -0.139980 0.000000 3.379830 
# 
# 
# High freq. dielectric constant tensor:
#      x y z
#    x 1.680330 0.000000 -0.017290 
#    y 0.000000 1.703180 0.000000 
#    z -0.017290 0.000000 1.694290 
# 
# From -- ./inp_files/319633.got.cif
#   From: 2010.06.25/outbox.cif.g09.slc.cpg/sg12_160_cif.got.tgz:319633.got - 2010.06.28 00:19:55.
