data_PCOD8080231
_publ_section_title
;
Structure prediction by ZEFSAII (Michael W. Deem and Ramdas Pophale) SiO2 
 PCOD8080231
Probable space group: C 2/M
;
_chemical_formula_sum "Si O2"
_cell_formula_units_Z 40
_cell_length_a 27.583466
_cell_length_b 9.824425
_cell_length_c 8.757623
_cell_angle_alpha 90.000000
_cell_angle_beta 71.488493
_cell_angle_gamma 90.000000
_cell_volume 2250.451273
_symmetry_space_group_name_H-M "C 2/M"
_symmetry_group_IT_number 12
_symmetry_cell_setting 'monoclinic'
loop_
_space_group_symop_operation_xyz
x,y,z
-x,y,-z
-x,-y,-z
x,-y,z
1/2+x,1/2+y,z
1/2-x,1/2+y,-z
1/2-x,1/2-y,-z
1/2+x,1/2-y,z
loop_
_atom_site_type_symbol
_atom_site_label
_atom_site_fract_x
_atom_site_fract_y
_atom_site_fract_z
Si Si1 0.715109 0.500000 0.603740
Si Si2 0.860043 0.208164 0.458945
Si Si3 0.139957 0.791836 0.179031
Si Si4 0.169281 0.500000 0.150049
Si Si5 0.943444 0.000000 0.737166
Si Si6 0.330719 0.000000 0.488612
Si Si7 0.784891 0.000000 0.033958
Si Si8 0.943444 0.000000 0.375946
O O1 0.688308 0.635469 0.568386
O O2 0.773000 0.500000 0.483144
O O3 0.712636 0.500000 0.787364
O O4 0.853269 0.195578 0.646731
O O5 0.860935 0.365165 0.402475
O O6 0.912556 0.134764 0.353593
O O7 0.139065 0.634835 0.124346
O O8 0.188308 0.864531 0.054998
O O9 0.087444 0.865236 0.178704
O O10 0.171698 0.500000 0.328302
O O11 0.227000 0.500000 0.029143
O O12 0.948846 0.000000 0.551154
O O13 0.000000 0.000000 0.755901
#
# Coordination Sequence:
#
# PCOD8080231 Si02
#       8
#     4   8   8   4   4   4   4   4
#     4  10  18  28  43  64  90 116 147 177 204 249
#     4   9  17  30  46  63  87 116 145 175 212 255
#     4   9  17  30  46  63  87 116 145 175 212 255
#     4   9  17  28  43  65  90 116 143 175 212 251
#     4   8  14  26  45  65  83 108 143 179 212 251
#     4   9  17  28  43  65  90 116 143 175 212 251
#     4  10  18  28  43  64  90 116 147 177 204 249
#     4   8  14  26  45  65  83 108 143 179 212 251
#
# _framework density 17.774211999999999
#
# number of rings (size 3 to 8) (size 9 to 14) (size 15 to 20)
#    0.000    3.000    0.000    3.000    0.000    0.000 
#    0.000    4.000    0.000   15.600    0.000    0.000 
#    0.000   12.800    0.000    0.000    0.000    0.000 
#
# Total GULP energy -247882.547958 kJ/mol
# GULP energy per Si atom -12394.127398 kJ/mol
# Density = 1.773376 g / cm^3
# Si number density = 17.774212 Si / 1000 Ang^3
#
#
#
# Elastic Constant Matrix: (Units=GPa)
#
#
# Indices 1 2 3 4 5 6 
#
# 1 139.8001 86.8217 17.4324 0.0000 -23.6434 0.0000
# 2 86.8217 194.8750 20.6370 0.0000 -17.3641 0.0000
# 3 17.4324 20.6370 27.3737 0.0000 -5.8525 0.0000
# 4 0.0000 0.0000 0.0000 17.7009 0.0000 0.7760
# 5 -23.6434 -17.3641 -5.8525 0.0000 20.7919 0.0000
# 6 0.0000 0.0000 0.0000 0.7760 0.0000 14.7431
#
#
#
# Elastic Compliance Matrix: (Units=1/GPa)
#
#
# Indices 1 2 3 4 5 6 
#
# 1 0.011497 -0.004073 -0.002323 0.000000 0.009019 0.000000
# 2 -0.004073 0.007300 -0.002763 0.000000 0.000687 0.000000
# 3 -0.002323 -0.002763 0.041535 0.000000 0.006742 0.000000
# 4 0.000000 0.000000 0.000000 0.056625 0.000000 -0.002981
# 5 0.009019 0.000687 0.006742 0.000000 0.060823 0.000000
# 6 0.000000 0.000000 0.000000 -0.002981 0.000000 0.067985
#
#
# Mechanical properties :
#
#
# Convention : Reuss Voigt Hill
#
# Bulk Modulus (GPa) = 23.80099 67.98122 45.89110
# Shear Modulus (GPa) = 17.97989 26.45769 22.21879
#
# Velocity S-wave (km/s) = 3.18397 3.86235 3.53945
# Velocity P-wave (km/s) = 5.19006 7.63023 6.52523
#
# Compressibility (1/GPa) = 0.04201506
#
# Stress axis : x y z
#
# Youngs Moduli (GPa) = 86.97592 136.98957 24.07601
#
# Poissons Ratio (x) = 0.55792 0.05593
# Poissons Ratio (y) = 0.35423 0.06652
# Poissons Ratio (z) = 0.20206 0.37846
#
# Static dielectric constant tensor:
#      x y z
#    x 3.433150 0.000000 -0.129200 
#    y 0.000000 3.752390 0.000000 
#    z -0.129200 0.000000 2.940690 
# 
# 
# High freq. dielectric constant tensor:
#      x y z
#    x 1.672440 0.000000 -0.006290 
#    y 0.000000 1.698290 0.000000 
#    z -0.006290 0.000000 1.648470 
# 
# From -- ./inp_files/107479.got.cif
#   From: 2010.06.25/outbox.cif.g09.slc.cpg/sg12_54_cif.got.tgz:107479.got - 2010.06.28 00:19:55.
