data_PCOD8080975
_publ_section_title
;
Structure prediction by ZEFSAII (Michael W. Deem and Ramdas Pophale) SiO2 
 PCOD8080975
Probable space group: C 2/M
;
_chemical_formula_sum "Si O2"
_cell_formula_units_Z 56
_cell_length_a 34.455090
_cell_length_b 12.617330
_cell_length_c 8.121932
_cell_angle_alpha 90.000000
_cell_angle_beta 65.784480
_cell_angle_gamma 90.000000
_cell_volume 3220.174044
_symmetry_space_group_name_H-M "C 2/M"
_symmetry_group_IT_number 12
_symmetry_cell_setting 'monoclinic'
loop_
_space_group_symop_operation_xyz
x,y,z
-x,y,-z
-x,-y,-z
x,-y,z
1/2+x,1/2+y,z
1/2-x,1/2+y,-z
1/2-x,1/2-y,-z
1/2+x,1/2-y,z
loop_
_atom_site_type_symbol
_atom_site_label
_atom_site_fract_x
_atom_site_fract_y
_atom_site_fract_z
Si Si1 0.694948 0.225632 0.749878
Si Si2 0.130943 0.879716 0.716917
Si Si3 0.775432 0.620850 0.617901
Si Si4 0.954653 0.874074 0.640598
Si Si5 0.542174 0.623700 0.000794
Si Si6 0.365138 0.377697 0.665550
Si Si7 0.701563 0.215713 0.095994
O O1 0.654422 0.300740 0.798220
O O2 0.735865 0.301002 0.684110
O O3 0.697010 0.142715 0.595319
O O4 0.690510 0.165078 0.934746
O O5 0.080836 0.854003 0.809986
O O6 0.147260 0.864041 0.503493
O O7 0.139105 0.000000 0.762869
O O8 0.759744 0.500000 0.640507
O O9 0.803378 0.638197 0.737039
O O10 0.913278 0.834109 0.610661
O O11 0.000000 0.827028 0.500000
O O12 0.956452 0.000000 0.623751
O O13 0.947685 0.830524 0.836942
O O14 0.533061 0.500000 0.038531
O O15 0.500000 0.678790 0.000000
O O16 0.362277 0.500000 0.725878
O O17 0.329775 0.315625 0.830224
O O18 0.750000 0.250000 0.000000
#
# Coordination Sequence:
#
# PCOD8080975 Si02
#       7
#     8   8   8   8   8   8   8
#     4  10  20  35  53  75  97 129 168 208 249 300
#     4  10  18  29  48  71  99 136 172 208 249 296
#     4  10  21  37  53  72 100 129 163 209 258 300
#     4   9  16  26  41  64  96 133 168 201 242 295
#     4   9  16  25  38  61  94 133 170 200 239 292
#     4  10  19  31  48  71 101 138 173 208 253 302
#     4  10  21  35  50  72 100 132 172 215 252 298
#
# _framework density 17.390364999999999
#
# number of rings (size 3 to 8) (size 9 to 14) (size 15 to 20)
#    0.000    2.286    1.429    2.143    0.000    8.000 
#    0.000    0.000    0.000    0.000    0.000    0.000 
#    0.000    1.143    0.571    0.000    0.000    0.000 
#
# Total GULP energy -346976.817191 kJ/mol
# GULP energy per Si atom -12392.029185 kJ/mol
# Density = 1.735078 g / cm^3
# Si number density = 17.390365 Si / 1000 Ang^3
#
#
#
# Elastic Constant Matrix: (Units=GPa)
#
#
# Indices 1 2 3 4 5 6 
#
# 1 89.1712 13.8075 29.7501 0.0000 2.5461 0.0000
# 2 13.8075 35.0268 22.0828 0.0000 4.5705 0.0000
# 3 29.7501 22.0828 107.3308 0.0000 15.0243 0.0000
# 4 0.0000 0.0000 0.0000 12.9191 0.0000 -1.0656
# 5 2.5461 4.5705 15.0243 0.0000 38.0271 0.0000
# 6 0.0000 0.0000 0.0000 -1.0656 0.0000 16.0775
#
#
#
# Elastic Compliance Matrix: (Units=1/GPa)
#
#
# Indices 1 2 3 4 5 6 
#
# 1 0.012678 -0.003231 -0.002948 0.000000 0.000704 0.000000
# 2 -0.003231 0.033694 -0.005822 0.000000 -0.001533 0.000000
# 3 -0.002948 -0.005822 0.011862 0.000000 -0.003790 0.000000
# 4 0.000000 0.000000 0.000000 0.077830 0.000000 0.005159
# 5 0.000704 -0.001533 -0.003790 0.000000 0.027931 0.000000
# 6 0.000000 0.000000 0.000000 0.005159 0.000000 0.062541
#
#
# Mechanical properties :
#
#
# Convention : Reuss Voigt Hill
#
# Bulk Modulus (GPa) = 29.21228 40.31219 34.76224
# Shear Modulus (GPa) = 19.08763 24.46397 21.77580
#
# Velocity S-wave (km/s) = 3.31660 3.75474 3.54245
# Velocity P-wave (km/s) = 5.61256 6.48294 6.06339
#
# Compressibility (1/GPa) = 0.03423217
#
# Stress axis : x y z
#
# Youngs Moduli (GPa) = 78.87621 29.67892 84.29944
#
# Poissons Ratio (x) = 0.09589 0.24851
# Poissons Ratio (y) = 0.25485 0.49081
# Poissons Ratio (z) = 0.23252 0.17280
#
# Static dielectric constant tensor:
#      x y z
#    x 3.424870 0.000000 0.248550 
#    y 0.000000 2.663990 0.000000 
#    z 0.248550 0.000000 3.619370 
# 
# 
# High freq. dielectric constant tensor:
#      x y z
#    x 1.678720 0.000000 0.011910 
#    y 0.000000 1.592210 0.000000 
#    z 0.011910 0.000000 1.692660 
# 
# From -- ./inp_files/109892.got.cif
#   From: 2010.06.25/outbox.cif.g09.slc.cpg/sg12_55_cif.got.tgz:109892.got - 2010.06.28 00:19:55.
