data_PCOD8080744
_publ_section_title
;
Structure prediction by ZEFSAII (Michael W. Deem and Ramdas Pophale) SiO2 
 PCOD8080744
Probable space group: C 2/M
;
_chemical_formula_sum "Si O2"
_cell_formula_units_Z 56
_cell_length_a 20.340855
_cell_length_b 21.346584
_cell_length_c 9.139762
_cell_angle_alpha 90.000000
_cell_angle_beta 57.215775
_cell_angle_gamma 90.000000
_cell_volume 3336.427133
_symmetry_space_group_name_H-M "C 2/M"
_symmetry_group_IT_number 12
_symmetry_cell_setting 'monoclinic'
loop_
_space_group_symop_operation_xyz
x,y,z
-x,y,-z
-x,-y,-z
x,-y,z
1/2+x,1/2+y,z
1/2-x,1/2+y,-z
1/2-x,1/2-y,-z
1/2+x,1/2-y,z
loop_
_atom_site_type_symbol
_atom_site_label
_atom_site_fract_x
_atom_site_fract_y
_atom_site_fract_z
Si Si1 0.198852 0.831107 0.001493
Si Si2 0.151085 0.303591 0.675350
Si Si3 0.344404 0.812166 0.996409
Si Si4 0.442924 0.572742 0.197896
Si Si5 0.532732 0.648125 0.300800
Si Si6 0.999951 0.286058 0.675703
Si Si7 0.301350 0.338516 0.330935
O O1 0.183405 0.757978 0.000948
O O2 0.212527 0.855926 0.821470
O O3 0.273740 0.851441 0.008627
O O4 0.125649 0.862349 0.173951
O O5 0.142688 0.330245 0.849524
O O6 0.076252 0.314840 0.661490
O O7 0.220273 0.342810 0.516010
O O8 0.165090 0.229855 0.674876
O O9 0.425731 0.826558 0.817591
O O10 0.423375 0.500000 0.205522
O O11 0.491632 0.587322 0.283870
O O12 0.362380 0.609950 0.311361
O O13 0.500000 0.597043 0.000000
O O14 0.500000 0.653509 0.500000
O O15 0.509630 0.714599 0.253569
O O16 0.000000 0.289911 0.500000
#
# Coordination Sequence:
#
# PCOD8080744 Si02
#       7
#     8   8   8   8   8   8   8
#     4   9  17  30  42  65  95 129 159 201 247 294
#     4  10  19  28  49  72  95 129 164 202 251 308
#     4   9  18  27  43  67  98 126 160 196 243 303
#     4  11  22  36  52  71  96 134 180 213 246 287
#     4  10  20  30  50  66  95 132 171 207 248 287
#     4  10  18  29  45  70 102 133 162 194 245 305
#     4  10  19  31  48  68  96 127 167 207 252 296
#
# _framework density 16.784421999999999
#
# number of rings (size 3 to 8) (size 9 to 14) (size 15 to 20)
#    0.000    2.143    2.857    1.286    2.000    3.714 
#    0.000    0.000    0.000    0.000    0.000    0.000 
#    0.000    8.571    0.000    0.000    0.000    0.286 
#
# Total GULP energy -346968.164914 kJ/mol
# GULP energy per Si atom -12391.720176 kJ/mol
# Density = 1.674622 g / cm^3
# Si number density = 16.784422 Si / 1000 Ang^3
#
#
#
# Elastic Constant Matrix: (Units=GPa)
#
#
# Indices 1 2 3 4 5 6 
#
# 1 135.4940 19.1597 64.5095 0.0000 -6.9754 0.0000
# 2 19.1597 32.5152 22.6174 0.0000 -8.1009 0.0000
# 3 64.5095 22.6174 137.1861 0.0000 -13.5112 0.0000
# 4 0.0000 0.0000 0.0000 17.1250 0.0000 1.6666
# 5 -6.9754 -8.1009 -13.5112 0.0000 30.6725 0.0000
# 6 0.0000 0.0000 0.0000 1.6666 0.0000 15.8560
#
#
#
# Elastic Compliance Matrix: (Units=1/GPa)
#
#
# Indices 1 2 3 4 5 6 
#
# 1 0.009747 -0.002965 -0.004133 0.000000 -0.000387 0.000000
# 2 -0.002965 0.037120 -0.004000 0.000000 0.007367 0.000000
# 3 -0.004133 -0.004000 0.010135 0.000000 0.002468 0.000000
# 4 0.000000 0.000000 0.000000 0.058998 0.000000 -0.006201
# 5 -0.000387 0.007367 0.002468 0.000000 0.035548 0.000000
# 6 0.000000 0.000000 0.000000 -0.006201 0.000000 0.063719
#
#
# Mechanical properties :
#
#
# Convention : Reuss Voigt Hill
#
# Bulk Modulus (GPa) = 28.73008 57.52983 43.12995
# Shear Modulus (GPa) = 20.07504 25.99128 23.03316
#
# Velocity S-wave (km/s) = 3.46215 3.93941 3.70847
# Velocity P-wave (km/s) = 5.75641 7.41904 6.63997
#
# Compressibility (1/GPa) = 0.03480673
#
# Stress axis : x y z
#
# Youngs Moduli (GPa) = 102.59092 26.93967 98.66522
#
# Poissons Ratio (x) = 0.07989 0.40776
# Poissons Ratio (y) = 0.30422 0.39464
# Poissons Ratio (z) = 0.42399 0.10775
#
# Static dielectric constant tensor:
#      x y z
#    x 3.301890 0.000000 -0.038730 
#    y 0.000000 2.566670 0.000000 
#    z -0.038730 0.000000 3.268790 
# 
# 
# High freq. dielectric constant tensor:
#      x y z
#    x 1.659530 0.000000 -0.001750 
#    y 0.000000 1.566920 0.000000 
#    z -0.001750 0.000000 1.663920 
# 
# From -- ./inp_files/89258.got.cif
#   From: 2010.06.25/outbox.cif.g09.slc.cpg/sg12_45_cif.got.tgz:89258.got - 2010.06.28 00:19:55.
