data_PCOD8080571
_publ_section_title
;
Structure prediction by ZEFSAII (Michael W. Deem and Ramdas Pophale) SiO2 
 PCOD8080571
Probable space group: C 2/M
;
_chemical_formula_sum "Si O2"
_cell_formula_units_Z 64
_cell_length_a 27.317859
_cell_length_b 9.003720
_cell_length_c 14.945986
_cell_angle_alpha 90.000000
_cell_angle_beta 110.269066
_cell_angle_gamma 90.000000
_cell_volume 3448.508384
_symmetry_space_group_name_H-M "C 2/M"
_symmetry_group_IT_number 12
_symmetry_cell_setting 'monoclinic'
loop_
_space_group_symop_operation_xyz
x,y,z
-x,y,-z
-x,-y,-z
x,-y,z
1/2+x,1/2+y,z
1/2-x,1/2+y,-z
1/2-x,1/2-y,-z
1/2+x,1/2-y,z
loop_
_atom_site_type_symbol
_atom_site_label
_atom_site_fract_x
_atom_site_fract_y
_atom_site_fract_z
Si Si1 0.369350 0.832154 0.878365
Si Si2 0.319290 0.328368 0.584112
Si Si3 0.839746 0.174522 0.401624
Si Si4 0.548966 0.322928 0.592755
Si Si5 0.269184 0.174157 0.713578
Si Si6 0.472486 0.830820 0.237248
Si Si7 0.953503 0.824579 0.037706
Si Si8 0.590917 0.161266 0.287489
O O1 0.311423 0.768381 0.813785
O O2 0.408409 0.829343 0.819185
O O3 0.364562 0.000000 0.913783
O O4 0.396235 0.724764 0.967142
O O5 0.304984 0.500000 0.581780
O O6 0.318544 0.265452 0.482916
O O7 0.279948 0.238282 0.621707
O O8 0.378208 0.300916 0.654339
O O9 0.896238 0.240813 0.412488
O O10 0.791818 0.211082 0.301284
O O11 0.848013 0.000000 0.414960
O O12 0.500000 0.269495 0.500000
O O13 0.548344 0.500000 0.600213
O O14 0.549760 0.255645 0.691971
O O15 0.278303 0.000000 0.711018
O O16 0.458489 0.749087 0.137187
O O17 0.533814 0.827485 0.289813
O O18 0.451302 0.000000 0.221183
O O19 0.954686 0.000000 0.050165
O O20 0.000000 0.772825 0.000000
O O21 0.615178 0.000000 0.330600
#
# Coordination Sequence:
#
# PCOD8080571 Si02
#       8
#     8   8   8   8   8   8   8   8
#     4   9  17  31  50  73 103 139 172 209 259 319
#     4  10  18  28  48  77 105 136 176 221 267 312
#     4   9  18  33  52  73 102 141 181 221 266 318
#     4  10  21  38  58  80 109 146 186 227 270 314
#     4   9  18  33  51  73 104 142 179 214 265 324
#     4  11  22  36  55  78 108 145 184 224 267 320
#     4  11  22  34  53  82 112 141 173 216 271 329
#     4   9  18  31  47  70 104 143 174 207 259 319
#
# _framework density 18.558748000000001
#
# number of rings (size 3 to 8) (size 9 to 14) (size 15 to 20)
#    0.000    2.250    1.250    3.000    0.000    4.750 
#    0.000    2.500    0.000    0.750    0.000    0.000 
#    0.000    0.000    0.000    0.000    0.000    0.000 
#
# Total GULP energy -396443.151154 kJ/mol
# GULP energy per Si atom -12388.848474 kJ/mol
# Density = 1.851651 g / cm^3
# Si number density = 18.558748 Si / 1000 Ang^3
#
#
#
# Elastic Constant Matrix: (Units=GPa)
#
#
# Indices 1 2 3 4 5 6 
#
# 1 105.7626 25.3693 57.9927 0.0000 24.8515 0.0000
# 2 25.3693 48.2299 37.9946 0.0000 2.9659 0.0000
# 3 57.9927 37.9946 109.4281 0.0000 6.4879 0.0000
# 4 0.0000 0.0000 0.0000 26.6615 0.0000 -0.4268
# 5 24.8515 2.9659 6.4879 0.0000 20.8330 0.0000
# 6 0.0000 0.0000 0.0000 -0.4268 0.0000 15.2440
#
#
#
# Elastic Compliance Matrix: (Units=1/GPa)
#
#
# Indices 1 2 3 4 5 6 
#
# 1 0.019220 -0.002463 -0.008142 0.000000 -0.020041 0.000000
# 2 -0.002463 0.028876 -0.008814 0.000000 0.001572 0.000000
# 3 -0.008142 -0.008814 0.016162 0.000000 0.005935 0.000000
# 4 0.000000 0.000000 0.000000 0.037524 0.000000 0.001051
# 5 -0.020041 0.001572 0.005935 0.000000 0.069835 0.000000
# 6 0.000000 0.000000 0.000000 0.001051 0.000000 0.065629
#
#
# Mechanical properties :
#
#
# Convention : Reuss Voigt Hill
#
# Bulk Modulus (GPa) = 39.34006 56.23708 47.78857
# Shear Modulus (GPa) = 17.57109 22.01864 19.79487
#
# Velocity S-wave (km/s) = 3.08032 3.44820 3.26944
# Velocity P-wave (km/s) = 5.82192 6.79863 6.32914
#
# Compressibility (1/GPa) = 0.02541938
#
# Stress axis : x y z
#
# Youngs Moduli (GPa) = 52.03018 34.63027 61.87324
#
# Poissons Ratio (x) = 0.08529 0.50379
# Poissons Ratio (y) = 0.12814 0.54536
# Poissons Ratio (z) = 0.42365 0.30524
#
# Static dielectric constant tensor:
#      x y z
#    x 3.546860 0.000000 0.240810 
#    y 0.000000 3.318570 0.000000 
#    z 0.240810 0.000000 3.356450 
# 
# 
# High freq. dielectric constant tensor:
#      x y z
#    x 1.710370 0.000000 0.023420 
#    y 0.000000 1.707040 0.000000 
#    z 0.023420 0.000000 1.708050 
# 
# From -- ./inp_files/244207.got.cif
#   From: 2010.06.25/outbox.cif.g09.slc.cpg/sg12_123_cif.got.tgz:244207.got - 2010.06.28 00:19:55.
