data_PCOD8080022
_publ_section_title
;
Structure prediction by ZEFSAII (Michael W. Deem and Ramdas Pophale) SiO2 
 PCOD8080022
Probable space group: C 2/M
;
_chemical_formula_sum "Si O2"
_cell_formula_units_Z 56
_cell_length_a 24.163595
_cell_length_b 9.574928
_cell_length_c 17.359632
_cell_angle_alpha 90.000000
_cell_angle_beta 64.617017
_cell_angle_gamma 90.000000
_cell_volume 3628.672568
_symmetry_space_group_name_H-M "C 2/M"
_symmetry_group_IT_number 12
_symmetry_cell_setting 'monoclinic'
loop_
_space_group_symop_operation_xyz
x,y,z
-x,y,-z
-x,-y,-z
x,-y,z
1/2+x,1/2+y,z
1/2-x,1/2+y,-z
1/2-x,1/2-y,-z
1/2+x,1/2-y,z
loop_
_atom_site_type_symbol
_atom_site_label
_atom_site_fract_x
_atom_site_fract_y
_atom_site_fract_z
Si Si1 0.164127 0.159567 0.016040
Si Si2 0.797590 0.661885 0.869582
Si Si3 0.858682 0.663836 0.220283
Si Si4 0.689831 0.654063 0.451249
Si Si5 0.219961 0.163907 0.265144
Si Si6 0.832349 0.345516 0.404161
Si Si7 0.569777 0.661912 0.941632
O O1 0.161328 0.264522 0.089646
O O2 0.158332 0.000000 0.048962
O O3 0.226475 0.179611 0.931756
O O4 0.108542 0.201907 0.993872
O O5 0.816701 0.500000 0.851337
O O6 0.810734 0.740990 0.781865
O O7 0.871643 0.500000 0.203996
O O8 0.791691 0.700186 0.227791
O O9 0.863833 0.709840 0.306912
O O10 0.909380 0.748989 0.143928
O O11 0.661382 0.500000 0.475112
O O12 0.685979 0.705083 0.365093
O O13 0.760086 0.650344 0.434183
O O14 0.650796 0.751016 0.532192
O O15 0.211193 0.000000 0.251776
O O16 0.856602 0.500000 0.408647
O O17 0.578905 0.500000 0.915365
O O18 0.500000 0.699746 0.000000
#
# Coordination Sequence:
#
# PCOD8080022 Si02
#       7
#     8   8   8   8   8   8   8
#     4   9  18  31  43  59  83 110 139 175 218 253
#     4  10  18  27  43  64  83 109 144 176 209 254
#     4   9  17  28  42  59  82 112 145 176 211 253
#     4   8  14  23  35  54  79 109 140 167 201 244
#     4   9  16  26  40  59  86 115 141 172 209 250
#     4   8  14  24  36  53  78 108 139 171 204 241
#     4  10  20  33  47  63  84 110 144 183 218 252
#
# _framework density 15.432641
#
# number of rings (size 3 to 8) (size 9 to 14) (size 15 to 20)
#    0.000    3.000    1.429    2.143    0.000    2.571 
#    0.000    2.857    0.000    0.000    0.000    0.000 
#    0.000    1.143    0.000   12.857    0.000    7.000 
#
# Total GULP energy -347098.426956 kJ/mol
# GULP energy per Si atom -12396.372391 kJ/mol
# Density = 1.539752 g / cm^3
# Si number density = 15.432641 Si / 1000 Ang^3
#
#
#
# Elastic Constant Matrix: (Units=GPa)
#
#
# Indices 1 2 3 4 5 6 
#
# 1 53.9361 32.2178 43.9228 0.0000 8.6002 0.0000
# 2 32.2178 86.2611 76.2680 0.0000 18.2554 0.0001
# 3 43.9228 76.2680 125.6290 0.0000 25.5820 0.0000
# 4 0.0000 0.0000 0.0000 32.8293 0.0000 6.7606
# 5 8.6002 18.2554 25.5820 0.0000 20.1265 0.0000
# 6 0.0000 0.0001 0.0000 6.7606 0.0000 15.9279
#
#
#
# Elastic Compliance Matrix: (Units=1/GPa)
#
#
# Indices 1 2 3 4 5 6 
#
# 1 0.026474 -0.003767 -0.007233 0.000000 0.001298 0.000000
# 2 -0.003767 0.025877 -0.013412 0.000000 -0.004814 0.000000
# 3 -0.007233 -0.013412 0.020946 0.000000 -0.011368 0.000000
# 4 0.000000 0.000000 0.000000 0.033378 0.000000 -0.014167
# 5 0.001298 -0.004814 -0.011368 0.000000 0.067946 0.000000
# 6 0.000000 0.000000 0.000000 -0.014167 0.000000 0.068796
#
#
# Mechanical properties :
#
#
# Convention : Reuss Voigt Hill
#
# Bulk Modulus (GPa) = 40.86392 63.40484 52.13438
# Shear Modulus (GPa) = 16.64447 21.33793 18.99120
#
# Velocity S-wave (km/s) = 3.28765 3.72243 3.51178
# Velocity P-wave (km/s) = 6.39906 7.72330 7.09216
#
# Compressibility (1/GPa) = 0.02447146
#
# Stress axis : x y z
#
# Youngs Moduli (GPa) = 37.77265 38.64435 47.74162
#
# Poissons Ratio (x) = 0.14559 0.34533
# Poissons Ratio (y) = 0.14230 0.64032
# Poissons Ratio (z) = 0.27322 0.51831
#
# Static dielectric constant tensor:
#      x y z
#    x 2.556520 0.000000 0.237760 
#    y 0.000000 3.097210 0.000000 
#    z 0.237760 0.000000 2.971980 
# 
# 
# High freq. dielectric constant tensor:
#      x y z
#    x 1.537820 0.000000 0.029900 
#    y 0.000000 1.597050 0.000000 
#    z 0.029900 0.000000 1.588010 
# 
# From -- ./inp_files/287353.got.cif
#   From: 2010.06.25/outbox.cif.g09.slc.cpg/sg12_144_cif.got.tgz:287353.got - 2010.06.28 00:19:55.
