data_PCOD8080046
_publ_section_title
;
Structure prediction by ZEFSAII (Michael W. Deem and Ramdas Pophale) SiO2 
 PCOD8080046
Probable space group: C 2/M
;
_chemical_formula_sum "Si O2"
_cell_formula_units_Z 64
_cell_length_a 30.895645
_cell_length_b 10.451491
_cell_length_c 11.191454
_cell_angle_alpha 90.000000
_cell_angle_beta 82.206437
_cell_angle_gamma 90.000000
_cell_volume 3580.402456
_symmetry_space_group_name_H-M "C 2/M"
_symmetry_group_IT_number 12
_symmetry_cell_setting 'monoclinic'
loop_
_space_group_symop_operation_xyz
x,y,z
-x,y,-z
-x,-y,-z
x,-y,z
1/2+x,1/2+y,z
1/2-x,1/2+y,-z
1/2-x,1/2-y,-z
1/2+x,1/2-y,z
loop_
_atom_site_type_symbol
_atom_site_label
_atom_site_fract_x
_atom_site_fract_y
_atom_site_fract_z
Si Si1 0.015406 0.347590 0.668291
Si Si2 0.801677 0.140502 0.001254
Si Si3 0.637748 0.148383 0.911026
Si Si4 0.764630 0.264251 0.792704
Si Si5 0.164115 0.351396 0.413775
Si Si6 0.459610 0.848060 0.088933
Si Si7 0.691427 0.852995 0.660552
Si Si8 0.568340 0.848043 0.423743
O O1 0.017251 0.500000 0.667683
O O2 0.964455 0.304992 0.670636
O O3 0.034565 0.288979 0.782036
O O4 0.046519 0.294876 0.552855
O O5 0.834516 0.257552 0.015258
O O6 0.762166 0.139403 0.112058
O O7 0.824128 0.000000 0.001593
O O8 0.783279 0.154292 0.873417
O O9 0.587428 0.190196 0.946543
O O10 0.650846 0.165086 0.767009
O O11 0.645590 0.000000 0.947544
O O12 0.803675 0.333715 0.709234
O O13 0.734201 0.210358 0.699814
O O14 0.157406 0.500000 0.441467
O O15 0.180215 0.290756 0.534837
O O16 0.117178 0.290195 0.393529
O O17 0.462776 0.000000 0.092640
O O18 0.500000 0.790323 0.000000
O O19 0.703095 0.000000 0.638116
O O20 0.571173 0.000000 0.425397
#
# Coordination Sequence:
#
# PCOD8080046 Si02
#       8
#     8   8   8   8   8   8   8   8
#     4   8  13  23  37  55  85 122 154 180 218 278
#     4  10  21  36  52  68  93 131 168 201 241 288
#     4   9  18  32  51  74  98 127 164 201 238 285
#     4  10  20  32  48  67  91 121 164 205 237 279
#     4  10  18  27  43  69  97 121 150 193 241 284
#     4   9  16  25  40  65  96 126 154 190 235 278
#     4   9  17  30  47  66  92 125 156 190 237 288
#     4   8  14  23  37  58  85 118 149 181 226 278
#
# _framework density 17.875084999999999
#
# number of rings (size 3 to 8) (size 9 to 14) (size 15 to 20)
#    0.000    2.875    0.000    2.625    0.000    7.500 
#    0.000    2.500    0.000    1.125    0.000    0.000 
#    0.000    0.000    0.000   14.250    0.000    6.250 
#
# Total GULP energy -396464.412002 kJ/mol
# GULP energy per Si atom -12389.512875 kJ/mol
# Density = 1.783440 g / cm^3
# Si number density = 17.875085 Si / 1000 Ang^3
#
#
#
# Elastic Constant Matrix: (Units=GPa)
#
#
# Indices 1 2 3 4 5 6 
#
# 1 144.4250 29.5422 47.5352 0.0000 -3.1534 0.0000
# 2 29.5422 48.2223 15.8647 0.0000 6.7522 0.0000
# 3 47.5352 15.8647 60.5187 0.0000 2.3190 0.0000
# 4 0.0000 0.0000 0.0000 9.6948 0.0000 -0.5205
# 5 -3.1534 6.7522 2.3190 0.0000 25.2987 0.0000
# 6 0.0000 0.0000 0.0000 -0.5205 0.0000 15.6161
#
#
#
# Elastic Compliance Matrix: (Units=1/GPa)
#
#
# Indices 1 2 3 4 5 6 
#
# 1 0.010179 -0.004375 -0.006966 0.000000 0.003075 0.000000
# 2 -0.004375 0.025373 -0.002945 0.000000 -0.007047 0.000000
# 3 -0.006966 -0.002945 0.022851 0.000000 -0.002177 0.000000
# 4 0.000000 0.000000 0.000000 0.103333 0.000000 0.003444
# 5 0.003075 -0.007047 -0.002177 0.000000 0.041991 0.000000
# 6 0.000000 0.000000 0.000000 0.003444 0.000000 0.064151
#
#
# Mechanical properties :
#
#
# Convention : Reuss Voigt Hill
#
# Bulk Modulus (GPa) = 33.52242 48.78335 41.15288
# Shear Modulus (GPa) = 16.31890 20.80354 18.56122
#
# Velocity S-wave (km/s) = 3.02477 3.41519 3.22589
# Velocity P-wave (km/s) = 5.56717 6.54995 6.07846
#
# Compressibility (1/GPa) = 0.02983078
#
# Stress axis : x y z
#
# Youngs Moduli (GPa) = 98.24414 39.41195 43.76191
#
# Poissons Ratio (x) = 0.17241 0.30485
# Poissons Ratio (y) = 0.42977 0.12889
# Poissons Ratio (z) = 0.68438 0.11608
#
# Static dielectric constant tensor:
#      x y z
#    x 3.595150 0.000000 0.078800 
#    y 0.000000 2.682710 0.000000 
#    z 0.078800 0.000000 3.451380 
# 
# 
# High freq. dielectric constant tensor:
#      x y z
#    x 1.705290 0.000000 0.006110 
#    y 0.000000 1.615790 0.000000 
#    z 0.006110 0.000000 1.696620 
# 
# From -- ./inp_files/182046.got.cif
#   From: 2010.06.25/outbox.cif.g09.slc.cpg/sg12_92_cif.got.tgz:182046.got - 2010.06.28 00:19:55.
