data_PCOD8080833
_publ_section_title
;
Structure prediction by ZEFSAII (Michael W. Deem and Ramdas Pophale) SiO2 
 PCOD8080833
Probable space group: C 2/M
;
_chemical_formula_sum "Si O2"
_cell_formula_units_Z 56
_cell_length_a 20.768072
_cell_length_b 8.862059
_cell_length_c 22.716166
_cell_angle_alpha 90.000000
_cell_angle_beta 48.273019
_cell_angle_gamma 90.000000
_cell_volume 3120.281288
_symmetry_space_group_name_H-M "C 2/M"
_symmetry_group_IT_number 12
_symmetry_cell_setting 'monoclinic'
loop_
_space_group_symop_operation_xyz
x,y,z
-x,y,-z
-x,-y,-z
x,-y,z
1/2+x,1/2+y,z
1/2-x,1/2+y,-z
1/2-x,1/2-y,-z
1/2+x,1/2-y,z
loop_
_atom_site_type_symbol
_atom_site_label
_atom_site_fract_x
_atom_site_fract_y
_atom_site_fract_z
Si Si1 0.817955 0.323613 0.328218
Si Si2 0.953255 0.822504 0.333079
Si Si3 0.617321 0.178727 0.184269
Si Si4 0.701662 0.820388 0.900682
Si Si5 0.183742 0.173913 0.497869
Si Si6 0.386639 0.822057 0.163521
Si Si7 0.574834 0.820717 0.079587
O O1 0.842100 0.500000 0.321979
O O2 0.886757 0.226892 0.322808
O O3 0.718216 0.291255 0.410404
O O4 0.824455 0.278148 0.255897
O O5 0.913205 0.779545 0.422689
O O6 0.041947 0.732299 0.273694
O O7 0.971722 0.000000 0.315787
O O8 0.704939 0.248241 0.154567
O O9 0.598443 0.240171 0.129968
O O10 0.623783 0.000000 0.181390
O O11 0.653917 0.756813 0.871569
O O12 0.710440 0.000000 0.894012
O O13 0.647404 0.764445 0.990054
O O14 0.250000 0.250000 0.500000
O O15 0.192260 0.000000 0.506487
O O16 0.482138 0.754118 0.116275
O O17 0.395038 0.000000 0.151624
O O18 0.570167 0.000000 0.083325
#
# Coordination Sequence:
#
# PCOD8080833 Si02
#       7
#     8   8   8   8   8   8   8
#     4   9  15  28  49  73 100 128 158 192 240 291
#     4  10  18  29  46  72 100 126 161 201 241 281
#     4  11  21  34  51  70  98 132 165 200 243 292
#     4  10  20  33  51  74  99 127 162 203 243 285
#     4   8  15  25  42  69  99 125 152 194 239 283
#     4   9  16  29  52  77  99 126 161 198 237 288
#     4   9  17  31  52  75  95 124 165 203 240 286
#
# _framework density 17.947099999999999
#
# number of rings (size 3 to 8) (size 9 to 14) (size 15 to 20)
#    0.000    2.571    1.429    1.714    0.000    2.286 
#    0.000    1.429    0.000    1.714    0.000    6.000 
#    0.000    0.000    0.000    0.000    0.000    0.000 
#
# Total GULP energy -346934.656913 kJ/mol
# GULP energy per Si atom -12390.523461 kJ/mol
# Density = 1.790625 g / cm^3
# Si number density = 17.947100 Si / 1000 Ang^3
#
#
#
# Elastic Constant Matrix: (Units=GPa)
#
#
# Indices 1 2 3 4 5 6 
#
# 1 84.1490 14.5204 40.4404 -0.0002 -18.5629 0.0004
# 2 14.5204 23.6021 21.3630 0.0000 -3.4467 0.0010
# 3 40.4404 21.3630 151.6046 -0.0001 -18.3226 0.0002
# 4 -0.0002 0.0000 -0.0001 20.3488 0.0000 -4.2495
# 5 -18.5629 -3.4467 -18.3226 0.0000 16.5517 0.0000
# 6 0.0004 0.0010 0.0002 -4.2495 0.0000 19.1695
#
#
#
# Elastic Compliance Matrix: (Units=1/GPa)
#
#
# Indices 1 2 3 4 5 6 
#
# 1 0.017481 -0.006806 -0.001738 0.000000 0.016264 0.000000
# 2 -0.006806 0.051336 -0.005829 -0.000001 -0.003395 -0.000003
# 3 -0.001738 -0.005829 0.008657 0.000000 0.006420 0.000000
# 4 0.000000 -0.000001 0.000000 0.051528 0.000000 0.011423
# 5 0.016264 -0.003395 0.006420 0.000000 0.085056 0.000000
# 6 0.000000 -0.000003 0.000000 0.011423 0.000000 0.054698
#
#
# Mechanical properties :
#
#
# Convention : Reuss Voigt Hill
#
# Bulk Modulus (GPa) = 20.52211 45.77813 33.15012
# Shear Modulus (GPa) = 15.93639 23.41613 19.67626
#
# Velocity S-wave (km/s) = 2.98311 3.61602 3.31471
# Velocity P-wave (km/s) = 4.82958 6.55719 5.75854
#
# Compressibility (1/GPa) = 0.04872793
#
# Stress axis : x y z
#
# Youngs Moduli (GPa) = 57.20401 19.47936 115.51266
#
# Poissons Ratio (x) = 0.13258 0.20081
# Poissons Ratio (y) = 0.38934 0.67329
# Poissons Ratio (z) = 0.09945 0.11354
#
# Static dielectric constant tensor:
#      x y z
#    x 3.112680 0.000000 0.081790 
#    y 0.000000 2.897680 0.000000 
#    z 0.081790 0.000000 4.058260 
# 
# 
# High freq. dielectric constant tensor:
#      x y z
#    x 1.655510 0.000000 -0.001600 
#    y 0.000000 1.666820 0.000000 
#    z -0.001600 0.000000 1.724370 
# 
# From -- ./inp_files/280166.got.cif
#   From: 2010.06.25/outbox.cif.g09.slc.cpg/sg12_141_cif.got.tgz:280166.got - 2010.06.28 00:19:55.
