data_PCOD8080977
_publ_section_title
;
Structure prediction by ZEFSAII (Michael W. Deem and Ramdas Pophale) SiO2 
 PCOD8080977
Probable space group: C 2/M
;
_chemical_formula_sum "Si O2"
_cell_formula_units_Z 64
_cell_length_a 29.993839
_cell_length_b 9.213406
_cell_length_c 19.612515
_cell_angle_alpha 90.000000
_cell_angle_beta 143.518908
_cell_angle_gamma 90.000000
_cell_volume 3222.399625
_symmetry_space_group_name_H-M "C 2/M"
_symmetry_group_IT_number 12
_symmetry_cell_setting 'monoclinic'
loop_
_space_group_symop_operation_xyz
x,y,z
-x,y,-z
-x,-y,-z
x,-y,z
1/2+x,1/2+y,z
1/2-x,1/2+y,-z
1/2-x,1/2-y,-z
1/2+x,1/2-y,z
loop_
_atom_site_type_symbol
_atom_site_label
_atom_site_fract_x
_atom_site_fract_y
_atom_site_fract_z
Si Si1 0.580436 0.169746 0.131732
Si Si2 0.206018 0.170114 0.196851
Si Si3 0.286093 0.159149 0.486586
Si Si4 0.853087 0.831076 0.163436
Si Si5 0.556143 0.158491 0.255313
Si Si6 0.273810 0.667018 0.929498
Si Si7 0.328070 0.672125 0.414438
Si Si8 0.984254 0.830827 0.669808
O O1 0.642953 0.258171 0.167126
O O2 0.575539 0.224838 0.204592
O O3 0.602271 0.000000 0.156062
O O4 0.500000 0.200095 0.000000
O O5 0.184214 0.194923 0.090764
O O6 0.288934 0.246840 0.302774
O O7 0.212781 0.000000 0.223202
O O8 0.250000 0.250000 0.500000
O O9 0.371355 0.134785 0.609949
O O10 0.275161 0.262430 0.408476
O O11 0.248218 0.000000 0.428797
O O12 0.805500 0.750480 0.162769
O O13 0.940964 0.792799 0.280517
O O14 0.839144 0.000000 0.156671
O O15 0.828414 0.780615 0.057217
O O16 0.507068 0.261879 0.243664
O O17 0.517100 0.000000 0.196842
O O18 0.252957 0.500000 0.911891
O O19 0.318926 0.500000 0.396913
O O20 0.414132 0.718326 0.535788
O O21 0.976215 0.000000 0.675060
#
# Coordination Sequence:
#
# PCOD8080977 Si02
#       8
#     8   8   8   8   8   8   8   8
#     4  10  22  38  54  78 113 150 189 229 271 327
#     4  11  23  38  57  81 112 149 187 228 277 333
#     4  10  18  29  48  72 100 137 184 230 273 319
#     4   9  18  36  60  85 111 138 178 228 276 329
#     4   9  19  33  48  72 105 141 179 221 266 317
#     4   9  20  37  57  84 113 142 179 225 276 332
#     4  10  20  35  53  77 108 145 186 229 279 332
#     4   9  19  34  57  84 110 142 183 232 279 324
#
# _framework density 19.860976000000001
#
# number of rings (size 3 to 8) (size 9 to 14) (size 15 to 20)
#    0.000    2.375    0.000    1.875    1.750    4.250 
#    0.000    0.625    0.000    3.750    0.000    0.000 
#    0.000    0.000    0.000    0.000    0.000    0.000 
#
# Total GULP energy -396479.381955 kJ/mol
# GULP energy per Si atom -12389.980686 kJ/mol
# Density = 1.981577 g / cm^3
# Si number density = 19.860976 Si / 1000 Ang^3
#
#
#
# Elastic Constant Matrix: (Units=GPa)
#
#
# Indices 1 2 3 4 5 6 
#
# 1 70.5288 28.7976 26.4820 0.0000 9.4714 0.0000
# 2 28.7976 71.4199 32.0710 0.0000 9.7870 0.0000
# 3 26.4820 32.0710 70.4674 0.0000 4.3530 0.0000
# 4 0.0000 0.0000 0.0000 24.6755 0.0000 -1.8740
# 5 9.4714 9.7870 4.3530 0.0000 28.1497 0.0000
# 6 0.0000 0.0000 0.0000 -1.8740 0.0000 32.4401
#
#
#
# Elastic Compliance Matrix: (Units=1/GPa)
#
#
# Indices 1 2 3 4 5 6 
#
# 1 0.018349 -0.004887 -0.004438 0.000000 -0.003789 0.000000
# 2 -0.004887 0.019604 -0.006831 0.000000 -0.004115 0.000000
# 3 -0.004438 -0.006831 0.018909 0.000000 0.000944 0.000000
# 4 0.000000 0.000000 0.000000 0.040705 0.000000 0.002351
# 5 -0.003789 -0.004115 0.000944 0.000000 0.038084 0.000000
# 6 0.000000 0.000000 0.000000 0.002351 0.000000 0.030962
#
#
# Mechanical properties :
#
#
# Convention : Reuss Voigt Hill
#
# Bulk Modulus (GPa) = 40.73201 43.01303 41.87252
# Shear Modulus (GPa) = 24.14213 25.39075 24.76644
#
# Velocity S-wave (km/s) = 3.49027 3.57938 3.53511
# Velocity P-wave (km/s) = 6.06595 6.22790 6.14746
#
# Compressibility (1/GPa) = 0.02455072
#
# Stress axis : x y z
#
# Youngs Moduli (GPa) = 54.49924 51.01111 52.88394
#
# Poissons Ratio (x) = 0.24928 0.23468
# Poissons Ratio (y) = 0.26632 0.36127
# Poissons Ratio (z) = 0.24184 0.34847
#
# Static dielectric constant tensor:
#      x y z
#    x 3.434800 0.000000 -0.082610 
#    y 0.000000 3.787300 0.000000 
#    z -0.082610 0.000000 3.488240 
# 
# 
# High freq. dielectric constant tensor:
#      x y z
#    x 1.759110 0.000000 -0.002000 
#    y 0.000000 1.774510 0.000000 
#    z -0.002000 0.000000 1.772760 
# 
# From -- ./inp_files/295762.got.cif
#   From: 2010.06.25/outbox.cif.g09.slc.cpg/sg12_148_cif.got.tgz:295762.got - 2010.06.28 00:19:55.
