data_PCOD8080391
_publ_section_title
;
Structure prediction by ZEFSAII (Michael W. Deem and Ramdas Pophale) SiO2 
 PCOD8080391
Probable space group: C 2/M
;
_chemical_formula_sum "Si O2"
_cell_formula_units_Z 56
_cell_length_a 22.469756
_cell_length_b 9.154201
_cell_length_c 16.418569
_cell_angle_alpha 90.000000
_cell_angle_beta 80.473517
_cell_angle_gamma 90.000000
_cell_volume 3330.605204
_symmetry_space_group_name_H-M "C 2/M"
_symmetry_group_IT_number 12
_symmetry_cell_setting 'monoclinic'
loop_
_space_group_symop_operation_xyz
x,y,z
-x,y,-z
-x,-y,-z
x,-y,z
1/2+x,1/2+y,z
1/2-x,1/2+y,-z
1/2-x,1/2-y,-z
1/2+x,1/2-y,z
loop_
_atom_site_type_symbol
_atom_site_label
_atom_site_fract_x
_atom_site_fract_y
_atom_site_fract_z
Si Si1 0.049007 0.663726 0.602063
Si Si2 0.553888 0.668658 0.925534
Si Si3 0.377813 0.672492 0.735867
Si Si4 0.788608 0.670801 0.875671
Si Si5 0.010766 0.829486 0.757780
Si Si6 0.911813 0.334677 0.577139
Si Si7 0.172109 0.670412 0.952102
O O1 0.067749 0.500000 0.621393
O O2 0.056516 0.761027 0.681052
O O3 0.091159 0.717626 0.517003
O O4 0.980551 0.669650 0.589006
O O5 0.575220 0.500000 0.921011
O O6 0.531247 0.719413 0.842288
O O7 0.607519 0.773662 0.938918
O O8 0.500000 0.692893 0.000000
O O9 0.367899 0.500000 0.742082
O O10 0.325566 0.751945 0.796584
O O11 0.441726 0.721077 0.760245
O O12 0.373566 0.725774 0.642877
O O13 0.782741 0.500000 0.858091
O O14 0.722349 0.740676 0.891275
O O15 0.821915 0.700775 0.953299
O O16 0.015386 0.000000 0.744371
O O17 0.886799 0.500000 0.591153
O O18 0.179205 0.500000 0.930366
#
# Coordination Sequence:
#
# PCOD8080391 Si02
#       7
#     8   8   8   8   8   8   8
#     4   8  14  25  41  60  87 123 157 190 228 273
#     4  10  20  34  50  68  95 129 159 189 229 275
#     4  10  18  28  45  70  97 124 156 193 230 270
#     4  10  20  34  51  69  92 122 153 190 236 280
#     4   9  18  29  43  66  95 127 159 191 230 274
#     4   8  14  25  40  61  90 122 154 188 231 277
#     4  10  21  35  51  71  92 118 156 197 233 271
#
# _framework density 16.813762000000001
#
# number of rings (size 3 to 8) (size 9 to 14) (size 15 to 20)
#    0.000    2.714    0.000    3.000    0.000    4.857 
#    0.000    2.857    0.000    0.000    0.000    1.000 
#    0.000    0.000    0.000    0.000    0.000    0.000 
#
# Total GULP energy -347124.976314 kJ/mol
# GULP energy per Si atom -12397.320583 kJ/mol
# Density = 1.677549 g / cm^3
# Si number density = 16.813762 Si / 1000 Ang^3
#
#
#
# Elastic Constant Matrix: (Units=GPa)
#
#
# Indices 1 2 3 4 5 6 
#
# 1 52.7080 32.5734 38.7987 0.0000 -8.8647 0.0000
# 2 32.5734 73.1512 54.2458 0.0000 -12.6320 0.0000
# 3 38.7987 54.2458 135.9282 0.0000 -15.2795 0.0000
# 4 0.0000 0.0000 0.0000 32.1883 0.0000 -4.9994
# 5 -8.8647 -12.6320 -15.2795 0.0000 21.9110 0.0000
# 6 0.0000 0.0000 0.0000 -4.9994 0.0000 25.0068
#
#
#
# Elastic Compliance Matrix: (Units=1/GPa)
#
#
# Indices 1 2 3 4 5 6 
#
# 1 0.028026 -0.008871 -0.004080 0.000000 0.003380 0.000000
# 2 -0.008871 0.023055 -0.006053 0.000000 0.005482 0.000000
# 3 -0.004080 -0.006053 0.011240 0.000000 0.002698 0.000000
# 4 0.000000 0.000000 0.000000 0.032063 0.000000 0.006410
# 5 0.003380 0.005482 0.002698 0.000000 0.052049 0.000000
# 6 0.000000 0.000000 0.000000 0.006410 0.000000 0.041271
#
#
# Mechanical properties :
#
#
# Convention : Reuss Voigt Hill
#
# Bulk Modulus (GPa) = 41.12606 57.00259 49.06432
# Shear Modulus (GPa) = 21.38444 24.89917 23.14181
#
# Velocity S-wave (km/s) = 3.57016 3.85240 3.71396
# Velocity P-wave (km/s) = 6.44264 7.33239 6.90186
#
# Compressibility (1/GPa) = 0.02431549
#
# Stress axis : x y z
#
# Youngs Moduli (GPa) = 35.68108 43.37376 88.96765
#
# Poissons Ratio (x) = 0.38476 0.36295
# Poissons Ratio (y) = 0.31652 0.53849
# Poissons Ratio (z) = 0.14556 0.26252
#
# Static dielectric constant tensor:
#      x y z
#    x 2.800290 0.000000 -0.063260 
#    y 0.000000 3.219470 0.000000 
#    z -0.063260 0.000000 3.529660 
# 
# 
# High freq. dielectric constant tensor:
#      x y z
#    x 1.601420 0.000000 -0.012530 
#    y 0.000000 1.652900 0.000000 
#    z -0.012530 0.000000 1.659820 
# 
# From -- ./inp_files/280199.got.cif
#   From: 2010.06.25/outbox.cif.g09.slc.cpg/sg12_141_cif.got.tgz:280199.got - 2010.06.28 00:19:55.
