data_PCOD8080169
_publ_section_title
;
Structure prediction by ZEFSAII (Michael W. Deem and Ramdas Pophale) SiO2 
 PCOD8080169
Probable space group: C 2/M
;
_chemical_formula_sum "Si O2"
_cell_formula_units_Z 64
_cell_length_a 30.022273
_cell_length_b 15.270058
_cell_length_c 18.544024
_cell_angle_alpha 90.000000
_cell_angle_beta 26.828179
_cell_angle_gamma 90.000000
_cell_volume 3836.802320
_symmetry_space_group_name_H-M "C 2/M"
_symmetry_group_IT_number 12
_symmetry_cell_setting 'monoclinic'
loop_
_space_group_symop_operation_xyz
x,y,z
-x,y,-z
-x,-y,-z
x,-y,z
1/2+x,1/2+y,z
1/2-x,1/2+y,-z
1/2-x,1/2-y,-z
1/2+x,1/2-y,z
loop_
_atom_site_type_symbol
_atom_site_label
_atom_site_fract_x
_atom_site_fract_y
_atom_site_fract_z
Si Si1 0.198970 0.098423 0.415744
Si Si2 0.378876 0.596574 0.316965
Si Si3 0.707345 0.343598 0.701025
Si Si4 0.904623 0.675135 0.095159
Si Si5 0.911338 0.733186 0.437500
Si Si6 0.704928 0.403970 0.863052
Si Si7 0.957036 0.227754 0.883258
Si Si8 0.428376 0.100031 0.537756
O O1 0.190568 0.114894 0.513861
O O2 0.313599 0.107550 0.228230
O O3 0.126459 0.169731 0.481617
O O4 0.164718 0.000000 0.444071
O O5 0.426101 0.500000 0.254463
O O6 0.313577 0.599949 0.339408
O O7 0.466506 0.665659 0.185531
O O8 0.629468 0.264644 0.817671
O O9 0.818510 0.309697 0.531470
O O10 0.698101 0.401416 0.786040
O O11 0.931726 0.691262 0.972106
O O12 0.000000 0.637555 0.000000
O O13 0.950796 0.672699 0.444879
O O14 0.001912 0.737919 0.251477
O O15 0.669101 0.500000 0.940070
O O16 0.816856 0.387815 0.726499
O O17 0.640316 0.328979 0.993832
O O18 0.500000 0.120499 0.500000
O O19 0.443921 0.000000 0.486296
#
# Coordination Sequence:
#
# PCOD8080169 Si02
#       8
#     8   8   8   8   8   8   8   8
#     4   9  20  33  46  64  92 135 178 205 234 279
#     4  10  18  28  44  66  93 130 174 218 250 278
#     4   9  17  28  43  65  92 130 169 208 250 290
#     4  10  18  28  42  60  91 130 172 209 241 275
#     4   9  19  33  53  71  98 128 159 203 249 292
#     4   9  17  29  46  71 100 126 158 203 250 295
#     4  10  19  29  44  70  99 132 166 200 247 285
#     4   9  18  36  61  83  99 118 149 192 249 314
#
# _framework density 16.680557
#
# number of rings (size 3 to 8) (size 9 to 14) (size 15 to 20)
#    0.000    2.625    1.250    1.500    1.750    2.750 
#    0.000    3.125    0.000    0.375    0.000    0.000 
#    0.000    0.000    0.000    0.000    0.000    0.000 
#
# Total GULP energy -396690.197886 kJ/mol
# GULP energy per Si atom -12396.568684 kJ/mol
# Density = 1.664259 g / cm^3
# Si number density = 16.680557 Si / 1000 Ang^3
#
#
#
# Elastic Constant Matrix: (Units=GPa)
#
#
# Indices 1 2 3 4 5 6 
#
# 1 82.9909 41.2605 38.2516 0.0000 -6.8419 0.0000
# 2 41.2605 78.8595 38.7514 0.0000 5.7159 0.0000
# 3 38.2516 38.7514 101.7212 0.0000 3.8837 0.0000
# 4 0.0000 0.0000 0.0000 16.2380 0.0000 0.1503
# 5 -6.8419 5.7159 3.8837 0.0000 14.6495 0.0000
# 6 0.0000 0.0000 0.0000 0.1503 0.0000 19.3008
#
#
#
# Elastic Compliance Matrix: (Units=1/GPa)
#
#
# Indices 1 2 3 4 5 6 
#
# 1 0.019853 -0.009195 -0.004499 0.000000 0.014053 0.000000
# 2 -0.009195 0.020167 -0.003799 0.000000 -0.011156 0.000000
# 3 -0.004499 -0.003799 0.013127 0.000000 -0.004099 0.000000
# 4 0.000000 0.000000 0.000000 0.061588 0.000000 -0.000480
# 5 0.014053 -0.011156 -0.004099 0.000000 0.080264 0.000000
# 6 0.000000 0.000000 0.000000 -0.000480 0.000000 0.051815
#
#
# Mechanical properties :
#
#
# Convention : Reuss Voigt Hill
#
# Bulk Modulus (GPa) = 55.06623 55.56652 55.31638
# Shear Modulus (GPa) = 17.36981 19.72488 18.54734
#
# Velocity S-wave (km/s) = 3.23045 3.44249 3.33815
# Velocity P-wave (km/s) = 6.85553 7.01323 6.93483
#
# Compressibility (1/GPa) = 0.01815995
#
# Stress axis : x y z
#
# Youngs Moduli (GPa) = 50.36909 49.58499 76.18157
#
# Poissons Ratio (x) = 0.45595 0.34276
# Poissons Ratio (y) = 0.46316 0.28942
# Poissons Ratio (z) = 0.22663 0.18838
#
# Static dielectric constant tensor:
#      x y z
#    x 2.757540 0.000000 -0.084110 
#    y 0.000000 3.186310 0.000000 
#    z -0.084110 0.000000 3.170630 
# 
# 
# High freq. dielectric constant tensor:
#      x y z
#    x 1.597970 0.000000 -0.006910 
#    y 0.000000 1.641820 0.000000 
#    z -0.006910 0.000000 1.646700 
# 
# From -- ./inp_files/296676.got.cif
#   From: 2010.06.25/outbox.cif.g09.slc.cpg/sg12_149_cif.got.tgz:296676.got - 2010.06.28 00:19:55.
