data_PCOD8080185
_publ_section_title
;
Structure prediction by ZEFSAII (Michael W. Deem and Ramdas Pophale) SiO2 
 PCOD8080185
Probable space group: C 2/M
;
_chemical_formula_sum "Si O2"
_cell_formula_units_Z 64
_cell_length_a 25.058246
_cell_length_b 8.815328
_cell_length_c 16.476742
_cell_angle_alpha 90.000000
_cell_angle_beta 110.166894
_cell_angle_gamma 90.000000
_cell_volume 3416.518522
_symmetry_space_group_name_H-M "C 2/M"
_symmetry_group_IT_number 12
_symmetry_cell_setting 'monoclinic'
loop_
_space_group_symop_operation_xyz
x,y,z
-x,y,-z
-x,-y,-z
x,-y,z
1/2+x,1/2+y,z
1/2-x,1/2+y,-z
1/2-x,1/2-y,-z
1/2+x,1/2-y,z
loop_
_atom_site_type_symbol
_atom_site_label
_atom_site_fract_x
_atom_site_fract_y
_atom_site_fract_z
Si Si1 0.236775 0.164154 0.263254
Si Si2 0.355696 0.180052 0.280414
Si Si3 0.494022 0.321365 0.906590
Si Si4 0.616465 0.681447 0.249304
Si Si5 0.791357 0.333474 0.463576
Si Si6 0.553677 0.176043 0.797790
Si Si7 0.554599 0.821150 0.362448
Si Si8 0.600461 0.321937 0.536580
O O1 0.290234 0.246559 0.244485
O O2 0.175194 0.247019 0.238882
O O3 0.258879 0.138970 0.364261
O O4 0.226143 0.000000 0.215856
O O5 0.385335 0.217331 0.210031
O O6 0.395495 0.248992 0.371980
O O7 0.353051 0.000000 0.295711
O O8 0.498369 0.500000 0.912117
O O9 0.434000 0.268709 0.837578
O O10 0.546205 0.263513 0.878561
O O11 0.500000 0.252287 0.000000
O O12 0.620521 0.500000 0.262302
O O13 0.605433 0.754907 0.332037
O O14 0.811302 0.500000 0.506712
O O15 0.750000 0.250000 0.500000
O O16 0.842869 0.218056 0.482292
O O17 0.504998 0.224953 0.709123
O O18 0.549175 0.000000 0.815366
O O19 0.552129 0.748140 0.451843
O O20 0.562420 0.000000 0.374677
O O21 0.590927 0.500000 0.540776
#
# Coordination Sequence:
#
# PCOD8080185 Si02
#       8
#     8   8   8   8   8   8   8   8
#     4   8  15  27  45  65  86 117 156 196 233 273
#     4   9  18  34  50  66  91 124 164 205 244 283
#     4   9  18  32  52  78 104 126 148 182 233 290
#     4   9  16  29  49  72  96 122 156 196 238 286
#     4  10  18  28  42  62  89 122 163 210 254 289
#     4   9  19  34  53  73  93 122 158 197 243 293
#     4  10  19  31  46  67  94 124 160 204 252 290
#     4  11  21  31  43  63  92 129 170 204 240 285
#
# _framework density 18.732519
#
# number of rings (size 3 to 8) (size 9 to 14) (size 15 to 20)
#    0.000    2.625    0.000    3.375    0.000    2.750 
#    0.000    5.000    0.000    0.750    0.000    0.000 
#    0.000    0.000    0.000    0.000    0.000    0.000 
#
# Total GULP energy -396435.114655 kJ/mol
# GULP energy per Si atom -12388.597333 kJ/mol
# Density = 1.868988 g / cm^3
# Si number density = 18.732519 Si / 1000 Ang^3
#
#
#
# Elastic Constant Matrix: (Units=GPa)
#
#
# Indices 1 2 3 4 5 6 
#
# 1 101.9676 17.3904 24.8510 0.0000 -22.9575 0.0000
# 2 17.3904 48.7934 23.0063 0.0000 -6.6728 0.0000
# 3 24.8510 23.0063 65.3855 0.0000 -16.3729 0.0000
# 4 0.0000 0.0000 0.0000 20.1237 0.0000 -3.5149
# 5 -22.9575 -6.6728 -16.3729 0.0000 23.4038 0.0000
# 6 0.0000 0.0000 0.0000 -3.5149 0.0000 16.2688
#
#
#
# Elastic Compliance Matrix: (Units=1/GPa)
#
#
# Indices 1 2 3 4 5 6 
#
# 1 0.013072 -0.002526 -0.001272 0.000000 0.011213 0.000000
# 2 -0.002526 0.025085 -0.008118 0.000000 -0.001005 0.000000
# 3 -0.001272 -0.008118 0.021510 0.000000 0.011486 0.000000
# 4 0.000000 0.000000 0.000000 0.051641 0.000000 0.011157
# 5 0.011213 -0.001005 0.011486 0.000000 0.061476 0.000000
# 6 0.000000 0.000000 0.000000 0.011157 0.000000 0.063878
#
#
# Mechanical properties :
#
#
# Convention : Reuss Voigt Hill
#
# Bulk Modulus (GPa) = 27.90508 38.51579 33.21044
# Shear Modulus (GPa) = 18.35275 22.01920 20.18598
#
# Velocity S-wave (km/s) = 3.13345 3.43221 3.28623
# Velocity P-wave (km/s) = 5.29342 6.02597 5.67153
#
# Compressibility (1/GPa) = 0.03583577
#
# Stress axis : x y z
#
# Youngs Moduli (GPa) = 76.49721 39.86439 46.49070
#
# Poissons Ratio (x) = 0.10070 0.05913
# Poissons Ratio (y) = 0.19323 0.37741
# Poissons Ratio (z) = 0.09729 0.32361
#
# Static dielectric constant tensor:
#      x y z
#    x 3.661970 0.000000 -0.004760 
#    y 0.000000 3.230470 0.000000 
#    z -0.004760 0.000000 3.291690 
# 
# 
# High freq. dielectric constant tensor:
#      x y z
#    x 1.734360 0.000000 -0.009920 
#    y 0.000000 1.708530 0.000000 
#    z -0.009920 0.000000 1.692230 
# 
# From -- ./inp_files/244058.got.cif
#   From: 2010.06.25/outbox.cif.g09.slc.cpg/sg12_123_cif.got.tgz:244058.got - 2010.06.28 00:19:55.
