data_PCOD8080523
_publ_section_title
;
Structure prediction by ZEFSAII (Michael W. Deem and Ramdas Pophale) SiO2 
 PCOD8080523
Probable space group: C 2/M
;
_chemical_formula_sum "Si O2"
_cell_formula_units_Z 64
_cell_length_a 24.434368
_cell_length_b 9.032924
_cell_length_c 21.415973
_cell_angle_alpha 90.000000
_cell_angle_beta 51.186368
_cell_angle_gamma 90.000000
_cell_volume 3683.070327
_symmetry_space_group_name_H-M "C 2/M"
_symmetry_group_IT_number 12
_symmetry_cell_setting 'monoclinic'
loop_
_space_group_symop_operation_xyz
x,y,z
-x,y,-z
-x,-y,-z
x,-y,z
1/2+x,1/2+y,z
1/2-x,1/2+y,-z
1/2-x,1/2-y,-z
1/2+x,1/2-y,z
loop_
_atom_site_type_symbol
_atom_site_label
_atom_site_fract_x
_atom_site_fract_y
_atom_site_fract_z
Si Si1 0.480221 0.169525 0.797166
Si Si2 0.246782 0.827269 0.096143
Si Si3 0.172880 0.175235 0.275216
Si Si4 0.143745 0.172869 0.058838
Si Si5 0.225795 0.825210 0.369970
Si Si6 0.635892 0.173473 0.661418
Si Si7 0.610453 0.676236 0.550623
Si Si8 0.466836 0.825452 0.663047
O O1 0.435321 0.267260 0.877349
O O2 0.562566 0.201164 0.749869
O O3 0.460673 0.213418 0.740473
O O4 0.461189 0.000000 0.823733
O O5 0.221929 0.777848 0.182341
O O6 0.186457 0.781485 0.090352
O O7 0.262642 0.000000 0.081320
O O8 0.318950 0.743380 0.028314
O O9 0.212085 0.230436 0.309536
O O10 0.099242 0.259338 0.325687
O O11 0.158046 0.000000 0.285164
O O12 0.140386 0.000000 0.050671
O O13 0.301775 0.768454 0.338706
O O14 0.164898 0.768245 0.459315
O O15 0.226205 0.000000 0.370335
O O16 0.639421 0.266852 0.595770
O O17 0.642932 0.000000 0.638866
O O18 0.602657 0.500000 0.558305
O O19 0.536145 0.748485 0.585919
O O20 0.472286 0.000000 0.647953
#
# Coordination Sequence:
#
# PCOD8080523 Si02
#       8
#     8   8   8   8   8   8   8   8
#     4   9  17  29  48  71  98 127 158 200 246 290
#     4   9  18  30  46  71 100 129 158 195 240 290
#     4  10  19  34  53  72  99 134 169 204 241 296
#     4  10  18  28  47  74 100 125 157 198 241 289
#     4   9  19  34  53  74  98 131 170 208 249 293
#     4   9  18  34  53  75 100 129 165 209 255 291
#     4  10  19  32  52  76  99 128 166 211 253 293
#     4  10  20  33  49  72 102 135 164 203 252 296
#
# _framework density 17.376805999999998
#
# number of rings (size 3 to 8) (size 9 to 14) (size 15 to 20)
#    0.000    2.500    1.250    2.250    0.000    3.500 
#    0.000    5.000    0.000    0.750    0.000    5.250 
#    0.000    0.000    0.000    0.000    0.000    0.000 
#
# Total GULP energy -396825.191534 kJ/mol
# GULP energy per Si atom -12400.787235 kJ/mol
# Density = 1.733726 g / cm^3
# Si number density = 17.376806 Si / 1000 Ang^3
#
#
#
# Elastic Constant Matrix: (Units=GPa)
#
#
# Indices 1 2 3 4 5 6 
#
# 1 108.2339 34.4375 74.5776 0.0012 -3.5200 0.0002
# 2 34.4375 52.9262 43.7197 0.0030 -6.9936 -0.0005
# 3 74.5776 43.7197 132.2162 0.0013 -16.7918 -0.0006
# 4 0.0012 0.0030 0.0013 25.5366 -0.0010 -3.7880
# 5 -3.5200 -6.9936 -16.7918 -0.0010 20.3377 0.0001
# 6 0.0002 -0.0005 -0.0006 -3.7880 0.0001 20.9053
#
#
#
# Elastic Compliance Matrix: (Units=1/GPa)
#
#
# Indices 1 2 3 4 5 6 
#
# 1 0.016264 -0.004346 -0.008456 0.000000 -0.005661 -0.000001
# 2 -0.004346 0.027233 -0.006100 -0.000003 0.003576 0.000000
# 3 -0.008456 -0.006100 0.015526 0.000001 0.009258 0.000000
# 4 0.000000 -0.000003 0.000001 0.040241 0.000002 0.007292
# 5 -0.005661 0.003576 0.009258 0.000002 0.057063 0.000001
# 6 -0.000001 0.000000 0.000000 0.007292 0.000001 0.049156
#
#
# Mechanical properties :
#
#
# Convention : Reuss Voigt Hill
#
# Bulk Modulus (GPa) = 47.12439 66.53843 56.83141
# Shear Modulus (GPa) = 19.97122 22.73201 21.35161
#
# Velocity S-wave (km/s) = 3.39382 3.62080 3.50914
# Velocity P-wave (km/s) = 6.52191 7.47362 7.01392
#
# Compressibility (1/GPa) = 0.02122044
#
# Stress axis : x y z
#
# Youngs Moduli (GPa) = 61.48393 36.72007 64.40881
#
# Poissons Ratio (x) = 0.15957 0.54465
# Poissons Ratio (y) = 0.26719 0.39287
# Poissons Ratio (z) = 0.51991 0.22398
#
# Static dielectric constant tensor:
#      x y z
#    x 3.239460 0.000000 -0.111190 
#    y 0.000000 3.096050 0.000000 
#    z -0.111190 0.000000 3.302980 
# 
# 
# High freq. dielectric constant tensor:
#      x y z
#    x 1.650100 0.000000 -0.017750 
#    y 0.000000 1.663640 0.000000 
#    z -0.017750 0.000000 1.672790 
# 
# From -- ./inp_files/324074.got.cif
#   From: 2010.06.25/outbox.cif.g09.slc.cpg/sg12_163_cif.got.tgz:324074.got - 2010.06.28 00:19:55.
