data_PCOD8080713
_publ_section_title
;
Structure prediction by ZEFSAII (Michael W. Deem and Ramdas Pophale) SiO2 
 PCOD8080713
Probable space group: C 2/M
;
_chemical_formula_sum "Si O2"
_cell_formula_units_Z 56
_cell_length_a 34.605315
_cell_length_b 8.579878
_cell_length_c 14.512525
_cell_angle_alpha 90.000000
_cell_angle_beta 129.337089
_cell_angle_gamma 90.000000
_cell_volume 3332.636440
_symmetry_space_group_name_H-M "C 2/M"
_symmetry_group_IT_number 12
_symmetry_cell_setting 'monoclinic'
loop_
_space_group_symop_operation_xyz
x,y,z
-x,y,-z
-x,-y,-z
x,-y,z
1/2+x,1/2+y,z
1/2-x,1/2+y,-z
1/2-x,1/2-y,-z
1/2+x,1/2-y,z
loop_
_atom_site_type_symbol
_atom_site_label
_atom_site_fract_x
_atom_site_fract_y
_atom_site_fract_z
Si Si1 0.460284 0.324533 0.316866
Si Si2 0.120064 0.815457 0.666695
Si Si3 0.562830 0.817618 0.017940
Si Si4 0.455751 0.316049 0.821892
Si Si5 0.063373 0.815771 0.408068
Si Si6 0.377151 0.676469 0.043605
Si Si7 0.195043 0.316705 0.916568
O O1 0.471235 0.500000 0.364772
O O2 0.428198 0.247813 0.350960
O O3 0.513308 0.240014 0.378140
O O4 0.428948 0.318031 0.176180
O O5 0.111327 0.775360 0.545067
O O6 0.169206 0.733748 0.781139
O O7 0.125940 0.000000 0.693083
O O8 0.514452 0.723906 0.909443
O O9 0.612184 0.768507 0.035212
O O10 0.552641 0.000000 0.992031
O O11 0.572681 0.774827 0.139608
O O12 0.449513 0.500000 0.827382
O O13 0.430180 0.257939 0.687282
O O14 0.054688 0.000000 0.390927
O O15 0.360881 0.500000 0.996873
O O16 0.333493 0.754988 0.036588
O O17 0.197010 0.500000 0.924870
O O18 0.250000 0.250000 0.000000
#
# Coordination Sequence:
#
# PCOD8080713 Si02
#       7
#     8   8   8   8   8   8   8
#     4   8  13  23  42  67  93 123 161 197 228 273
#     4   9  17  29  48  71  96 126 162 200 241 288
#     4  11  20  30  43  66  98 132 168 209 251 287
#     4  10  18  29  45  65  94 135 178 211 237 279
#     4   9  15  25  44  70  95 128 170 204 234 277
#     4  10  18  32  53  73  95 127 165 203 245 291
#     4  11  22  37  54  75 100 125 157 199 246 293
#
# _framework density 16.803512999999999
#
# number of rings (size 3 to 8) (size 9 to 14) (size 15 to 20)
#    0.000    2.286    1.429    5.571    0.000    1.714 
#    0.000    1.429    0.000    1.714    0.000    1.000 
#    0.000    0.000    0.000    0.000    0.000    0.000 
#
# Total GULP energy -346997.926226 kJ/mol
# GULP energy per Si atom -12392.783080 kJ/mol
# Density = 1.676527 g / cm^3
# Si number density = 16.803513 Si / 1000 Ang^3
#
#
#
# Elastic Constant Matrix: (Units=GPa)
#
#
# Indices 1 2 3 4 5 6 
#
# 1 93.0923 31.3877 64.2687 0.0000 -9.3580 0.0000
# 2 31.3877 72.7721 24.9623 0.0000 -1.1529 0.0000
# 3 64.2687 24.9623 101.1411 0.0000 -13.7820 0.0000
# 4 0.0000 0.0000 0.0000 15.3832 0.0000 -0.0189
# 5 -9.3580 -1.1529 -13.7820 0.0000 27.4772 0.0000
# 6 0.0000 0.0000 0.0000 -0.0189 0.0000 22.3289
#
#
#
# Elastic Compliance Matrix: (Units=1/GPa)
#
#
# Indices 1 2 3 4 5 6 
#
# 1 0.020582 -0.004828 -0.011764 0.000000 0.000907 0.000000
# 2 -0.004828 0.016190 -0.001137 0.000000 -0.001535 0.000000
# 3 -0.011764 -0.001137 0.018344 0.000000 0.005147 0.000000
# 4 0.000000 0.000000 0.000000 0.065006 0.000000 0.000055
# 5 0.000907 -0.001535 0.005147 0.000000 0.039220 0.000000
# 6 0.000000 0.000000 0.000000 0.000055 0.000000 0.044785
#
#
# Mechanical properties :
#
#
# Convention : Reuss Voigt Hill
#
# Bulk Modulus (GPa) = 50.86758 56.47143 53.66950
# Shear Modulus (GPa) = 20.31387 22.79699 21.55543
#
# Velocity S-wave (km/s) = 3.48070 3.68731 3.58550
# Velocity P-wave (km/s) = 6.81846 7.19779 7.01069
#
# Compressibility (1/GPa) = 0.01965889
#
# Stress axis : x y z
#
# Youngs Moduli (GPa) = 48.58541 61.76799 54.51326
#
# Poissons Ratio (x) = 0.29821 0.64127
# Poissons Ratio (y) = 0.23457 0.06199
# Poissons Ratio (z) = 0.57154 0.07024
#
# Static dielectric constant tensor:
#      x y z
#    x 3.127870 0.000000 -0.279150 
#    y 0.000000 2.966890 0.000000 
#    z -0.279150 0.000000 3.127300 
# 
# 
# High freq. dielectric constant tensor:
#      x y z
#    x 1.629910 0.000000 -0.027170 
#    y 0.000000 1.630380 0.000000 
#    z -0.027170 0.000000 1.625900 
# 
# From -- ./inp_files/249279.got.cif
#   From: 2010.06.25/outbox.cif.g09.slc.cpg/sg12_125_cif.got.tgz:249279.got - 2010.06.28 00:19:55.
