data_PCOD8080863
_publ_section_title
;
Structure prediction by ZEFSAII (Michael W. Deem and Ramdas Pophale) SiO2 
 PCOD8080863
Probable space group: C 2/M
;
_chemical_formula_sum "Si O2"
_cell_formula_units_Z 56
_cell_length_a 28.673454
_cell_length_b 9.540339
_cell_length_c 31.358072
_cell_angle_alpha 90.000000
_cell_angle_beta 24.100302
_cell_angle_gamma 90.000000
_cell_volume 3502.757460
_symmetry_space_group_name_H-M "C 2/M"
_symmetry_group_IT_number 12
_symmetry_cell_setting 'monoclinic'
loop_
_space_group_symop_operation_xyz
x,y,z
-x,y,-z
-x,-y,-z
x,-y,z
1/2+x,1/2+y,z
1/2-x,1/2+y,-z
1/2-x,1/2-y,-z
1/2+x,1/2-y,z
loop_
_atom_site_type_symbol
_atom_site_label
_atom_site_fract_x
_atom_site_fract_y
_atom_site_fract_z
Si Si1 0.399429 0.660092 0.402381
Si Si2 0.803407 0.838762 0.395107
Si Si3 0.555783 0.162643 0.498652
Si Si4 0.668025 0.165715 0.880827
Si Si5 0.680226 0.337929 0.713949
Si Si6 0.579093 0.663434 0.319028
Si Si7 0.443290 0.833992 0.113124
O O1 0.361854 0.500000 0.440709
O O2 0.310996 0.752205 0.502450
O O3 0.396770 0.696978 0.354018
O O4 0.525068 0.686414 0.317026
O O5 0.853899 0.804495 0.306552
O O6 0.765532 0.000000 0.428507
O O7 0.500000 0.198078 0.500000
O O8 0.688823 0.203742 0.386279
O O9 0.493871 0.255063 0.585435
O O10 0.540405 0.000000 0.523625
O O11 0.637974 0.214337 0.858011
O O12 0.792285 0.224555 0.789946
O O13 0.666394 0.000000 0.883119
O O14 0.572247 0.216540 0.994408
O O15 0.659616 0.500000 0.742515
O O16 0.595887 0.243842 0.811867
O O17 0.579162 0.500000 0.331813
O O18 0.436581 0.000000 0.126345
#
# Coordination Sequence:
#
# PCOD8080863 Si02
#       7
#     8   8   8   8   8   8   8
#     4   9  17  28  45  68  88 113 151 186 217 264
#     4   9  17  30  45  62  90 122 147 178 222 266
#     4  10  20  31  42  62  94 126 149 173 217 273
#     4   8  16  31  48  67  89 115 147 188 230 260
#     4  10  19  30  44  64  92 121 146 180 224 264
#     4  10  18  29  47  69  91 113 146 189 227 264
#     4   9  17  31  50  66  85 117 155 186 218 264
#
# _framework density 15.987403
#
# number of rings (size 3 to 8) (size 9 to 14) (size 15 to 20)
#    0.000    2.714    1.429    1.714    0.000    1.429 
#    0.000    2.143    0.000    0.857    0.000    0.000 
#    0.000    0.000    0.000    0.000    0.000    0.000 
#
# Total GULP energy -347087.024544 kJ/mol
# GULP energy per Si atom -12395.965162 kJ/mol
# Density = 1.595102 g / cm^3
# Si number density = 15.987403 Si / 1000 Ang^3
#
#
#
# Elastic Constant Matrix: (Units=GPa)
#
#
# Indices 1 2 3 4 5 6 
#
# 1 115.0909 38.5774 66.2031 0.0023 4.6645 -0.0030
# 2 38.5774 42.0844 39.6079 0.0177 8.3758 0.0032
# 3 66.2031 39.6079 100.6538 0.0176 10.8704 -0.0049
# 4 0.0023 0.0177 0.0176 19.9325 -0.0124 5.4388
# 5 4.6645 8.3758 10.8704 -0.0124 20.6763 0.0013
# 6 -0.0030 0.0032 -0.0049 5.4388 0.0013 18.9269
#
#
#
# Elastic Compliance Matrix: (Units=1/GPa)
#
#
# Indices 1 2 3 4 5 6 
#
# 1 0.015482 -0.007880 -0.007474 0.000015 0.003629 -0.000003
# 2 -0.007880 0.043016 -0.010660 -0.000034 -0.010044 -0.000001
# 3 -0.007474 -0.010660 0.019505 -0.000012 -0.004250 0.000009
# 4 0.000015 -0.000034 -0.000012 0.054438 0.000050 -0.015643
# 5 0.003629 -0.010044 -0.004250 0.000050 0.053849 -0.000017
# 6 -0.000003 -0.000001 0.000009 -0.015643 -0.000017 0.057330
#
#
# Mechanical properties :
#
#
# Convention : Reuss Voigt Hill
#
# Bulk Modulus (GPa) = 38.49747 60.73398 49.61572
# Shear Modulus (GPa) = 16.43079 19.46986 17.95032
#
# Velocity S-wave (km/s) = 3.20931 3.49352 3.35442
# Velocity P-wave (km/s) = 6.15345 7.37184 6.79003
#
# Compressibility (1/GPa) = 0.02597574
#
# Stress axis : x y z
#
# Youngs Moduli (GPa) = 64.58926 23.24693 51.26940
#
# Poissons Ratio (x) = 0.18319 0.38321
# Poissons Ratio (y) = 0.50896 0.54651
# Poissons Ratio (z) = 0.48276 0.24780
#
# Static dielectric constant tensor:
#      x y z
#    x 3.355840 -0.000020 -0.217750 
#    y -0.000020 2.912780 0.000040 
#    z -0.217750 0.000040 3.084500 
# 
# 
# High freq. dielectric constant tensor:
#      x y z
#    x 1.622390 0.000000 -0.004540 
#    y 0.000000 1.602820 0.000000 
#    z -0.004540 0.000000 1.593830 
# 
# From -- ./inp_files/383820.got.cif
#   From: 2010.06.25/outbox.cif.g09.slc.cpg/sg12_192_cif.got.tgz:383820.got - 2010.06.28 00:19:55.
