data_PCOD8080039
_publ_section_title
;
Structure prediction by ZEFSAII (Michael W. Deem and Ramdas Pophale) SiO2 
 PCOD8080039
Probable space group: C 2/M
;
_chemical_formula_sum "Si O2"
_cell_formula_units_Z 56
_cell_length_a 17.583866
_cell_length_b 16.404268
_cell_length_c 16.474652
_cell_angle_alpha 90.000000
_cell_angle_beta 44.149779
_cell_angle_gamma 90.000000
_cell_volume 3310.025331
_symmetry_space_group_name_H-M "C 2/M"
_symmetry_group_IT_number 12
_symmetry_cell_setting 'monoclinic'
loop_
_space_group_symop_operation_xyz
x,y,z
-x,y,-z
-x,-y,-z
x,-y,z
1/2+x,1/2+y,z
1/2-x,1/2+y,-z
1/2-x,1/2-y,-z
1/2+x,1/2-y,z
loop_
_atom_site_type_symbol
_atom_site_label
_atom_site_fract_x
_atom_site_fract_y
_atom_site_fract_z
Si Si1 0.761523 0.670495 0.673092
Si Si2 0.626929 0.817502 0.752875
Si Si3 0.018633 0.500000 0.610350
Si Si4 0.897398 0.668506 0.410545
Si Si5 0.564205 0.275727 0.372585
Si Si6 0.561431 0.910800 0.037114
Si Si7 0.683755 0.000000 0.334127
Si Si8 0.262255 0.595256 0.782520
O O1 0.653122 0.726085 0.765463
O O2 0.800693 0.669363 0.549949
O O3 0.857293 0.703400 0.657598
O O4 0.737122 0.578606 0.721195
O O5 0.656738 0.816652 0.635348
O O6 0.499375 0.841793 0.862653
O O7 0.705053 0.880388 0.740958
O O8 0.043741 0.581114 0.641669
O O9 0.094275 0.500000 0.473355
O O10 0.888974 0.500000 0.691351
O O11 0.984743 0.739212 0.364922
O O12 0.500000 0.309332 0.500000
O O13 0.628992 0.352326 0.285687
O O14 0.559405 0.000000 0.082389
O O15 0.500000 0.919906 0.000000
O O16 0.684866 0.885272 0.919610
O O17 0.291602 0.500000 0.755813
#
# Coordination Sequence:
#
# PCOD8080039 Si02
#       8
#     8   8   4   8   8   8   4   8
#     4   9  17  29  43  64  92 125 149 177 214 269
#     4  10  18  27  46  69  90 112 144 190 232 259
#     4   9  16  24  44  64  86 119 144 187 221 258
#     4  10  18  27  43  68  97 115 143 186 228 259
#     4   9  17  30  47  66  92 124 149 174 217 272
#     4   8  15  29  46  65  88 113 148 188 225 263
#     4   9  14  28  44  60  84 120 161 170 210 268
#     4   9  18  32  49  67  88 117 151 186 223 267
#
# _framework density 16.918299000000001
#
# number of rings (size 3 to 8) (size 9 to 14) (size 15 to 20)
#    0.000    2.857    1.429    1.714    2.000    0.286 
#    0.000    0.714    1.571    0.000    0.000   13.500 
#    0.000    0.000    0.000    0.000    0.000    0.000 
#
# Total GULP energy -346995.608470 kJ/mol
# GULP energy per Si atom -12392.700302 kJ/mol
# Density = 1.687979 g / cm^3
# Si number density = 16.918299 Si / 1000 Ang^3
#
#
#
# Elastic Constant Matrix: (Units=GPa)
#
#
# Indices 1 2 3 4 5 6 
#
# 1 32.7339 21.1116 10.0407 0.0000 -0.8110 0.0000
# 2 21.1116 129.5829 42.4450 0.0000 -18.9682 0.0000
# 3 10.0407 42.4450 49.4272 0.0000 -14.3625 0.0000
# 4 0.0000 0.0000 0.0000 23.2866 0.0000 -3.8458
# 5 -0.8110 -18.9682 -14.3625 0.0000 19.2849 0.0000
# 6 0.0000 0.0000 0.0000 -3.8458 0.0000 15.9875
#
#
#
# Elastic Compliance Matrix: (Units=1/GPa)
#
#
# Indices 1 2 3 4 5 6 
#
# 1 0.035204 -0.005234 -0.004750 0.000000 -0.007206 0.000000
# 2 -0.005234 0.011862 -0.007398 0.000000 0.005938 0.000000
# 3 -0.004750 -0.007398 0.032386 0.000000 0.016643 0.000000
# 4 0.000000 0.000000 0.000000 0.044720 0.000000 0.010757
# 5 -0.007206 0.005938 0.016643 0.000000 0.069786 0.000000
# 6 0.000000 0.000000 0.000000 0.010757 0.000000 0.065137
#
#
# Mechanical properties :
#
#
# Convention : Reuss Voigt Hill
#
# Bulk Modulus (GPa) = 22.37792 39.88207 31.13000
# Shear Modulus (GPa) = 16.19409 20.92158 18.55783
#
# Velocity S-wave (km/s) = 3.09721 3.52038 3.31555
# Velocity P-wave (km/s) = 5.10353 6.33629 5.75303
#
# Compressibility (1/GPa) = 0.04468690
#
# Stress axis : x y z
#
# Youngs Moduli (GPa) = 28.40608 84.30199 30.87786
#
# Poissons Ratio (x) = 0.44125 0.14668
# Poissons Ratio (y) = 0.14868 0.22843
# Poissons Ratio (z) = 0.13494 0.62365
#
# Static dielectric constant tensor:
#      x y z
#    x 2.893580 0.000000 -0.089890 
#    y 0.000000 3.315780 0.000000 
#    z -0.089890 0.000000 3.127890 
# 
# 
# High freq. dielectric constant tensor:
#      x y z
#    x 1.624030 0.000000 0.001490 
#    y 0.000000 1.657430 0.000000 
#    z 0.001490 0.000000 1.619500 
# 
# From -- ./inp_files/215873.got.cif
#   From: 2010.06.25/outbox.cif.g09.slc.cpg/sg12_108_cif.got.tgz:215873.got - 2010.06.28 00:19:55.
