data_PCOD8080671
_publ_section_title
;
Structure prediction by ZEFSAII (Michael W. Deem and Ramdas Pophale) SiO2 
 PCOD8080671
Probable space group: C 2/M
;
_chemical_formula_sum "Si O2"
_cell_formula_units_Z 56
_cell_length_a 10.293419
_cell_length_b 25.618897
_cell_length_c 15.862885
_cell_angle_alpha 90.000000
_cell_angle_beta 120.824089
_cell_angle_gamma 90.000000
_cell_volume 3592.247443
_symmetry_space_group_name_H-M "C 2/M"
_symmetry_group_IT_number 12
_symmetry_cell_setting 'monoclinic'
loop_
_space_group_symop_operation_xyz
x,y,z
-x,y,-z
-x,-y,-z
x,-y,z
1/2+x,1/2+y,z
1/2-x,1/2+y,-z
1/2-x,1/2-y,-z
1/2+x,1/2-y,z
loop_
_atom_site_type_symbol
_atom_site_label
_atom_site_fract_x
_atom_site_fract_y
_atom_site_fract_z
Si Si1 0.554857 0.793015 0.389470
Si Si2 0.825812 0.219288 0.100835
Si Si3 0.101367 0.147840 0.196762
Si Si4 0.377544 0.825050 0.187505
Si Si5 0.076655 0.940082 0.935100
Si Si6 0.360800 0.873346 0.005457
Si Si7 0.738066 0.201110 0.605810
O O1 0.514027 0.833494 0.300276
O O2 0.396726 0.775041 0.381143
O O3 0.663364 0.821243 0.494498
O O4 0.639481 0.744132 0.377349
O O5 0.843509 0.262104 0.180292
O O6 0.990720 0.195618 0.134353
O O7 0.750000 0.250000 0.000000
O O8 0.717109 0.169672 0.082514
O O9 0.228303 0.144895 0.167063
O O10 0.174684 0.155700 0.313829
O O11 0.015189 0.092551 0.165905
O O12 0.423633 0.845528 0.111108
O O13 0.075302 0.000000 0.906760
O O14 0.248849 0.919810 0.994335
O O15 0.000000 0.931686 0.000000
O O16 0.500000 0.897745 0.000000
#
# Coordination Sequence:
#
# PCOD8080671 Si02
#       7
#     8   8   8   8   8   8   8
#     4   9  17  28  44  66  93 136 157 189 222 271
#     4   9  19  25  39  62  96 130 153 182 215 274
#     4  10  18  31  47  68  91 127 163 194 230 281
#     4  10  18  29  44  65  99 133 158 185 227 281
#     4  10  20  37  54  68  88 121 165 207 243 285
#     4  10  21  31  45  71  96 121 159 195 237 286
#     4   9  17  29  44  66  97 125 164 190 224 272
#
# _framework density 15.589126
#
# number of rings (size 3 to 8) (size 9 to 14) (size 15 to 20)
#    0.000    2.429    2.857    0.000    4.000    0.286 
#    0.000    0.000    0.000    0.000    0.000    9.000 
#    0.000    1.143    0.000    0.000    0.000    0.000 
#
# Total GULP energy -346889.379121 kJ/mol
# GULP energy per Si atom -12388.906397 kJ/mol
# Density = 1.555364 g / cm^3
# Si number density = 15.589126 Si / 1000 Ang^3
#
#
#
# Elastic Constant Matrix: (Units=GPa)
#
#
# Indices 1 2 3 4 5 6 
#
# 1 89.9278 32.2042 43.6309 0.0000 5.3882 0.0000
# 2 32.2042 79.8436 39.7864 0.0000 3.9417 0.0000
# 3 43.6309 39.7864 112.9698 0.0000 4.2936 0.0000
# 4 0.0000 0.0000 0.0000 13.1940 0.0000 -0.8059
# 5 5.3882 3.9417 4.2936 0.0000 20.8223 0.0000
# 6 0.0000 0.0000 0.0000 -0.8059 0.0000 14.5276
#
#
#
# Elastic Compliance Matrix: (Units=1/GPa)
#
#
# Indices 1 2 3 4 5 6 
#
# 1 0.014641 -0.003663 -0.004280 0.000000 -0.002213 0.000000
# 2 -0.003663 0.016173 -0.004234 0.000000 -0.001241 0.000000
# 3 -0.004280 -0.004234 0.012018 0.000000 -0.000569 0.000000
# 4 0.000000 0.000000 0.000000 0.076050 0.000000 0.004219
# 5 -0.002213 -0.001241 -0.000569 0.000000 0.048950 0.000000
# 6 0.000000 0.000000 0.000000 0.004219 0.000000 0.069068
#
#
# Mechanical properties :
#
#
# Convention : Reuss Voigt Hill
#
# Bulk Modulus (GPa) = 54.12173 57.10935 55.61554
# Shear Modulus (GPa) = 18.69754 20.85009 19.77382
#
# Velocity S-wave (km/s) = 3.46699 3.66112 3.56538
# Velocity P-wave (km/s) = 7.12879 7.38819 7.25965
#
# Compressibility (1/GPa) = 0.01847687
#
# Stress axis : x y z
#
# Youngs Moduli (GPa) = 68.30030 61.83117 83.20919
#
# Poissons Ratio (x) = 0.22650 0.35618
# Poissons Ratio (y) = 0.25020 0.35231
# Poissons Ratio (z) = 0.29236 0.26179
#
# Static dielectric constant tensor:
#      x y z
#    x 2.968760 0.000000 0.091810 
#    y 0.000000 2.701060 0.000000 
#    z 0.091810 0.000000 3.332440 
# 
# 
# High freq. dielectric constant tensor:
#      x y z
#    x 1.599770 0.000000 0.010810 
#    y 0.000000 1.547160 0.000000 
#    z 0.010810 0.000000 1.607070 
# 
# From -- ./inp_files/258855.got.cif
#   From: 2010.06.25/outbox.cif.g09.slc.cpg/sg12_130_cif.got.tgz:258855.got - 2010.06.28 00:19:55.
