data_PCOD8080839
_publ_section_title
;
Structure prediction by ZEFSAII (Michael W. Deem and Ramdas Pophale) SiO2 
 PCOD8080839
Probable space group: C 2/M
;
_chemical_formula_sum "Si O2"
_cell_formula_units_Z 56
_cell_length_a 15.746421
_cell_length_b 18.085109
_cell_length_c 19.184042
_cell_angle_alpha 90.000000
_cell_angle_beta 143.408534
_cell_angle_gamma 90.000000
_cell_volume 3256.612480
_symmetry_space_group_name_H-M "C 2/M"
_symmetry_group_IT_number 12
_symmetry_cell_setting 'monoclinic'
loop_
_space_group_symop_operation_xyz
x,y,z
-x,y,-z
-x,-y,-z
x,-y,z
1/2+x,1/2+y,z
1/2-x,1/2+y,-z
1/2-x,1/2-y,-z
1/2+x,1/2-y,z
loop_
_atom_site_type_symbol
_atom_site_label
_atom_site_fract_x
_atom_site_fract_y
_atom_site_fract_z
Si Si1 0.628636 0.916860 0.378432
Si Si2 0.317954 0.587563 0.274055
Si Si3 0.874860 0.584197 0.468758
Si Si4 0.570967 0.843358 0.203049
Si Si5 0.600899 0.326859 0.440342
Si Si6 0.378402 0.919051 0.976742
Si Si7 0.309762 0.283311 0.646292
O O1 0.564100 0.902865 0.412810
O O2 0.548231 0.867960 0.268155
O O3 0.795113 0.897248 0.493560
O O4 0.611702 0.000000 0.342409
O O5 0.351859 0.500000 0.306877
O O6 0.200216 0.611138 0.253259
O O7 0.453092 0.641161 0.372876
O O8 0.264349 0.602559 0.159282
O O9 0.822704 0.500000 0.424706
O O10 0.740332 0.635973 0.361985
O O11 0.000000 0.605692 0.500000
O O12 0.606149 0.755813 0.233767
O O13 0.423798 0.857718 0.064086
O O14 0.589039 0.290817 0.355233
O O15 0.667586 0.264866 0.535191
O O16 0.360993 0.000000 0.001273
O O17 0.500000 0.925189 0.000000
#
# Coordination Sequence:
#
# PCOD8080839 Si02
#       7
#     8   8   8   8   8   8   8
#     4   9  16  27  44  66  95 124 149 186 227 277
#     4  10  19  30  49  74  98 129 162 194 228 277
#     4   9  18  31  47  64  86 120 161 195 230 281
#     4  10  18  29  46  72  98 130 153 189 237 283
#     4   9  18  31  43  66  97 128 151 186 233 284
#     4   8  15  29  46  66  98 130 160 190 222 274
#     4   9  19  31  45  65  96 124 154 191 242 277
#
# _framework density 17.195782999999999
#
# number of rings (size 3 to 8) (size 9 to 14) (size 15 to 20)
#    0.000    2.857    0.000    3.429    2.000    2.286 
#    0.000    4.286    0.000    0.000    0.000    0.000 
#    0.000    6.286    0.000    7.857    0.000    0.000 
#
# Total GULP energy -346921.267852 kJ/mol
# GULP energy per Si atom -12390.045280 kJ/mol
# Density = 1.715664 g / cm^3
# Si number density = 17.195783 Si / 1000 Ang^3
#
#
#
# Elastic Constant Matrix: (Units=GPa)
#
#
# Indices 1 2 3 4 5 6 
#
# 1 48.9932 15.2677 9.1542 0.0007 -8.0895 0.0003
# 2 15.2677 75.9497 16.3679 -0.0001 -10.2890 -0.0001
# 3 9.1542 16.3679 47.1227 0.0021 -15.2845 0.0009
# 4 0.0007 -0.0001 0.0021 26.4068 0.0009 -4.0871
# 5 -8.0895 -10.2890 -15.2845 0.0009 19.3789 0.0002
# 6 0.0003 -0.0001 0.0009 -4.0871 0.0002 23.4197
#
#
#
# Elastic Compliance Matrix: (Units=1/GPa)
#
#
# Indices 1 2 3 4 5 6 
#
# 1 0.022809 -0.003434 -0.000996 -0.000001 0.006912 0.000000
# 2 -0.003434 0.015106 -0.003283 0.000000 0.003997 0.000000
# 3 -0.000996 -0.003283 0.029368 -0.000003 0.021004 -0.000002
# 4 -0.000001 0.000000 -0.000003 0.038920 -0.000005 0.006792
# 5 0.006912 0.003997 0.021004 -0.000005 0.073176 -0.000002
# 6 0.000000 0.000000 -0.000002 0.006792 -0.000002 0.043884
#
#
# Mechanical properties :
#
#
# Convention : Reuss Voigt Hill
#
# Bulk Modulus (GPa) = 19.28428 28.18279 23.73353
# Shear Modulus (GPa) = 19.53310 22.59280 21.06295
#
# Velocity S-wave (km/s) = 3.37400 3.62865 3.50364
# Velocity P-wave (km/s) = 5.13979 5.82933 5.49538
#
# Compressibility (1/GPa) = 0.05185572
#
# Stress axis : x y z
#
# Youngs Moduli (GPa) = 43.84315 66.19871 34.05078
#
# Poissons Ratio (x) = 0.22732 0.03392
# Poissons Ratio (y) = 0.15056 0.11180
# Poissons Ratio (z) = 0.04367 0.21736
#
# Static dielectric constant tensor:
#      x y z
#    x 3.053470 0.000000 -0.238330 
#    y 0.000000 3.406740 0.000000 
#    z -0.238330 0.000000 3.243920 
# 
# 
# High freq. dielectric constant tensor:
#      x y z
#    x 1.641080 0.000000 -0.020180 
#    y 0.000000 1.669150 0.000000 
#    z -0.020180 0.000000 1.629740 
# 
# From -- ./inp_files/177178.got.cif
#   From: 2010.06.25/outbox.cif.g09.slc.cpg/sg12_89_cif.got.tgz:177178.got - 2010.06.28 00:19:55.
