data_PCOD8080796
_publ_section_title
;
Structure prediction by ZEFSAII (Michael W. Deem and Ramdas Pophale) SiO2 
 PCOD8080796
Probable space group: C 2/M
;
_chemical_formula_sum "Si O2"
_cell_formula_units_Z 64
_cell_length_a 27.661206
_cell_length_b 8.908776
_cell_length_c 19.593239
_cell_angle_alpha 90.000000
_cell_angle_beta 131.300789
_cell_angle_gamma 90.000000
_cell_volume 3627.294252
_symmetry_space_group_name_H-M "C 2/M"
_symmetry_group_IT_number 12
_symmetry_cell_setting 'monoclinic'
loop_
_space_group_symop_operation_xyz
x,y,z
-x,y,-z
-x,-y,-z
x,-y,z
1/2+x,1/2+y,z
1/2-x,1/2+y,-z
1/2-x,1/2-y,-z
1/2+x,1/2-y,z
loop_
_atom_site_type_symbol
_atom_site_label
_atom_site_fract_x
_atom_site_fract_y
_atom_site_fract_z
Si Si1 0.795780 0.675285 0.597446
Si Si2 0.956437 0.830436 0.380969
Si Si3 0.675863 0.822530 0.741641
Si Si4 0.417604 0.830658 0.517143
Si Si5 0.710331 0.324771 0.643862
Si Si6 0.445109 0.334393 0.208507
Si Si7 0.805037 0.820518 0.096701
Si Si8 0.066475 0.665043 0.307994
O O1 0.797750 0.500000 0.580750
O O2 0.750000 0.750000 0.500000
O O3 0.770587 0.704252 0.650273
O O4 0.867987 0.743939 0.658112
O O5 0.895651 0.730588 0.349086
O O6 0.955870 0.835270 0.299148
O O7 0.024220 0.755623 0.468425
O O8 0.950645 0.000000 0.404616
O O9 0.723161 0.769465 0.724962
O O10 0.700823 0.742363 0.832587
O O11 0.677175 0.000000 0.753529
O O12 0.353260 0.734564 0.452551
O O13 0.435198 0.841213 0.612363
O O14 0.408689 0.000000 0.479060
O O15 0.702342 0.500000 0.653407
O O16 0.448688 0.500000 0.181378
O O17 0.373557 0.268603 0.128227
O O18 0.501440 0.245839 0.221942
O O19 0.799805 0.000000 0.094654
O O20 0.750000 0.750000 0.000000
O O21 0.063247 0.500000 0.273021
#
# Coordination Sequence:
#
# PCOD8080796 Si02
#       8
#     8   8   8   8   8   8   8   8
#     4  10  20  33  49  70  96 132 177 223 264 301
#     4   9  17  31  48  67  95 129 168 207 249 299
#     4  11  22  36  52  72 100 132 167 207 252 300
#     4  10  18  29  46  68  95 128 171 215 255 298
#     4  11  22  34  48  67  96 134 174 215 260 303
#     4   8  16  29  47  73 102 130 160 197 242 295
#     4  10  20  36  58  84 110 134 163 197 243 303
#     4   9  17  29  46  69  98 130 169 215 255 294
#
# _framework density 17.644006000000001
#
# number of rings (size 3 to 8) (size 9 to 14) (size 15 to 20)
#    0.000    2.250    1.250    3.375    0.000    5.500 
#    0.000    2.500    0.000    0.000    0.000    0.875 
#    0.000    7.000    0.000    0.000    0.000    0.000 
#
# Total GULP energy -396717.657258 kJ/mol
# GULP energy per Si atom -12397.426789 kJ/mol
# Density = 1.760385 g / cm^3
# Si number density = 17.644006 Si / 1000 Ang^3
#
#
#
# Elastic Constant Matrix: (Units=GPa)
#
#
# Indices 1 2 3 4 5 6 
#
# 1 117.8467 51.1677 39.2994 0.0000 21.9941 0.0000
# 2 51.1677 96.1111 31.0358 0.0000 9.4858 0.0000
# 3 39.2994 31.0358 79.9334 0.0000 20.5369 0.0000
# 4 0.0000 0.0000 0.0000 24.5722 0.0000 3.9576
# 5 21.9941 9.4858 20.5369 0.0000 23.1287 0.0000
# 6 0.0000 0.0000 0.0000 3.9576 0.0000 25.6028
#
#
#
# Elastic Compliance Matrix: (Units=1/GPa)
#
#
# Indices 1 2 3 4 5 6 
#
# 1 0.013143 -0.005465 -0.002208 0.000000 -0.008296 0.000000
# 2 -0.005465 0.014187 -0.003448 0.000000 0.002441 0.000000
# 3 -0.002208 -0.003448 0.018180 0.000000 -0.012628 0.000000
# 4 0.000000 0.000000 0.000000 0.041736 0.000000 -0.006451
# 5 -0.008296 0.002441 -0.012628 0.000000 0.061337 0.000000
# 6 0.000000 0.000000 0.000000 -0.006451 0.000000 0.040056
#
#
# Mechanical properties :
#
#
# Convention : Reuss Voigt Hill
#
# Bulk Modulus (GPa) = 42.98211 59.65522 51.31867
# Shear Modulus (GPa) = 22.86886 26.15327 24.51106
#
# Velocity S-wave (km/s) = 3.60408 3.85421 3.73124
# Velocity P-wave (km/s) = 6.46010 7.32738 6.90736
#
# Compressibility (1/GPa) = 0.02326549
#
# Stress axis : x y z
#
# Youngs Moduli (GPa) = 76.08383 70.48741 55.00675
#
# Poissons Ratio (x) = 0.38524 0.12148
# Poissons Ratio (y) = 0.41582 0.18969
# Poissons Ratio (z) = 0.16803 0.24307
#
# Static dielectric constant tensor:
#      x y z
#    x 3.508430 0.000000 0.192380 
#    y 0.000000 3.532140 0.000000 
#    z 0.192380 0.000000 3.020980 
# 
# 
# High freq. dielectric constant tensor:
#      x y z
#    x 1.681360 0.000000 0.011780 
#    y 0.000000 1.691740 0.000000 
#    z 0.011780 0.000000 1.642250 
# 
# From -- ./inp_files/326974.got.cif
#   From: 2010.06.25/outbox.cif.g09.slc.cpg/sg12_164_cif.got.tgz:326974.got - 2010.06.28 00:19:55.
