data_PCOD8080337
_publ_section_title
;
Structure prediction by ZEFSAII (Michael W. Deem and Ramdas Pophale) SiO2 
 PCOD8080337
Probable space group: C 2/M
;
_chemical_formula_sum "Si O2"
_cell_formula_units_Z 40
_cell_length_a 28.782135
_cell_length_b 8.119402
_cell_length_c 21.742003
_cell_angle_alpha 90.000000
_cell_angle_beta 152.193331
_cell_angle_gamma 90.000000
_cell_volume 2370.219498
_symmetry_space_group_name_H-M "C 2/M"
_symmetry_group_IT_number 12
_symmetry_cell_setting 'monoclinic'
loop_
_space_group_symop_operation_xyz
x,y,z
-x,y,-z
-x,-y,-z
x,-y,z
1/2+x,1/2+y,z
1/2-x,1/2+y,-z
1/2-x,1/2-y,-z
1/2+x,1/2-y,z
loop_
_atom_site_type_symbol
_atom_site_label
_atom_site_fract_x
_atom_site_fract_y
_atom_site_fract_z
Si Si1 0.887492 0.813283 0.487902
Si Si2 0.067105 0.314937 0.637851
Si Si3 0.122001 0.000000 0.074717
Si Si4 0.235119 0.319667 0.549684
Si Si5 0.396463 0.500000 0.801459
Si Si6 0.256160 0.309466 0.219314
O O1 0.839348 0.793923 0.498640
O O2 0.810222 0.750038 0.345611
O O3 0.995418 0.724016 0.611879
O O4 0.911234 0.000000 0.501342
O O5 0.106717 0.500000 0.689397
O O6 0.164900 0.200294 0.744986
O O7 0.000000 0.284923 0.500000
O O8 0.171407 0.171433 0.109056
O O9 0.117901 0.000000 0.142937
O O10 0.011430 0.000000 0.916861
O O11 0.184694 0.500000 0.485809
O O12 0.250000 0.250000 0.500000
O O13 0.342584 0.337220 0.709677
O O14 0.215828 0.500000 0.175938
#
# Coordination Sequence:
#
# PCOD8080337 Si02
#       6
#     8   8   4   8   4   8
#     4  10  18  28  44  73 106 135 170 212 258 314
#     4   9  16  25  43  69 103 138 167 203 259 316
#     4  11  18  38  52  75 110 141 174 212 260 314
#     4  10  19  34  51  73  98 133 173 215 262 302
#     4   9  22  34  55  72 103 141 173 216 265 304
#     4  10  18  29  48  74 105 141 170 206 259 317
#
# _framework density 16.876076000000001
#
# number of rings (size 3 to 8) (size 9 to 14) (size 15 to 20)
#    0.600    1.600    3.000    1.800    1.400    2.400 
#    0.000    4.000    0.000    0.000    0.000    1.400 
#    0.000    0.000    0.000    0.000    0.000    0.000 
#
# Total GULP energy -247783.441791 kJ/mol
# GULP energy per Si atom -12389.172090 kJ/mol
# Density = 1.683766 g / cm^3
# Si number density = 16.876076 Si / 1000 Ang^3
#
#
#
# Elastic Constant Matrix: (Units=GPa)
#
#
# Indices 1 2 3 4 5 6 
#
# 1 105.9385 18.2690 42.1158 0.0000 20.2486 0.0000
# 2 18.2690 80.9125 27.8396 0.0000 17.7485 0.0000
# 3 42.1158 27.8396 52.8101 0.0000 14.6953 0.0000
# 4 0.0000 0.0000 0.0000 11.7991 0.0000 3.5254
# 5 20.2486 17.7485 14.6953 0.0000 22.5592 0.0000
# 6 0.0000 0.0000 0.0000 3.5254 0.0000 29.8750
#
#
#
# Elastic Compliance Matrix: (Units=1/GPa)
#
#
# Indices 1 2 3 4 5 6 
#
# 1 0.014879 0.002092 -0.010741 0.000000 -0.008004 0.000000
# 2 0.002092 0.016736 -0.007700 0.000000 -0.010029 0.000000
# 3 -0.010741 -0.007700 0.033213 0.000000 -0.005936 0.000000
# 4 0.000000 0.000000 0.000000 0.087850 0.000000 -0.010367
# 5 -0.008004 -0.010029 -0.005936 0.000000 0.063268 0.000000
# 6 0.000000 0.000000 0.000000 -0.010367 0.000000 0.034696
#
#
# Mechanical properties :
#
#
# Convention : Reuss Voigt Hill
#
# Bulk Modulus (GPa) = 31.12515 46.23443 38.67979
# Shear Modulus (GPa) = 17.00387 22.94245 19.97316
#
# Velocity S-wave (km/s) = 3.17767 3.69109 3.44396
# Velocity P-wave (km/s) = 5.65216 6.75437 6.22769
#
# Compressibility (1/GPa) = 0.03212836
#
# Stress axis : x y z
#
# Youngs Moduli (GPa) = 67.21037 59.75164 30.10863
#
# Poissons Ratio (x) = -0.12500 0.32341
# Poissons Ratio (y) = -0.14060 0.23184
# Poissons Ratio (z) = 0.72193 0.46010
#
# Static dielectric constant tensor:
#      x y z
#    x 3.103820 0.000000 0.306980 
#    y 0.000000 3.122860 0.000000 
#    z 0.306980 0.000000 2.880240 
# 
# 
# High freq. dielectric constant tensor:
#      x y z
#    x 1.647040 0.000000 0.033160 
#    y 0.000000 1.656870 0.000000 
#    z 0.033160 0.000000 1.593970 
# 
# From -- ./inp_files/327070.got.cif
#   From: 2010.06.25/outbox.cif.g09.slc.cpg/sg12_164_cif.got.tgz:327070.got - 2010.06.28 00:19:55.
