data_PCOD8080736
_publ_section_title
;
Structure prediction by ZEFSAII (Michael W. Deem and Ramdas Pophale) SiO2 
 PCOD8080736
Probable space group: C 2/M
;
_chemical_formula_sum "Si O2"
_cell_formula_units_Z 56
_cell_length_a 28.951018
_cell_length_b 8.682720
_cell_length_c 13.809097
_cell_angle_alpha 90.000000
_cell_angle_beta 104.440055
_cell_angle_gamma 90.000000
_cell_volume 3361.582413
_symmetry_space_group_name_H-M "C 2/M"
_symmetry_group_IT_number 12
_symmetry_cell_setting 'monoclinic'
loop_
_space_group_symop_operation_xyz
x,y,z
-x,y,-z
-x,-y,-z
x,-y,z
1/2+x,1/2+y,z
1/2-x,1/2+y,-z
1/2-x,1/2-y,-z
1/2+x,1/2-y,z
loop_
_atom_site_type_symbol
_atom_site_label
_atom_site_fract_x
_atom_site_fract_y
_atom_site_fract_z
Si Si1 0.530677 0.821489 0.228429
Si Si2 0.102772 0.675956 0.112991
Si Si3 0.442945 0.320008 0.088588
Si Si4 0.604139 0.179601 0.755974
Si Si5 0.301318 0.821892 0.930135
Si Si6 0.695137 0.321303 0.862184
Si Si7 0.014275 0.181944 0.613487
O O1 0.584472 0.798746 0.214222
O O2 0.496597 0.737011 0.133679
O O3 0.524487 0.749396 0.331474
O O4 0.516372 0.000000 0.227779
O O5 0.092379 0.500000 0.076088
O O6 0.159291 0.711355 0.132674
O O7 0.072570 0.788305 0.028820
O O8 0.439251 0.500000 0.110777
O O9 0.408331 0.224561 0.140774
O O10 0.659168 0.231636 0.770984
O O11 0.568047 0.263937 0.663965
O O12 0.599181 0.000000 0.735125
O O13 0.249351 0.777903 0.860363
O O14 0.301355 0.000000 0.962927
O O15 0.313467 0.721188 0.030176
O O16 0.684368 0.500000 0.843789
O O17 0.000000 0.241496 0.500000
O O18 0.012141 0.000000 0.619616
#
# Coordination Sequence:
#
# PCOD8080736 Si02
#       7
#     8   8   8   8   8   8   8
#     4  10  20  32  48  68  93 125 158 191 231 284
#     4  10  19  31  45  65  94 130 164 192 229 275
#     4  11  20  29  43  65  93 127 164 198 231 270
#     4  11  20  31  49  70  96 128 159 195 239 285
#     4   9  18  30  45  64  94 132 166 200 233 271
#     4  10  18  29  45  68  94 126 167 202 235 273
#     4  10  21  37  55  74  95 118 150 196 245 289
#
# _framework density 16.658821
#
# number of rings (size 3 to 8) (size 9 to 14) (size 15 to 20)
#    0.000    1.857    1.429    6.000    0.000    4.571 
#    0.000    0.000    0.000    0.000    0.000    1.000 
#    0.000    0.000    0.000    0.000    0.000    0.000 
#
# Total GULP energy -347108.911929 kJ/mol
# GULP energy per Si atom -12396.746855 kJ/mol
# Density = 1.662090 g / cm^3
# Si number density = 16.658821 Si / 1000 Ang^3
#
#
#
# Elastic Constant Matrix: (Units=GPa)
#
#
# Indices 1 2 3 4 5 6 
#
# 1 132.1239 30.3855 55.4169 0.0000 -1.5958 0.0000
# 2 30.3855 56.0926 24.1856 0.0000 -3.1991 0.0000
# 3 55.4169 24.1856 87.0617 0.0000 -0.9893 0.0000
# 4 0.0000 0.0000 0.0000 20.2149 0.0000 0.6926
# 5 -1.5958 -3.1991 -0.9893 0.0000 13.3060 0.0000
# 6 0.0000 0.0000 0.0000 0.6926 0.0000 19.9987
#
#
#
# Elastic Compliance Matrix: (Units=1/GPa)
#
#
# Indices 1 2 3 4 5 6 
#
# 1 0.010835 -0.003286 -0.005983 0.000000 0.000065 0.000000
# 2 -0.003286 0.021517 -0.003835 0.000000 0.004494 0.000000
# 3 -0.005983 -0.003835 0.016355 0.000000 -0.000424 0.000000
# 4 0.000000 0.000000 0.000000 0.049527 0.000000 -0.001715
# 5 0.000065 0.004494 -0.000424 0.000000 0.076211 0.000000
# 6 0.000000 0.000000 0.000000 -0.001715 0.000000 0.050063
#
#
# Mechanical properties :
#
#
# Convention : Reuss Voigt Hill
#
# Bulk Modulus (GPa) = 44.44531 55.02826 49.73678
# Shear Modulus (GPa) = 19.36373 21.72326 20.54350
#
# Velocity S-wave (km/s) = 3.41305 3.61502 3.51549
# Velocity P-wave (km/s) = 6.50151 7.10836 6.81169
#
# Compressibility (1/GPa) = 0.02249956
#
# Stress axis : x y z
#
# Youngs Moduli (GPa) = 92.29769 46.47404 61.14365
#
# Poissons Ratio (x) = 0.15270 0.36582
# Poissons Ratio (y) = 0.30327 0.23448
# Poissons Ratio (z) = 0.55221 0.17823
#
# Static dielectric constant tensor:
#      x y z
#    x 3.413700 0.000000 0.077560 
#    y 0.000000 3.210990 0.000000 
#    z 0.077560 0.000000 2.809700 
# 
# 
# High freq. dielectric constant tensor:
#      x y z
#    x 1.647250 0.000000 0.006970 
#    y 0.000000 1.655660 0.000000 
#    z 0.006970 0.000000 1.587560 
# 
# From -- ./inp_files/247935.got.cif
#   From: 2010.06.25/outbox.cif.g09.slc.cpg/sg12_124_cif.got.tgz:247935.got - 2010.06.28 00:19:55.
