data_PCOD8080388
_publ_section_title
;
Structure prediction by ZEFSAII (Michael W. Deem and Ramdas Pophale) SiO2 
 PCOD8080388
Probable space group: C 2/M
;
_chemical_formula_sum "Si O2"
_cell_formula_units_Z 64
_cell_length_a 19.189841
_cell_length_b 9.077249
_cell_length_c 20.293951
_cell_angle_alpha 90.000000
_cell_angle_beta 95.823084
_cell_angle_gamma 90.000000
_cell_volume 3516.781884
_symmetry_space_group_name_H-M "C 2/M"
_symmetry_group_IT_number 12
_symmetry_cell_setting 'monoclinic'
loop_
_space_group_symop_operation_xyz
x,y,z
-x,y,-z
-x,-y,-z
x,-y,z
1/2+x,1/2+y,z
1/2-x,1/2+y,-z
1/2-x,1/2-y,-z
1/2+x,1/2-y,z
loop_
_atom_site_type_symbol
_atom_site_label
_atom_site_fract_x
_atom_site_fract_y
_atom_site_fract_z
Si Si1 0.968128 0.168885 0.780900
Si Si2 0.077786 0.166543 0.479348
Si Si3 0.372975 0.827794 0.394083
Si Si4 0.790848 0.828946 0.277675
Si Si5 0.474156 0.171644 0.646026
Si Si6 0.729866 0.172332 0.931134
Si Si7 0.381677 0.669430 0.159747
Si Si8 0.817928 0.168409 0.814392
O O1 0.901418 0.190958 0.821905
O O2 0.959331 0.273155 0.717660
O O3 0.036443 0.211879 0.829882
O O4 0.974954 0.000000 0.756898
O O5 0.128397 0.253917 0.533975
O O6 0.000000 0.170137 0.500000
O O7 0.078628 0.245278 0.408515
O O8 0.105248 0.000000 0.474126
O O9 0.310826 0.757654 0.345582
O O10 0.445847 0.793843 0.364668
O O11 0.359567 0.000000 0.401332
O O12 0.849663 0.797951 0.228389
O O13 0.716342 0.770271 0.244882
O O14 0.784211 0.000000 0.294157
O O15 0.457482 0.000000 0.639589
O O16 0.654731 0.230012 0.898756
O O17 0.789633 0.213136 0.883611
O O18 0.724059 0.000000 0.943313
O O19 0.750000 0.250000 0.000000
O O20 0.369891 0.500000 0.138559
O O21 0.797035 0.000000 0.796836
#
# Coordination Sequence:
#
# PCOD8080388 Si02
#       8
#     8   8   8   8   8   8   8   8
#     4  10  19  34  54  76 105 138 172 212 256 306
#     4   9  17  28  43  65  96 133 174 218 262 309
#     4  10  18  28  45  70 101 133 171 218 264 309
#     4  10  18  30  50  75 102 133 172 217 260 305
#     4  10  19  29  45  71 103 136 170 212 263 311
#     4  10  20  36  58  81 106 137 172 208 250 299
#     4   9  18  32  53  79 104 133 171 211 251 297
#     4   9  20  36  54  77 105 137 172 210 254 304
#
# _framework density 18.198457000000001
#
# number of rings (size 3 to 8) (size 9 to 14) (size 15 to 20)
#    0.000    2.375    1.250    1.875    0.000    4.500 
#    0.000    0.625    0.000    4.500    0.000    0.000 
#    0.000    0.000    0.000    0.000    0.000    0.000 
#
# Total GULP energy -396884.379644 kJ/mol
# GULP energy per Si atom -12402.636864 kJ/mol
# Density = 1.815704 g / cm^3
# Si number density = 18.198457 Si / 1000 Ang^3
#
#
#
# Elastic Constant Matrix: (Units=GPa)
#
#
# Indices 1 2 3 4 5 6 
#
# 1 96.4128 40.2592 46.7080 0.0000 14.2399 0.0000
# 2 40.2592 103.1905 63.9850 0.0000 17.6383 0.0000
# 3 46.7080 63.9850 116.6463 0.0000 26.8560 0.0000
# 4 0.0000 0.0000 0.0000 35.7524 0.0000 8.4248
# 5 14.2399 17.6383 26.8560 0.0000 23.4546 0.0000
# 6 0.0000 0.0000 0.0000 8.4248 0.0000 23.6082
#
#
#
# Elastic Compliance Matrix: (Units=1/GPa)
#
#
# Indices 1 2 3 4 5 6 
#
# 1 0.013498 -0.002806 -0.003347 0.000000 -0.002252 0.000000
# 2 -0.002806 0.015375 -0.006845 0.000000 -0.002021 0.000000
# 3 -0.003347 -0.006845 0.016316 0.000000 -0.011503 0.000000
# 4 0.000000 0.000000 0.000000 0.030538 0.000000 -0.010898
# 5 -0.002252 -0.002021 -0.011503 0.000000 0.058694 0.000000
# 6 0.000000 0.000000 0.000000 -0.010898 0.000000 0.046247
#
#
# Mechanical properties :
#
#
# Convention : Reuss Voigt Hill
#
# Bulk Modulus (GPa) = 52.10095 68.68376 60.39235
# Shear Modulus (GPa) = 23.46724 27.58286 25.52505
#
# Velocity S-wave (km/s) = 3.59488 3.89738 3.74919
# Velocity P-wave (km/s) = 6.77660 7.62078 7.21106
#
# Compressibility (1/GPa) = 0.01919351
#
# Stress axis : x y z
#
# Youngs Moduli (GPa) = 74.08559 65.03906 61.28771
#
# Poissons Ratio (x) = 0.18247 0.20515
# Poissons Ratio (y) = 0.20785 0.41953
# Poissons Ratio (z) = 0.24799 0.44520
#
# Static dielectric constant tensor:
#      x y z
#    x 3.189680 0.000000 0.144380 
#    y 0.000000 3.437020 0.000000 
#    z 0.144380 0.000000 3.213480 
# 
# 
# High freq. dielectric constant tensor:
#      x y z
#    x 1.680830 0.000000 0.017970 
#    y 0.000000 1.715370 0.000000 
#    z 0.017970 0.000000 1.692610 
# 
# From -- ./inp_files/281286.got.cif
#   From: 2010.06.25/outbox.cif.g09.slc.cpg/sg12_141_cif.got.tgz:281286.got - 2010.06.28 00:19:55.
