data_PCOD8080163
_publ_section_title
;
Structure prediction by ZEFSAII (Michael W. Deem and Ramdas Pophale) SiO2 
 PCOD8080163
Probable space group: C 2/M
;
_chemical_formula_sum "Si O2"
_cell_formula_units_Z 56
_cell_length_a 24.535992
_cell_length_b 9.224297
_cell_length_c 17.675090
_cell_angle_alpha 90.000000
_cell_angle_beta 117.994072
_cell_angle_gamma 90.000000
_cell_volume 3532.298106
_symmetry_space_group_name_H-M "C 2/M"
_symmetry_group_IT_number 12
_symmetry_cell_setting 'monoclinic'
loop_
_space_group_symop_operation_xyz
x,y,z
-x,y,-z
-x,-y,-z
x,-y,z
1/2+x,1/2+y,z
1/2-x,1/2+y,-z
1/2-x,1/2-y,-z
1/2+x,1/2-y,z
loop_
_atom_site_type_symbol
_atom_site_label
_atom_site_fract_x
_atom_site_fract_y
_atom_site_fract_z
Si Si1 0.289568 0.833594 0.297125
Si Si2 0.853519 0.168890 0.770194
Si Si3 0.429437 0.168378 0.945509
Si Si4 0.831423 0.333128 0.001444
Si Si5 0.832589 0.664379 0.610340
Si Si6 0.714533 0.168541 0.871217
Si Si7 0.312482 0.336488 0.454526
O O1 0.216442 0.804647 0.249538
O O2 0.314432 0.791105 0.229463
O O3 0.325009 0.734528 0.380807
O O4 0.303607 0.000000 0.327098
O O5 0.899084 0.234123 0.861697
O O6 0.866526 0.249761 0.699522
O O7 0.868019 0.000000 0.768726
O O8 0.422861 0.000000 0.918083
O O9 0.500000 0.215267 0.000000
O O10 0.397175 0.199013 0.005690
O O11 0.813131 0.500000 0.981311
O O12 0.832779 0.289777 0.091708
O O13 0.779355 0.246899 0.923315
O O14 0.857671 0.500000 0.623258
O O15 0.759785 0.665439 0.575979
O O16 0.848119 0.744533 0.541622
O O17 0.730839 0.000000 0.882016
O O18 0.338233 0.500000 0.471234
#
# Coordination Sequence:
#
# PCOD8080163 Si02
#       7
#     8   8   8   8   8   8   8
#     4   9  16  25  38  57  83 110 136 169 208 251
#     4  10  18  28  42  59  80 108 143 178 212 251
#     4  10  20  32  44  60  84 113 146 182 217 253
#     4   9  17  28  43  60  80 108 142 177 215 253
#     4   9  16  26  39  55  79 110 140 170 206 247
#     4   9  16  27  42  61  83 108 139 176 213 253
#     4   9  16  24  36  56  81 109 140 169 199 242
#
# _framework density 15.853702
#
# number of rings (size 3 to 8) (size 9 to 14) (size 15 to 20)
#    0.000    2.714    1.429    1.286    0.000    4.857 
#    0.000    0.000    0.000    0.000    0.000    0.000 
#    0.000    1.143    0.000   13.429    0.000    3.143 
#
# Total GULP energy -347095.551326 kJ/mol
# GULP energy per Si atom -12396.269690 kJ/mol
# Density = 1.581762 g / cm^3
# Si number density = 15.853702 Si / 1000 Ang^3
#
#
#
# Elastic Constant Matrix: (Units=GPa)
#
#
# Indices 1 2 3 4 5 6 
#
# 1 65.4756 32.1264 44.9883 0.0000 -18.6849 0.0000
# 2 32.1264 95.7815 61.3322 0.0000 -18.7127 0.0000
# 3 44.9883 61.3322 104.2755 0.0000 -35.2302 0.0000
# 4 0.0000 0.0000 0.0000 31.1966 0.0000 -5.4364
# 5 -18.6849 -18.7127 -35.2302 0.0000 25.1488 0.0000
# 6 0.0000 0.0000 0.0000 -5.4364 0.0000 11.6073
#
#
#
# Elastic Compliance Matrix: (Units=1/GPa)
#
#
# Indices 1 2 3 4 5 6 
#
# 1 0.022470 -0.002343 -0.006199 0.000000 0.006268 0.000000
# 2 -0.002343 0.017079 -0.010118 0.000000 -0.003206 0.000000
# 3 -0.006199 -0.010118 0.026800 0.000000 0.025410 0.000000
# 4 0.000000 0.000000 0.000000 0.034903 0.000000 0.016347
# 5 0.006268 -0.003206 0.025410 0.000000 0.077629 0.000000
# 6 0.000000 0.000000 0.000000 0.016347 0.000000 0.093809
#
#
# Mechanical properties :
#
#
# Convention : Reuss Voigt Hill
#
# Bulk Modulus (GPa) = 34.44716 60.26960 47.35838
# Shear Modulus (GPa) = 15.64030 22.06293 18.85162
#
# Velocity S-wave (km/s) = 3.14433 3.73454 3.45207
# Velocity P-wave (km/s) = 5.91251 7.52957 6.76949
#
# Compressibility (1/GPa) = 0.02902997
#
# Stress axis : x y z
#
# Youngs Moduli (GPa) = 44.50312 58.55313 37.31328
#
# Poissons Ratio (x) = 0.13719 0.23130
# Poissons Ratio (y) = 0.10427 0.37752
# Poissons Ratio (z) = 0.27587 0.59242
#
# Static dielectric constant tensor:
#      x y z
#    x 2.802070 0.000000 -0.433260 
#    y 0.000000 3.142130 0.000000 
#    z -0.433260 0.000000 3.030670 
# 
# 
# High freq. dielectric constant tensor:
#      x y z
#    x 1.556190 0.000000 -0.043050 
#    y 0.000000 1.619720 0.000000 
#    z -0.043050 0.000000 1.601530 
# 
# From -- ./inp_files/291660.got.cif
#   From: 2010.06.25/outbox.cif.g09.slc.cpg/sg12_146_cif.got.tgz:291660.got - 2010.06.28 00:19:55.
