data_PCOD8080455
_publ_section_title
;
Structure prediction by ZEFSAII (Michael W. Deem and Ramdas Pophale) SiO2 
 PCOD8080455
Probable space group: C 2/M
;
_chemical_formula_sum "Si O2"
_cell_formula_units_Z 56
_cell_length_a 19.156363
_cell_length_b 8.981102
_cell_length_c 21.694089
_cell_angle_alpha 90.000000
_cell_angle_beta 125.191701
_cell_angle_gamma 90.000000
_cell_volume 3050.194587
_symmetry_space_group_name_H-M "C 2/M"
_symmetry_group_IT_number 12
_symmetry_cell_setting 'monoclinic'
loop_
_space_group_symop_operation_xyz
x,y,z
-x,y,-z
-x,-y,-z
x,-y,z
1/2+x,1/2+y,z
1/2-x,1/2+y,-z
1/2-x,1/2-y,-z
1/2+x,1/2-y,z
loop_
_atom_site_type_symbol
_atom_site_label
_atom_site_fract_x
_atom_site_fract_y
_atom_site_fract_z
Si Si1 0.621100 0.326419 0.950998
Si Si2 0.012869 0.674355 0.316451
Si Si3 0.471867 0.829954 0.817500
Si Si4 0.253519 0.325999 0.094853
Si Si5 0.655711 0.673359 0.735721
Si Si6 0.810335 0.823122 0.580716
Si Si7 0.283999 0.171706 0.693346
O O1 0.618184 0.500000 0.960339
O O2 0.524708 0.269038 0.892628
O O3 0.674550 0.279749 0.917809
O O4 0.664464 0.254505 0.033371
O O5 0.026632 0.500000 0.335667
O O6 0.000317 0.708987 0.237980
O O7 0.094647 0.762630 0.383010
O O8 0.930610 0.731940 0.311373
O O9 0.371569 0.794676 0.774866
O O10 0.492731 0.000000 0.843602
O O11 0.235243 0.500000 0.084270
O O12 0.284956 0.272329 0.177710
O O13 0.632768 0.500000 0.732767
O O14 0.704635 0.703668 0.697143
O O15 0.750000 0.750000 0.500000
O O16 0.775674 0.777489 0.630306
O O17 0.809497 0.000000 0.573877
O O18 0.286149 0.000000 0.671816
#
# Coordination Sequence:
#
# PCOD8080455 Si02
#       7
#     8   8   8   8   8   8   8
#     4  10  18  28  46  72 100 134 183 233 273 316
#     4  10  20  34  56  84 112 142 181 222 265 318
#     4   9  17  31  50  73 102 139 180 224 269 319
#     4   9  18  30  46  71 103 139 179 223 274 322
#     4  10  19  35  56  80 111 145 182 224 271 325
#     4  11  22  39  63  87 113 142 177 217 261 314
#     4   9  20  37  57  82 112 144 178 219 271 325
#
# _framework density 18.359484999999999
#
# number of rings (size 3 to 8) (size 9 to 14) (size 15 to 20)
#    0.000    2.286    1.429    3.000    0.000    4.000 
#    0.000    1.429    0.000    8.571    0.000    0.000 
#    0.000    0.000    0.000    0.000    0.000    0.000 
#
# Total GULP energy -347261.149400 kJ/mol
# GULP energy per Si atom -12402.183907 kJ/mol
# Density = 1.831770 g / cm^3
# Si number density = 18.359485 Si / 1000 Ang^3
#
#
#
# Elastic Constant Matrix: (Units=GPa)
#
#
# Indices 1 2 3 4 5 6 
#
# 1 97.6978 49.0446 44.3925 0.0000 11.9017 0.0000
# 2 49.0446 100.0710 64.8026 0.0000 13.7714 0.0000
# 3 44.3925 64.8026 122.3961 0.0000 20.4994 0.0000
# 4 0.0000 0.0000 0.0000 32.1388 0.0000 5.3784
# 5 11.9017 13.7714 20.4994 0.0000 18.6075 0.0000
# 6 0.0000 0.0000 0.0000 5.3784 0.0000 26.7370
#
#
#
# Elastic Compliance Matrix: (Units=1/GPa)
#
#
# Indices 1 2 3 4 5 6 
#
# 1 0.014097 -0.005336 -0.001764 0.000000 -0.003123 0.000000
# 2 -0.005336 0.017358 -0.006959 0.000000 -0.001767 0.000000
# 3 -0.001764 -0.006959 0.014032 0.000000 -0.009180 0.000000
# 4 0.000000 0.000000 0.000000 0.032199 0.000000 -0.006477
# 5 -0.003123 -0.001767 -0.009180 0.000000 0.067161 0.000000
# 6 0.000000 0.000000 0.000000 -0.006477 0.000000 0.038704
#
#
# Mechanical properties :
#
#
# Convention : Reuss Voigt Hill
#
# Bulk Modulus (GPa) = 57.57882 70.73827 64.15854
# Shear Modulus (GPa) = 22.99297 26.29166 24.64232
#
# Velocity S-wave (km/s) = 3.54273 3.78835 3.66760
# Velocity P-wave (km/s) = 6.94007 7.59925 7.27713
#
# Compressibility (1/GPa) = 0.01736750
#
# Stress axis : x y z
#
# Youngs Moduli (GPa) = 70.93842 57.61180 71.26667
#
# Poissons Ratio (x) = 0.30744 0.12574
# Poissons Ratio (y) = 0.37856 0.49591
# Poissons Ratio (z) = 0.12516 0.40089
#
# Static dielectric constant tensor:
#      x y z
#    x 3.349890 0.000000 0.171270 
#    y 0.000000 3.324580 0.000000 
#    z 0.171270 0.000000 3.333300 
# 
# 
# High freq. dielectric constant tensor:
#      x y z
#    x 1.695200 0.000000 0.016300 
#    y 0.000000 1.712790 0.000000 
#    z 0.016300 0.000000 1.704990 
# 
# From -- ./inp_files/275116.got.cif
#   From: 2010.06.25/outbox.cif.g09.slc.cpg/sg12_138_cif.got.tgz:275116.got - 2010.06.28 00:19:55.
