data_PCOD8080929
_publ_section_title
;
Structure prediction by ZEFSAII (Michael W. Deem and Ramdas Pophale) SiO2 
 PCOD8080929
Probable space group: C 2/M
;
_chemical_formula_sum "Si O2"
_cell_formula_units_Z 48
_cell_length_a 12.194804
_cell_length_b 19.118760
_cell_length_c 11.937606
_cell_angle_alpha 90.000000
_cell_angle_beta 102.626418
_cell_angle_gamma 90.000000
_cell_volume 2715.937401
_symmetry_space_group_name_H-M "C 2/M"
_symmetry_group_IT_number 12
_symmetry_cell_setting 'monoclinic'
loop_
_space_group_symop_operation_xyz
x,y,z
-x,y,-z
-x,-y,-z
x,-y,z
1/2+x,1/2+y,z
1/2-x,1/2+y,-z
1/2-x,1/2-y,-z
1/2+x,1/2-y,z
loop_
_atom_site_type_symbol
_atom_site_label
_atom_site_fract_x
_atom_site_fract_y
_atom_site_fract_z
Si Si1 0.421395 0.175270 0.090701
Si Si2 0.918729 0.207696 0.582146
Si Si3 0.584175 0.075670 0.234243
Si Si4 0.390707 0.683555 0.214148
Si Si5 0.755361 0.578477 0.937834
Si Si6 0.237753 0.667622 0.388123
O O1 0.487205 0.133471 0.202643
O O2 0.386716 0.250386 0.130784
O O3 0.500000 0.186760 0.000000
O O4 0.308217 0.130600 0.042106
O O5 0.857517 0.276852 0.607146
O O6 0.824690 0.154799 0.510044
O O7 0.000000 0.230360 0.500000
O O8 0.986453 0.173022 0.700983
O O9 0.648070 0.070249 0.131718
O O10 0.673868 0.095115 0.350759
O O11 0.531648 0.000000 0.252067
O O12 0.358282 0.613820 0.137062
O O13 0.299376 0.695889 0.290642
O O14 0.726487 0.500000 0.977555
#
# Coordination Sequence:
#
# PCOD8080929 Si02
#       6
#     8   8   8   8   8   8
#     4  10  18  29  47  73  97 123 163 198 235 272
#     4   9  17  30  49  72  94 120 156 197 238 280
#     4   9  16  28  47  70  98 124 153 195 240 281
#     4  10  18  30  49  73  95 124 162 197 233 277
#     4   9  18  30  44  67  99 127 156 195 235 276
#     4   9  17  30  48  73  97 121 154 193 243 279
#
# _framework density 17.673455000000001
#
# number of rings (size 3 to 8) (size 9 to 14) (size 15 to 20)
#    0.000    2.667    1.667    1.000    0.000    2.000 
#    0.000    0.833    0.000    6.000    0.000    0.000 
#    0.000    0.000    0.000    0.000    0.000    0.000 
#
# Total GULP energy -297374.671234 kJ/mol
# GULP energy per Si atom -12390.611301 kJ/mol
# Density = 1.763323 g / cm^3
# Si number density = 17.673455 Si / 1000 Ang^3
#
#
#
# Elastic Constant Matrix: (Units=GPa)
#
#
# Indices 1 2 3 4 5 6 
#
# 1 59.2992 27.0723 31.9197 0.0000 26.7489 0.0000
# 2 27.0723 102.9800 43.8521 0.0000 17.5515 0.0000
# 3 31.9197 43.8521 80.6961 0.0000 33.4138 0.0000
# 4 0.0000 0.0000 0.0000 14.1191 0.0000 2.0934
# 5 26.7489 17.5515 33.4138 0.0000 30.3366 0.0000
# 6 0.0000 0.0000 0.0000 2.0934 0.0000 19.7592
#
#
#
# Elastic Compliance Matrix: (Units=1/GPa)
#
#
# Indices 1 2 3 4 5 6 
#
# 1 0.029193 -0.003772 0.000473 0.000000 -0.024078 0.000000
# 2 -0.003772 0.013125 -0.007121 0.000000 0.003575 0.000000
# 3 0.000473 -0.007121 0.026734 0.000000 -0.025743 0.000000
# 4 0.000000 0.000000 0.000000 0.071957 0.000000 -0.007624
# 5 -0.024078 0.003575 -0.025743 0.000000 0.080480 0.000000
# 6 0.000000 0.000000 0.000000 -0.007624 0.000000 0.051417
#
#
# Mechanical properties :
#
#
# Convention : Reuss Voigt Hill
#
# Bulk Modulus (GPa) = 20.74193 49.85150 35.29671
# Shear Modulus (GPa) = 16.13858 22.18504 19.16181
#
# Velocity S-wave (km/s) = 3.02512 3.54683 3.29631
# Velocity P-wave (km/s) = 4.89525 6.71130 5.87389
#
# Compressibility (1/GPa) = 0.04821152
#
# Stress axis : x y z
#
# Youngs Moduli (GPa) = 34.25526 76.18948 37.40513
#
# Poissons Ratio (x) = 0.28737 -0.01768
# Poissons Ratio (y) = 0.12920 0.26636
# Poissons Ratio (z) = -0.01619 0.54255
#
# Static dielectric constant tensor:
#      x y z
#    x 3.261130 0.000000 0.378670 
#    y 0.000000 3.300070 0.000000 
#    z 0.378670 0.000000 3.403860 
# 
# 
# High freq. dielectric constant tensor:
#      x y z
#    x 1.668470 0.000000 0.033260 
#    y 0.000000 1.666050 0.000000 
#    z 0.033260 0.000000 1.676930 
# 
# From -- ./inp_files/131149.got.cif
#   From: 2010.06.25/outbox.cif.g09.slc.cpg/sg12_66_cif.got.tgz:131149.got - 2010.06.28 00:19:55.
