data_PCOD8080170
_publ_section_title
;
Structure prediction by ZEFSAII (Michael W. Deem and Ramdas Pophale) SiO2 
 PCOD8080170
Probable space group: C 2/M
;
_chemical_formula_sum "Si O2"
_cell_formula_units_Z 64
_cell_length_a 26.204197
_cell_length_b 9.125612
_cell_length_c 17.373319
_cell_angle_alpha 90.000000
_cell_angle_beta 99.753384
_cell_angle_gamma 90.000000
_cell_volume 4094.421729
_symmetry_space_group_name_H-M "C 2/M"
_symmetry_group_IT_number 12
_symmetry_cell_setting 'monoclinic'
loop_
_space_group_symop_operation_xyz
x,y,z
-x,y,-z
-x,-y,-z
x,-y,z
1/2+x,1/2+y,z
1/2-x,1/2+y,-z
1/2-x,1/2-y,-z
1/2+x,1/2-y,z
loop_
_atom_site_type_symbol
_atom_site_label
_atom_site_fract_x
_atom_site_fract_y
_atom_site_fract_z
Si Si1 0.536603 0.164031 0.911063
Si Si2 0.802453 0.828055 0.035683
Si Si3 0.864641 0.664415 0.171728
Si Si4 0.441307 0.827553 0.497318
Si Si5 0.044405 0.325944 0.334160
Si Si6 0.899058 0.832425 0.958387
Si Si7 0.926438 0.674779 0.329959
Si Si8 0.556944 0.668705 0.187377
O O1 0.586052 0.158607 0.869770
O O2 0.495504 0.265538 0.859205
O O3 0.514658 0.000000 0.918506
O O4 0.554189 0.232262 0.997264
O O5 0.821332 0.768898 0.123526
O O6 0.792919 0.000000 0.040078
O O7 0.750000 0.750000 0.000000
O O8 0.843811 0.787650 0.979677
O O9 0.841731 0.500000 0.175529
O O10 0.883200 0.731865 0.258775
O O11 0.500000 0.780577 0.500000
O O12 0.425713 0.772811 0.579311
O O13 0.411169 0.768366 0.413121
O O14 0.435901 0.000000 0.496576
O O15 0.047766 0.500000 0.325112
O O16 0.073402 0.250989 0.269799
O O17 0.984359 0.273692 0.321364
O O18 0.897947 0.812191 0.865496
O O19 0.911856 0.000000 0.984190
O O20 0.926876 0.500000 0.327426
O O21 0.547336 0.500000 0.204623
#
# Coordination Sequence:
#
# PCOD8080170 Si02
#       8
#     8   8   8   8   8   8   8   8
#     4  10  18  28  42  61  83 109 143 180 208 233
#     4  10  20  35  51  64  81 104 134 172 216 259
#     4   9  16  27  44  65  87 110 140 173 207 247
#     4   7  11  19  36  57  78 108 144 179 210 236
#     4   9  15  25  39  58  82 112 150 183 207 231
#     4   9  20  34  44  58  81 110 139 168 207 257
#     4   8  12  22  39  60  84 110 143 179 208 239
#     4  11  20  28  39  56  84 118 146 170 203 246
#
# _framework density 15.631022
#
# number of rings (size 3 to 8) (size 9 to 14) (size 15 to 20)
#    0.000    2.875    1.250    3.000    0.000    3.500 
#    0.000    0.000    0.000    4.125    0.000    0.000 
#    0.000    1.000    0.000    2.000    0.000    2.750 
#
# Total GULP energy -396419.315092 kJ/mol
# GULP energy per Si atom -12388.103597 kJ/mol
# Density = 1.559545 g / cm^3
# Si number density = 15.631022 Si / 1000 Ang^3
#
#
#
# Elastic Constant Matrix: (Units=GPa)
#
#
# Indices 1 2 3 4 5 6 
#
# 1 38.4214 22.5794 33.2854 0.0000 9.1690 0.0000
# 2 22.5794 59.6997 42.7263 0.0000 2.3227 0.0000
# 3 33.2854 42.7263 158.4330 0.0000 8.6596 0.0000
# 4 0.0000 0.0000 0.0000 17.3982 0.0000 -1.3851
# 5 9.1690 2.3227 8.6596 0.0000 16.2809 0.0000
# 6 0.0000 0.0000 0.0000 -1.3851 0.0000 15.8639
#
#
#
# Elastic Compliance Matrix: (Units=1/GPa)
#
#
# Indices 1 2 3 4 5 6 
#
# 1 0.041379 -0.011688 -0.004489 0.000000 -0.019248 0.000000
# 2 -0.011688 0.024058 -0.004331 0.000000 0.005454 0.000000
# 3 -0.004489 -0.004331 0.008498 0.000000 -0.001374 0.000000
# 4 0.000000 0.000000 0.000000 0.057880 0.000000 0.005054
# 5 -0.019248 0.005454 -0.001374 0.000000 0.072214 0.000000
# 6 0.000000 0.000000 0.000000 0.005054 0.000000 0.063478
#
#
# Mechanical properties :
#
#
# Convention : Reuss Voigt Hill
#
# Bulk Modulus (GPa) = 30.37777 50.41514 40.39646
# Shear Modulus (GPa) = 15.64968 20.43946 18.04457
#
# Velocity S-wave (km/s) = 3.16760 3.62003 3.40134
# Velocity P-wave (km/s) = 5.73190 7.05663 6.42848
#
# Compressibility (1/GPa) = 0.03291881
#
# Stress axis : x y z
#
# Youngs Moduli (GPa) = 24.16708 41.56560 117.67626
#
# Poissons Ratio (x) = 0.48584 0.52826
# Poissons Ratio (y) = 0.28247 0.50960
# Poissons Ratio (z) = 0.10849 0.18000
#
# Static dielectric constant tensor:
#      x y z
#    x 2.560280 0.000000 0.037770 
#    y 0.000000 2.927960 0.000000 
#    z 0.037770 0.000000 3.621760 
# 
# 
# High freq. dielectric constant tensor:
#      x y z
#    x 1.535270 0.000000 0.000080 
#    y 0.000000 1.584700 0.000000 
#    z 0.000080 0.000000 1.617480 
# 
# From -- ./inp_files/291570.got.cif
#   From: 2010.06.25/outbox.cif.g09.slc.cpg/sg12_146_cif.got.tgz:291570.got - 2010.06.28 00:19:55.
