data_PCOD8080624
_publ_section_title
;
Structure prediction by ZEFSAII (Michael W. Deem and Ramdas Pophale) SiO2 
 PCOD8080624
Probable space group: C 2/M
;
_chemical_formula_sum "Si O2"
_cell_formula_units_Z 64
_cell_length_a 26.186901
_cell_length_b 9.234798
_cell_length_c 23.185623
_cell_angle_alpha 90.000000
_cell_angle_beta 133.708733
_cell_angle_gamma 90.000000
_cell_volume 4053.083691
_symmetry_space_group_name_H-M "C 2/M"
_symmetry_group_IT_number 12
_symmetry_cell_setting 'monoclinic'
loop_
_space_group_symop_operation_xyz
x,y,z
-x,y,-z
-x,-y,-z
x,-y,z
1/2+x,1/2+y,z
1/2-x,1/2+y,-z
1/2-x,1/2-y,-z
1/2+x,1/2-y,z
loop_
_atom_site_type_symbol
_atom_site_label
_atom_site_fract_x
_atom_site_fract_y
_atom_site_fract_z
Si Si1 0.308500 0.167460 0.509790
Si Si2 0.906109 0.830032 0.659469
Si Si3 0.819981 0.330227 0.035808
Si Si4 0.349655 0.833457 0.810247
Si Si5 0.950015 0.838556 0.172932
Si Si6 0.708068 0.334729 0.333970
Si Si7 0.492695 0.337636 0.910534
Si Si8 0.877306 0.334768 0.957028
O O1 0.250000 0.250000 0.500000
O O2 0.383306 0.242778 0.583641
O O3 0.285003 0.182607 0.424453
O O4 0.310737 0.000000 0.529860
O O5 0.855345 0.783970 0.673053
O O6 0.987195 0.787771 0.735487
O O7 0.897326 0.000000 0.640913
O O8 0.811825 0.500000 0.040406
O O9 0.884808 0.272398 0.125485
O O10 0.750000 0.250000 0.000000
O O11 0.832107 0.292253 0.977913
O O12 0.291034 0.759899 0.723639
O O13 0.424106 0.759512 0.857503
O O14 0.329252 0.816027 0.862107
O O15 0.355666 0.000000 0.797278
O O16 0.980998 0.842252 0.133741
O O17 0.923848 0.000000 0.169620
O O18 0.694297 0.500000 0.305178
O O19 0.477002 0.500000 0.920800
O O20 0.554022 0.266634 0.997624
O O21 0.904188 0.500000 0.984108
#
# Coordination Sequence:
#
# PCOD8080624 Si02
#       8
#     8   8   8   8   8   8   8   8
#     4   9  17  27  39  56  81 114 151 187 219 253
#     4   9  16  28  43  60  86 115 147 186 218 251
#     4  10  20  35  52  67  86 111 141 180 225 268
#     4  11  20  28  41  60  86 117 149 182 213 252
#     4   9  17  30  46  65  89 116 146 180 218 258
#     4   9  17  29  40  56  85 119 152 185 217 247
#     4  10  18  29  43  60  85 116 148 180 214 251
#     4   9  20  34  44  61  86 111 142 180 219 258
#
# _framework density 15.790447
#
# number of rings (size 3 to 8) (size 9 to 14) (size 15 to 20)
#    0.000    2.500    1.250    2.625    0.000    6.500 
#    0.000    0.000    0.000    0.000    0.000    0.000 
#    0.000    1.000    0.000   11.250    0.000    5.625 
#
# Total GULP energy -396643.099076 kJ/mol
# GULP energy per Si atom -12395.096846 kJ/mol
# Density = 1.575451 g / cm^3
# Si number density = 15.790447 Si / 1000 Ang^3
#
#
#
# Elastic Constant Matrix: (Units=GPa)
#
#
# Indices 1 2 3 4 5 6 
#
# 1 35.0339 29.5979 34.1192 0.0000 8.2448 0.0000
# 2 29.5979 97.0957 66.7842 0.0000 2.7954 0.0000
# 3 34.1192 66.7842 132.4775 0.0000 4.7134 0.0000
# 4 0.0000 0.0000 0.0000 32.7668 0.0000 2.9388
# 5 8.2448 2.7954 4.7134 0.0000 14.9329 0.0000
# 6 0.0000 0.0000 0.0000 2.9388 0.0000 17.9487
#
#
#
# Elastic Compliance Matrix: (Units=1/GPa)
#
#
# Indices 1 2 3 4 5 6 
#
# 1 0.048656 -0.009359 -0.006998 0.000000 -0.022903 0.000000
# 2 -0.009359 0.017569 -0.006587 0.000000 0.003958 0.000000
# 3 -0.006998 -0.006587 0.012632 0.000000 0.001110 0.000000
# 4 0.000000 0.000000 0.000000 0.030974 0.000000 -0.005071
# 5 -0.022903 0.003958 0.001110 0.000000 0.078521 0.000000
# 6 0.000000 0.000000 0.000000 -0.005071 0.000000 0.056545
#
#
# Mechanical properties :
#
#
# Convention : Reuss Voigt Hill
#
# Bulk Modulus (GPa) = 30.33233 58.40109 44.36671
# Shear Modulus (GPa) = 16.56864 22.07007 19.31935
#
# Velocity S-wave (km/s) = 3.24278 3.74262 3.50163
# Velocity P-wave (km/s) = 5.76817 7.46603 6.67133
#
# Compressibility (1/GPa) = 0.03296812
#
# Stress axis : x y z
#
# Youngs Moduli (GPa) = 20.55229 56.91862 79.16332
#
# Poissons Ratio (x) = 0.53271 0.55401
# Poissons Ratio (y) = 0.19235 0.52147
# Poissons Ratio (z) = 0.14383 0.37494
#
# Static dielectric constant tensor:
#      x y z
#    x 2.565570 0.000000 -0.044480 
#    y 0.000000 3.252030 0.000000 
#    z -0.044480 0.000000 3.513980 
# 
# 
# High freq. dielectric constant tensor:
#      x y z
#    x 1.539190 0.000000 -0.003640 
#    y 0.000000 1.620260 0.000000 
#    z -0.003640 0.000000 1.615720 
# 
# From -- ./inp_files/350967.got.cif
#   From: 2010.06.25/outbox.cif.g09.slc.cpg/sg12_176_cif.got.tgz:350967.got - 2010.06.28 00:19:55.
