data_PCOD8080574
_publ_section_title
;
Structure prediction by ZEFSAII (Michael W. Deem and Ramdas Pophale) SiO2 
 PCOD8080574
Probable space group: C 2/M
;
_chemical_formula_sum "Si O2"
_cell_formula_units_Z 56
_cell_length_a 25.337030
_cell_length_b 18.363379
_cell_length_c 20.476780
_cell_angle_alpha 90.000000
_cell_angle_beta 161.084448
_cell_angle_gamma 90.000000
_cell_volume 3088.505812
_symmetry_space_group_name_H-M "C 2/M"
_symmetry_group_IT_number 12
_symmetry_cell_setting 'monoclinic'
loop_
_space_group_symop_operation_xyz
x,y,z
-x,y,-z
-x,-y,-z
x,-y,z
1/2+x,1/2+y,z
1/2-x,1/2+y,-z
1/2-x,1/2-y,-z
1/2+x,1/2-y,z
loop_
_atom_site_type_symbol
_atom_site_label
_atom_site_fract_x
_atom_site_fract_y
_atom_site_fract_z
Si Si1 0.439331 0.915820 0.779473
Si Si2 0.983070 0.200255 0.268402
Si Si3 0.703437 0.186370 0.035022
Si Si4 0.922177 0.920854 0.978988
Si Si5 0.677647 0.207914 0.271238
Si Si6 0.889007 0.919099 0.672453
Si Si7 0.159993 0.233434 0.109721
O O1 0.608282 0.885415 0.947751
O O2 0.383734 0.873516 0.780697
O O3 0.301830 0.903349 0.563120
O O4 0.464309 0.000000 0.827123
O O5 0.907741 0.270567 0.146342
O O6 0.156532 0.226750 0.498091
O O7 0.995879 0.135822 0.231605
O O8 0.873032 0.167931 0.198337
O O9 0.751494 0.234560 0.154308
O O10 0.795814 0.852836 0.834594
O O11 0.834287 0.000000 0.887033
O O12 0.000000 0.918582 0.000000
O O13 0.069557 0.912064 0.202903
O O14 0.706059 0.218283 0.227017
O O15 0.536763 0.262987 0.130821
O O16 0.929561 0.000000 0.693730
#
# Coordination Sequence:
#
# PCOD8080574 Si02
#       7
#     8   8   8   8   8   8   8
#     4   9  19  34  53  77 101 128 170 212 254 300
#     4  10  20  34  50  74 102 139 170 209 247 300
#     4  10  21  32  50  73 104 134 176 206 250 296
#     4  10  18  28  48  78 107 128 161 209 254 300
#     4   9  19  32  54  74 102 132 166 211 257 296
#     4   9  18  32  53  77 101 133 165 208 257 300
#     4  10  18  33  51  79 101 130 171 208 255 301
#
# _framework density 18.131744999999999
#
# number of rings (size 3 to 8) (size 9 to 14) (size 15 to 20)
#    0.000    2.429    2.857    0.000    2.000    2.857 
#    0.000    5.714    0.000    0.000    0.000   14.000 
#    0.000    0.571    0.000    0.000    0.000    0.000 
#
# Total GULP energy -347004.743554 kJ/mol
# GULP energy per Si atom -12393.026556 kJ/mol
# Density = 1.809048 g / cm^3
# Si number density = 18.131745 Si / 1000 Ang^3
#
#
#
# Elastic Constant Matrix: (Units=GPa)
#
#
# Indices 1 2 3 4 5 6 
#
# 1 105.9761 39.8885 25.8382 0.0067 -8.0250 -0.0090
# 2 39.8885 117.9988 17.9469 0.0176 -3.6286 0.0175
# 3 25.8382 17.9469 40.2456 -0.0138 -4.7311 0.0108
# 4 0.0067 0.0176 -0.0138 13.1397 -0.0027 -7.1556
# 5 -8.0250 -3.6286 -4.7311 -0.0027 23.9690 0.0053
# 6 -0.0090 0.0175 0.0108 -7.1556 0.0053 20.9423
#
#
#
# Elastic Compliance Matrix: (Units=1/GPa)
#
#
# Indices 1 2 3 4 5 6 
#
# 1 0.012320 -0.003144 -0.006223 -0.000003 0.002421 0.000010
# 2 -0.003144 0.009902 -0.002400 -0.000023 -0.000027 -0.000016
# 3 -0.006223 -0.002400 0.030329 0.000036 0.003540 -0.000005
# 4 -0.000003 -0.000023 0.000036 0.093504 0.000006 0.031949
# 5 0.002421 -0.000027 0.003540 0.000006 0.043226 -0.000010
# 6 0.000010 -0.000016 -0.000005 0.031949 -0.000010 0.058667
#
#
# Mechanical properties :
#
#
# Convention : Reuss Voigt Hill
#
# Bulk Modulus (GPa) = 34.46328 47.95195 41.20762
# Shear Modulus (GPa) = 17.78391 23.64666 20.71529
#
# Velocity S-wave (km/s) = 3.13520 3.61523 3.38374
# Velocity P-wave (km/s) = 5.67048 6.62800 6.16785
#
# Compressibility (1/GPa) = 0.02901639
#
# Stress axis : x y z
#
# Youngs Moduli (GPa) = 81.16941 100.99360 32.97148
#
# Poissons Ratio (x) = 0.31750 0.20518
# Poissons Ratio (y) = 0.25517 0.07914
# Poissons Ratio (z) = 0.50513 0.24242
#
# Static dielectric constant tensor:
#      x y z
#    x 3.437210 -0.000010 -0.123800 
#    y -0.000010 3.664490 -0.000060 
#    z -0.123800 -0.000060 3.162330 
# 
# 
# High freq. dielectric constant tensor:
#      x y z
#    x 1.704240 0.000000 -0.018280 
#    y 0.000000 1.707630 0.000000 
#    z -0.018280 0.000000 1.670030 
# 
# From -- ./inp_files/87313.got.cif
#   From: 2010.06.25/outbox.cif.g09.slc.cpg/sg12_44_cif.got.tgz:87313.got - 2010.06.28 00:19:55.
