data_PCOD8080252
_publ_section_title
;
Structure prediction by ZEFSAII (Michael W. Deem and Ramdas Pophale) SiO2 
 PCOD8080252
Probable space group: C 2/M
;
_chemical_formula_sum "Si O2"
_cell_formula_units_Z 48
_cell_length_a 22.963164
_cell_length_b 8.874958
_cell_length_c 29.451963
_cell_angle_alpha 90.000000
_cell_angle_beta 152.200505
_cell_angle_gamma 90.000000
_cell_volume 2799.310812
_symmetry_space_group_name_H-M "C 2/M"
_symmetry_group_IT_number 12
_symmetry_cell_setting 'monoclinic'
loop_
_space_group_symop_operation_xyz
x,y,z
-x,y,-z
-x,-y,-z
x,-y,z
1/2+x,1/2+y,z
1/2-x,1/2+y,-z
1/2-x,1/2-y,-z
1/2+x,1/2-y,z
loop_
_atom_site_type_symbol
_atom_site_label
_atom_site_fract_x
_atom_site_fract_y
_atom_site_fract_z
Si Si1 0.543314 0.324037 0.780657
Si Si2 0.960434 0.178407 0.821979
Si Si3 0.699255 0.678445 0.649629
Si Si4 0.802002 0.323560 0.990823
Si Si5 0.115181 0.180162 0.412338
Si Si6 0.968282 0.178138 0.547849
O O1 0.516908 0.500000 0.763324
O O2 0.488385 0.259171 0.790246
O O3 0.692727 0.293268 0.878152
O O4 0.471204 0.254707 0.687828
O O5 0.827338 0.235548 0.747042
O O6 0.966781 0.000000 0.828801
O O7 0.065515 0.245139 0.929077
O O8 0.722836 0.500000 0.666452
O O9 0.604116 0.729827 0.623791
O O10 0.641175 0.733212 0.561553
O O11 0.823515 0.500000 0.012836
O O12 0.750000 0.250000 0.000000
O O13 0.250000 0.250000 0.500000
O O14 0.056037 0.240873 0.418570
O O15 0.123913 0.000000 0.418050
O O16 0.965759 0.000000 0.545536
#
# Coordination Sequence:
#
# PCOD8080252 Si02
#       6
#     8   8   8   8   8   8
#     4   8  16  28  43  63  90 115 140 175 216 255
#     4  10  18  28  43  67  91 114 144 182 221 260
#     4   9  16  29  46  65  87 115 148 183 214 252
#     4   9  16  28  44  64  88 116 145 180 220 259
#     4  10  18  30  46  66  90 117 143 173 211 258
#     4   8  16  29  46  65  88 116 148 179 214 255
#
# _framework density 17.147076999999999
#
# number of rings (size 3 to 8) (size 9 to 14) (size 15 to 20)
#    0.000    3.000    0.000    4.000    0.000    0.000 
#    0.000    6.667    0.000    1.000    0.000    7.000 
#    0.000    0.000    0.000    0.000    0.000    0.000 
#
# Total GULP energy -297403.301261 kJ/mol
# GULP energy per Si atom -12391.804219 kJ/mol
# Density = 1.710805 g / cm^3
# Si number density = 17.147077 Si / 1000 Ang^3
#
#
#
# Elastic Constant Matrix: (Units=GPa)
#
#
# Indices 1 2 3 4 5 6 
#
# 1 95.1049 22.8621 64.6726 0.0004 8.9384 0.0000
# 2 22.8621 48.7436 40.2973 0.0012 8.0997 -0.0008
# 3 64.6726 40.2973 158.3614 0.0027 20.5730 0.0003
# 4 0.0004 0.0012 0.0027 25.0789 0.0006 8.9226
# 5 8.9384 8.0997 20.5730 0.0006 30.0439 0.0000
# 6 0.0000 -0.0008 0.0003 8.9226 0.0000 17.5333
#
#
#
# Elastic Compliance Matrix: (Units=1/GPa)
#
#
# Indices 1 2 3 4 5 6 
#
# 1 0.014787 -0.002458 -0.005409 0.000001 -0.000033 0.000000
# 2 -0.002458 0.026594 -0.005408 -0.000001 -0.002735 0.000002
# 3 -0.005409 -0.005408 0.010429 -0.000001 -0.004074 0.000000
# 4 0.000001 -0.000001 -0.000001 0.048690 0.000000 -0.024778
# 5 -0.000033 -0.002735 -0.004074 0.000000 0.036822 0.000000
# 6 0.000000 0.000002 0.000000 -0.024778 0.000000 0.069644
#
#
# Mechanical properties :
#
#
# Convention : Reuss Voigt Hill
#
# Bulk Modulus (GPa) = 39.58930 61.98597 50.78763
# Shear Modulus (GPa) = 20.66672 26.15642 23.41157
#
# Velocity S-wave (km/s) = 3.47545 3.90989 3.69906
# Velocity P-wave (km/s) = 6.26444 7.52403 6.92294
#
# Compressibility (1/GPa) = 0.02525935
#
# Stress axis : x y z
#
# Youngs Moduli (GPa) = 67.62747 37.60264 95.88619
#
# Poissons Ratio (x) = 0.09244 0.51864
# Poissons Ratio (y) = 0.16625 0.51855
# Poissons Ratio (z) = 0.36579 0.20335
#
# Static dielectric constant tensor:
#      x y z
#    x 3.355450 0.000000 -0.044780 
#    y 0.000000 2.964740 0.000000 
#    z -0.044780 0.000000 3.679950 
# 
# 
# High freq. dielectric constant tensor:
#      x y z
#    x 1.632640 0.000000 0.015680 
#    y 0.000000 1.636920 0.000000 
#    z 0.015680 0.000000 1.673320 
# 
# From -- ./inp_files/348281.got.cif
#   From: 2010.06.25/outbox.cif.g09.slc.cpg/sg12_175_cif.got.tgz:348281.got - 2010.06.28 00:19:55.
