data_PCOD8081339
_publ_section_title
;
Structure prediction by ZEFSAII (Michael W. Deem and Ramdas Pophale) SiO2 
 PCOD8081339
Probable space group: C 2/M
;
_chemical_formula_sum "Si O2"
_cell_formula_units_Z 48
_cell_length_a 25.077267
_cell_length_b 7.880497
_cell_length_c 18.650022
_cell_angle_alpha 90.000000
_cell_angle_beta 49.444905
_cell_angle_gamma 90.000000
_cell_volume 2800.281255
_symmetry_space_group_name_H-M "C 2/M"
_symmetry_group_IT_number 12
_symmetry_cell_setting 'monoclinic'
loop_
_space_group_symop_operation_xyz
x,y,z
-x,y,-z
-x,-y,-z
x,-y,z
1/2+x,1/2+y,z
1/2-x,1/2+y,-z
1/2-x,1/2-y,-z
1/2+x,1/2-y,z
loop_
_atom_site_type_symbol
_atom_site_label
_atom_site_fract_x
_atom_site_fract_y
_atom_site_fract_z
Si Si1 0.568884 0.806800 0.100762
Si Si2 0.545497 0.305449 0.892229
Si Si3 0.062628 0.810851 0.261221
Si Si4 0.114174 0.500000 0.402246
Si Si5 0.818122 0.804421 0.729580
Si Si6 0.841204 0.302119 0.109877
Si Si7 0.005012 0.500000 0.612053
O O1 0.486929 0.795856 0.147092
O O2 0.581391 0.699096 0.161263
O O3 0.588618 0.000000 0.100804
O O4 0.619385 0.726148 0.994811
O O5 0.537308 0.500000 0.879347
O O6 0.625940 0.264680 0.843394
O O7 0.500000 0.249089 0.000000
O O8 0.133882 0.778193 0.242762
O O9 0.004261 0.670016 0.332276
O O10 0.033444 0.000000 0.304123
O O11 0.158828 0.673128 0.352803
O O12 0.083035 0.500000 0.510029
O O13 0.051136 0.500000 0.401650
O O14 0.740060 0.752819 0.821580
O O15 0.821850 0.000000 0.698091
O O16 0.853487 0.500000 0.097042
#
# Coordination Sequence:
#
# PCOD8081339 Si02
#       7
#     8   8   8   4   8   8   4
#     4  10  18  30  47  67  99 136 167 202 239 281
#     4   9  17  28  43  66  93 124 168 210 238 276
#     4  10  19  32  49  71 102 131 161 201 241 291
#     4   9  18  32  54  72  95 126 160 204 249 286
#     4   9  19  33  48  72 103 129 161 200 240 293
#     4   9  18  31  46  67  99 134 166 201 239 282
#     4   9  18  34  50  74  97 122 162 206 247 288
#
# _framework density 17.141135999999999
#
# number of rings (size 3 to 8) (size 9 to 14) (size 15 to 20)
#    0.000    2.667    0.833    1.000    1.167    4.000 
#    0.000    3.333    0.000    0.000    0.000    1.167 
#    0.000    0.000    0.000    0.000    0.000    0.000 
#
# Total GULP energy -297466.610669 kJ/mol
# GULP energy per Si atom -12394.442111 kJ/mol
# Density = 1.710212 g / cm^3
# Si number density = 17.141136 Si / 1000 Ang^3
#
#
#
# Elastic Constant Matrix: (Units=GPa)
#
#
# Indices 1 2 3 4 5 6 
#
# 1 68.2348 36.8727 43.3823 -0.0014 -6.8501 0.0219
# 2 36.8727 85.9844 47.1870 0.0158 -7.0012 -0.0122
# 3 43.3823 47.1870 95.2339 0.0110 -9.3416 -0.0100
# 4 -0.0014 0.0158 0.0110 21.3947 0.0163 -1.0795
# 5 -6.8501 -7.0012 -9.3416 0.0163 4.0378 -0.0140
# 6 0.0219 -0.0122 -0.0100 -1.0795 -0.0140 21.7090
#
#
#
# Elastic Compliance Matrix: (Units=1/GPa)
#
#
# Indices 1 2 3 4 5 6 
#
# 1 0.023063 -0.005085 -0.006485 -0.000004 0.015306 -0.000020
# 2 -0.005085 0.017568 -0.005493 -0.000017 0.009126 0.000018
# 3 -0.006485 -0.005493 0.018321 -0.000021 0.021859 0.000025
# 4 -0.000004 -0.000017 -0.000021 0.046858 -0.000266 0.002330
# 5 0.015306 0.009126 0.021859 -0.000266 0.340022 0.000205
# 6 -0.000020 0.000018 0.000025 0.002330 0.000205 0.046180
#
#
# Mechanical properties :
#
#
# Convention : Reuss Voigt Hill
#
# Bulk Modulus (GPa) = 40.28149 56.03746 48.15948
# Shear Modulus (GPa) = 9.35607 17.56238 13.45922
#
# Velocity S-wave (km/s) = 2.33883 3.20437 2.80518
# Velocity P-wave (km/s) = 5.55377 6.81568 6.21682
#
# Compressibility (1/GPa) = 0.02482530
#
# Stress axis : x y z
#
# Youngs Moduli (GPa) = 43.36035 56.92076 54.58332
#
# Poissons Ratio (x) = 0.28943 0.35397
# Poissons Ratio (y) = 0.22048 0.29984
# Poissons Ratio (z) = 0.28119 0.31268
#
# Static dielectric constant tensor:
#      x y z
#    x 3.175380 -0.000030 -0.051800 
#    y -0.000030 3.287770 0.000020 
#    z -0.051800 0.000020 3.090300 
# 
# 
# High freq. dielectric constant tensor:
#      x y z
#    x 1.646660 0.000000 -0.000740 
#    y 0.000000 1.675820 0.000000 
#    z -0.000740 0.000000 1.619850 
# 
# From -- ./inp_files/287294.got.cif
#   From: 2010.06.25/outbox.cif.g09.slc.cpg/sg12_144_cif.got.tgz:287294.got - 2010.06.28 00:19:55.
