data_PCOD8081962
_publ_section_title
;
Structure prediction by ZEFSAII (Michael W. Deem and Ramdas Pophale) SiO2 
 PCOD8081962
Probable space group: C 2/M
;
_chemical_formula_sum "Si O2"
_cell_formula_units_Z 64
_cell_length_a 29.767573
_cell_length_b 14.558087
_cell_length_c 21.301692
_cell_angle_alpha 90.000000
_cell_angle_beta 159.269867
_cell_angle_gamma 90.000000
_cell_volume 3267.565664
_symmetry_space_group_name_H-M "C 2/M"
_symmetry_group_IT_number 12
_symmetry_cell_setting 'monoclinic'
loop_
_space_group_symop_operation_xyz
x,y,z
-x,y,-z
-x,-y,-z
x,-y,z
1/2+x,1/2+y,z
1/2-x,1/2+y,-z
1/2-x,1/2-y,-z
1/2+x,1/2-y,z
loop_
_atom_site_type_symbol
_atom_site_label
_atom_site_fract_x
_atom_site_fract_y
_atom_site_fract_z
Si Si1 0.596219 0.292438 0.488890
Si Si2 0.699000 0.398062 0.504171
Si Si3 0.851166 0.901113 0.915168
Si Si4 0.683118 0.900195 0.576810
Si Si5 0.042734 0.659038 0.126065
Si Si6 0.904667 0.895549 0.317526
Si Si7 0.712831 0.203865 0.147233
Si Si8 0.868001 0.149001 0.717665
O O1 0.634089 0.348602 0.477537
O O2 0.583252 0.183459 0.455789
O O3 0.461795 0.332411 0.336842
O O4 0.701862 0.308697 0.679810
O O5 0.640616 0.500000 0.420210
O O6 0.850451 0.412232 0.712091
O O7 0.667574 0.337819 0.401796
O O8 0.797256 0.888378 0.775137
O O9 0.804765 0.812128 0.894299
O O10 0.804429 0.000000 0.882770
O O11 0.002337 0.907429 0.107317
O O12 0.749410 0.901114 0.595383
O O13 0.614493 0.000000 0.495757
O O14 0.115773 0.755783 0.224412
O O15 0.000000 0.636140 0.000000
O O16 0.923155 0.658014 0.016596
O O17 0.772613 0.849077 0.166275
O O18 0.000000 0.896422 0.500000
O O19 0.880556 0.000000 0.262614
#
# Coordination Sequence:
#
# PCOD8081962 Si02
#       8
#     8   8   8   8   8   8   8   8
#     4  10  19  35  51  76 109 139 180 228 276 326
#     4  12  24  34  51  82 117 151 180 221 279 335
#     4   9  17  30  52  79 108 141 179 225 270 319
#     4  10  18  30  53  80 108 144 184 226 273 323
#     4  11  20  37  56  80 113 151 181 225 278 328
#     4   9  18  33  54  75  99 140 187 230 268 313
#     4   9  18  33  54  77 104 136 185 228 268 322
#     4  11  20  34  52  79 113 148 186 220 265 331
#
# _framework density 19.586445999999999
#
# number of rings (size 3 to 8) (size 9 to 14) (size 15 to 20)
#    0.000    1.875    2.500    3.750    0.000    2.250 
#    0.000    0.625    0.000    6.750    0.000    0.000 
#    0.000    0.000    0.000    0.000    0.000    0.000 
#
# Total GULP energy -396611.239270 kJ/mol
# GULP energy per Si atom -12394.101227 kJ/mol
# Density = 1.954187 g / cm^3
# Si number density = 19.586446 Si / 1000 Ang^3
#
#
#
# Elastic Constant Matrix: (Units=GPa)
#
#
# Indices 1 2 3 4 5 6 
#
# 1 100.8359 58.5991 36.7165 0.0001 24.2442 0.0001
# 2 58.5991 138.0545 21.1011 0.0000 20.7641 0.0000
# 3 36.7165 21.1011 36.2377 0.0000 6.9074 0.0000
# 4 0.0001 0.0000 0.0000 17.0260 0.0001 5.0204
# 5 24.2442 20.7641 6.9074 0.0001 29.7260 0.0001
# 6 0.0001 0.0000 0.0000 5.0204 0.0001 20.0805
#
#
#
# Elastic Compliance Matrix: (Units=1/GPa)
#
#
# Indices 1 2 3 4 5 6 
#
# 1 0.021345 -0.004983 -0.016815 0.000000 -0.010021 0.000000
# 2 -0.004983 0.009791 -0.000129 0.000000 -0.002745 0.000000
# 3 -0.016815 -0.000129 0.044027 0.000000 0.003574 0.000000
# 4 0.000000 0.000000 0.000000 0.063408 0.000000 -0.015853
# 5 -0.010021 -0.002745 0.003574 0.000000 0.042901 0.000000
# 6 0.000000 0.000000 0.000000 -0.015853 0.000000 0.053763
#
#
# Mechanical properties :
#
#
# Convention : Reuss Voigt Hill
#
# Bulk Modulus (GPa) = 31.94065 56.44017 44.19041
# Shear Modulus (GPa) = 17.26956 23.94725 20.60841
#
# Velocity S-wave (km/s) = 2.97258 3.50043 3.24725
# Velocity P-wave (km/s) = 5.30326 6.72427 6.05559
#
# Compressibility (1/GPa) = 0.03130807
#
# Stress axis : x y z
#
# Youngs Moduli (GPa) = 46.84952 102.13214 22.71321
#
# Poissons Ratio (x) = 0.50890 0.38193
# Poissons Ratio (y) = 0.23344 0.00294
# Poissons Ratio (z) = 0.78779 0.01322
#
# Static dielectric constant tensor:
#      x y z
#    x 3.388420 0.000000 0.093060 
#    y 0.000000 3.927130 0.000000 
#    z 0.093060 0.000000 3.370330 
# 
# 
# High freq. dielectric constant tensor:
#      x y z
#    x 1.737410 0.000000 -0.000070 
#    y 0.000000 1.778520 0.000000 
#    z -0.000070 0.000000 1.728510 
# 
# From -- ./inp_files/183799.got.cif
#   From: 2010.06.25/outbox.cif.g09.slc.cpg/sg12_92_cif.got.tgz:183799.got - 2010.06.28 00:19:55.
