data_PCOD8081411
_publ_section_title
;
Structure prediction by ZEFSAII (Michael W. Deem and Ramdas Pophale) SiO2 
 PCOD8081411
Probable space group: C 2/M
;
_chemical_formula_sum "Si O2"
_cell_formula_units_Z 64
_cell_length_a 32.744830
_cell_length_b 9.351201
_cell_length_c 22.967472
_cell_angle_alpha 90.000000
_cell_angle_beta 149.820857
_cell_angle_gamma 90.000000
_cell_volume 3535.385605
_symmetry_space_group_name_H-M "C 2/M"
_symmetry_group_IT_number 12
_symmetry_cell_setting 'monoclinic'
loop_
_space_group_symop_operation_xyz
x,y,z
-x,y,-z
-x,-y,-z
x,-y,z
1/2+x,1/2+y,z
1/2-x,1/2+y,-z
1/2-x,1/2-y,-z
1/2+x,1/2-y,z
loop_
_atom_site_type_symbol
_atom_site_label
_atom_site_fract_x
_atom_site_fract_y
_atom_site_fract_z
Si Si1 0.718186 0.332596 0.170039
Si Si2 0.308870 0.830175 0.527211
Si Si3 0.123132 0.165945 0.846522
Si Si4 0.507374 0.840422 0.255922
Si Si5 0.735954 0.331757 0.318270
Si Si6 0.773559 0.664192 0.113167
Si Si7 0.442106 0.339124 0.873853
Si Si8 0.941324 0.340030 0.051223
O O1 0.695350 0.500000 0.142750
O O2 0.764140 0.287105 0.287079
O O3 0.772633 0.297220 0.180729
O O4 0.634229 0.249728 0.063883
O O5 0.250000 0.750000 0.500000
O O6 0.402979 0.787687 0.653114
O O7 0.290850 0.774136 0.438949
O O8 0.294373 0.000000 0.516754
O O9 0.159224 0.235345 0.832636
O O10 0.035020 0.235341 0.750008
O O11 0.109312 0.000000 0.817603
O O12 0.184862 0.192738 0.976217
O O13 0.445879 0.844460 0.126202
O O14 0.515016 0.000000 0.292549
O O15 0.737340 0.500000 0.323534
O O16 0.644585 0.276259 0.214526
O O17 0.798819 0.500000 0.133894
O O18 0.435105 0.500000 0.839711
O O19 0.475504 0.233652 0.866231
O O20 0.500000 0.336830 0.000000
O O21 0.934813 0.500000 0.017537
#
# Coordination Sequence:
#
# PCOD8081411 Si02
#       8
#     8   8   8   8   8   8   8   8
#     4  10  18  33  53  74 102 134 169 207 252 311
#     4  10  21  38  57  77 102 138 179 222 263 300
#     4  10  19  31  52  79 106 138 174 211 254 313
#     4  10  21  35  51  73 106 140 174 216 259 305
#     4   9  18  33  54  75  96 130 176 217 256 304
#     4   9  18  31  50  77 109 138 164 208 265 314
#     4  10  18  30  48  68  96 131 166 208 253 304
#     4  11  21  30  44  71 104 135 165 206 257 306
#
# _framework density 18.102692999999999
#
# number of rings (size 3 to 8) (size 9 to 14) (size 15 to 20)
#    0.000    2.125    2.500    1.500    0.000    2.250 
#    0.000    0.625    0.000    0.750    0.000    5.250 
#    0.000    0.000    0.000    0.000    0.000    0.000 
#
# Total GULP energy -396628.483191 kJ/mol
# GULP energy per Si atom -12394.640100 kJ/mol
# Density = 1.806149 g / cm^3
# Si number density = 18.102693 Si / 1000 Ang^3
#
#
#
# Elastic Constant Matrix: (Units=GPa)
#
#
# Indices 1 2 3 4 5 6 
#
# 1 133.2101 62.4290 41.9623 0.0000 0.9490 0.0000
# 2 62.4290 79.6035 26.4937 0.0000 12.5298 0.0000
# 3 41.9623 26.4937 64.0330 0.0000 1.0401 0.0000
# 4 0.0000 0.0000 0.0000 16.5182 0.0000 4.8080
# 5 0.9490 12.5298 1.0401 0.0000 31.8468 0.0000
# 6 0.0000 0.0000 0.0000 4.8080 0.0000 24.3357
#
#
#
# Elastic Compliance Matrix: (Units=1/GPa)
#
#
# Indices 1 2 3 4 5 6 
#
# 1 0.013488 -0.009470 -0.004977 0.000000 0.003487 0.000000
# 2 -0.009470 0.022264 -0.002869 0.000000 -0.008384 0.000000
# 3 -0.004977 -0.002869 0.020056 0.000000 0.000622 0.000000
# 4 0.000000 0.000000 0.000000 0.064233 0.000000 -0.012691
# 5 0.003487 -0.008384 0.000622 0.000000 0.034575 0.000000
# 6 0.000000 0.000000 0.000000 -0.012691 0.000000 0.043599
#
#
# Mechanical properties :
#
#
# Convention : Reuss Voigt Hill
#
# Bulk Modulus (GPa) = 47.22840 59.84630 53.53735
# Shear Modulus (GPa) = 20.84134 24.27091 22.55612
#
# Velocity S-wave (km/s) = 3.39674 3.66558 3.53372
# Velocity P-wave (km/s) = 6.44434 7.14467 6.80353
#
# Compressibility (1/GPa) = 0.02117370
#
# Stress axis : x y z
#
# Youngs Moduli (GPa) = 74.13784 44.91540 49.86064
#
# Poissons Ratio (x) = 0.42537 0.24818
# Poissons Ratio (y) = 0.70212 0.14307
# Poissons Ratio (z) = 0.36902 0.12888
#
# Static dielectric constant tensor:
#      x y z
#    x 3.491730 0.000000 -0.129470 
#    y 0.000000 3.300390 0.000000 
#    z -0.129470 0.000000 3.296890 
# 
# 
# High freq. dielectric constant tensor:
#      x y z
#    x 1.704350 0.000000 -0.001750 
#    y 0.000000 1.689530 0.000000 
#    z -0.001750 0.000000 1.670770 
# 
# From -- ./inp_files/353592.got.cif
#   From: 2010.06.25/outbox.cif.g09.slc.cpg/sg12_177_cif.got.tgz:353592.got - 2010.06.28 00:19:55.
