data_PCOD8081580
_publ_section_title
;
Structure prediction by ZEFSAII (Michael W. Deem and Ramdas Pophale) SiO2 
 PCOD8081580
Probable space group: C 2/M
;
_chemical_formula_sum "Si O2"
_cell_formula_units_Z 56
_cell_length_a 5.295323
_cell_length_b 14.756870
_cell_length_c 31.785700
_cell_angle_alpha 90.000000
_cell_angle_beta 104.470747
_cell_angle_gamma 90.000000
_cell_volume 2405.012637
_symmetry_space_group_name_H-M "C 2/M"
_symmetry_group_IT_number 12
_symmetry_cell_setting 'monoclinic'
loop_
_space_group_symop_operation_xyz
x,y,z
-x,y,-z
-x,-y,-z
x,-y,z
1/2+x,1/2+y,z
1/2-x,1/2+y,-z
1/2-x,1/2-y,-z
1/2+x,1/2-y,z
loop_
_atom_site_type_symbol
_atom_site_label
_atom_site_fract_x
_atom_site_fract_y
_atom_site_fract_z
Si Si1 0.853785 0.107585 0.735855
Si Si2 0.574437 0.107769 0.882965
Si Si3 0.632407 0.349789 0.588018
Si Si4 0.221112 0.607832 0.314081
Si Si5 0.222396 0.649121 0.981597
Si Si6 0.077422 0.352580 0.551360
Si Si7 0.000176 0.107770 0.833458
O O1 0.565376 0.141577 0.711544
O O2 0.069278 0.141572 0.711546
O O3 0.926942 0.147083 0.784630
O O4 0.856351 0.000000 0.737574
O O5 0.644862 0.152998 0.929910
O O6 0.288083 0.142529 0.857718
O O7 0.785043 0.142531 0.857717
O O8 0.581925 0.000000 0.887955
O O9 0.709596 0.342902 0.639755
O O10 0.355873 0.401559 0.570922
O O11 0.601054 0.250933 0.566754
O O12 0.858110 0.401547 0.571035
O O13 0.231077 0.500000 0.320735
O O14 0.500000 0.598257 0.000000
O O15 0.250000 0.750000 0.000000
O O16 0.000000 0.598256 0.000000
O O17 0.000000 0.360012 0.500000
O O18 0.998219 0.000000 0.832158
#
# Coordination Sequence:
#
# PCOD8081580 Si02
#       7
#     8   8   8   8   8   8   8
#     4   9  17  30  47  70 102 136 164 191 232 289
#     4  10  19  31  51  79 104 125 159 212 258 285
#     4  10  18  30  49  73  95 122 158 202 246 286
#     4  10  19  30  47  73 104 134 161 191 233 292
#     4  10  21  36  52  73  99 135 172 202 240 300
#     4  10  19  33  53  71  88 118 164 213 251 286
#     4   9  17  30  49  75 104 130 161 205 250 283
#
# _framework density 23.284703
#
# number of rings (size 3 to 8) (size 9 to 14) (size 15 to 20)
#    0.000    2.286    0.000    4.714    0.000    4.000 
#    0.000    0.000    0.000    4.714    0.000   80.000 
#    0.000    0.000    0.000    0.000    0.000    0.000 
#
# Total GULP energy -347118.016987 kJ/mol
# GULP energy per Si atom -12397.072035 kJ/mol
# Density = 2.323171 g / cm^3
# Si number density = 23.284703 Si / 1000 Ang^3
#
#
#
# Elastic Constant Matrix: (Units=GPa)
#
#
# Indices 1 2 3 4 5 6 
#
# 1 299.3017 -1.3661 132.2512 0.0000 0.2976 0.0000
# 2 -1.3661 18.2669 5.2479 0.0000 -0.0326 0.0000
# 3 132.2512 5.2479 257.9597 0.0000 0.0081 0.0000
# 4 0.0000 0.0000 0.0000 153.7819 0.0000 -0.6137
# 5 0.2976 -0.0326 0.0081 0.0000 55.8767 0.0000
# 6 0.0000 0.0000 0.0000 -0.6137 0.0000 -5.6576
#
#
#
# Elastic Compliance Matrix: (Units=1/GPa)
#
#
# Indices 1 2 3 4 5 6 
#
# 1 0.004337 0.000969 -0.002243 0.000000 -0.000022 0.000000
# 2 0.000969 0.055282 -0.001621 0.000000 0.000027 0.000000
# 3 -0.002243 -0.001621 0.005060 0.000000 0.000010 0.000000
# 4 0.000000 0.000000 0.000000 0.006500 0.000000 -0.000705
# 5 -0.000022 0.000027 0.000010 0.000000 0.017897 0.000000
# 6 0.000000 0.000000 0.000000 -0.000705 0.000000 -0.176676
#
#
# Mechanical properties :
#
#
# Convention : Reuss Voigt Hill
#
# Bulk Modulus (GPa) = 16.98166 94.19937 55.59051
# Shear Modulus (GPa) = -80.41059 70.09322 -5.15869
#
# Velocity S-wave (km/s) = -5.88291 5.49254 -1.49006
# Velocity P-wave (km/s) = 6.23185 8.98707 4.57883
#
# Compressibility (1/GPa) = 0.05888706
#
# Stress axis : x y z
#
# Youngs Moduli (GPa) = 230.59136 18.08903 197.64717
#
# Poissons Ratio (x) = -0.01752 0.44333
# Poissons Ratio (y) = -0.22337 0.32044
# Poissons Ratio (z) = 0.51723 0.02933
#
# Static dielectric constant tensor:
#      x y z
#    x -27.621790 0.000000 -0.143420 
#    y 0.000000 3.388040 0.000000 
#    z -0.143420 0.000000 4.182340 
# 
# 
# High freq. dielectric constant tensor:
#      x y z
#    x 1.955740 0.000000 0.000100 
#    y 0.000000 1.870090 0.000000 
#    z 0.000100 0.000000 1.931290 
# 
# From -- ./inp_files/354959.got.cif
#   From: 2010.06.25/outbox.cif.g09.slc.cpg/sg12_178_cif.got.tgz:354959.got - 2010.06.28 00:19:55.
