data_PCOD8081191
_publ_section_title
;
Structure prediction by ZEFSAII (Michael W. Deem and Ramdas Pophale) SiO2 
 PCOD8081191
Probable space group: C 2/M
;
_chemical_formula_sum "Si O2"
_cell_formula_units_Z 56
_cell_length_a 5.355507
_cell_length_b 26.364299
_cell_length_c 22.142206
_cell_angle_alpha 90.000000
_cell_angle_beta 68.727858
_cell_angle_gamma 90.000000
_cell_volume 2913.345433
_symmetry_space_group_name_H-M "C 2/M"
_symmetry_group_IT_number 12
_symmetry_cell_setting 'monoclinic'
loop_
_space_group_symop_operation_xyz
x,y,z
-x,y,-z
-x,-y,-z
x,-y,z
1/2+x,1/2+y,z
1/2-x,1/2+y,-z
1/2-x,1/2-y,-z
1/2+x,1/2-y,z
loop_
_atom_site_type_symbol
_atom_site_label
_atom_site_fract_x
_atom_site_fract_y
_atom_site_fract_z
Si Si1 0.000612 0.188640 0.166259
Si Si2 0.424855 0.796982 0.216765
Si Si3 0.615371 0.613186 0.423085
Si Si4 0.136503 0.899090 0.075666
Si Si5 0.848861 0.558990 0.934092
Si Si6 0.702540 0.276733 0.364978
Si Si7 0.115298 0.556584 0.423134
O O1 0.192861 0.170165 0.204683
O O2 0.105460 0.160456 0.096361
O O3 0.693093 0.170165 0.204682
O O4 0.003294 0.250082 0.164471
O O5 0.318641 0.772783 0.287575
O O6 0.500000 0.621029 0.500000
O O7 0.668749 0.666139 0.387503
O O8 0.402929 0.584146 0.399210
O O9 0.899432 0.584144 0.399210
O O10 0.340572 0.926582 0.105093
O O11 0.844154 0.926582 0.105093
O O12 0.252390 0.905884 0.998406
O O13 0.819617 0.500000 0.953588
O O14 0.411012 0.249999 0.392665
O O15 0.158974 0.500000 0.394019
O O16 0.000000 0.554327 0.500000
#
# Coordination Sequence:
#
# PCOD8081191 Si02
#       7
#     8   8   8   8   8   8   8
#     4  10  18  32  53  74  96 125 173 223 245 284
#     4  10  19  35  51  71  99 125 175 225 252 295
#     4  10  21  33  51  84 113 139 180 219 267 337
#     4  10  18  29  51  77  99 133 169 201 249 300
#     4  10  19  33  50  76 111 137 164 203 252 320
#     4  12  21  36  55  76 108 146 184 219 276 326
#     4   9  17  33  54  77 106 137 172 216 259 310
#
# _framework density 19.221889000000001
#
# number of rings (size 3 to 8) (size 9 to 14) (size 15 to 20)
#    0.000    1.857    2.857    4.286    0.000    2.286 
#    0.000    0.000    0.000   41.143    0.000   26.000 
#    0.000    0.000    0.000    0.000    0.000    0.000 
#
# Total GULP energy -346868.946912 kJ/mol
# GULP energy per Si atom -12388.176675 kJ/mol
# Density = 1.917814 g / cm^3
# Si number density = 19.221889 Si / 1000 Ang^3
#
#
#
# Elastic Constant Matrix: (Units=GPa)
#
#
# Indices 1 2 3 4 5 6 
#
# 1 240.7828 66.9506 20.5608 0.0000 -13.8097 0.0000
# 2 66.9506 140.1742 36.2110 0.0000 -2.1128 0.0000
# 3 20.5608 36.2110 25.2471 0.0000 -0.9914 0.0000
# 4 0.0000 0.0000 0.0000 32.7545 0.0000 0.1198
# 5 -13.8097 -2.1128 -0.9914 0.0000 10.4407 0.0000
# 6 0.0000 0.0000 0.0000 0.1198 0.0000 30.9999
#
#
#
# Elastic Compliance Matrix: (Units=1/GPa)
#
#
# Indices 1 2 3 4 5 6 
#
# 1 0.005192 -0.002155 -0.000889 0.000000 0.006347 0.000000
# 2 -0.002155 0.012233 -0.015864 0.000000 -0.001881 0.000000
# 3 -0.000889 -0.015864 0.063149 0.000000 0.001610 0.000000
# 4 0.000000 0.000000 0.000000 0.030531 0.000000 -0.000118
# 5 0.006347 -0.001881 0.001610 0.000000 0.103947 0.000000
# 6 0.000000 0.000000 0.000000 -0.000118 0.000000 0.032259
#
#
# Mechanical properties :
#
#
# Convention : Reuss Voigt Hill
#
# Bulk Modulus (GPa) = 23.38707 72.62765 48.00736
# Shear Modulus (GPa) = 16.70122 33.67113 25.18617
#
# Velocity S-wave (km/s) = 2.95085 4.18988 3.62371
# Velocity P-wave (km/s) = 4.87886 7.82769 6.52212
#
# Compressibility (1/GPa) = 0.04275867
#
# Stress axis : x y z
#
# Youngs Moduli (GPa) = 192.59841 81.74635 15.83544
#
# Poissons Ratio (x) = 0.17613 0.01408
# Poissons Ratio (y) = 0.41497 0.25122
# Poissons Ratio (z) = 0.17120 1.29686
#
# Static dielectric constant tensor:
#      x y z
#    x 5.075280 0.000000 -0.145930 
#    y 0.000000 3.340390 0.000000 
#    z -0.145930 0.000000 2.949710 
# 
# 
# High freq. dielectric constant tensor:
#      x y z
#    x 1.798910 0.000000 -0.008390 
#    y 0.000000 1.729650 0.000000 
#    z -0.008390 0.000000 1.676700 
# 
# From -- ./inp_files/331377.got.cif
#   From: 2010.06.25/outbox.cif.g09.slc.cpg/sg12_166_cif.got.tgz:331377.got - 2010.06.28 00:19:55.
