data_PCOD8081918
_publ_section_title
;
Structure prediction by ZEFSAII (Michael W. Deem and Ramdas Pophale) SiO2 
 PCOD8081918
Probable space group: C 2/M
;
_chemical_formula_sum "Si O2"
_cell_formula_units_Z 64
_cell_length_a 14.958999
_cell_length_b 14.687252
_cell_length_c 20.483998
_cell_angle_alpha 90.000000
_cell_angle_beta 128.855304
_cell_angle_gamma 90.000000
_cell_volume 3504.662980
_symmetry_space_group_name_H-M "C 2/M"
_symmetry_group_IT_number 12
_symmetry_cell_setting 'monoclinic'
loop_
_space_group_symop_operation_xyz
x,y,z
-x,y,-z
-x,-y,-z
x,-y,z
1/2+x,1/2+y,z
1/2-x,1/2+y,-z
1/2-x,1/2-y,-z
1/2+x,1/2-y,z
loop_
_atom_site_type_symbol
_atom_site_label
_atom_site_fract_x
_atom_site_fract_y
_atom_site_fract_z
Si Si1 0.379015 0.898970 0.359084
Si Si2 0.706982 0.725722 0.216398
Si Si3 0.021365 0.100031 0.078755
Si Si4 0.303431 0.257519 0.125670
Si Si5 0.722024 0.603863 0.406120
Si Si6 0.572446 0.756657 0.276600
Si Si7 0.231291 0.896698 0.999049
Si Si8 0.884482 0.396181 0.590245
O O1 0.325198 0.822742 0.288193
O O2 0.333455 0.885926 0.411268
O O3 0.515201 0.885003 0.417615
O O4 0.345959 0.000000 0.318329
O O5 0.610690 0.649592 0.164758
O O6 0.736111 0.777427 0.162708
O O7 0.652125 0.785048 0.250350
O O8 0.071998 0.000000 0.086332
O O9 0.000000 0.151782 0.000000
O O10 0.904529 0.093662 0.064364
O O11 0.440848 0.262270 0.196491
O O12 0.276696 0.156504 0.084296
O O13 0.244695 0.334859 0.053508
O O14 0.676851 0.500000 0.385925
O O15 0.618213 0.665737 0.333281
O O16 0.766386 0.632644 0.498973
O O17 0.587765 0.839359 0.332940
O O18 0.285046 0.000000 0.020191
O O19 0.874368 0.500000 0.609168
#
# Coordination Sequence:
#
# PCOD8081918 Si02
#       8
#     8   8   8   8   8   8   8   8
#     4   9  17  29  51  82 111 137 171 221 282 330
#     4  11  20  33  51  79 113 140 176 224 266 319
#     4  10  18  30  52  80 106 135 169 220 282 328
#     4  11  22  37  56  81 111 143 179 222 275 320
#     4   9  19  34  55  82 110 140 178 228 278 321
#     4  11  22  35  54  82 111 146 181 220 269 324
#     4  10  22  38  57  81 108 141 182 225 270 325
#     4  10  19  34  54  78 112 149 182 217 265 324
#
# _framework density 18.261386000000002
#
# number of rings (size 3 to 8) (size 9 to 14) (size 15 to 20)
#    0.000    1.875    3.750    1.125    0.000    3.500 
#    0.000    0.625    0.000    0.750    0.000    1.750 
#    0.000    0.000    0.000    0.000    0.000    0.000 
#
# Total GULP energy -396502.955252 kJ/mol
# GULP energy per Si atom -12390.717352 kJ/mol
# Density = 1.821982 g / cm^3
# Si number density = 18.261386 Si / 1000 Ang^3
#
#
#
# Elastic Constant Matrix: (Units=GPa)
#
#
# Indices 1 2 3 4 5 6 
#
# 1 68.8316 24.0829 22.0486 0.0000 -3.2519 0.0000
# 2 24.0829 81.6851 34.0403 0.0000 -1.0924 0.0000
# 3 22.0486 34.0403 82.3906 0.0000 1.9440 0.0000
# 4 0.0000 0.0000 0.0000 23.5885 0.0000 -1.5642
# 5 -3.2519 -1.0924 1.9440 0.0000 27.3785 0.0000
# 6 0.0000 0.0000 0.0000 -1.5642 0.0000 21.1557
#
#
#
# Elastic Compliance Matrix: (Units=1/GPa)
#
#
# Indices 1 2 3 4 5 6 
#
# 1 0.016891 -0.003682 -0.003048 0.000000 0.002076 0.000000
# 2 -0.003682 0.015620 -0.005482 0.000000 0.000575 0.000000
# 3 -0.003048 -0.005482 0.015257 0.000000 -0.001664 0.000000
# 4 0.000000 0.000000 0.000000 0.042602 0.000000 0.003150
# 5 0.002076 0.000575 -0.001664 0.000000 0.036913 0.000000
# 6 0.000000 0.000000 0.000000 0.003150 0.000000 0.047502
#
#
# Mechanical properties :
#
#
# Convention : Reuss Voigt Hill
#
# Bulk Modulus (GPa) = 42.83657 43.69454 43.26555
# Shear Modulus (GPa) = 24.15589 24.60688 24.38139
#
# Velocity S-wave (km/s) = 3.64096 3.67479 3.65791
# Velocity P-wave (km/s) = 6.41746 6.47956 6.44858
#
# Compressibility (1/GPa) = 0.02334454
#
# Stress axis : x y z
#
# Youngs Moduli (GPa) = 59.20358 64.02169 65.54374
#
# Poissons Ratio (x) = 0.23573 0.19977
# Poissons Ratio (y) = 0.21799 0.35929
# Poissons Ratio (z) = 0.18045 0.35094
#
# Static dielectric constant tensor:
#      x y z
#    x 3.291440 0.000000 -0.087780 
#    y 0.000000 3.338630 0.000000 
#    z -0.087780 0.000000 3.500420 
# 
# 
# High freq. dielectric constant tensor:
#      x y z
#    x 1.691330 0.000000 -0.002790 
#    y 0.000000 1.684890 0.000000 
#    z -0.002790 0.000000 1.723270 
# 
# From -- ./inp_files/270697.got.cif
#   From: 2010.06.25/outbox.cif.g09.slc.cpg/sg12_136_cif.got.tgz:270697.got - 2010.06.28 00:19:55.
