data_PCOD8081548
_publ_section_title
;
Structure prediction by ZEFSAII (Michael W. Deem and Ramdas Pophale) SiO2 
 PCOD8081548
Probable space group: C 2/M
;
_chemical_formula_sum "Si O2"
_cell_formula_units_Z 64
_cell_length_a 19.265735
_cell_length_b 9.030184
_cell_length_c 20.585077
_cell_angle_alpha 90.000000
_cell_angle_beta 97.967917
_cell_angle_gamma 90.000000
_cell_volume 3546.676368
_symmetry_space_group_name_H-M "C 2/M"
_symmetry_group_IT_number 12
_symmetry_cell_setting 'monoclinic'
loop_
_space_group_symop_operation_xyz
x,y,z
-x,y,-z
-x,-y,-z
x,-y,z
1/2+x,1/2+y,z
1/2-x,1/2+y,-z
1/2-x,1/2-y,-z
1/2+x,1/2-y,z
loop_
_atom_site_type_symbol
_atom_site_label
_atom_site_fract_x
_atom_site_fract_y
_atom_site_fract_z
Si Si1 0.920800 0.163345 0.014083
Si Si2 0.122721 0.331294 0.321823
Si Si3 0.033426 0.329911 0.719482
Si Si4 0.877114 0.674723 0.888720
Si Si5 0.703038 0.328152 0.223852
Si Si6 0.254609 0.171672 0.568936
Si Si7 0.486349 0.325347 0.150871
Si Si8 0.172578 0.671438 0.667943
O O1 0.924747 0.211426 0.090343
O O2 0.887110 0.000000 0.002501
O O3 0.876148 0.276493 0.964297
O O4 0.000000 0.159769 0.000000
O O5 0.136862 0.500000 0.300251
O O6 0.143730 0.220363 0.267438
O O7 0.167993 0.297371 0.391958
O O8 0.040785 0.306107 0.326433
O O9 0.042996 0.500000 0.742997
O O10 0.041185 0.226917 0.783251
O O11 0.093243 0.285805 0.675808
O O12 0.878973 0.500000 0.885347
O O13 0.807326 0.736632 0.844253
O O14 0.943178 0.739235 0.858441
O O15 0.693014 0.500000 0.207169
O O16 0.779180 0.292182 0.263254
O O17 0.250000 0.250000 0.500000
O O18 0.194990 0.232504 0.609236
O O19 0.240146 0.000000 0.556636
O O20 0.502851 0.500000 0.153060
O O21 0.180502 0.500000 0.649552
#
# Coordination Sequence:
#
# PCOD8081548 Si02
#       8
#     8   8   8   8   8   8   8   8
#     4   8  16  29  42  62  95 130 166 211 261 310
#     4   9  18  32  52  78 103 131 169 210 251 297
#     4  10  19  33  53  77 106 135 167 210 258 305
#     4  11  19  27  44  70  98 129 171 218 260 303
#     4  10  18  30  49  72 100 133 170 211 256 305
#     4  10  20  36  58  81 106 137 172 208 248 296
#     4  10  19  30  46  70 100 134 169 208 260 311
#     4   9  20  36  54  78 106 137 170 206 252 305
#
# _framework density 18.045064
#
# number of rings (size 3 to 8) (size 9 to 14) (size 15 to 20)
#    0.000    2.375    1.250    3.000    0.000    4.250 
#    0.000    0.625    0.000    4.500    0.000    0.000 
#    0.000    0.000    0.000    0.000    0.000    0.000 
#
# Total GULP energy -396749.010373 kJ/mol
# GULP energy per Si atom -12398.406574 kJ/mol
# Density = 1.800399 g / cm^3
# Si number density = 18.045064 Si / 1000 Ang^3
#
#
#
# Elastic Constant Matrix: (Units=GPa)
#
#
# Indices 1 2 3 4 5 6 
#
# 1 91.3974 33.4011 42.5110 0.0000 1.2388 0.0000
# 2 33.4011 102.5278 57.5797 0.0000 6.7558 0.0000
# 3 42.5110 57.5797 118.4204 0.0000 12.7924 0.0000
# 4 0.0000 0.0000 0.0000 33.1043 0.0000 1.7037
# 5 1.2388 6.7558 12.7924 0.0000 18.3423 0.0000
# 6 0.0000 0.0000 0.0000 1.7037 0.0000 19.5990
#
#
#
# Elastic Compliance Matrix: (Units=1/GPa)
#
#
# Indices 1 2 3 4 5 6 
#
# 1 0.013650 -0.002351 -0.004056 0.000000 0.002773 0.000000
# 2 -0.002351 0.013825 -0.005781 0.000000 -0.000902 0.000000
# 3 -0.004056 -0.005781 0.013466 0.000000 -0.006989 0.000000
# 4 0.000000 0.000000 0.000000 0.030343 0.000000 -0.002638
# 5 0.002773 -0.000902 -0.006989 0.000000 0.059538 0.000000
# 6 0.000000 0.000000 0.000000 -0.002638 0.000000 0.051252
#
#
# Mechanical properties :
#
#
# Convention : Reuss Voigt Hill
#
# Bulk Modulus (GPa) = 60.37031 64.36990 62.37011
# Shear Modulus (GPa) = 23.58787 26.13268 24.86028
#
# Velocity S-wave (km/s) = 3.61940 3.80964 3.71573
# Velocity P-wave (km/s) = 7.14105 7.42296 7.28337
#
# Compressibility (1/GPa) = 0.01656443
#
# Stress axis : x y z
#
# Youngs Moduli (GPa) = 73.26217 72.33045 74.25913
#
# Poissons Ratio (x) = 0.17008 0.30121
# Poissons Ratio (y) = 0.17227 0.42928
# Poissons Ratio (z) = 0.29717 0.41813
#
# Static dielectric constant tensor:
#      x y z
#    x 3.193950 0.000000 0.264330 
#    y 0.000000 3.383150 0.000000 
#    z 0.264330 0.000000 3.409420 
# 
# 
# High freq. dielectric constant tensor:
#      x y z
#    x 1.668820 0.000000 0.022610 
#    y 0.000000 1.704810 0.000000 
#    z 0.022610 0.000000 1.692000 
# 
# From -- ./inp_files/314185.got.cif
#   From: 2010.06.25/outbox.cif.g09.slc.cpg/sg12_158_cif.got.tgz:314185.got - 2010.06.28 00:19:55.
