data_PCOD8081240
_publ_section_title
;
Structure prediction by ZEFSAII (Michael W. Deem and Ramdas Pophale) SiO2 
 PCOD8081240
Probable space group: C 2/M
;
_chemical_formula_sum "Si O2"
_cell_formula_units_Z 64
_cell_length_a 27.373523
_cell_length_b 8.726533
_cell_length_c 17.230196
_cell_angle_alpha 90.000000
_cell_angle_beta 102.795036
_cell_angle_gamma 90.000000
_cell_volume 4013.676194
_symmetry_space_group_name_H-M "C 2/M"
_symmetry_group_IT_number 12
_symmetry_cell_setting 'monoclinic'
loop_
_space_group_symop_operation_xyz
x,y,z
-x,y,-z
-x,-y,-z
x,-y,z
1/2+x,1/2+y,z
1/2-x,1/2+y,-z
1/2-x,1/2-y,-z
1/2+x,1/2-y,z
loop_
_atom_site_type_symbol
_atom_site_label
_atom_site_fract_x
_atom_site_fract_y
_atom_site_fract_z
Si Si1 0.709627 0.820626 0.657885
Si Si2 0.138242 0.180537 0.942516
Si Si3 0.213059 0.820213 0.096744
Si Si4 0.324755 0.321983 0.674258
Si Si5 0.802489 0.822624 0.498953
Si Si6 0.129983 0.320088 0.171435
Si Si7 0.443173 0.682152 0.967533
Si Si8 0.312080 0.320624 0.190040
O O1 0.767807 0.768068 0.675171
O O2 0.677754 0.752152 0.574189
O O3 0.682976 0.768078 0.727632
O O4 0.705871 0.000000 0.650249
O O5 0.143438 0.232136 0.854155
O O6 0.135176 0.000000 0.945185
O O7 0.188445 0.230567 0.006436
O O8 0.088646 0.243110 0.968773
O O9 0.173133 0.783335 0.149161
O O10 0.261036 0.716456 0.127522
O O11 0.226974 0.000000 0.106125
O O12 0.331170 0.500000 0.697635
O O13 0.337145 0.294595 0.587043
O O14 0.365254 0.219984 0.735425
O O15 0.750000 0.750000 0.500000
O O16 0.794708 0.000000 0.480653
O O17 0.137658 0.500000 0.159627
O O18 0.076921 0.265595 0.117211
O O19 0.438308 0.500000 0.954867
O O20 0.500000 0.733771 0.000000
O O21 0.314670 0.500000 0.208552
#
# Coordination Sequence:
#
# PCOD8081240 Si02
#       8
#     8   8   8   8   8   8   8   8
#     4  10  19  29  41  58  85 121 155 186 219 257
#     4   8  17  30  44  64  85 109 145 185 221 263
#     4  10  18  30  43  57  85 118 151 185 217 258
#     4   9  17  29  43  59  85 117 150 186 218 256
#     4   9  17  28  42  59  82 114 152 189 223 257
#     4  11  20  28  44  68  91 116 148 185 223 261
#     4   9  18  35  55  68  85 115 146 181 229 276
#     4  11  19  27  41  61  87 116 149 186 220 256
#
# _framework density 15.945480999999999
#
# number of rings (size 3 to 8) (size 9 to 14) (size 15 to 20)
#    0.000    2.375    1.250    4.500    0.000    2.750 
#    0.000    5.625    0.000    0.000    0.000    0.000 
#    0.000    1.000    0.000   11.500    0.000    3.250 
#
# Total GULP energy -396539.792650 kJ/mol
# GULP energy per Si atom -12391.868520 kJ/mol
# Density = 1.590919 g / cm^3
# Si number density = 15.945481 Si / 1000 Ang^3
#
#
#
# Elastic Constant Matrix: (Units=GPa)
#
#
# Indices 1 2 3 4 5 6 
#
# 1 45.8454 11.6705 44.4989 0.0000 -1.5751 0.0000
# 2 11.6705 51.4531 40.8065 0.0000 -0.8921 0.0000
# 3 44.4989 40.8065 134.0660 0.0000 -14.7771 0.0000
# 4 0.0000 0.0000 0.0000 26.7997 0.0000 0.4123
# 5 -1.5751 -0.8921 -14.7771 0.0000 17.5144 0.0000
# 6 0.0000 0.0000 0.0000 0.4123 0.0000 12.0007
#
#
#
# Elastic Compliance Matrix: (Units=1/GPa)
#
#
# Indices 1 2 3 4 5 6 
#
# 1 0.033116 0.002279 -0.012508 0.000000 -0.007459 0.000000
# 2 0.002279 0.026325 -0.009480 0.000000 -0.006453 0.000000
# 3 -0.012508 -0.009480 0.015787 0.000000 0.011712 0.000000
# 4 0.000000 0.000000 0.000000 0.037334 0.000000 -0.001283
# 5 -0.007459 -0.006453 0.011712 0.000000 0.065978 0.000000
# 6 0.000000 0.000000 0.000000 -0.001283 0.000000 0.083372
#
#
# Mechanical properties :
#
#
# Convention : Reuss Voigt Hill
#
# Bulk Modulus (GPa) = 27.92497 47.25736 37.59116
# Shear Modulus (GPa) = 15.96081 20.22222 18.09152
#
# Velocity S-wave (km/s) = 3.16723 3.56506 3.37202
# Velocity P-wave (km/s) = 5.56111 6.82989 6.22789
#
# Compressibility (1/GPa) = 0.03581025
#
# Stress axis : x y z
#
# Youngs Moduli (GPa) = 30.19653 37.98652 63.34297
#
# Poissons Ratio (x) = -0.08657 0.79227
# Poissons Ratio (y) = -0.06882 0.60052
# Poissons Ratio (z) = 0.37769 0.36013
#
# Static dielectric constant tensor:
#      x y z
#    x 2.794690 0.000000 -0.201430 
#    y 0.000000 3.006640 0.000000 
#    z -0.201430 0.000000 3.555180 
# 
# 
# High freq. dielectric constant tensor:
#      x y z
#    x 1.547970 0.000000 -0.017030 
#    y 0.000000 1.614080 0.000000 
#    z -0.017030 0.000000 1.622600 
# 
# From -- ./inp_files/294601.got.cif
#   From: 2010.06.25/outbox.cif.g09.slc.cpg/sg12_148_cif.got.tgz:294601.got - 2010.06.28 00:19:55.
