data_PCOD8081915
_publ_section_title
;
Structure prediction by ZEFSAII (Michael W. Deem and Ramdas Pophale) SiO2 
 PCOD8081915
Probable space group: C 2/M
;
_chemical_formula_sum "Si O2"
_cell_formula_units_Z 64
_cell_length_a 22.590968
_cell_length_b 12.087110
_cell_length_c 14.167610
_cell_angle_alpha 90.000000
_cell_angle_beta 110.506224
_cell_angle_gamma 90.000000
_cell_volume 3623.463511
_symmetry_space_group_name_H-M "C 2/M"
_symmetry_group_IT_number 12
_symmetry_cell_setting 'monoclinic'
loop_
_space_group_symop_operation_xyz
x,y,z
-x,y,-z
-x,-y,-z
x,-y,z
1/2+x,1/2+y,z
1/2-x,1/2+y,-z
1/2-x,1/2-y,-z
1/2+x,1/2-y,z
loop_
_atom_site_type_symbol
_atom_site_label
_atom_site_fract_x
_atom_site_fract_y
_atom_site_fract_z
Si Si1 0.730637 0.874673 0.098298
Si Si2 0.519726 0.876364 0.414998
Si Si3 0.611758 0.124248 0.748096
Si Si4 0.649709 0.131661 0.414237
Si Si5 0.151720 0.214498 0.924421
Si Si6 0.704774 0.872007 0.639471
Si Si7 0.573565 0.628613 0.049357
Si Si8 0.676169 0.252341 0.234888
O O1 0.805290 0.866300 0.115964
O O2 0.713619 0.838401 0.194489
O O3 0.708030 0.000000 0.070294
O O4 0.695031 0.792157 0.010774
O O5 0.500000 0.812005 0.500000
O O6 0.461921 0.880038 0.312542
O O7 0.579738 0.822436 0.398678
O O8 0.542114 0.000000 0.457310
O O9 0.612448 0.204566 0.836907
O O10 0.652929 0.175351 0.684783
O O11 0.636384 0.000000 0.787048
O O12 0.693976 0.172755 0.526466
O O13 0.665018 0.193631 0.327183
O O14 0.653903 0.000000 0.399071
O O15 0.105140 0.143321 0.964233
O O16 0.775152 0.851942 0.717562
O O17 0.691025 0.000000 0.626245
O O18 0.577029 0.500000 0.080892
O O19 0.612314 0.700866 0.149188
O O20 0.500000 0.667180 0.000000
#
# Coordination Sequence:
#
# PCOD8081915 Si02
#       8
#     8   8   8   8   8   8   8   8
#     4  10  20  34  51  76 106 133 165 217 269 314
#     4   9  16  29  48  72 102 136 170 206 252 304
#     4  10  18  30  52  79 107 134 170 215 255 305
#     4  10  20  33  52  78 110 143 170 210 262 314
#     4  10  20  34  55  77  99 133 176 212 261 319
#     4  10  19  33  53  80 109 137 176 216 255 307
#     4  10  23  41  57  75 101 135 180 226 261 305
#     4  11  21  35  54  78 105 140 175 216 259 319
#
# _framework density 17.662659999999999
#
# number of rings (size 3 to 8) (size 9 to 14) (size 15 to 20)
#    0.000    2.000    2.500    1.875    1.750    0.000 
#    0.000    0.000    0.000    2.250    0.000    0.000 
#    0.000    5.000    0.000    0.000    0.000    0.000 
#
# Total GULP energy -396537.604190 kJ/mol
# GULP energy per Si atom -12391.800131 kJ/mol
# Density = 1.762246 g / cm^3
# Si number density = 17.662660 Si / 1000 Ang^3
#
#
#
# Elastic Constant Matrix: (Units=GPa)
#
#
# Indices 1 2 3 4 5 6 
#
# 1 100.3598 16.5357 34.2955 0.0000 6.7675 0.0000
# 2 16.5357 29.4372 -0.1581 0.0000 -4.3502 0.0000
# 3 34.2955 -0.1581 64.1773 0.0000 -5.8127 0.0000
# 4 0.0000 0.0000 0.0000 26.6587 0.0000 -2.7507
# 5 6.7675 -4.3502 -5.8127 0.0000 29.4181 0.0000
# 6 0.0000 0.0000 0.0000 -2.7507 0.0000 20.8425
#
#
#
# Elastic Compliance Matrix: (Units=1/GPa)
#
#
# Indices 1 2 3 4 5 6 
#
# 1 0.014868 -0.009357 -0.008556 0.000000 -0.006495 0.000000
# 2 -0.009357 0.040639 0.005946 0.000000 0.009337 0.000000
# 3 -0.008556 0.005946 0.020799 0.000000 0.006957 0.000000
# 4 0.000000 0.000000 0.000000 0.038029 0.000000 0.005019
# 5 -0.006495 0.009337 0.006957 0.000000 0.038242 0.000000
# 6 0.000000 0.000000 0.000000 0.005019 0.000000 0.048641
#
#
# Mechanical properties :
#
#
# Convention : Reuss Voigt Hill
#
# Bulk Modulus (GPa) = 19.09474 32.81339 25.95407
# Shear Modulus (GPa) = 20.60921 24.93728 22.77324
#
# Velocity S-wave (km/s) = 3.41959 3.76155 3.59464
# Velocity P-wave (km/s) = 5.14059 6.12241 5.65286
#
# Compressibility (1/GPa) = 0.05237043
#
# Stress axis : x y z
#
# Youngs Moduli (GPa) = 67.25929 24.60710 48.07899
#
# Poissons Ratio (x) = 0.23026 0.41139
# Poissons Ratio (y) = 0.62937 -0.28589
# Poissons Ratio (z) = 0.57550 -0.14632
#
# Static dielectric constant tensor:
#      x y z
#    x 3.530660 0.000000 -0.122630 
#    y 0.000000 3.126860 0.000000 
#    z -0.122630 0.000000 3.415430 
# 
# 
# High freq. dielectric constant tensor:
#      x y z
#    x 1.691250 0.000000 -0.004680 
#    y 0.000000 1.651210 0.000000 
#    z -0.004680 0.000000 1.689830 
# 
# From -- ./inp_files/175300.got.cif
#   From: 2010.06.25/outbox.cif.g09.slc.cpg/sg12_88_cif.got.tgz:175300.got - 2010.06.28 00:19:55.
