data_PCOD8081173
_publ_section_title
;
Structure prediction by ZEFSAII (Michael W. Deem and Ramdas Pophale) SiO2 
 PCOD8081173
Probable space group: C 2/M
;
_chemical_formula_sum "Si O2"
_cell_formula_units_Z 64
_cell_length_a 24.317294
_cell_length_b 8.972202
_cell_length_c 30.253102
_cell_angle_alpha 90.000000
_cell_angle_beta 33.028782
_cell_angle_gamma 90.000000
_cell_volume 3597.731284
_symmetry_space_group_name_H-M "C 2/M"
_symmetry_group_IT_number 12
_symmetry_cell_setting 'monoclinic'
loop_
_space_group_symop_operation_xyz
x,y,z
-x,y,-z
-x,-y,-z
x,-y,z
1/2+x,1/2+y,z
1/2-x,1/2+y,-z
1/2-x,1/2-y,-z
1/2+x,1/2-y,z
loop_
_atom_site_type_symbol
_atom_site_label
_atom_site_fract_x
_atom_site_fract_y
_atom_site_fract_z
Si Si1 0.051109 0.824744 0.863405
Si Si2 0.589266 0.824774 0.298547
Si Si3 0.352331 0.326838 0.051293
Si Si4 0.385802 0.326690 0.443905
Si Si5 0.807914 0.173558 0.398996
Si Si6 0.635341 0.829043 0.167816
Si Si7 0.523729 0.324527 0.781658
Si Si8 0.705140 0.176689 0.821422
O O1 0.037773 0.770889 0.822181
O O2 0.143133 0.731310 0.820871
O O3 0.074790 0.000000 0.850615
O O4 0.949558 0.783550 0.957803
O O5 0.487610 0.759697 0.388321
O O6 0.589832 0.787299 0.246172
O O7 0.683854 0.745867 0.257820
O O8 0.596651 0.000000 0.302452
O O9 0.351437 0.500000 0.066225
O O10 0.254391 0.291442 0.087438
O O11 0.352160 0.231154 0.095971
O O12 0.401053 0.500000 0.443200
O O13 0.295761 0.265153 0.535154
O O14 0.361280 0.293746 0.409490
O O15 0.881996 0.233445 0.310855
O O16 0.782314 0.000000 0.410836
O O17 0.581870 0.735039 0.165843
O O18 0.615458 0.000000 0.170123
O O19 0.517251 0.500000 0.782770
O O20 0.713077 0.000000 0.816609
#
# Coordination Sequence:
#
# PCOD8081173 Si02
#       8
#     8   8   8   8   8   8   8   8
#     4  10  21  37  55  73 100 140 180 213 257 312
#     4  10  19  33  54  78 106 138 170 209 262 313
#     4   9  19  36  55  76 102 135 173 216 263 312
#     4  10  18  29  50  79 108 136 171 212 255 300
#     4   9  18  31  47  73 109 141 171 207 251 305
#     4   9  18  31  49  74 104 136 169 208 257 308
#     4  10  20  34  52  74 104 142 177 211 251 306
#     4  11  22  35  54  79 104 130 171 223 266 302
#
# _framework density 17.788988
#
# number of rings (size 3 to 8) (size 9 to 14) (size 15 to 20)
#    0.000    2.250    1.250    3.000    0.000    6.000 
#    0.000    0.000    0.000    0.750    0.000    5.250 
#    0.000    0.000    0.000    0.000    0.000    0.000 
#
# Total GULP energy -396892.710916 kJ/mol
# GULP energy per Si atom -12402.897216 kJ/mol
# Density = 1.774850 g / cm^3
# Si number density = 17.788988 Si / 1000 Ang^3
#
#
#
# Elastic Constant Matrix: (Units=GPa)
#
#
# Indices 1 2 3 4 5 6 
#
# 1 113.4684 46.5168 43.2047 0.0002 -17.4803 0.0045
# 2 46.5168 69.9333 30.5268 -0.0008 -17.7520 -0.0116
# 3 43.2047 30.5268 71.1746 0.0012 -25.8135 0.0035
# 4 0.0002 -0.0008 0.0012 23.8582 0.0025 -7.2319
# 5 -17.4803 -17.7520 -25.8135 0.0025 19.9804 0.0005
# 6 0.0045 -0.0116 0.0035 -7.2319 0.0005 29.1187
#
#
#
# Elastic Compliance Matrix: (Units=1/GPa)
#
#
# Indices 1 2 3 4 5 6 
#
# 1 0.013654 -0.006964 -0.006046 -0.000001 -0.002053 -0.000004
# 2 -0.006964 0.022550 -0.000730 0.000003 0.013000 0.000011
# 3 -0.006046 -0.000730 0.029880 -0.000006 0.032666 -0.000005
# 4 -0.000001 0.000003 -0.000006 0.045327 -0.000013 0.011257
# 5 -0.002053 0.013000 0.032666 -0.000013 0.102005 -0.000003
# 6 -0.000004 0.000011 -0.000005 0.011257 -0.000003 0.037138
#
#
# Mechanical properties :
#
#
# Convention : Reuss Voigt Hill
#
# Bulk Modulus (GPa) = 25.90358 55.00810 40.45584
# Shear Modulus (GPa) = 17.18805 23.54668 20.36737
#
# Velocity S-wave (km/s) = 3.11178 3.64217 3.38737
# Velocity P-wave (km/s) = 5.24443 6.97688 6.17175
#
# Compressibility (1/GPa) = 0.03860470
#
# Stress axis : x y z
#
# Youngs Moduli (GPa) = 73.24033 44.34633 33.46725
#
# Poissons Ratio (x) = 0.30882 0.20234
# Poissons Ratio (y) = 0.51004 0.02442
# Poissons Ratio (z) = 0.44280 0.03236
#
# Static dielectric constant tensor:
#      x y z
#    x 3.158910 -0.000010 -0.118360 
#    y -0.000010 3.210240 0.000030 
#    z -0.118360 0.000030 3.401650 
# 
# 
# High freq. dielectric constant tensor:
#      x y z
#    x 1.667880 0.000000 -0.020010 
#    y 0.000000 1.686800 0.000000 
#    z -0.020010 0.000000 1.688680 
# 
# From -- ./inp_files/382259.got.cif
#   From: 2010.06.25/outbox.cif.g09.slc.cpg/sg12_192_cif.got.tgz:382259.got - 2010.06.28 00:19:55.
