data_PCOD8081899
_publ_section_title
;
Structure prediction by ZEFSAII (Michael W. Deem and Ramdas Pophale) SiO2 
 PCOD8081899
Probable space group: C 2/M
;
_chemical_formula_sum "Si O2"
_cell_formula_units_Z 56
_cell_length_a 20.953068
_cell_length_b 18.336775
_cell_length_c 15.204953
_cell_angle_alpha 90.000000
_cell_angle_beta 148.090489
_cell_angle_gamma 90.000000
_cell_volume 3087.918115
_symmetry_space_group_name_H-M "C 2/M"
_symmetry_group_IT_number 12
_symmetry_cell_setting 'monoclinic'
loop_
_space_group_symop_operation_xyz
x,y,z
-x,y,-z
-x,-y,-z
x,-y,z
1/2+x,1/2+y,z
1/2-x,1/2+y,-z
1/2-x,1/2-y,-z
1/2+x,1/2-y,z
loop_
_atom_site_type_symbol
_atom_site_label
_atom_site_fract_x
_atom_site_fract_y
_atom_site_fract_z
Si Si1 0.074882 0.152209 0.323636
Si Si2 0.281009 0.208791 0.903398
Si Si3 0.286079 0.131540 0.452106
Si Si4 0.848413 0.500000 0.215716
Si Si5 0.948306 0.310868 0.782858
Si Si6 0.193624 0.862011 0.974978
Si Si7 0.264140 0.289934 0.345959
Si Si8 0.378061 0.000000 0.457171
O O1 0.158962 0.112166 0.350590
O O2 0.059162 0.234065 0.273739
O O3 0.140912 0.155891 0.495688
O O4 0.945686 0.112170 0.179238
O O5 0.281833 0.293394 0.932827
O O6 0.212354 0.202903 0.730355
O O7 0.411694 0.172847 0.038349
O O8 0.213542 0.160707 0.897171
O O9 0.390330 0.130600 0.648330
O O10 0.284888 0.207321 0.399491
O O11 0.308530 0.070881 0.407005
O O12 0.780753 0.427958 0.102799
O O13 0.862381 0.500000 0.335600
O O14 0.986585 0.500000 0.344594
O O15 0.872955 0.311260 0.785919
#
# Coordination Sequence:
#
# PCOD8081899 Si02
#       8
#     8   8   8   4   8   8   8   4
#     4   8  17  32  50  72 101 134 165 202 249 294
#     4  10  18  30  52  77 100 132 175 210 243 296
#     4   9  17  32  51  75 104 131 163 205 251 297
#     4  11  24  39  51  71 106 135 161 204 253 301
#     4   8  15  29  49  74 103 130 160 207 256 286
#     4  10  21  35  49  72 105 139 168 202 253 300
#     4   9  16  29  52  78 101 126 166 216 251 285
#     4  11  22  35  55  76  96 132 170 195 242 306
#
# _framework density 18.135196000000001
#
# number of rings (size 3 to 8) (size 9 to 14) (size 15 to 20)
#    0.000    2.714    0.000    3.857    0.000    2.286 
#    0.000    2.857    0.000    5.143    0.000    9.000 
#    0.000    0.000    0.000    0.000    0.000    0.000 
#
# Total GULP energy -347030.798885 kJ/mol
# GULP energy per Si atom -12393.957103 kJ/mol
# Density = 1.809392 g / cm^3
# Si number density = 18.135196 Si / 1000 Ang^3
#
#
#
# Elastic Constant Matrix: (Units=GPa)
#
#
# Indices 1 2 3 4 5 6 
#
# 1 102.3505 26.2827 54.0614 0.0000 -2.6657 0.0000
# 2 26.2827 49.8426 24.3754 0.0000 7.2831 0.0000
# 3 54.0614 24.3754 93.7654 0.0000 6.0202 0.0000
# 4 0.0000 0.0000 0.0000 21.5632 0.0000 -5.0447
# 5 -2.6657 7.2831 6.0202 0.0000 34.5377 0.0000
# 6 0.0000 0.0000 0.0000 -5.0447 0.0000 51.5877
#
#
#
# Elastic Compliance Matrix: (Units=1/GPa)
#
#
# Indices 1 2 3 4 5 6 
#
# 1 0.015163 -0.004724 -0.007740 0.000000 0.003516 0.000000
# 2 -0.004724 0.024974 -0.003446 0.000000 -0.005031 0.000000
# 3 -0.007740 -0.003446 0.016196 0.000000 -0.002694 0.000000
# 4 0.000000 0.000000 0.000000 0.047461 0.000000 0.004641
# 5 0.003516 -0.005031 -0.002694 0.000000 0.030756 0.000000
# 6 0.000000 0.000000 0.000000 0.004641 0.000000 0.019838
#
#
# Mechanical properties :
#
#
# Convention : Reuss Voigt Hill
#
# Bulk Modulus (GPa) = 40.79299 50.59973 45.69636
# Shear Modulus (GPa) = 25.72268 30.95364 28.33816
#
# Velocity S-wave (km/s) = 3.77023 4.13586 3.95727
# Velocity P-wave (km/s) = 6.44170 7.12524 6.79208
#
# Compressibility (1/GPa) = 0.02451402
#
# Stress axis : x y z
#
# Youngs Moduli (GPa) = 65.94801 40.04088 61.74241
#
# Poissons Ratio (x) = 0.18916 0.47790
# Poissons Ratio (y) = 0.31156 0.21274
# Poissons Ratio (z) = 0.51045 0.13796
#
# Static dielectric constant tensor:
#      x y z
#    x 3.505060 0.000000 0.263000 
#    y 0.000000 2.949240 0.000000 
#    z 0.263000 0.000000 3.654860 
# 
# 
# High freq. dielectric constant tensor:
#      x y z
#    x 1.712320 0.000000 0.005840 
#    y 0.000000 1.660140 0.000000 
#    z 0.005840 0.000000 1.703960 
# 
# From -- ./inp_files/234750.got.cif
#   From: 2010.06.25/outbox.cif.g09.slc.cpg/sg12_118_cif.got.tgz:234750.got - 2010.06.28 00:19:55.
