data_PCOD8081143
_publ_section_title
;
Structure prediction by ZEFSAII (Michael W. Deem and Ramdas Pophale) SiO2 
 PCOD8081143
Probable space group: C 2/M
;
_chemical_formula_sum "Si O2"
_cell_formula_units_Z 60
_cell_length_a 24.531221
_cell_length_b 15.062791
_cell_length_c 20.108450
_cell_angle_alpha 90.000000
_cell_angle_beta 28.126639
_cell_angle_gamma 90.000000
_cell_volume 3502.781315
_symmetry_space_group_name_H-M "C 2/M"
_symmetry_group_IT_number 12
_symmetry_cell_setting 'monoclinic'
loop_
_space_group_symop_operation_xyz
x,y,z
-x,y,-z
-x,-y,-z
x,-y,z
1/2+x,1/2+y,z
1/2-x,1/2+y,-z
1/2-x,1/2-y,-z
1/2+x,1/2-y,z
loop_
_atom_site_type_symbol
_atom_site_label
_atom_site_fract_x
_atom_site_fract_y
_atom_site_fract_z
Si Si1 0.802760 0.731221 0.797014
Si Si2 0.138819 0.599073 0.799929
Si Si3 0.000000 0.196789 0.500000
Si Si4 0.946042 0.218303 0.767648
Si Si5 0.296629 0.597452 0.010853
Si Si6 0.902729 0.352100 0.012754
Si Si7 0.894109 0.104480 0.489018
Si Si8 0.085298 0.595090 0.146839
O O1 0.897548 0.738872 0.636592
O O2 0.850084 0.780409 0.812397
O O3 0.776624 0.629287 0.845545
O O4 0.677838 0.766334 0.908463
O O5 0.105251 0.500000 0.811819
O O6 0.259150 0.628024 0.637991
O O7 0.038550 0.667553 0.883882
O O8 0.150462 0.594616 0.867506
O O9 0.044096 0.131505 0.509388
O O10 0.982662 0.318435 0.751249
O O11 0.057650 0.163910 0.623189
O O12 0.897070 0.167848 0.885222
O O13 0.348585 0.500000 0.969710
O O14 0.214565 0.595023 0.035416
O O15 0.900862 0.407116 0.947183
O O16 0.916273 0.000000 0.452323
O O17 0.025182 0.500000 0.231778
#
# Coordination Sequence:
#
# PCOD8081143 Si02
#       8
#     8   8   4   8   8   8   8   8
#     4  10  18  31  50  73 100 128 160 202 243 295
#     4  10  21  32  45  73 102 127 164 202 236 293
#     4  10  19  32  49  70 102 130 157 196 251 298
#     4  10  18  32  47  75 104 127 160 205 242 289
#     4  10  18  30  49  75 101 129 164 203 242 285
#     4  11  17  32  50  70  99 129 161 197 244 282
#     4  10  20  32  46  70 103 135 159 193 246 296
#     4  10  18  29  50  74  99 130 163 200 245 290
#
# _framework density 17.129245000000001
#
# number of rings (size 3 to 8) (size 9 to 14) (size 15 to 20)
#    0.000    1.867    4.000    3.000    0.000    0.000 
#    0.000    1.000    0.000    0.800    0.000    1.867 
#    0.000    0.000    0.000    0.000    0.000    0.000 
#
# Total GULP energy -371646.685212 kJ/mol
# GULP energy per Si atom -12388.222840 kJ/mol
# Density = 1.709026 g / cm^3
# Si number density = 17.129245 Si / 1000 Ang^3
#
#
#
# Elastic Constant Matrix: (Units=GPa)
#
#
# Indices 1 2 3 4 5 6 
#
# 1 58.2873 32.7735 33.3670 0.0000 -0.3322 0.0000
# 2 32.7735 122.8744 69.6490 0.0000 11.2218 0.0000
# 3 33.3670 69.6490 116.9223 0.0000 6.1260 0.0000
# 4 0.0000 0.0000 0.0000 16.2942 0.0000 3.8561
# 5 -0.3322 11.2218 6.1260 0.0000 21.3488 0.0000
# 6 0.0000 0.0000 0.0000 3.8561 0.0000 13.2761
#
#
#
# Elastic Compliance Matrix: (Units=1/GPa)
#
#
# Indices 1 2 3 4 5 6 
#
# 1 0.021649 -0.003756 -0.004124 0.000000 0.003494 0.000000
# 2 -0.003756 0.013365 -0.006618 0.000000 -0.005185 0.000000
# 3 -0.004124 -0.006618 0.013699 0.000000 -0.000516 0.000000
# 4 0.000000 0.000000 0.000000 0.065901 0.000000 -0.019141
# 5 0.003494 -0.005185 -0.000516 0.000000 0.049769 0.000000
# 6 0.000000 0.000000 0.000000 -0.019141 0.000000 0.080883
#
#
# Mechanical properties :
#
#
# Convention : Reuss Voigt Hill
#
# Bulk Modulus (GPa) = 50.71658 63.29589 57.00624
# Shear Modulus (GPa) = 17.80417 21.00345 19.40381
#
# Velocity S-wave (km/s) = 3.22747 3.50548 3.36934
# Velocity P-wave (km/s) = 6.60009 7.30867 6.96340
#
# Compressibility (1/GPa) = 0.01971742
#
# Stress axis : x y z
#
# Youngs Moduli (GPa) = 46.19175 74.82330 72.99950
#
# Poissons Ratio (x) = 0.28103 0.30104
# Poissons Ratio (y) = 0.17349 0.48309
# Poissons Ratio (z) = 0.19049 0.49516
#
# Static dielectric constant tensor:
#      x y z
#    x 3.084750 0.000000 0.085340 
#    y 0.000000 3.226840 0.000000 
#    z 0.085340 0.000000 3.249170 
# 
# 
# High freq. dielectric constant tensor:
#      x y z
#    x 1.641570 0.000000 0.009450 
#    y 0.000000 1.644160 0.000000 
#    z 0.009450 0.000000 1.651450 
# 
# From -- ./inp_files/325518.got.cif
#   From: 2010.06.25/outbox.cif.g09.slc.cpg/sg12_163_cif.got.tgz:325518.got - 2010.06.28 00:19:55.
