data_PCOD8081878
_publ_section_title
;
Structure prediction by ZEFSAII (Michael W. Deem and Ramdas Pophale) SiO2 
 PCOD8081878
Probable space group: C 2/M
;
_chemical_formula_sum "Si O2"
_cell_formula_units_Z 64
_cell_length_a 22.115225
_cell_length_b 15.707878
_cell_length_c 15.159011
_cell_angle_alpha 90.000000
_cell_angle_beta 140.739430
_cell_angle_gamma 90.000000
_cell_volume 3332.570031
_symmetry_space_group_name_H-M "C 2/M"
_symmetry_group_IT_number 12
_symmetry_cell_setting 'monoclinic'
loop_
_space_group_symop_operation_xyz
x,y,z
-x,y,-z
-x,-y,-z
x,-y,z
1/2+x,1/2+y,z
1/2-x,1/2+y,-z
1/2-x,1/2-y,-z
1/2+x,1/2-y,z
loop_
_atom_site_type_symbol
_atom_site_label
_atom_site_fract_x
_atom_site_fract_y
_atom_site_fract_z
Si Si1 0.671476 0.097830 0.426677
Si Si2 0.955063 0.095223 0.820737
Si Si3 0.453663 0.748754 0.686338
Si Si4 0.783149 0.163492 0.717261
Si Si5 0.608370 0.597379 0.646144
Si Si6 0.168884 0.093457 0.059013
Si Si7 0.656337 0.697204 0.873946
Si Si8 0.706684 0.665706 0.592646
O O1 0.582151 0.162410 0.309795
O O2 0.711607 0.115524 0.569617
O O3 0.754643 0.113735 0.448064
O O4 0.636335 0.000000 0.379722
O O5 0.937769 0.166222 0.727778
O O6 0.886190 0.120518 0.822536
O O7 0.929631 0.000000 0.755190
O O8 0.062113 0.095690 0.977902
O O9 0.564154 0.758301 0.783726
O O10 0.386158 0.725354 0.527858
O O11 0.761127 0.147298 0.796827
O O12 0.787964 0.265316 0.709697
O O13 0.500000 0.624949 0.500000
O O14 0.608553 0.500000 0.679241
O O15 0.651327 0.657123 0.771038
O O16 0.678975 0.603769 0.641581
O O17 0.213143 0.000000 0.107221
O O18 0.160173 0.122321 0.948722
O O19 0.750000 0.750000 0.000000
#
# Coordination Sequence:
#
# PCOD8081878 Si02
#       8
#     8   8   8   8   8   8   8   8
#     4  11  21  35  58  88 123 160 198 241 301 371
#     4  10  18  30  51  81 116 147 179 230 295 358
#     4  10  20  37  56  86 120 151 197 245 302 361
#     4  11  19  32  53  84 121 153 188 234 292 367
#     4  11  23  39  63  93 121 157 207 264 317 365
#     4  10  21  34  53  82 114 148 191 244 303 360
#     4  11  23  42  62  84 114 163 207 254 307 366
#     4  11  20  36  58  87 121 159 196 246 305 367
#
# _framework density 19.204398000000001
#
# number of rings (size 3 to 8) (size 9 to 14) (size 15 to 20)
#    0.000    1.375    3.750    3.750    0.000    2.000 
#    0.000    1.250    0.000    0.000    0.000    7.875 
#    0.000    0.000    0.000    0.000    0.000    0.000 
#
# Total GULP energy -396487.924652 kJ/mol
# GULP energy per Si atom -12390.247645 kJ/mol
# Density = 1.916069 g / cm^3
# Si number density = 19.204398 Si / 1000 Ang^3
#
#
#
# Elastic Constant Matrix: (Units=GPa)
#
#
# Indices 1 2 3 4 5 6 
#
# 1 74.5655 34.7872 42.2638 0.0000 4.7685 0.0000
# 2 34.7872 118.7467 39.8054 0.0000 4.1894 0.0000
# 3 42.2638 39.8054 86.5412 0.0000 -9.2496 0.0000
# 4 0.0000 0.0000 0.0000 26.6744 0.0000 0.0360
# 5 4.7685 4.1894 -9.2496 0.0000 27.8370 0.0000
# 6 0.0000 0.0000 0.0000 0.0360 0.0000 20.8484
#
#
#
# Elastic Compliance Matrix: (Units=1/GPa)
#
#
# Indices 1 2 3 4 5 6 
#
# 1 0.020352 -0.002587 -0.009415 0.000000 -0.006226 0.000000
# 2 -0.002587 0.010556 -0.003851 0.000000 -0.002425 0.000000
# 3 -0.009415 -0.003851 0.018828 0.000000 0.008448 0.000000
# 4 0.000000 0.000000 0.000000 0.037489 0.000000 -0.000065
# 5 -0.006226 -0.002425 0.008448 0.000000 0.040162 0.000000
# 6 0.000000 0.000000 0.000000 -0.000065 0.000000 0.047965
#
#
# Mechanical properties :
#
#
# Convention : Reuss Voigt Hill
#
# Bulk Modulus (GPa) = 55.46354 57.06292 56.26323
# Shear Modulus (GPa) = 23.46674 25.93843 24.70259
#
# Velocity S-wave (km/s) = 3.49943 3.67911 3.59039
# Velocity P-wave (km/s) = 6.72840 6.91562 6.82265
#
# Compressibility (1/GPa) = 0.01802986
#
# Stress axis : x y z
#
# Youngs Moduli (GPa) = 49.13437 94.73698 53.11377
#
# Poissons Ratio (x) = 0.24505 0.50007
# Poissons Ratio (y) = 0.12709 0.20455
# Poissons Ratio (z) = 0.46260 0.36484
#
# Static dielectric constant tensor:
#      x y z
#    x 4.244540 0.000000 -0.087420 
#    y 0.000000 4.201790 0.000000 
#    z -0.087420 0.000000 3.469970 
# 
# 
# High freq. dielectric constant tensor:
#      x y z
#    x 1.733200 0.000000 -0.013740 
#    y 0.000000 1.745370 0.000000 
#    z -0.013740 0.000000 1.741390 
# 
# From -- ./inp_files/240716.got.cif
#   From: 2010.06.25/outbox.cif.g09.slc.cpg/sg12_121_cif.got.tgz:240716.got - 2010.06.28 00:19:55.
