data_PCOD8081916
_publ_section_title
;
Structure prediction by ZEFSAII (Michael W. Deem and Ramdas Pophale) SiO2 
 PCOD8081916
Probable space group: C 2/M
;
_chemical_formula_sum "Si O2"
_cell_formula_units_Z 56
_cell_length_a 19.866273
_cell_length_b 9.253354
_cell_length_c 17.372597
_cell_angle_alpha 90.000000
_cell_angle_beta 80.564335
_cell_angle_gamma 90.000000
_cell_volume 3150.390128
_symmetry_space_group_name_H-M "C 2/M"
_symmetry_group_IT_number 12
_symmetry_cell_setting 'monoclinic'
loop_
_space_group_symop_operation_xyz
x,y,z
-x,y,-z
-x,-y,-z
x,-y,z
1/2+x,1/2+y,z
1/2-x,1/2+y,-z
1/2-x,1/2-y,-z
1/2+x,1/2-y,z
loop_
_atom_site_type_symbol
_atom_site_label
_atom_site_fract_x
_atom_site_fract_y
_atom_site_fract_z
Si Si1 0.429968 0.671450 0.541774
Si Si2 0.578316 0.829795 0.996485
Si Si3 0.844455 0.669676 0.863043
Si Si4 0.186705 0.167003 0.543936
Si Si5 0.357683 0.670643 0.707567
Si Si6 0.811536 0.164938 0.121313
Si Si7 0.224162 0.836445 0.703019
O O1 0.500000 0.742220 0.500000
O O2 0.432700 0.500000 0.535751
O O3 0.376742 0.732745 0.489878
O O4 0.413194 0.715747 0.632785
O O5 0.607889 0.786670 0.074412
O O6 0.581119 0.000000 0.983127
O O7 0.500000 0.774463 0.000000
O O8 0.628687 0.760520 0.925147
O O9 0.846921 0.500000 0.845278
O O10 0.876210 0.752119 0.784126
O O11 0.764870 0.715605 0.890795
O O12 0.250000 0.250000 0.500000
O O13 0.176727 0.190731 0.637552
O O14 0.196989 0.000000 0.522021
O O15 0.355314 0.500000 0.721705
O O16 0.285011 0.722085 0.689349
O O17 0.819913 0.184136 0.211525
O O18 0.823005 0.000000 0.093214
O O19 0.254448 0.000000 0.696312
#
# Coordination Sequence:
#
# PCOD8081916 Si02
#       7
#     8   8   8   8   8   8   8
#     4   9  18  32  48  72 105 137 171 211 251 295
#     4  10  21  37  55  76 104 138 168 200 253 310
#     4   9  19  36  56  76 102 134 168 208 255 305
#     4  10  18  31  53  75 101 137 173 210 253 298
#     4  10  18  30  52  80 102 129 173 215 252 296
#     4   9  18  33  53  78 103 131 170 211 250 295
#     4   9  18  32  51  77 105 135 167 208 261 303
#
# _framework density 17.775576000000001
#
# number of rings (size 3 to 8) (size 9 to 14) (size 15 to 20)
#    0.000    2.571    1.429    1.714    0.000    3.143 
#    2.571    0.000    0.000    3.857    0.000    0.000 
#    0.000    0.000    0.000    0.000    0.000    0.000 
#
# Total GULP energy -347058.585919 kJ/mol
# GULP energy per Si atom -12394.949497 kJ/mol
# Density = 1.773512 g / cm^3
# Si number density = 17.775576 Si / 1000 Ang^3
#
#
#
# Elastic Constant Matrix: (Units=GPa)
#
#
# Indices 1 2 3 4 5 6 
#
# 1 134.2386 32.9233 86.7871 0.0000 -1.7557 0.0000
# 2 32.9233 40.7407 45.8295 0.0000 -4.7842 0.0000
# 3 86.7871 45.8295 147.4940 0.0000 -0.5963 0.0000
# 4 0.0000 0.0000 0.0000 27.9896 0.0000 -1.7712
# 5 -1.7557 -4.7842 -0.5963 0.0000 28.6594 0.0000
# 6 0.0000 0.0000 0.0000 -1.7712 0.0000 19.7645
#
#
#
# Elastic Compliance Matrix: (Units=1/GPa)
#
#
# Indices 1 2 3 4 5 6 
#
# 1 0.012221 -0.002719 -0.006345 0.000000 0.000163 0.000000
# 2 -0.002719 0.039421 -0.010624 0.000000 0.006193 0.000000
# 3 -0.006345 -0.010624 0.013807 0.000000 -0.001875 0.000000
# 4 0.000000 0.000000 0.000000 0.035931 0.000000 0.003220
# 5 0.000163 0.006193 -0.001875 0.000000 0.035897 0.000000
# 6 0.000000 0.000000 0.000000 0.003220 0.000000 0.050884
#
#
# Mechanical properties :
#
#
# Convention : Reuss Voigt Hill
#
# Bulk Modulus (GPa) = 38.35474 72.61701 55.48587
# Shear Modulus (GPa) = 21.16587 25.74493 23.45540
#
# Velocity S-wave (km/s) = 3.45444 3.80982 3.63647
# Velocity P-wave (km/s) = 6.12657 7.76491 6.99388
#
# Compressibility (1/GPa) = 0.02607240
#
# Stress axis : x y z
#
# Youngs Moduli (GPa) = 81.82817 25.36716 72.42571
#
# Poissons Ratio (x) = 0.06896 0.45957
# Poissons Ratio (y) = 0.22246 0.76947
# Poissons Ratio (z) = 0.51923 0.26951
#
# Static dielectric constant tensor:
#      x y z
#    x 3.280160 0.000000 0.041030 
#    y 0.000000 3.158270 0.000000 
#    z 0.041030 0.000000 3.461970 
# 
# 
# High freq. dielectric constant tensor:
#      x y z
#    x 1.669090 0.000000 0.008510 
#    y 0.000000 1.672170 0.000000 
#    z 0.008510 0.000000 1.702520 
# 
# From -- ./inp_files/280187.got.cif
#   From: 2010.06.25/outbox.cif.g09.slc.cpg/sg12_141_cif.got.tgz:280187.got - 2010.06.28 00:19:55.
