data_PCOD8081019
_publ_section_title
;
Structure prediction by ZEFSAII (Michael W. Deem and Ramdas Pophale) SiO2 
 PCOD8081019
Probable space group: C 2/M
;
_chemical_formula_sum "Si O2"
_cell_formula_units_Z 40
_cell_length_a 24.413768
_cell_length_b 8.636701
_cell_length_c 12.213517
_cell_angle_alpha 90.000000
_cell_angle_beta 118.599302
_cell_angle_gamma 90.000000
_cell_volume 2261.061726
_symmetry_space_group_name_H-M "C 2/M"
_symmetry_group_IT_number 12
_symmetry_cell_setting 'monoclinic'
loop_
_space_group_symop_operation_xyz
x,y,z
-x,y,-z
-x,-y,-z
x,-y,z
1/2+x,1/2+y,z
1/2-x,1/2+y,-z
1/2-x,1/2-y,-z
1/2+x,1/2-y,z
loop_
_atom_site_type_symbol
_atom_site_label
_atom_site_fract_x
_atom_site_fract_y
_atom_site_fract_z
Si Si1 0.500570 0.319349 0.837366
Si Si2 0.030200 0.320151 0.416466
Si Si3 0.700229 0.322344 0.299861
Si Si4 0.668644 0.178045 0.494323
Si Si5 0.592658 0.180015 0.082895
O O1 0.487975 0.500000 0.842364
O O2 0.501059 0.277362 0.710413
O O3 0.446251 0.223433 0.845622
O O4 0.567132 0.274075 0.953887
O O5 0.015342 0.500000 0.381892
O O6 0.104304 0.289807 0.495530
O O7 0.000000 0.260924 0.500000
O O8 0.686886 0.500000 0.260189
O O9 0.672467 0.287332 0.392982
O O10 0.774152 0.284084 0.368377
O O11 0.665034 0.221744 0.173765
O O12 0.673472 0.000000 0.458800
O O13 0.585533 0.000000 0.051362
#
# Coordination Sequence:
#
# PCOD8081019 Si02
#       5
#     8   8   8   8   8
#     4  11  21  33  50  75 103 132 169 211 255 301
#     4  10  20  35  54  75 103 139 174 207 245 299
#     4  10  18  29  48  75 104 133 164 208 255 301
#     4   9  18  31  48  72 103 136 169 204 251 303
#     4  11  20  32  51  74 103 135 165 207 260 310
#
# _framework density 17.690804
#
# number of rings (size 3 to 8) (size 9 to 14) (size 15 to 20)
#    0.000    1.800    2.000    5.400    0.000    1.200 
#    0.000    0.000    0.000    1.200    0.000    0.000 
#    0.000    0.000    0.000    0.000    0.000    0.000 
#
# Total GULP energy -248033.450705 kJ/mol
# GULP energy per Si atom -12401.672535 kJ/mol
# Density = 1.765054 g / cm^3
# Si number density = 17.690804 Si / 1000 Ang^3
#
#
#
# Elastic Constant Matrix: (Units=GPa)
#
#
# Indices 1 2 3 4 5 6 
#
# 1 86.0650 18.4767 51.1137 0.0000 7.0650 0.0000
# 2 18.4767 67.9264 29.3777 0.0000 3.9530 0.0000
# 3 51.1137 29.3777 119.7986 0.0000 15.8850 0.0000
# 4 0.0000 0.0000 0.0000 29.9301 0.0000 4.9564
# 5 7.0650 3.9530 15.8850 0.0000 29.5422 0.0000
# 6 0.0000 0.0000 0.0000 4.9564 0.0000 16.3179
#
#
#
# Elastic Compliance Matrix: (Units=1/GPa)
#
#
# Indices 1 2 3 4 5 6 
#
# 1 0.015705 -0.001537 -0.006303 0.000000 -0.000161 0.000000
# 2 -0.001537 0.016619 -0.003417 0.000000 -0.000019 0.000000
# 3 -0.006303 -0.003417 0.012506 0.000000 -0.004760 0.000000
# 4 0.000000 0.000000 0.000000 0.035181 0.000000 -0.010686
# 5 -0.000161 -0.000019 -0.004760 0.000000 0.036450 0.000000
# 6 0.000000 0.000000 0.000000 -0.010686 0.000000 0.064528
#
#
# Mechanical properties :
#
#
# Convention : Reuss Voigt Hill
#
# Bulk Modulus (GPa) = 44.80981 52.41403 48.61192
# Shear Modulus (GPa) = 23.70331 26.81285 25.25808
#
# Velocity S-wave (km/s) = 3.66439 3.89734 3.78266
# Velocity P-wave (km/s) = 6.57937 7.06714 6.82761
#
# Compressibility (1/GPa) = 0.02231654
#
# Stress axis : x y z
#
# Youngs Moduli (GPa) = 63.67229 60.17261 79.96431
#
# Poissons Ratio (x) = 0.09247 0.50399
# Poissons Ratio (y) = 0.09785 0.27325
# Poissons Ratio (z) = 0.40131 0.20562
#
# Static dielectric constant tensor:
#      x y z
#    x 3.105530 0.000000 0.359400 
#    y 0.000000 3.309780 0.000000 
#    z 0.359400 0.000000 3.420870 
# 
# 
# High freq. dielectric constant tensor:
#      x y z
#    x 1.644650 0.000000 0.034550 
#    y 0.000000 1.691810 0.000000 
#    z 0.034550 0.000000 1.684780 
# 
# From -- ./inp_files/172570.got.cif
#   From: 2010.06.25/outbox.cif.g09.slc.cpg/sg12_87_cif.got.tgz:172570.got - 2010.06.28 00:19:55.
