data_PCOD8081657
_publ_section_title
;
Structure prediction by ZEFSAII (Michael W. Deem and Ramdas Pophale) SiO2 
 PCOD8081657
Probable space group: C 2/M
;
_chemical_formula_sum "Si O2"
_cell_formula_units_Z 56
_cell_length_a 26.528710
_cell_length_b 9.269786
_cell_length_c 14.044346
_cell_angle_alpha 90.000000
_cell_angle_beta 60.971693
_cell_angle_gamma 90.000000
_cell_volume 3019.865606
_symmetry_space_group_name_H-M "C 2/M"
_symmetry_group_IT_number 12
_symmetry_cell_setting 'monoclinic'
loop_
_space_group_symop_operation_xyz
x,y,z
-x,y,-z
-x,-y,-z
x,-y,z
1/2+x,1/2+y,z
1/2-x,1/2+y,-z
1/2-x,1/2-y,-z
1/2+x,1/2-y,z
loop_
_atom_site_type_symbol
_atom_site_label
_atom_site_fract_x
_atom_site_fract_y
_atom_site_fract_z
Si Si1 0.619875 0.666305 0.311506
Si Si2 0.931259 0.328700 0.468263
Si Si3 0.969548 0.171452 0.122003
Si Si4 0.165827 0.161109 0.533062
Si Si5 0.762122 0.162628 0.717866
Si Si6 0.339057 0.664063 0.249224
Si Si7 0.977701 0.833468 0.729631
O O1 0.617180 0.500000 0.349769
O O2 0.582965 0.764449 0.415957
O O3 0.687323 0.714244 0.254949
O O4 0.591063 0.681041 0.232635
O O5 0.935603 0.500000 0.471133
O O6 0.882615 0.281629 0.437816
O O7 0.991220 0.264093 0.377361
O O8 0.903843 0.229765 0.187438
O O9 0.007232 0.223443 0.178439
O O10 0.968792 0.000000 0.119798
O O11 0.000000 0.235187 0.000000
O O12 0.216606 0.180353 0.410544
O O13 0.188051 0.179988 0.620294
O O14 0.138570 0.000000 0.547839
O O15 0.704055 0.255490 0.783981
O O16 0.744292 0.000000 0.756970
O O17 0.341077 0.500000 0.212812
O O18 0.997282 0.000000 0.701175
#
# Coordination Sequence:
#
# PCOD8081657 Si02
#       7
#     8   8   8   8   8   8   8
#     4   9  19  33  49  69  97 137 174 198 232 291
#     4  11  20  28  44  73 106 134 164 202 246 293
#     4   9  18  33  55  80  98 118 162 219 259 289
#     4   9  17  31  47  67  98 135 173 202 233 291
#     4   9  18  30  45  69 100 130 166 202 234 288
#     4  10  18  30  50  72  97 128 163 204 251 294
#     4  10  18  33  54  70  94 132 168 206 249 292
#
# _framework density 18.543870999999999
#
# number of rings (size 3 to 8) (size 9 to 14) (size 15 to 20)
#    0.000    2.429    1.429    3.000    0.000    5.143 
#    0.000    0.000    0.000    2.571    0.000    0.000 
#    0.000    0.000    0.000    0.000    0.000    0.286 
#
# Total GULP energy -346951.773469 kJ/mol
# GULP energy per Si atom -12391.134767 kJ/mol
# Density = 1.850166 g / cm^3
# Si number density = 18.543871 Si / 1000 Ang^3
#
#
#
# Elastic Constant Matrix: (Units=GPa)
#
#
# Indices 1 2 3 4 5 6 
#
# 1 175.2727 45.7867 52.0278 0.0000 5.2934 0.0000
# 2 45.7867 66.1002 18.0325 0.0000 1.5022 0.0000
# 3 52.0278 18.0325 43.0108 0.0000 0.1812 0.0000
# 4 0.0000 0.0000 0.0000 6.6856 0.0000 -4.5645
# 5 5.2934 1.5022 0.1812 0.0000 12.4285 0.0000
# 6 0.0000 0.0000 0.0000 -4.5645 0.0000 26.7598
#
#
#
# Elastic Compliance Matrix: (Units=1/GPa)
#
#
# Indices 1 2 3 4 5 6 
#
# 1 0.009912 -0.003972 -0.010309 0.000000 -0.003591 0.000000
# 2 -0.003972 0.018722 -0.003043 0.000000 -0.000527 0.000000
# 3 -0.010309 -0.003043 0.036978 0.000000 0.004219 0.000000
# 4 0.000000 0.000000 0.000000 0.169288 0.000000 0.028876
# 5 -0.003591 -0.000527 0.004219 0.000000 0.081992 0.000000
# 6 0.000000 0.000000 0.000000 0.028876 0.000000 0.042295
#
#
# Mechanical properties :
#
#
# Convention : Reuss Voigt Hill
#
# Bulk Modulus (GPa) = 32.29501 57.34195 44.81848
# Shear Modulus (GPa) = 12.37148 20.41056 16.39102
#
# Velocity S-wave (km/s) = 2.58572 3.32122 2.97628
# Velocity P-wave (km/s) = 5.13497 6.75994 6.00269
#
# Compressibility (1/GPa) = 0.03096454
#
# Stress axis : x y z
#
# Youngs Moduli (GPa) = 100.89267 53.41410 27.04284
#
# Poissons Ratio (x) = 0.21214 0.27879
# Poissons Ratio (y) = 0.40070 0.08228
# Poissons Ratio (z) = 1.04012 0.16252
#
# Static dielectric constant tensor:
#      x y z
#    x 3.594610 0.000000 0.062750 
#    y 0.000000 3.173040 0.000000 
#    z 0.062750 0.000000 3.058360 
# 
# 
# High freq. dielectric constant tensor:
#      x y z
#    x 1.738020 0.000000 0.002320 
#    y 0.000000 1.692650 0.000000 
#    z 0.002320 0.000000 1.662230 
# 
# From -- ./inp_files/243615.got.cif
#   From: 2010.06.25/outbox.cif.g09.slc.cpg/sg12_122_cif.got.tgz:243615.got - 2010.06.28 00:19:55.
