data_PCOD8081889
_publ_section_title
;
Structure prediction by ZEFSAII (Michael W. Deem and Ramdas Pophale) SiO2 
 PCOD8081889
Probable space group: C 2/M
;
_chemical_formula_sum "Si O2"
_cell_formula_units_Z 64
_cell_length_a 18.810920
_cell_length_b 9.279835
_cell_length_c 24.109734
_cell_angle_alpha 90.000000
_cell_angle_beta 57.925905
_cell_angle_gamma 90.000000
_cell_volume 3566.249652
_symmetry_space_group_name_H-M "C 2/M"
_symmetry_group_IT_number 12
_symmetry_cell_setting 'monoclinic'
loop_
_space_group_symop_operation_xyz
x,y,z
-x,y,-z
-x,-y,-z
x,-y,z
1/2+x,1/2+y,z
1/2-x,1/2+y,-z
1/2-x,1/2-y,-z
1/2+x,1/2-y,z
loop_
_atom_site_type_symbol
_atom_site_label
_atom_site_fract_x
_atom_site_fract_y
_atom_site_fract_z
Si Si1 0.216083 0.171981 0.683785
Si Si2 0.491084 0.660695 0.339198
Si Si3 0.765402 0.330923 0.869319
Si Si4 0.588617 0.668237 0.983643
Si Si5 0.536854 0.338806 0.777561
Si Si6 0.879717 0.827455 0.906212
Si Si7 0.653938 0.170551 0.279757
Si Si8 0.697685 0.330088 0.567817
O O1 0.127881 0.238037 0.743088
O O2 0.289067 0.227943 0.693369
O O3 0.231538 0.221556 0.614027
O O4 0.207276 0.000000 0.687583
O O5 0.509811 0.500000 0.353797
O O6 0.494934 0.660532 0.271779
O O7 0.562333 0.768153 0.330951
O O8 0.400137 0.712679 0.398202
O O9 0.782559 0.500000 0.871053
O O10 0.664749 0.300762 0.909082
O O11 0.802706 0.245705 0.906110
O O12 0.806526 0.275648 0.794804
O O13 0.572239 0.500000 0.997395
O O14 0.500000 0.739127 0.000000
O O15 0.618327 0.726514 0.031256
O O16 0.546803 0.500000 0.796598
O O17 0.465965 0.263746 0.844123
O O18 0.871184 0.000000 0.903238
O O19 0.648365 0.000000 0.282359
O O20 0.709307 0.500000 0.555892
O O21 0.750000 0.250000 0.500000
#
# Coordination Sequence:
#
# PCOD8081889 Si02
#       8
#     8   8   8   8   8   8   8   8
#     4   8  16  30  48  72 100 127 161 201 241 282
#     4   9  17  32  51  73 101 129 161 198 236 287
#     4  10  20  32  47  71 102 130 159 206 256 292
#     4   9  19  32  47  72  99 124 165 214 252 290
#     4   8  14  26  47  71  90 120 165 203 231 276
#     4  10  18  30  52  72  91 128 170 201 242 301
#     4  10  19  30  49  75 101 129 161 204 253 288
#     4   9  18  34  56  77  99 130 165 200 236 282
#
# _framework density 17.946024000000001
#
# number of rings (size 3 to 8) (size 9 to 14) (size 15 to 20)
#    0.000    2.875    1.250    1.875    1.750    0.500 
#    0.000    1.250    0.000    6.750    0.000    0.000 
#    0.000    0.000    0.000    0.000    0.000    0.000 
#
# Total GULP energy -396570.453928 kJ/mol
# GULP energy per Si atom -12392.826685 kJ/mol
# Density = 1.790518 g / cm^3
# Si number density = 17.946024 Si / 1000 Ang^3
#
#
#
# Elastic Constant Matrix: (Units=GPa)
#
#
# Indices 1 2 3 4 5 6 
#
# 1 143.5505 32.9419 57.5199 0.0001 -4.5487 0.0002
# 2 32.9419 23.6436 23.3682 0.0002 -3.3769 0.0002
# 3 57.5199 23.3682 104.4452 0.0000 -14.8396 0.0000
# 4 0.0001 0.0002 0.0000 21.0603 0.0000 -1.9846
# 5 -4.5487 -3.3769 -14.8396 0.0000 25.3090 0.0001
# 6 0.0002 0.0002 0.0000 -1.9846 0.0001 23.9010
#
#
#
# Elastic Compliance Matrix: (Units=1/GPa)
#
#
# Indices 1 2 3 4 5 6 
#
# 1 0.011185 -0.012197 -0.003683 0.000000 -0.001777 0.000000
# 2 -0.012197 0.067604 -0.008114 -0.000001 0.002070 0.000000
# 3 -0.003683 -0.008114 0.014367 0.000000 0.006679 0.000000
# 4 0.000000 -0.000001 0.000000 0.047857 0.000000 0.003974
# 5 -0.001777 0.002070 0.006679 0.000000 0.043385 0.000000
# 6 0.000000 0.000000 0.000000 0.003974 0.000000 0.042169
#
#
# Mechanical properties :
#
#
# Convention : Reuss Voigt Hill
#
# Bulk Modulus (GPa) = 22.13998 55.47770 38.80884
# Shear Modulus (GPa) = 17.26455 24.57467 20.91961
#
# Velocity S-wave (km/s) = 3.10502 3.70451 3.41793
# Velocity P-wave (km/s) = 5.02182 7.01987 6.10316
#
# Compressibility (1/GPa) = 0.04516716
#
# Stress axis : x y z
#
# Youngs Moduli (GPa) = 89.40863 14.79212 69.60265
#
# Poissons Ratio (x) = 0.18041 0.25636
# Poissons Ratio (y) = 1.09049 0.56478
# Poissons Ratio (z) = 0.32931 0.12003
#
# Static dielectric constant tensor:
#      x y z
#    x 3.484000 0.000000 -0.080110 
#    y 0.000000 2.872640 0.000000 
#    z -0.080110 0.000000 3.353290 
# 
# 
# High freq. dielectric constant tensor:
#      x y z
#    x 1.700550 0.000000 -0.011080 
#    y 0.000000 1.643190 0.000000 
#    z -0.011080 0.000000 1.694820 
# 
# From -- ./inp_files/339319.got.cif
#   From: 2010.06.25/outbox.cif.g09.slc.cpg/sg12_170_cif.got.tgz:339319.got - 2010.06.28 00:19:55.
