data_PCOD8081790
_publ_section_title
;
Structure prediction by ZEFSAII (Michael W. Deem and Ramdas Pophale) SiO2 
 PCOD8081790
Probable space group: C 2/M
;
_chemical_formula_sum "Si O2"
_cell_formula_units_Z 56
_cell_length_a 19.351749
_cell_length_b 9.137888
_cell_length_c 20.348620
_cell_angle_alpha 90.000000
_cell_angle_beta 123.113086
_cell_angle_gamma 90.000000
_cell_volume 3013.939679
_symmetry_space_group_name_H-M "C 2/M"
_symmetry_group_IT_number 12
_symmetry_cell_setting 'monoclinic'
loop_
_space_group_symop_operation_xyz
x,y,z
-x,y,-z
-x,-y,-z
x,-y,z
1/2+x,1/2+y,z
1/2-x,1/2+y,-z
1/2-x,1/2-y,-z
1/2+x,1/2-y,z
loop_
_atom_site_type_symbol
_atom_site_label
_atom_site_fract_x
_atom_site_fract_y
_atom_site_fract_z
Si Si1 0.987615 0.166540 0.695887
Si Si2 0.456408 0.829746 0.808889
Si Si3 0.708609 0.673756 0.276127
Si Si4 0.256851 0.827608 0.933961
Si Si5 0.168243 0.169589 0.756115
Si Si6 0.305082 0.333125 0.580124
Si Si7 0.063379 0.671112 0.983644
O O1 0.987261 0.280901 0.754274
O O2 0.902033 0.189926 0.611688
O O3 0.069641 0.194635 0.694985
O O4 0.989146 0.000000 0.724674
O O5 0.376753 0.742297 0.794419
O O6 0.534830 0.794567 0.895034
O O7 0.432852 0.000000 0.796361
O O8 0.705789 0.500000 0.266500
O O9 0.785583 0.736041 0.275041
O O10 0.715170 0.720287 0.356275
O O11 0.192003 0.781887 0.843260
O O12 0.252786 0.000000 0.945450
O O13 0.250000 0.750000 0.000000
O O14 0.345330 0.772433 0.953611
O O15 0.192291 0.000000 0.758372
O O16 0.279531 0.500000 0.560402
O O17 0.250000 0.250000 0.500000
O O18 0.062658 0.500000 0.997222
O O19 0.000000 0.750518 0.000000
#
# Coordination Sequence:
#
# PCOD8081790 Si02
#       7
#     8   8   8   8   8   8   8
#     4   9  19  35  53  76 106 134 165 210 256 299
#     4  10  18  30  51  74  97 134 180 215 253 310
#     4  10  21  36  54  78 108 137 169 216 265 305
#     4  10  20  33  50  73 102 137 176 218 262 306
#     4  10  20  35  55  77 104 141 181 216 256 311
#     4   9  19  36  57  80 105 133 165 205 254 308
#     4   9  17  29  45  67  96 128 167 216 258 293
#
# _framework density 18.580333
#
# number of rings (size 3 to 8) (size 9 to 14) (size 15 to 20)
#    0.000    2.429    0.000    3.429    0.000    6.286 
#    0.000    1.429    0.000    7.286    0.000    0.000 
#    0.000    0.000    0.000    0.000    0.000    0.000 
#
# Total GULP energy -347011.691829 kJ/mol
# GULP energy per Si atom -12393.274708 kJ/mol
# Density = 1.853804 g / cm^3
# Si number density = 18.580333 Si / 1000 Ang^3
#
#
#
# Elastic Constant Matrix: (Units=GPa)
#
#
# Indices 1 2 3 4 5 6 
#
# 1 111.7016 34.5745 51.2267 0.0000 12.5834 0.0000
# 2 34.5745 60.8735 37.5525 0.0000 2.3929 0.0000
# 3 51.2267 37.5525 80.4638 0.0000 14.0701 0.0000
# 4 0.0000 0.0000 0.0000 24.6861 0.0000 -3.6468
# 5 12.5834 2.3929 14.0701 0.0000 25.1525 0.0000
# 6 0.0000 0.0000 0.0000 -3.6468 0.0000 31.0878
#
#
#
# Elastic Compliance Matrix: (Units=1/GPa)
#
#
# Indices 1 2 3 4 5 6 
#
# 1 0.013246 -0.003526 -0.006304 0.000000 -0.002765 0.000000
# 2 -0.003526 0.024424 -0.010038 0.000000 0.005055 0.000000
# 3 -0.006304 -0.010038 0.022620 0.000000 -0.008545 0.000000
# 4 0.000000 0.000000 0.000000 0.041223 0.000000 0.004836
# 5 -0.002765 0.005055 -0.008545 0.000000 0.045440 0.000000
# 6 0.000000 0.000000 0.000000 0.004836 0.000000 0.032734
#
#
# Mechanical properties :
#
#
# Convention : Reuss Voigt Hill
#
# Bulk Modulus (GPa) = 48.65103 55.52737 52.08920
# Shear Modulus (GPa) = 22.09707 24.83097 23.46402
#
# Velocity S-wave (km/s) = 3.45232 3.65966 3.55750
# Velocity P-wave (km/s) = 6.49095 6.91429 6.70596
#
# Compressibility (1/GPa) = 0.02055455
#
# Stress axis : x y z
#
# Youngs Moduli (GPa) = 75.49240 40.94395 44.20817
#
# Poissons Ratio (x) = 0.14436 0.27870
# Poissons Ratio (y) = 0.26618 0.44375
# Poissons Ratio (z) = 0.47592 0.41099
#
# Static dielectric constant tensor:
#      x y z
#    x 3.931960 0.000000 0.195000 
#    y 0.000000 3.301220 0.000000 
#    z 0.195000 0.000000 3.329740 
# 
# 
# High freq. dielectric constant tensor:
#      x y z
#    x 1.728380 0.000000 0.012980 
#    y 0.000000 1.706940 0.000000 
#    z 0.012980 0.000000 1.707380 
# 
# From -- ./inp_files/314452.got.cif
#   From: 2010.06.25/outbox.cif.g09.slc.cpg/sg12_158_cif.got.tgz:314452.got - 2010.06.28 00:19:55.
