data_PCOD8081652
_publ_section_title
;
Structure prediction by ZEFSAII (Michael W. Deem and Ramdas Pophale) SiO2 
 PCOD8081652
Probable space group: C 2/M
;
_chemical_formula_sum "Si O2"
_cell_formula_units_Z 48
_cell_length_a 18.534685
_cell_length_b 8.946876
_cell_length_c 19.178650
_cell_angle_alpha 90.000000
_cell_angle_beta 60.113632
_cell_angle_gamma 90.000000
_cell_volume 2757.410569
_symmetry_space_group_name_H-M "C 2/M"
_symmetry_group_IT_number 12
_symmetry_cell_setting 'monoclinic'
loop_
_space_group_symop_operation_xyz
x,y,z
-x,y,-z
-x,-y,-z
x,-y,z
1/2+x,1/2+y,z
1/2-x,1/2+y,-z
1/2-x,1/2-y,-z
1/2+x,1/2-y,z
loop_
_atom_site_type_symbol
_atom_site_label
_atom_site_fract_x
_atom_site_fract_y
_atom_site_fract_z
Si Si1 0.317873 0.822629 0.016621
Si Si2 0.665365 0.323075 0.843233
Si Si3 0.331390 0.674484 0.431023
Si Si4 0.248564 0.325666 0.335025
Si Si5 0.998901 0.663598 0.082741
Si Si6 0.913779 0.677106 0.508486
O O1 0.307758 0.758073 0.099145
O O2 0.305879 0.000000 0.026104
O O3 0.250000 0.750000 0.000000
O O4 0.408473 0.781258 0.940319
O O5 0.669689 0.500000 0.852107
O O6 0.728030 0.263918 0.752683
O O7 0.571978 0.281753 0.862379
O O8 0.331588 0.500000 0.448056
O O9 0.250000 0.750000 0.500000
O O10 0.326881 0.703963 0.349825
O O11 0.409203 0.751876 0.432727
O O12 0.233442 0.500000 0.334979
O O13 0.161746 0.258886 0.406822
O O14 0.979651 0.500000 0.125252
O O15 0.000000 0.644812 0.000000
O O16 0.908812 0.500000 0.502785
O O17 0.000000 0.730242 0.500000
#
# Coordination Sequence:
#
# PCOD8081652 Si02
#       6
#     8   8   8   8   8   8
#     4  10  20  34  51  71  96 125 158 196 235 279
#     4  10  18  30  50  72  96 126 157 192 237 285
#     4   9  16  29  48  68  92 121 156 194 231 276
#     4   8  16  30  47  69  96 124 155 196 241 279
#     4   8  16  31  48  67  92 119 151 192 230 268
#     4   9  17  31  50  70  95 128 163 196 233 281
#
# _framework density 17.407637000000001
#
# number of rings (size 3 to 8) (size 9 to 14) (size 15 to 20)
#    0.000    3.000    0.000    3.500    0.000    4.000 
#    0.000   10.000    0.000    6.000    0.000    0.000 
#    0.000    0.000    0.000    0.000    0.000    0.000 
#
# Total GULP energy -297324.912925 kJ/mol
# GULP energy per Si atom -12388.538039 kJ/mol
# Density = 1.736802 g / cm^3
# Si number density = 17.407637 Si / 1000 Ang^3
#
#
#
# Elastic Constant Matrix: (Units=GPa)
#
#
# Indices 1 2 3 4 5 6 
#
# 1 151.0154 46.3075 52.9133 0.0000 5.1603 -0.0001
# 2 46.3075 63.4162 32.0575 0.0000 5.5087 -0.0005
# 3 52.9133 32.0575 90.4308 0.0000 5.1072 0.0000
# 4 0.0000 0.0000 0.0000 18.6598 0.0000 2.2962
# 5 5.1603 5.5087 5.1072 0.0000 19.0687 0.0000
# 6 -0.0001 -0.0005 0.0000 2.2962 0.0000 29.5619
#
#
#
# Elastic Compliance Matrix: (Units=1/GPa)
#
#
# Indices 1 2 3 4 5 6 
#
# 1 0.009481 -0.005010 -0.003765 0.000000 -0.000110 0.000000
# 2 -0.005010 0.022132 -0.004701 0.000000 -0.003779 0.000000
# 3 -0.003765 -0.004701 0.015021 0.000000 -0.001646 0.000000
# 4 0.000000 0.000000 0.000000 0.054108 0.000000 -0.004203
# 5 -0.000110 -0.003779 -0.001646 0.000000 0.054004 0.000000
# 6 0.000000 0.000000 0.000000 -0.004203 0.000000 0.034154
#
#
# Mechanical properties :
#
#
# Convention : Reuss Voigt Hill
#
# Bulk Modulus (GPa) = 50.80984 63.04654 56.92819
# Shear Modulus (GPa) = 22.48062 25.03034 23.75548
#
# Velocity S-wave (km/s) = 3.59754 3.79607 3.69814
# Velocity P-wave (km/s) = 6.81968 7.45050 7.14205
#
# Compressibility (1/GPa) = 0.01968123
#
# Stress axis : x y z
#
# Youngs Moduli (GPa) = 105.47064 45.18345 66.57473
#
# Poissons Ratio (x) = 0.22639 0.25068
# Poissons Ratio (y) = 0.52845 0.31294
# Poissons Ratio (z) = 0.39713 0.21239
#
# Static dielectric constant tensor:
#      x y z
#    x 3.648370 0.000000 0.005000 
#    y 0.000000 3.239810 0.000000 
#    z 0.005000 0.000000 3.379520 
# 
# 
# High freq. dielectric constant tensor:
#      x y z
#    x 1.670760 0.000000 0.005050 
#    y 0.000000 1.666100 0.000000 
#    z 0.005050 0.000000 1.648280 
# 
# From -- ./inp_files/274128.got.cif
#   From: 2010.06.25/outbox.cif.g09.slc.cpg/sg12_138_cif.got.tgz:274128.got - 2010.06.28 00:19:55.
