data_PCOD8081958
_publ_section_title
;
Structure prediction by ZEFSAII (Michael W. Deem and Ramdas Pophale) SiO2 
 PCOD8081958
Probable space group: C 2/M
;
_chemical_formula_sum "Si O2"
_cell_formula_units_Z 64
_cell_length_a 24.387373
_cell_length_b 9.079025
_cell_length_c 19.837987
_cell_angle_alpha 90.000000
_cell_angle_beta 54.885067
_cell_angle_gamma 90.000000
_cell_volume 3592.982032
_symmetry_space_group_name_H-M "C 2/M"
_symmetry_group_IT_number 12
_symmetry_cell_setting 'monoclinic'
loop_
_space_group_symop_operation_xyz
x,y,z
-x,y,-z
-x,-y,-z
x,-y,z
1/2+x,1/2+y,z
1/2-x,1/2+y,-z
1/2-x,1/2-y,-z
1/2+x,1/2-y,z
loop_
_atom_site_type_symbol
_atom_site_label
_atom_site_fract_x
_atom_site_fract_y
_atom_site_fract_z
Si Si1 0.090229 0.830024 0.232385
Si Si2 0.571723 0.172519 0.969576
Si Si3 0.948207 0.327498 0.867049
Si Si4 0.572955 0.826047 0.472041
Si Si5 0.325632 0.174222 0.213441
Si Si6 0.827193 0.170929 0.698373
Si Si7 0.412769 0.328377 0.255852
Si Si8 0.055812 0.831439 0.617133
O O1 0.099687 0.733971 0.158141
O O2 0.151099 0.797502 0.239901
O O3 0.021328 0.784300 0.317676
O O4 0.086553 0.000000 0.212832
O O5 0.630495 0.235511 0.880416
O O6 0.567620 0.000000 0.959071
O O7 0.500000 0.243581 0.000000
O O8 0.588176 0.205864 0.036101
O O9 0.960502 0.500000 0.847792
O O10 0.019816 0.248785 0.817272
O O11 0.500000 0.768892 0.500000
O O12 0.629514 0.766259 0.382969
O O13 0.587939 0.769289 0.536739
O O14 0.576609 0.000000 0.469060
O O15 0.249442 0.219607 0.253634
O O16 0.349268 0.254315 0.264825
O O17 0.333113 0.000000 0.217777
O O18 0.838298 0.000000 0.672872
O O19 0.417407 0.500000 0.234392
O O20 0.403378 0.305981 0.342636
O O21 0.060193 0.000000 0.590192
#
# Coordination Sequence:
#
# PCOD8081958 Si02
#       8
#     8   8   8   8   8   8   8   8
#     4   9  18  33  51  76 108 139 173 218 267 311
#     4   9  16  30  52  79 107 136 176 225 266 305
#     4  10  18  30  53  79 105 139 178 222 263 309
#     4  11  22  34  53  83 110 133 172 224 266 308
#     4  10  20  36  57  79 104 142 187 218 257 320
#     4  10  21  37  57  77 105 146 181 214 262 323
#     4  10  20  34  52  79 111 140 172 218 271 314
#     4   9  18  33  54  76 103 138 175 213 260 318
#
# _framework density 17.812503
#
# number of rings (size 3 to 8) (size 9 to 14) (size 15 to 20)
#    0.000    2.250    2.500    1.875    0.000    4.000 
#    0.000    3.125    0.000    0.000    0.000    0.000 
#    0.000    0.000    0.000    0.000    0.000    0.000 
#
# Total GULP energy -396820.612690 kJ/mol
# GULP energy per Si atom -12400.644147 kJ/mol
# Density = 1.777196 g / cm^3
# Si number density = 17.812503 Si / 1000 Ang^3
#
#
#
# Elastic Constant Matrix: (Units=GPa)
#
#
# Indices 1 2 3 4 5 6 
#
# 1 133.5799 48.7951 63.0596 0.0014 3.8618 -0.0007
# 2 48.7951 66.2476 46.0749 0.0034 4.9731 -0.0023
# 3 63.0596 46.0749 108.2282 0.0007 4.6874 -0.0004
# 4 0.0014 0.0034 0.0007 17.2847 -0.0020 9.6487
# 5 3.8618 4.9731 4.6874 -0.0020 25.6014 0.0010
# 6 -0.0007 -0.0023 -0.0004 9.6487 0.0010 28.0847
#
#
#
# Elastic Compliance Matrix: (Units=1/GPa)
#
#
# Indices 1 2 3 4 5 6 
#
# 1 0.011560 -0.005449 -0.004421 0.000001 0.000124 0.000000
# 2 -0.005449 0.024175 -0.007004 -0.000007 -0.002591 0.000004
# 3 -0.004421 -0.007004 0.014827 0.000002 -0.000687 -0.000001
# 4 0.000001 -0.000007 0.000002 0.071583 0.000007 -0.024593
# 5 0.000124 -0.002591 -0.000687 0.000007 0.039671 -0.000004
# 6 0.000000 0.000004 -0.000001 -0.024593 -0.000004 0.044056
#
#
# Mechanical properties :
#
#
# Convention : Reuss Voigt Hill
#
# Bulk Modulus (GPa) = 59.47858 69.32388 64.40123
# Shear Modulus (GPa) = 20.38943 24.20257 22.29600
#
# Velocity S-wave (km/s) = 3.38697 3.69011 3.54178
# Velocity P-wave (km/s) = 6.98279 7.56036 7.27731
#
# Compressibility (1/GPa) = 0.01681278
#
# Stress axis : x y z
#
# Youngs Moduli (GPa) = 86.50374 41.36580 67.44275
#
# Poissons Ratio (x) = 0.22541 0.29817
# Poissons Ratio (y) = 0.47137 0.47239
# Poissons Ratio (z) = 0.38245 0.28974
#
# Static dielectric constant tensor:
#      x y z
#    x 3.379840 0.000000 0.167640 
#    y 0.000000 3.187200 0.000000 
#    z 0.167640 0.000000 3.225950 
# 
# 
# High freq. dielectric constant tensor:
#      x y z
#    x 1.685890 0.000000 0.021380 
#    y 0.000000 1.679470 0.000000 
#    z 0.021380 0.000000 1.677150 
# 
# From -- ./inp_files/324129.got.cif
#   From: 2010.06.25/outbox.cif.g09.slc.cpg/sg12_163_cif.got.tgz:324129.got - 2010.06.28 00:19:55.
