data_PCOD8081857
_publ_section_title
;
Structure prediction by ZEFSAII (Michael W. Deem and Ramdas Pophale) SiO2 
 PCOD8081857
Probable space group: C 2/M
;
_chemical_formula_sum "Si O2"
_cell_formula_units_Z 56
_cell_length_a 31.434653
_cell_length_b 8.865022
_cell_length_c 11.909891
_cell_angle_alpha 90.000000
_cell_angle_beta 116.815642
_cell_angle_gamma 90.000000
_cell_volume 2962.008811
_symmetry_space_group_name_H-M "C 2/M"
_symmetry_group_IT_number 12
_symmetry_cell_setting 'monoclinic'
loop_
_space_group_symop_operation_xyz
x,y,z
-x,y,-z
-x,-y,-z
x,-y,z
1/2+x,1/2+y,z
1/2-x,1/2+y,-z
1/2-x,1/2-y,-z
1/2+x,1/2-y,z
loop_
_atom_site_type_symbol
_atom_site_label
_atom_site_fract_x
_atom_site_fract_y
_atom_site_fract_z
Si Si1 0.809033 0.677006 0.470926
Si Si2 0.712590 0.822794 0.303269
Si Si3 0.046656 0.820697 0.117202
Si Si4 0.108080 0.176232 0.566219
Si Si5 0.981380 0.176831 0.677151
Si Si6 0.912546 0.178797 0.213148
Si Si7 0.632936 0.320700 0.071048
O O1 0.801243 0.500000 0.448075
O O2 0.766057 0.761049 0.357275
O O3 0.810162 0.723355 0.603600
O O4 0.857909 0.726066 0.471527
O O5 0.683008 0.750518 0.166235
O O6 0.713884 0.000000 0.287864
O O7 0.044907 0.760518 0.242587
O O8 0.093446 0.758155 0.110967
O O9 0.047763 0.000000 0.111293
O O10 0.000000 0.757381 0.000000
O O11 0.053000 0.211491 0.468639
O O12 0.113922 0.225420 0.703012
O O13 0.119634 0.000000 0.560979
O O14 0.033931 0.249673 0.725278
O O15 0.988840 0.000000 0.701871
O O16 0.917404 0.000000 0.213840
O O17 0.881419 0.236379 0.070781
O O18 0.637359 0.500000 0.079643
#
# Coordination Sequence:
#
# PCOD8081857 Si02
#       7
#     8   8   8   8   8   8   8
#     4  10  21  38  58  79 103 130 165 211 264 317
#     4  10  21  37  58  81 104 128 162 212 266 317
#     4   9  14  22  40  70 104 134 169 212 250 290
#     4  10  19  31  51  78 106 138 179 220 256 295
#     4   9  15  25  44  73 106 140 177 217 257 294
#     4   9  17  29  46  74 111 145 177 215 251 294
#     4  10  18  30  51  78 109 142 175 210 256 307
#
# _framework density 18.906089000000001
#
# number of rings (size 3 to 8) (size 9 to 14) (size 15 to 20)
#    0.000    2.429    1.429    2.143    0.000    4.571 
#    0.000    1.429    0.000    3.000    0.000    0.000 
#    0.000    0.000    0.000    0.000    0.000    0.000 
#
# Total GULP energy -347137.438102 kJ/mol
# GULP energy per Si atom -12397.765646 kJ/mol
# Density = 1.886306 g / cm^3
# Si number density = 18.906089 Si / 1000 Ang^3
#
#
#
# Elastic Constant Matrix: (Units=GPa)
#
#
# Indices 1 2 3 4 5 6 
#
# 1 67.8684 17.1910 38.2753 0.0000 5.0411 0.0000
# 2 17.1910 31.3787 24.5932 0.0000 3.3023 0.0000
# 3 38.2753 24.5932 125.6035 0.0000 6.5606 0.0000
# 4 0.0000 0.0000 0.0000 16.2823 0.0000 0.2064
# 5 5.0411 3.3023 6.5606 0.0000 30.9595 0.0000
# 6 0.0000 0.0000 0.0000 0.2064 0.0000 17.8400
#
#
#
# Elastic Compliance Matrix: (Units=1/GPa)
#
#
# Indices 1 2 3 4 5 6 
#
# 1 0.019051 -0.006845 -0.004390 0.000000 -0.001442 0.000000
# 2 -0.006845 0.040295 -0.005701 0.000000 -0.001975 0.000000
# 3 -0.004390 -0.005701 0.010462 0.000000 -0.000894 0.000000
# 4 0.000000 0.000000 0.000000 0.061425 0.000000 -0.000711
# 5 -0.001442 -0.001975 -0.000894 0.000000 0.032935 0.000000
# 6 0.000000 0.000000 0.000000 -0.000711 0.000000 0.056062
#
#
# Mechanical properties :
#
#
# Convention : Reuss Voigt Hill
#
# Bulk Modulus (GPa) = 27.82652 42.77438 35.30045
# Shear Modulus (GPa) = 18.79131 22.66909 20.73020
#
# Velocity S-wave (km/s) = 3.15608 3.46647 3.31491
# Velocity P-wave (km/s) = 5.29447 6.22058 5.77612
#
# Compressibility (1/GPa) = 0.03593694
#
# Stress axis : x y z
#
# Youngs Moduli (GPa) = 52.49061 24.81724 95.58214
#
# Poissons Ratio (x) = 0.16987 0.41960
# Poissons Ratio (y) = 0.35929 0.54488
# Poissons Ratio (z) = 0.23043 0.14147
#
# Static dielectric constant tensor:
#      x y z
#    x 3.408640 0.000000 -0.038670 
#    y 0.000000 2.927690 0.000000 
#    z -0.038670 0.000000 3.662120 
# 
# 
# High freq. dielectric constant tensor:
#      x y z
#    x 1.729510 0.000000 0.003000 
#    y 0.000000 1.680770 0.000000 
#    z 0.003000 0.000000 1.743790 
# 
# From -- ./inp_files/186823.got.cif
#   From: 2010.06.25/outbox.cif.g09.slc.cpg/sg12_94_cif.got.tgz:186823.got - 2010.06.28 00:19:55.
