data_PCOD8081171
_publ_section_title
;
Structure prediction by ZEFSAII (Michael W. Deem and Ramdas Pophale) SiO2 
 PCOD8081171
Probable space group: C 2/M
;
_chemical_formula_sum "Si O2"
_cell_formula_units_Z 56
_cell_length_a 20.073498
_cell_length_b 9.217269
_cell_length_c 16.942862
_cell_angle_alpha 90.000000
_cell_angle_beta 74.955008
_cell_angle_gamma 90.000000
_cell_volume 3027.361962
_symmetry_space_group_name_H-M "C 2/M"
_symmetry_group_IT_number 12
_symmetry_cell_setting 'monoclinic'
loop_
_space_group_symop_operation_xyz
x,y,z
-x,y,-z
-x,-y,-z
x,-y,z
1/2+x,1/2+y,z
1/2-x,1/2+y,-z
1/2-x,1/2-y,-z
1/2+x,1/2-y,z
loop_
_atom_site_type_symbol
_atom_site_label
_atom_site_fract_x
_atom_site_fract_y
_atom_site_fract_z
Si Si1 0.613247 0.666487 0.848584
Si Si2 0.777333 0.833799 0.314568
Si Si3 0.882028 0.833859 0.417590
Si Si4 0.015405 0.331481 0.177021
Si Si5 0.522505 0.830547 0.353292
Si Si6 0.644552 0.666341 0.395749
Si Si7 0.421224 0.160479 0.996966
O O1 0.592222 0.500000 0.864469
O O2 0.685135 0.685029 0.780933
O O3 0.554045 0.741803 0.815415
O O4 0.622382 0.733142 0.933558
O O5 0.827243 0.781785 0.369493
O O6 0.709882 0.735429 0.332304
O O7 0.754968 0.000000 0.335295
O O8 0.845859 0.819540 0.513441
O O9 0.946807 0.728536 0.393644
O O10 0.905455 0.000000 0.394003
O O11 0.995903 0.500000 0.170477
O O12 0.043469 0.301891 0.255873
O O13 0.075988 0.287902 0.095778
O O14 0.575287 0.748209 0.392908
O O15 0.523930 0.000000 0.373514
O O16 0.638185 0.500000 0.371147
O O17 0.388623 0.000000 0.014057
O O18 0.500000 0.159956 0.000000
#
# Coordination Sequence:
#
# PCOD8081171 Si02
#       7
#     8   8   8   8   8   8   8
#     4  10  18  29  50  79 107 136 171 215 264 310
#     4  10  21  37  56  78 109 142 176 221 267 314
#     4  10  21  39  58  79 107 139 177 224 272 316
#     4   9  18  32  50  75 105 140 176 212 258 311
#     4  11  22  36  57  81 108 142 181 221 264 317
#     4  11  24  38  55  78 107 143 181 221 269 321
#     4   8  15  28  46  71 106 138 168 211 259 308
#
# _framework density 18.497954
#
# number of rings (size 3 to 8) (size 9 to 14) (size 15 to 20)
#    0.000    2.143    1.429    3.000    0.000    7.714 
#    0.000    0.000    0.000    0.857    0.000    0.000 
#    0.000    0.000    0.000    0.000    0.000    0.000 
#
# Total GULP energy -347215.129026 kJ/mol
# GULP energy per Si atom -12400.540322 kJ/mol
# Density = 1.845585 g / cm^3
# Si number density = 18.497954 Si / 1000 Ang^3
#
#
#
# Elastic Constant Matrix: (Units=GPa)
#
#
# Indices 1 2 3 4 5 6 
#
# 1 48.0504 29.5406 4.6627 0.0000 -11.6394 0.0000
# 2 29.5406 94.3355 30.5282 0.0000 -11.7431 0.0000
# 3 4.6627 30.5282 82.1315 0.0000 -7.9679 0.0000
# 4 0.0000 0.0000 0.0000 32.5989 0.0000 -4.5701
# 5 -11.6394 -11.7431 -7.9679 0.0000 16.5708 0.0000
# 6 0.0000 0.0000 0.0000 -4.5701 0.0000 27.2843
#
#
#
# Elastic Compliance Matrix: (Units=1/GPa)
#
#
# Indices 1 2 3 4 5 6 
#
# 1 0.029502 -0.008154 0.002943 0.000000 0.016359 0.000000
# 2 -0.008154 0.015057 -0.004882 0.000000 0.002595 0.000000
# 3 0.002943 -0.004882 0.014358 0.000000 0.005511 0.000000
# 4 0.000000 0.000000 0.000000 0.031413 0.000000 0.005262
# 5 0.016359 0.002595 0.005511 0.000000 0.076327 0.000000
# 6 0.000000 0.000000 0.000000 0.005262 0.000000 0.037532
#
#
# Mechanical properties :
#
#
# Convention : Reuss Voigt Hill
#
# Bulk Modulus (GPa) = 25.81973 39.33115 32.57544
# Shear Modulus (GPa) = 21.07169 25.94321 23.50745
#
# Velocity S-wave (km/s) = 3.37877 3.74905 3.56871
# Velocity P-wave (km/s) = 5.40462 6.32843 5.88468
#
# Compressibility (1/GPa) = 0.03873006
#
# Stress axis : x y z
#
# Youngs Moduli (GPa) = 33.89641 66.41500 69.64859
#
# Poissons Ratio (x) = 0.54157 -0.20499
# Poissons Ratio (y) = 0.27640 0.34002
# Poissons Ratio (z) = -0.09976 0.32423
#
# Static dielectric constant tensor:
#      x y z
#    x 3.003430 0.000000 0.127430 
#    y 0.000000 3.486020 0.000000 
#    z 0.127430 0.000000 3.866100 
# 
# 
# High freq. dielectric constant tensor:
#      x y z
#    x 1.674780 0.000000 0.001290 
#    y 0.000000 1.723320 0.000000 
#    z 0.001290 0.000000 1.736080 
# 
# From -- ./inp_files/275127.got.cif
#   From: 2010.06.25/outbox.cif.g09.slc.cpg/sg12_138_cif.got.tgz:275127.got - 2010.06.28 00:19:55.
