data_PCOD8081366
_publ_section_title
;
Structure prediction by ZEFSAII (Michael W. Deem and Ramdas Pophale) SiO2 
 PCOD8081366
Probable space group: C 2/M
;
_chemical_formula_sum "Si O2"
_cell_formula_units_Z 56
_cell_length_a 31.404381
_cell_length_b 13.142196
_cell_length_c 25.585065
_cell_angle_alpha 90.000000
_cell_angle_beta 161.033319
_cell_angle_gamma 90.000000
_cell_volume 3432.040919
_symmetry_space_group_name_H-M "C 2/M"
_symmetry_group_IT_number 12
_symmetry_cell_setting 'monoclinic'
loop_
_space_group_symop_operation_xyz
x,y,z
-x,y,-z
-x,-y,-z
x,-y,z
1/2+x,1/2+y,z
1/2-x,1/2+y,-z
1/2-x,1/2-y,-z
1/2+x,1/2-y,z
loop_
_atom_site_type_symbol
_atom_site_label
_atom_site_fract_x
_atom_site_fract_y
_atom_site_fract_z
Si Si1 0.140731 0.879491 0.648050
Si Si2 0.642938 0.198557 0.303163
Si Si3 0.045451 0.186151 0.762903
Si Si4 0.324275 0.885654 0.060012
Si Si5 0.829161 0.120622 0.435827
Si Si6 0.157926 0.884348 0.388230
Si Si7 0.858423 0.617833 0.979767
O O1 0.177218 0.847439 0.631779
O O2 0.000000 0.832298 0.500000
O O3 0.133852 0.000000 0.645600
O O4 0.249865 0.836892 0.814383
O O5 0.708099 0.177034 0.322883
O O6 0.708967 0.126244 0.423621
O O7 0.667737 0.315991 0.347671
O O8 0.489873 0.179325 0.121796
O O9 0.069381 0.307862 0.792749
O O10 0.966723 0.158521 0.619183
O O11 0.965502 0.151274 0.720746
O O12 0.183725 0.128331 0.924071
O O13 0.306410 0.864725 0.977764
O O14 0.375380 0.000000 0.129887
O O15 0.817246 0.000000 0.430445
O O16 0.140499 0.000000 0.350057
O O17 0.886283 0.500000 0.000440
#
# Coordination Sequence:
#
# PCOD8081366 Si02
#       7
#     8   8   8   8   8   8   8
#     4   9  18  31  49  71  95 128 162 190 237 294
#     4  10  19  31  45  71  97 126 162 195 239 286
#     4  10  18  31  47  68  97 129 167 190 240 291
#     4  10  19  29  46  72 102 126 155 202 241 281
#     4  10  19  32  48  68  98 131 160 195 233 286
#     4  10  19  32  48  66  96 133 164 196 235 289
#     4  10  18  30  47  71 101 127 154 197 243 286
#
# _framework density 16.316821999999998
#
# number of rings (size 3 to 8) (size 9 to 14) (size 15 to 20)
#    0.000    2.143    1.429    4.286    0.000    2.857 
#    0.000    2.143    0.000    0.000    0.000    3.000 
#    0.000    5.429    0.000    0.000    0.000    0.000 
#
# Total GULP energy -347232.849897 kJ/mol
# GULP energy per Si atom -12401.173211 kJ/mol
# Density = 1.627968 g / cm^3
# Si number density = 16.316822 Si / 1000 Ang^3
#
#
#
# Elastic Constant Matrix: (Units=GPa)
#
#
# Indices 1 2 3 4 5 6 
#
# 1 92.8408 38.9847 44.5540 0.0002 2.3403 0.0004
# 2 38.9847 87.5918 30.7077 -0.0005 5.0299 -0.0003
# 3 44.5540 30.7077 91.0356 -0.0010 10.1318 -0.0012
# 4 0.0002 -0.0005 -0.0010 18.4482 -0.0004 1.5276
# 5 2.3403 5.0299 10.1318 -0.0004 20.6219 -0.0004
# 6 0.0004 -0.0003 -0.0012 1.5276 -0.0004 20.2491
#
#
#
# Elastic Compliance Matrix: (Units=1/GPa)
#
#
# Indices 1 2 3 4 5 6 
#
# 1 0.015847 -0.004968 -0.006362 -0.000001 0.002539 -0.000001
# 2 -0.004968 0.014528 -0.002261 0.000000 -0.001869 0.000000
# 3 -0.006362 -0.002261 0.015571 0.000001 -0.006377 0.000001
# 4 -0.000001 0.000000 0.000001 0.054547 0.000001 -0.004115
# 5 0.002539 -0.001869 -0.006377 0.000001 0.051793 0.000000
# 6 -0.000001 0.000000 0.000001 -0.004115 0.000000 0.049695
#
#
# Mechanical properties :
#
#
# Convention : Reuss Voigt Hill
#
# Bulk Modulus (GPa) = 53.29835 55.55121 54.42478
# Shear Modulus (GPa) = 21.23892 22.34528 21.79210
#
# Velocity S-wave (km/s) = 3.61176 3.70464 3.65850
# Velocity P-wave (km/s) = 7.08016 7.24006 7.16056
#
# Compressibility (1/GPa) = 0.01876231
#
# Stress axis : x y z
#
# Youngs Moduli (GPa) = 63.10522 68.83374 64.22263
#
# Poissons Ratio (x) = 0.34198 0.40860
# Poissons Ratio (y) = 0.31352 0.14520
# Poissons Ratio (z) = 0.40149 0.15563
#
# Static dielectric constant tensor:
#      x y z
#    x 3.109460 0.000000 0.085630 
#    y 0.000000 2.966840 0.000000 
#    z 0.085630 0.000000 3.121490 
# 
# 
# High freq. dielectric constant tensor:
#      x y z
#    x 1.626260 0.000000 0.019410 
#    y 0.000000 1.601270 0.000000 
#    z 0.019410 0.000000 1.626430 
# 
# From -- ./inp_files/353982.got.cif
#   From: 2010.06.25/outbox.cif.g09.slc.cpg/sg12_177_cif.got.tgz:353982.got - 2010.06.28 00:19:55.
