data_PCOD8081611
_publ_section_title
;
Structure prediction by ZEFSAII (Michael W. Deem and Ramdas Pophale) SiO2 
 PCOD8081611
Probable space group: C 2/M
;
_chemical_formula_sum "Si O2"
_cell_formula_units_Z 64
_cell_length_a 20.497391
_cell_length_b 9.459918
_cell_length_c 17.965524
_cell_angle_alpha 90.000000
_cell_angle_beta 120.818259
_cell_angle_gamma 90.000000
_cell_volume 2991.687321
_symmetry_space_group_name_H-M "C 2/M"
_symmetry_group_IT_number 12
_symmetry_cell_setting 'monoclinic'
loop_
_space_group_symop_operation_xyz
x,y,z
-x,y,-z
-x,-y,-z
x,-y,z
1/2+x,1/2+y,z
1/2-x,1/2+y,-z
1/2-x,1/2-y,-z
1/2+x,1/2-y,z
loop_
_atom_site_type_symbol
_atom_site_label
_atom_site_fract_x
_atom_site_fract_y
_atom_site_fract_z
Si Si1 0.688243 0.340208 0.007703
Si Si2 0.142343 0.149455 0.542041
Si Si3 0.979983 0.831991 0.070139
Si Si4 0.250977 0.658114 0.793743
Si Si5 0.120907 0.834889 0.250870
Si Si6 0.106098 0.841976 0.687287
Si Si7 0.022603 0.656901 0.426491
Si Si8 0.702096 0.160901 0.411686
O O1 0.693796 0.500000 0.980309
O O2 0.702533 0.336143 0.103494
O O3 0.750000 0.250000 0.000000
O O4 0.602390 0.279465 0.947748
O O5 0.100619 0.149834 0.595746
O O6 0.231623 0.156606 0.612425
O O7 0.108255 0.276317 0.470319
O O8 0.123158 0.000000 0.490100
O O9 0.043272 0.783281 0.166489
O O10 0.978153 0.000000 0.062102
O O11 0.000000 0.768801 0.000000
O O12 0.217770 0.500000 0.760581
O O13 0.309092 0.697367 0.762810
O O14 0.182021 0.767617 0.760164
O O15 0.131665 0.743875 0.333087
O O16 0.117301 0.000000 0.269408
O O17 0.032225 0.745869 0.660845
O O18 0.100325 0.000000 0.719222
O O19 0.025791 0.500000 0.395588
O O20 0.000000 0.654029 0.500000
O O21 0.750000 0.250000 0.500000
O O22 0.679684 0.000000 0.423188
#
# Coordination Sequence:
#
# PCOD8081611 Si02
#       8
#     8   8   8   8   8   8   8   8
#     4  10  21  38  60  89 127 165 200 244 302 369
#     4   9  18  32  49  70 100 138 180 231 289 349
#     4   9  16  33  63  95 122 156 206 257 303 361
#     4  10  19  32  55  85 114 148 196 251 301 356
#     4  10  19  34  61  91 115 147 200 261 310 357
#     4  10  18  30  49  75 107 141 180 230 287 345
#     4   9  17  28  45  71 100 132 174 224 276 331
#     4  11  23  39  56  80 115 154 196 245 306 366
#
# _framework density 21.392609
#
# number of rings (size 3 to 8) (size 9 to 14) (size 15 to 20)
#    0.000    2.250    2.500    1.125    0.000    3.500 
#    0.000    1.875    0.000    5.250    0.000    0.000 
#    0.000    0.000    0.000    0.000    0.000    0.000 
#
# Total GULP energy -396471.642989 kJ/mol
# GULP energy per Si atom -12389.738843 kJ/mol
# Density = 2.134392 g / cm^3
# Si number density = 21.392609 Si / 1000 Ang^3
#
#
#
# Elastic Constant Matrix: (Units=GPa)
#
#
# Indices 1 2 3 4 5 6 
#
# 1 52.0936 28.0801 32.5863 0.0000 21.2645 0.0000
# 2 28.0801 128.9643 62.0940 0.0000 20.2506 0.0000
# 3 32.5863 62.0940 123.1966 0.0000 25.8760 0.0000
# 4 0.0000 0.0000 0.0000 31.5637 0.0000 7.2268
# 5 21.2645 20.2506 25.8760 0.0000 39.2152 0.0000
# 6 0.0000 0.0000 0.0000 7.2268 0.0000 23.4838
#
#
#
# Elastic Compliance Matrix: (Units=1/GPa)
#
#
# Indices 1 2 3 4 5 6 
#
# 1 0.027357 -0.002441 -0.003662 0.000000 -0.011157 0.000000
# 2 -0.002441 0.010621 -0.004450 0.000000 -0.001224 0.000000
# 3 -0.003662 -0.004450 0.012107 0.000000 -0.003705 0.000000
# 4 0.000000 0.000000 0.000000 0.034083 0.000000 -0.010489
# 5 -0.011157 -0.001224 -0.003705 0.000000 0.034627 0.000000
# 6 0.000000 0.000000 0.000000 -0.010489 0.000000 0.045810
#
#
# Mechanical properties :
#
#
# Convention : Reuss Voigt Hill
#
# Bulk Modulus (GPa) = 34.50965 61.08615 47.79790
# Shear Modulus (GPa) = 25.59216 30.95216 28.27216
#
# Velocity S-wave (km/s) = 3.46252 3.80789 3.63931
# Velocity P-wave (km/s) = 5.67027 6.92461 6.32859
#
# Compressibility (1/GPa) = 0.02897740
#
# Stress axis : x y z
#
# Youngs Moduli (GPa) = 36.55312 94.15714 82.59743
#
# Poissons Ratio (x) = 0.22988 0.30249
# Poissons Ratio (y) = 0.08924 0.36757
# Poissons Ratio (z) = 0.13387 0.41901
#
# Static dielectric constant tensor:
#      x y z
#    x 4.111100 0.000000 0.309230 
#    y 0.000000 3.984930 0.000000 
#    z 0.309230 0.000000 3.757420 
# 
# 
# High freq. dielectric constant tensor:
#      x y z
#    x 1.839380 0.000000 0.019110 
#    y 0.000000 1.826500 0.000000 
#    z 0.019110 0.000000 1.826130 
# 
# From -- ./inp_files/324340.got.cif
#   From: 2010.06.25/outbox.cif.g09.slc.cpg/sg12_163_cif.got.tgz:324340.got - 2010.06.28 00:19:55.
