data_PCOD8081376
_publ_section_title
;
Structure prediction by ZEFSAII (Michael W. Deem and Ramdas Pophale) SiO2 
 PCOD8081376
Probable space group: C 2/M
;
_chemical_formula_sum "Si O2"
_cell_formula_units_Z 52
_cell_length_a 5.267824
_cell_length_b 25.150584
_cell_length_c 23.262001
_cell_angle_alpha 90.000000
_cell_angle_beta 117.131863
_cell_angle_gamma 90.000000
_cell_volume 2742.815291
_symmetry_space_group_name_H-M "C 2/M"
_symmetry_group_IT_number 12
_symmetry_cell_setting 'monoclinic'
loop_
_space_group_symop_operation_xyz
x,y,z
-x,y,-z
-x,-y,-z
x,-y,z
1/2+x,1/2+y,z
1/2-x,1/2+y,-z
1/2-x,1/2-y,-z
1/2+x,1/2-y,z
loop_
_atom_site_type_symbol
_atom_site_label
_atom_site_fract_x
_atom_site_fract_y
_atom_site_fract_z
Si Si1 0.985886 0.878267 0.247474
Si Si2 0.340750 0.695057 0.925025
Si Si3 0.795089 0.940691 0.399461
Si Si4 0.794490 0.376981 0.399758
Si Si5 0.731103 0.688549 0.870560
Si Si6 0.486332 0.941040 0.247071
Si Si7 0.000000 0.285548 0.500000
O O1 0.914617 0.823895 0.206039
O O2 0.687203 0.908727 0.224536
O O3 0.138309 0.864798 0.323266
O O4 0.184396 0.913104 0.226270
O O5 0.546878 0.662309 0.903560
O O6 0.245866 0.748478 0.881960
O O7 0.049197 0.662922 0.906960
O O8 0.500000 0.710335 0.000000
O O9 0.585887 0.910030 0.421471
O O10 0.647690 0.945818 0.323444
O O11 0.092122 0.909288 0.422731
O O12 0.856625 0.000000 0.430015
O O13 0.869696 0.320821 0.435420
O O14 0.432397 0.000000 0.216395
O O15 0.750000 0.250000 0.500000
#
# Coordination Sequence:
#
# PCOD8081376 Si02
#       7
#     8   8   8   8   8   8   4
#     4  10  19  32  51  79 107 130 170 221 262 300
#     4  10  19  33  50  71 106 137 164 203 260 314
#     4   9  17  33  59  86 109 134 163 211 296 352
#     4  10  21  38  56  78 109 141 180 236 264 317
#     4  10  18  30  47  74 102 134 164 207 249 301
#     4   9  17  30  50  74 107 142 164 197 260 326
#     4  12  26  46  59  74  97 154 208 232 256 312
#
# _framework density 18.958621999999998
#
# number of rings (size 3 to 8) (size 9 to 14) (size 15 to 20)
#    0.000    2.154    0.000    5.077    0.000    3.692 
#    5.538    2.308    0.000    0.000    0.000    0.000 
#    0.000   71.385    0.000    0.000    0.000    0.000 
#
# Total GULP energy -322240.931061 kJ/mol
# GULP energy per Si atom -12393.881964 kJ/mol
# Density = 1.891547 g / cm^3
# Si number density = 18.958622 Si / 1000 Ang^3
#
#
#
# Elastic Constant Matrix: (Units=GPa)
#
#
# Indices 1 2 3 4 5 6 
#
# 1 182.8011 37.1465 23.2438 0.0000 -7.9563 0.0000
# 2 37.1465 90.5312 41.7491 0.0000 -5.8517 0.0000
# 3 23.2438 41.7491 83.3340 0.0000 -5.1619 0.0000
# 4 0.0000 0.0000 0.0000 1.8555 0.0000 -0.8923
# 5 -7.9563 -5.8517 -5.1619 0.0000 9.2306 0.0000
# 6 0.0000 0.0000 0.0000 -0.8923 0.0000 19.6303
#
#
#
# Elastic Compliance Matrix: (Units=1/GPa)
#
#
# Indices 1 2 3 4 5 6 
#
# 1 0.006107 -0.002063 -0.000440 0.000000 0.003710 0.000000
# 2 -0.002063 0.015313 -0.006842 0.000000 0.004103 0.000000
# 3 -0.000440 -0.006842 0.015806 0.000000 0.004122 0.000000
# 4 0.000000 0.000000 0.000000 0.550977 0.000000 0.025045
# 5 0.003710 0.004103 0.004122 0.000000 0.116440 0.000000
# 6 0.000000 0.000000 0.000000 0.025045 0.000000 0.052080
#
#
# Mechanical properties :
#
#
# Convention : Reuss Voigt Hill
#
# Bulk Modulus (GPa) = 53.95041 62.32724 58.13883
# Shear Modulus (GPa) = 6.39721 23.11175 14.75448
#
# Velocity S-wave (km/s) = 1.83892 3.49530 2.79273
# Velocity P-wave (km/s) = 5.74696 7.01685 6.41341
#
# Compressibility (1/GPa) = 0.01853554
#
# Stress axis : x y z
#
# Youngs Moduli (GPa) = 163.74404 65.30462 63.26855
#
# Poissons Ratio (x) = 0.13473 0.02784
# Poissons Ratio (y) = 0.33782 0.43288
# Poissons Ratio (z) = 0.07205 0.44681
#
# Static dielectric constant tensor:
#      x y z
#    x 5.989990 0.000000 0.146040 
#    y 0.000000 3.266520 0.000000 
#    z 0.146040 0.000000 3.240630 
# 
# 
# High freq. dielectric constant tensor:
#      x y z
#    x 1.775210 0.000000 -0.000440 
#    y 0.000000 1.699540 0.000000 
#    z -0.000440 0.000000 1.715510 
# 
# From -- ./inp_files/331282.got.cif
#   From: 2010.06.25/outbox.cif.g09.slc.cpg/sg12_166_cif.got.tgz:331282.got - 2010.06.28 00:19:55.
