data_PCOD8081843
_publ_section_title
;
Structure prediction by ZEFSAII (Michael W. Deem and Ramdas Pophale) SiO2 
 PCOD8081843
Probable space group: C 2/M
;
_chemical_formula_sum "Si O2"
_cell_formula_units_Z 40
_cell_length_a 14.356812
_cell_length_b 15.068217
_cell_length_c 16.222895
_cell_angle_alpha 90.000000
_cell_angle_beta 139.967438
_cell_angle_gamma 90.000000
_cell_volume 2257.406167
_symmetry_space_group_name_H-M "C 2/M"
_symmetry_group_IT_number 12
_symmetry_cell_setting 'monoclinic'
loop_
_space_group_symop_operation_xyz
x,y,z
-x,y,-z
-x,-y,-z
x,-y,z
1/2+x,1/2+y,z
1/2-x,1/2+y,-z
1/2-x,1/2-y,-z
1/2+x,1/2-y,z
loop_
_atom_site_type_symbol
_atom_site_label
_atom_site_fract_x
_atom_site_fract_y
_atom_site_fract_z
Si Si1 0.469393 0.100117 0.170366
Si Si2 0.757234 0.600134 0.747007
Si Si3 0.370975 0.262598 0.461237
Si Si4 0.568209 0.275426 0.312447
Si Si5 0.686239 0.603165 0.880826
O O1 0.573463 0.106924 0.161539
O O2 0.520195 0.172079 0.272240
O O3 0.477649 0.000000 0.213717
O O4 0.307546 0.122398 0.031402
O O5 0.701107 0.500000 0.704006
O O6 0.658587 0.653148 0.616389
O O7 0.742494 0.636187 0.829952
O O8 0.500000 0.209054 0.500000
O O9 0.423843 0.298026 0.585699
O O10 0.223782 0.206092 0.374109
O O11 0.455379 0.340239 0.190896
O O12 0.644625 0.500000 0.851681
#
# Coordination Sequence:
#
# PCOD8081843 Si02
#       5
#     8   8   8   8   8
#     4   9  18  32  50  74 103 131 164 202 246 298
#     4   9  17  29  49  77 104 128 154 199 263 311
#     4  10  19  33  48  70 102 133 166 205 240 292
#     4  10  20  32  51  74 100 136 167 199 248 294
#     4  10  18  30  51  78 104 127 158 204 254 305
#
# _framework density 17.719452
#
# number of rings (size 3 to 8) (size 9 to 14) (size 15 to 20)
#    0.000    2.400    2.000    1.200    0.000    3.600 
#    0.000    3.000    0.000    2.400    0.000    2.800 
#    0.000    0.000    0.000    0.000    0.000    0.000 
#
# Total GULP energy -247901.211785 kJ/mol
# GULP energy per Si atom -12395.060589 kJ/mol
# Density = 1.767912 g / cm^3
# Si number density = 17.719452 Si / 1000 Ang^3
#
#
#
# Elastic Constant Matrix: (Units=GPa)
#
#
# Indices 1 2 3 4 5 6 
#
# 1 97.0763 22.7400 31.4523 0.0002 18.9593 0.0001
# 2 22.7400 52.6647 31.0080 0.0000 8.2978 0.0000
# 3 31.4523 31.0080 77.6875 0.0002 15.6858 0.0002
# 4 0.0002 0.0000 0.0002 26.1373 0.0003 -0.2513
# 5 18.9593 8.2978 15.6858 0.0003 31.4634 0.0002
# 6 0.0001 0.0000 0.0002 -0.2513 0.0002 19.2848
#
#
#
# Elastic Compliance Matrix: (Units=1/GPa)
#
#
# Indices 1 2 3 4 5 6 
#
# 1 0.013058 -0.003018 -0.002951 0.000000 -0.005601 0.000000
# 2 -0.003018 0.025610 -0.008899 0.000000 -0.000499 0.000000
# 3 -0.002951 -0.008899 0.018665 0.000000 -0.005180 0.000000
# 4 0.000000 0.000000 0.000000 0.038264 0.000000 0.000499
# 5 -0.005601 -0.000499 -0.005180 0.000000 0.037872 0.000000
# 6 0.000000 0.000000 0.000000 0.000499 0.000000 0.051861
#
#
# Mechanical properties :
#
#
# Convention : Reuss Voigt Hill
#
# Bulk Modulus (GPa) = 36.23759 44.20323 40.22041
# Shear Modulus (GPa) = 22.29503 24.85898 23.57700
#
# Velocity S-wave (km/s) = 3.55099 3.74962 3.65166
# Velocity P-wave (km/s) = 6.10802 6.61412 6.36610
#
# Compressibility (1/GPa) = 0.02759565
#
# Stress axis : x y z
#
# Youngs Moduli (GPa) = 76.57949 39.04796 53.57717
#
# Poissons Ratio (x) = 0.11786 0.15811
# Poissons Ratio (y) = 0.23114 0.47679
# Poissons Ratio (z) = 0.22599 0.34749
#
# Static dielectric constant tensor:
#      x y z
#    x 3.367570 0.000000 0.216240 
#    y 0.000000 3.089230 0.000000 
#    z 0.216240 0.000000 3.303330 
# 
# 
# High freq. dielectric constant tensor:
#      x y z
#    x 1.677440 0.000000 0.019300 
#    y 0.000000 1.655940 0.000000 
#    z 0.019300 0.000000 1.693720 
# 
# From -- ./inp_files/58931.got.cif
#   From: 2010.06.25/outbox.cif.g09.slc.cpg/sg12_30_cif.got.tgz:58931.got - 2010.06.28 00:19:55.
