data_PCOD8081969
_publ_section_title
;
Structure prediction by ZEFSAII (Michael W. Deem and Ramdas Pophale) SiO2 
 PCOD8081969
Probable space group: C 2/M
;
_chemical_formula_sum "Si O2"
_cell_formula_units_Z 44
_cell_length_a 20.813462
_cell_length_b 18.048331
_cell_length_c 20.726234
_cell_angle_alpha 90.000000
_cell_angle_beta 161.175409
_cell_angle_gamma 90.000000
_cell_volume 2512.250828
_symmetry_space_group_name_H-M "C 2/M"
_symmetry_group_IT_number 12
_symmetry_cell_setting 'monoclinic'
loop_
_space_group_symop_operation_xyz
x,y,z
-x,y,-z
-x,-y,-z
x,-y,z
1/2+x,1/2+y,z
1/2-x,1/2+y,-z
1/2-x,1/2-y,-z
1/2+x,1/2-y,z
loop_
_atom_site_type_symbol
_atom_site_label
_atom_site_fract_x
_atom_site_fract_y
_atom_site_fract_z
Si Si1 0.220355 0.414613 0.941956
Si Si2 0.036769 0.201207 0.752286
Si Si3 0.905701 0.333494 0.707780
Si Si4 0.407658 0.208188 0.848882
Si Si5 0.500000 0.224574 0.500000
Si Si6 0.739558 0.193394 0.846684
O O1 0.278891 0.500000 0.994206
O O2 0.245906 0.380817 0.894964
O O3 0.994265 0.403961 0.753319
O O4 0.358851 0.373555 0.125429
O O5 0.143829 0.236242 0.792285
O O6 0.035859 0.261024 0.809999
O O7 0.817672 0.177518 0.525123
O O8 0.927673 0.344335 0.805418
O O9 0.174911 0.224757 0.636658
O O10 0.500000 0.167220 0.000000
O O11 0.536977 0.283962 0.962313
O O12 0.599436 0.175467 0.651382
#
# Coordination Sequence:
#
# PCOD8081969 Si02
#       6
#     8   8   8   8   4   8
#     4  11  22  34  52  79 112 146 175 208 262 323
#     4  10  18  32  56  77 104 133 175 227 273 300
#     4  10  18  33  55  79 103 133 175 227 267 307
#     4  10  18  30  53  82 104 129 170 220 269 308
#     4  10  20  30  53  86 103 130 176 230 266 300
#     4  10  18  34  54  80 106 135 175 224 262 309
#
# _framework density 17.514175000000002
#
# number of rings (size 3 to 8) (size 9 to 14) (size 15 to 20)
#    0.000    1.818    5.455    1.091    0.000    0.727 
#    0.000    0.455    0.000    5.455    0.000    2.545 
#    0.000    0.000    0.000    0.000    0.000    0.000 
#
# Total GULP energy -272708.851457 kJ/mol
# GULP energy per Si atom -12395.856884 kJ/mol
# Density = 1.747431 g / cm^3
# Si number density = 17.514175 Si / 1000 Ang^3
#
#
#
# Elastic Constant Matrix: (Units=GPa)
#
#
# Indices 1 2 3 4 5 6 
#
# 1 101.1759 18.4423 36.0683 -0.0084 -10.8618 0.0026
# 2 18.4423 76.3743 25.9218 -0.0403 -5.6939 -0.0116
# 3 36.0683 25.9218 70.3177 -0.0181 9.3255 0.0060
# 4 -0.0084 -0.0403 -0.0181 12.0879 -0.0019 0.0626
# 5 -10.8618 -5.6939 9.3255 -0.0019 40.3412 0.0057
# 6 0.0026 -0.0116 0.0060 0.0626 0.0057 13.5004
#
#
#
# Elastic Compliance Matrix: (Units=1/GPa)
#
#
# Indices 1 2 3 4 5 6 
#
# 1 0.013092 -0.000302 -0.007289 -0.000002 0.005167 -0.000002
# 2 -0.000302 0.015466 -0.006009 0.000043 0.003491 0.000014
# 3 -0.007289 -0.006009 0.021198 0.000005 -0.007711 -0.000010
# 4 -0.000002 0.000043 0.000005 0.082730 0.000008 -0.000384
# 5 0.005167 0.003491 -0.007711 0.000008 0.028455 -0.000007
# 6 -0.000002 0.000014 -0.000010 -0.000384 -0.000007 0.074074
#
#
# Mechanical properties :
#
#
# Convention : Reuss Voigt Hill
#
# Bulk Modulus (GPa) = 44.33661 45.41475 44.87568
# Shear Modulus (GPa) = 18.53671 24.34826 21.44248
#
# Velocity S-wave (km/s) = 3.25681 3.73259 3.50279
# Velocity P-wave (km/s) = 6.28586 6.67554 6.48363
#
# Compressibility (1/GPa) = 0.02255472
#
# Stress axis : x y z
#
# Youngs Moduli (GPa) = 76.38144 64.65678 47.17408
#
# Poissons Ratio (x) = 0.01953 0.34387
# Poissons Ratio (y) = 0.02308 0.28349
# Poissons Ratio (z) = 0.55677 0.38855
#
# Static dielectric constant tensor:
#      x y z
#    x 3.610030 -0.000020 0.029940 
#    y -0.000020 2.652690 -0.000020 
#    z 0.029940 -0.000020 3.490350 
# 
# 
# High freq. dielectric constant tensor:
#      x y z
#    x 1.698360 0.000000 0.000610 
#    y 0.000000 1.599790 0.000000 
#    z 0.000610 0.000000 1.703520 
# 
# From -- ./inp_files/322496.got.cif
#   From: 2010.06.25/outbox.cif.g09.slc.cpg/sg12_162_cif.got.tgz:322496.got - 2010.06.28 00:19:55.
