data_PCOD8081560
_publ_section_title
;
Structure prediction by ZEFSAII (Michael W. Deem and Ramdas Pophale) SiO2 
 PCOD8081560
Probable space group: C 2/M
;
_chemical_formula_sum "Si O2"
_cell_formula_units_Z 64
_cell_length_a 29.680525
_cell_length_b 9.281112
_cell_length_c 14.843802
_cell_angle_alpha 90.000000
_cell_angle_beta 78.979651
_cell_angle_gamma 90.000000
_cell_volume 4013.592821
_symmetry_space_group_name_H-M "C 2/M"
_symmetry_group_IT_number 12
_symmetry_cell_setting 'monoclinic'
loop_
_space_group_symop_operation_xyz
x,y,z
-x,y,-z
-x,-y,-z
x,-y,z
1/2+x,1/2+y,z
1/2-x,1/2+y,-z
1/2-x,1/2-y,-z
1/2+x,1/2-y,z
loop_
_atom_site_type_symbol
_atom_site_label
_atom_site_fract_x
_atom_site_fract_y
_atom_site_fract_z
Si Si1 0.194609 0.169942 0.880196
Si Si2 0.058069 0.331269 0.066452
Si Si3 0.355359 0.664910 0.919230
Si Si4 0.686630 0.664204 0.569659
Si Si5 0.455682 0.168659 0.131948
Si Si6 0.623139 0.333020 0.755838
Si Si7 0.213995 0.333189 0.391581
Si Si8 0.715179 0.331992 0.210802
O O1 0.158946 0.219696 0.817543
O O2 0.241015 0.257540 0.849999
O O3 0.205542 0.000000 0.868939
O O4 0.174784 0.216063 0.984343
O O5 0.066970 0.500000 0.068193
O O6 0.097627 0.252923 0.107061
O O7 0.008896 0.292443 0.129210
O O8 0.058704 0.279864 0.962436
O O9 0.369122 0.500000 0.928045
O O10 0.327429 0.690028 0.839117
O O11 0.685441 0.500000 0.534622
O O12 0.643324 0.698925 0.649301
O O13 0.732079 0.688497 0.611718
O O14 0.684787 0.771955 0.486349
O O15 0.424656 0.248980 0.217236
O O16 0.447544 0.000000 0.145313
O O17 0.612712 0.500000 0.773607
O O18 0.201333 0.500000 0.382568
O O19 0.200582 0.243698 0.308892
O O20 0.725781 0.500000 0.223345
#
# Coordination Sequence:
#
# PCOD8081560 Si02
#       8
#     8   8   8   8   8   8   8   8
#     4  10  19  33  47  66  98 131 166 202 229 272
#     4   9  18  32  48  68  95 127 161 200 241 280
#     4  10  21  34  48  68  96 129 168 205 235 274
#     4   9  18  32  48  69  96 123 156 198 239 283
#     4   9  18  31  47  70  98 124 158 200 240 285
#     4  10  18  30  49  72  98 129 159 193 238 283
#     4  10  19  33  50  69  93 125 160 199 240 282
#     4  11  22  33  47  69  96 130 167 202 238 278
#
# _framework density 15.945812999999999
#
# number of rings (size 3 to 8) (size 9 to 14) (size 15 to 20)
#    0.000    2.250    2.500    1.875    0.000    3.500 
#    0.000    1.250    0.000    0.000    0.000    0.875 
#    0.000    7.000    0.000    0.000    0.000    0.000 
#
# Total GULP energy -396870.682073 kJ/mol
# GULP energy per Si atom -12402.208815 kJ/mol
# Density = 1.590952 g / cm^3
# Si number density = 15.945813 Si / 1000 Ang^3
#
#
#
# Elastic Constant Matrix: (Units=GPa)
#
#
# Indices 1 2 3 4 5 6 
#
# 1 93.0707 54.2174 45.9900 0.0000 -12.3735 0.0000
# 2 54.2174 75.3799 47.3747 0.0000 -5.5960 0.0000
# 3 45.9900 47.3747 85.9502 0.0000 -7.2817 0.0000
# 4 0.0000 0.0000 0.0000 28.5007 0.0000 -3.9279
# 5 -12.3735 -5.5960 -7.2817 0.0000 22.5450 0.0000
# 6 0.0000 0.0000 0.0000 -3.9279 0.0000 29.7498
#
#
#
# Elastic Compliance Matrix: (Units=1/GPa)
#
#
# Indices 1 2 3 4 5 6 
#
# 1 0.020433 -0.011746 -0.003861 0.000000 0.007051 0.000000
# 2 -0.011746 0.027097 -0.008869 0.000000 -0.002585 0.000000
# 3 -0.003861 -0.008869 0.018736 0.000000 0.001731 0.000000
# 4 0.000000 0.000000 0.000000 0.035737 0.000000 0.004718
# 5 0.007051 -0.002585 0.001731 0.000000 0.048143 0.000000
# 6 0.000000 0.000000 0.000000 0.004718 0.000000 0.034237
#
#
# Mechanical properties :
#
#
# Convention : Reuss Voigt Hill
#
# Bulk Modulus (GPa) = 57.76372 61.06279 59.41325
# Shear Modulus (GPa) = 20.91119 23.28036 22.09578
#
# Velocity S-wave (km/s) = 3.62524 3.82510 3.72651
# Velocity P-wave (km/s) = 7.33668 7.60826 7.47370
#
# Compressibility (1/GPa) = 0.01731190
#
# Stress axis : x y z
#
# Youngs Moduli (GPa) = 48.94161 36.90467 53.37283
#
# Poissons Ratio (x) = 0.43348 0.20609
# Poissons Ratio (y) = 0.57487 0.47339
# Poissons Ratio (z) = 0.18898 0.32732
#
# Static dielectric constant tensor:
#      x y z
#    x 2.861280 0.000000 -0.074160 
#    y 0.000000 3.022850 0.000000 
#    z -0.074160 0.000000 2.948720 
# 
# 
# High freq. dielectric constant tensor:
#      x y z
#    x 1.592630 0.000000 -0.011240 
#    y 0.000000 1.617390 0.000000 
#    z -0.011240 0.000000 1.601560 
# 
# From -- ./inp_files/244166.got.cif
#   From: 2010.06.25/outbox.cif.g09.slc.cpg/sg12_123_cif.got.tgz:244166.got - 2010.06.28 00:19:55.
