data_PCOD8081495
_publ_section_title
;
Structure prediction by ZEFSAII (Michael W. Deem and Ramdas Pophale) SiO2 
 PCOD8081495
Probable space group: C 2/M
;
_chemical_formula_sum "Si O2"
_cell_formula_units_Z 56
_cell_length_a 18.556143
_cell_length_b 14.256458
_cell_length_c 23.155474
_cell_angle_alpha 90.000000
_cell_angle_beta 31.686369
_cell_angle_gamma 90.000000
_cell_volume 3217.621687
_symmetry_space_group_name_H-M "C 2/M"
_symmetry_group_IT_number 12
_symmetry_cell_setting 'monoclinic'
loop_
_space_group_symop_operation_xyz
x,y,z
-x,y,-z
-x,-y,-z
x,-y,z
1/2+x,1/2+y,z
1/2-x,1/2+y,-z
1/2-x,1/2-y,-z
1/2+x,1/2-y,z
loop_
_atom_site_type_symbol
_atom_site_label
_atom_site_fract_x
_atom_site_fract_y
_atom_site_fract_z
Si Si1 0.212963 0.108023 0.881850
Si Si2 0.559811 0.399230 0.610979
Si Si3 0.853821 0.893934 0.575169
Si Si4 0.677074 0.104653 0.492505
Si Si5 0.516688 0.784398 0.289264
Si Si6 0.069038 0.108367 0.863253
Si Si7 0.831031 0.767418 0.307896
O O1 0.335714 0.170971 0.822672
O O2 0.181713 0.129954 0.835884
O O3 0.254893 0.000000 0.860245
O O4 0.080819 0.131100 0.010169
O O5 0.480607 0.500000 0.662763
O O6 0.641963 0.382647 0.496336
O O7 0.673311 0.402275 0.582565
O O8 0.456790 0.314816 0.696076
O O9 0.735288 0.823905 0.678020
O O10 0.000000 0.863212 0.500000
O O11 0.817107 0.000000 0.619510
O O12 0.569559 0.148037 0.610275
O O13 0.701842 0.172096 0.420678
O O14 0.626453 0.000000 0.508825
O O15 0.438910 0.768148 0.282165
O O16 0.089991 0.172734 0.793522
O O17 0.079561 0.000000 0.837073
#
# Coordination Sequence:
#
# PCOD8081495 Si02
#       7
#     8   8   8   8   8   8   8
#     4   9  20  38  58  76  99 136 174 213 267 320
#     4   9  17  31  46  66 103 140 166 195 239 301
#     4  10  20  32  46  69 104 142 175 203 241 301
#     4  10  18  30  48  76 109 135 160 201 259 312
#     4  11  19  31  51  81 105 131 172 210 259 304
#     4   9  20  39  57  75 101 135 175 216 263 317
#     4  11  20  32  53  80 106 133 172 218 258 300
#
# _framework density 17.404159
#
# number of rings (size 3 to 8) (size 9 to 14) (size 15 to 20)
#    0.000    2.143    2.857    2.571    2.000    1.714 
#    0.000    0.000    0.000    4.286    0.000    2.000 
#    0.000    0.000    0.000    0.000    0.000    0.000 
#
# Total GULP energy -347079.540459 kJ/mol
# GULP energy per Si atom -12395.697874 kJ/mol
# Density = 1.736455 g / cm^3
# Si number density = 17.404159 Si / 1000 Ang^3
#
#
#
# Elastic Constant Matrix: (Units=GPa)
#
#
# Indices 1 2 3 4 5 6 
#
# 1 48.4538 45.4062 36.7715 -0.0005 -6.1075 0.0001
# 2 45.4062 128.0382 57.8417 0.0001 -10.3878 0.0000
# 3 36.7715 57.8417 77.9046 -0.0002 -1.4253 0.0013
# 4 -0.0005 0.0001 -0.0002 38.0159 0.0010 -1.2048
# 5 -6.1075 -10.3878 -1.4253 0.0010 21.4171 -0.0006
# 6 0.0001 0.0000 0.0013 -1.2048 -0.0006 18.6927
#
#
#
# Elastic Compliance Matrix: (Units=1/GPa)
#
#
# Indices 1 2 3 4 5 6 
#
# 1 0.037508 -0.007284 -0.012180 0.000000 0.006353 0.000001
# 2 -0.007284 0.013757 -0.006700 0.000000 0.004149 0.000001
# 3 -0.012180 -0.006700 0.023465 0.000000 -0.005161 -0.000002
# 4 0.000000 0.000000 0.000000 0.026359 -0.000001 0.001699
# 5 0.006353 0.004149 -0.005161 -0.000001 0.050172 0.000002
# 6 0.000001 0.000001 -0.000002 0.001699 0.000002 0.053606
#
#
# Mechanical properties :
#
#
# Convention : Reuss Voigt Hill
#
# Bulk Modulus (GPa) = 44.63751 59.38173 52.00962
# Shear Modulus (GPa) = 18.89209 23.25029 21.07119
#
# Velocity S-wave (km/s) = 3.29826 3.65897 3.48328
# Velocity P-wave (km/s) = 6.34097 7.21416 6.79161
#
# Compressibility (1/GPa) = 0.02240268
#
# Stress axis : x y z
#
# Youngs Moduli (GPa) = 26.66115 72.69272 42.61627
#
# Poissons Ratio (x) = 0.52947 0.51906
# Poissons Ratio (y) = 0.19419 0.28553
# Poissons Ratio (z) = 0.32473 0.48704
#
# Static dielectric constant tensor:
#      x y z
#    x 3.132520 0.000000 0.065820 
#    y 0.000000 3.693600 0.000000 
#    z 0.065820 0.000000 2.957570 
# 
# 
# High freq. dielectric constant tensor:
#      x y z
#    x 1.662350 0.000000 0.004710 
#    y 0.000000 1.689720 0.000000 
#    z 0.004710 0.000000 1.639920 
# 
# From -- ./inp_files/189242.got.cif
#   From: 2010.06.25/outbox.cif.g09.slc.cpg/sg12_95_cif.got.tgz:189242.got - 2010.06.28 00:19:55.
