data_PCOD8081006
_publ_section_title
;
Structure prediction by ZEFSAII (Michael W. Deem and Ramdas Pophale) SiO2 
 PCOD8081006
Probable space group: C 2/M
;
_chemical_formula_sum "Si O2"
_cell_formula_units_Z 48
_cell_length_a 22.900062
_cell_length_b 13.988486
_cell_length_c 9.764907
_cell_angle_alpha 90.000000
_cell_angle_beta 59.648690
_cell_angle_gamma 90.000000
_cell_volume 2699.341219
_symmetry_space_group_name_H-M "C 2/M"
_symmetry_group_IT_number 12
_symmetry_cell_setting 'monoclinic'
loop_
_space_group_symop_operation_xyz
x,y,z
-x,y,-z
-x,-y,-z
x,-y,z
1/2+x,1/2+y,z
1/2-x,1/2+y,-z
1/2-x,1/2-y,-z
1/2+x,1/2-y,z
loop_
_atom_site_type_symbol
_atom_site_label
_atom_site_fract_x
_atom_site_fract_y
_atom_site_fract_z
Si Si1 0.787250 0.111293 0.673835
Si Si2 0.608166 0.704851 0.646595
Si Si3 0.302723 0.612049 0.241297
Si Si4 0.179433 0.609676 0.581472
Si Si5 0.982555 0.111653 0.677651
Si Si6 0.168936 0.887139 0.090395
O O1 0.848465 0.166219 0.531145
O O2 0.715998 0.131424 0.683720
O O3 0.783782 0.143838 0.837148
O O4 0.806122 0.000000 0.637940
O O5 0.634921 0.662274 0.757215
O O6 0.615122 0.820674 0.643768
O O7 0.530723 0.674997 0.717875
O O8 0.317064 0.500000 0.231260
O O9 0.231986 0.636137 0.398329
O O10 0.299639 0.651530 0.089113
O O11 0.154886 0.500000 0.600771
O O12 0.000000 0.131472 0.500000
O O13 0.907365 0.149855 0.797144
O O14 0.991870 0.000000 0.702657
O O15 0.166333 0.000000 0.086205
#
# Coordination Sequence:
#
# PCOD8081006 Si02
#       6
#     8   8   8   8   8   8
#     4   9  15  27  47  69  94 124 152 183 226 287
#     4  11  18  29  47  68  95 127 161 191 228 276
#     4   9  17  29  46  73 103 123 145 190 241 283
#     4   9  19  33  48  66  91 125 166 201 231 267
#     4  10  18  29  48  73  99 125 152 183 224 289
#     4   9  17  28  45  74 104 126 147 177 235 294
#
# _framework density 17.782115999999998
#
# number of rings (size 3 to 8) (size 9 to 14) (size 15 to 20)
#    0.000    2.500    1.667    4.500    0.000    0.667 
#    0.000    5.833    0.000    0.500    0.000    2.333 
#    0.000    0.000    0.000    0.000    0.000    0.000 
#
# Total GULP energy -297513.386402 kJ/mol
# GULP energy per Si atom -12396.391100 kJ/mol
# Density = 1.774164 g / cm^3
# Si number density = 17.782116 Si / 1000 Ang^3
#
#
#
# Elastic Constant Matrix: (Units=GPa)
#
#
# Indices 1 2 3 4 5 6 
#
# 1 73.1857 44.2952 37.5715 0.0000 11.7396 0.0000
# 2 44.2952 60.6122 23.4299 0.0000 3.1334 0.0000
# 3 37.5715 23.4299 100.1925 0.0000 30.5684 0.0000
# 4 0.0000 0.0000 0.0000 5.7358 0.0000 -6.5229
# 5 11.7396 3.1334 30.5684 0.0000 23.7943 0.0000
# 6 0.0000 0.0000 0.0000 -6.5229 0.0000 22.1967
#
#
#
# Elastic Compliance Matrix: (Units=1/GPa)
#
#
# Indices 1 2 3 4 5 6 
#
# 1 0.028052 -0.018480 -0.004470 0.000000 -0.005665 0.000000
# 2 -0.018480 0.030686 -0.002952 0.000000 0.008869 0.000000
# 3 -0.004470 -0.002952 0.019005 0.000000 -0.021821 0.000000
# 4 0.000000 0.000000 0.000000 0.261854 0.000000 0.076950
# 5 -0.005665 0.008869 -0.021821 0.000000 0.071688 0.000000
# 6 0.000000 0.000000 0.000000 0.076950 0.000000 0.067665
#
#
# Mechanical properties :
#
#
# Convention : Reuss Voigt Hill
#
# Bulk Modulus (GPa) = 38.55031 49.39819 43.97425
# Shear Modulus (GPa) = 9.26960 18.92494 14.09727
#
# Velocity S-wave (km/s) = 2.28565 3.26585 2.81869
# Velocity P-wave (km/s) = 5.35648 6.48545 5.94781
#
# Compressibility (1/GPa) = 0.02594013
#
# Stress axis : x y z
#
# Youngs Moduli (GPa) = 35.64846 32.58841 52.61833
#
# Poissons Ratio (x) = 0.60222 0.23518
# Poissons Ratio (y) = 0.65877 0.15533
# Poissons Ratio (z) = 0.15933 0.09620
#
# Static dielectric constant tensor:
#      x y z
#    x 3.192090 0.000000 0.356830 
#    y 0.000000 3.129160 0.000000 
#    z 0.356830 0.000000 3.594290 
# 
# 
# High freq. dielectric constant tensor:
#      x y z
#    x 1.664740 0.000000 0.027640 
#    y 0.000000 1.669210 0.000000 
#    z 0.027640 0.000000 1.678460 
# 
# From -- ./inp_files/85689.got.cif
#   From: 2010.06.25/outbox.cif.g09.slc.cpg/sg12_43_cif.got.tgz:85689.got - 2010.06.28 00:19:55.
