data_PCOD8081448
_publ_section_title
;
Structure prediction by ZEFSAII (Michael W. Deem and Ramdas Pophale) SiO2 
 PCOD8081448
Probable space group: C 2/M
;
_chemical_formula_sum "Si O2"
_cell_formula_units_Z 64
_cell_length_a 24.183810
_cell_length_b 9.018181
_cell_length_c 18.177566
_cell_angle_alpha 90.000000
_cell_angle_beta 119.600693
_cell_angle_gamma 90.000000
_cell_volume 3447.017352
_symmetry_space_group_name_H-M "C 2/M"
_symmetry_group_IT_number 12
_symmetry_cell_setting 'monoclinic'
loop_
_space_group_symop_operation_xyz
x,y,z
-x,y,-z
-x,-y,-z
x,-y,z
1/2+x,1/2+y,z
1/2-x,1/2+y,-z
1/2-x,1/2-y,-z
1/2+x,1/2-y,z
loop_
_atom_site_type_symbol
_atom_site_label
_atom_site_fract_x
_atom_site_fract_y
_atom_site_fract_z
Si Si1 0.329725 0.171996 0.271671
Si Si2 0.413622 0.173557 0.781506
Si Si3 0.340733 0.671727 0.974443
Si Si4 0.508632 0.329146 0.283677
Si Si5 0.366612 0.330482 0.152063
Si Si6 0.469461 0.826983 0.404222
Si Si7 0.017524 0.160938 0.930941
Si Si8 0.294969 0.824669 0.801118
O O1 0.337963 0.219114 0.192392
O O2 0.394156 0.207245 0.358329
O O3 0.272379 0.262413 0.272194
O O4 0.312178 0.000000 0.261751
O O5 0.429575 0.258231 0.715882
O O6 0.471611 0.210598 0.872947
O O7 0.349186 0.230530 0.779585
O O8 0.409731 0.000000 0.762896
O O9 0.333384 0.500000 0.947201
O O10 0.302178 0.767440 0.890021
O O11 0.324698 0.696355 0.050536
O O12 0.412643 0.727612 0.019944
O O13 0.522909 0.500000 0.305705
O O14 0.443385 0.300834 0.193059
O O15 0.502551 0.257700 0.359557
O O16 0.358061 0.500000 0.173840
O O17 0.500000 0.770203 0.500000
O O18 0.481980 0.000000 0.399844
O O19 0.014080 0.000000 0.884043
O O20 0.000000 0.115934 0.000000
O O21 0.294048 0.000000 0.803297
#
# Coordination Sequence:
#
# PCOD8081448 Si02
#       8
#     8   8   8   8   8   8   8   8
#     4  10  21  37  57  79 103 138 176 211 260 322
#     4  11  22  33  49  74 106 144 184 224 270 314
#     4  10  19  32  50  72 100 140 187 229 272 315
#     4  10  19  33  55  84 113 140 174 217 265 314
#     4   9  18  33  52  74 103 138 176 225 273 309
#     4   9  19  38  64  92 116 134 159 205 265 324
#     4  10  18  30  48  70  99 137 183 234 277 309
#     4  11  24  37  49  71 105 147 188 227 266 307
#
# _framework density 18.566776000000001
#
# number of rings (size 3 to 8) (size 9 to 14) (size 15 to 20)
#    0.000    2.000    2.500    1.500    0.000    4.500 
#    0.000    0.000    0.000    0.750    0.000    0.000 
#    0.000    0.000    0.000    0.000    0.000    0.000 
#
# Total GULP energy -396590.329580 kJ/mol
# GULP energy per Si atom -12393.447799 kJ/mol
# Density = 1.852452 g / cm^3
# Si number density = 18.566776 Si / 1000 Ang^3
#
#
#
# Elastic Constant Matrix: (Units=GPa)
#
#
# Indices 1 2 3 4 5 6 
#
# 1 84.1275 39.9905 45.4974 0.0000 7.8516 0.0000
# 2 39.9905 70.5257 41.3358 0.0000 -1.1528 0.0000
# 3 45.4974 41.3358 97.5318 0.0000 -6.9211 0.0000
# 4 0.0000 0.0000 0.0000 22.8152 0.0000 -0.2120
# 5 7.8516 -1.1528 -6.9211 0.0000 23.2118 0.0000
# 6 0.0000 0.0000 0.0000 -0.2120 0.0000 30.6337
#
#
#
# Elastic Compliance Matrix: (Units=1/GPa)
#
#
# Indices 1 2 3 4 5 6 
#
# 1 0.019978 -0.007497 -0.006792 0.000000 -0.009155 0.000000
# 2 -0.007497 0.021729 -0.005573 0.000000 0.001953 0.000000
# 3 -0.006792 -0.005573 0.016271 0.000000 0.006872 0.000000
# 4 0.000000 0.000000 0.000000 0.043833 0.000000 0.000303
# 5 -0.009155 0.001953 0.006872 0.000000 0.048325 0.000000
# 6 0.000000 0.000000 0.000000 0.000303 0.000000 0.032646
#
#
# Mechanical properties :
#
#
# Convention : Reuss Voigt Hill
#
# Bulk Modulus (GPa) = 54.78329 56.20362 55.49345
# Shear Modulus (GPa) = 21.87319 23.68954 22.78137
#
# Velocity S-wave (km/s) = 3.43604 3.57586 3.50665
# Velocity P-wave (km/s) = 6.73142 6.88374 6.80800
#
# Compressibility (1/GPa) = 0.01825374
#
# Stress axis : x y z
#
# Youngs Moduli (GPa) = 50.05483 46.02197 61.45901
#
# Poissons Ratio (x) = 0.34503 0.41742
# Poissons Ratio (y) = 0.37527 0.34252
# Poissons Ratio (z) = 0.33996 0.25649
#
# Static dielectric constant tensor:
#      x y z
#    x 3.600570 0.000000 0.038070 
#    y 0.000000 3.313720 0.000000 
#    z 0.038070 0.000000 3.214520 
# 
# 
# High freq. dielectric constant tensor:
#      x y z
#    x 1.727570 0.000000 -0.001490 
#    y 0.000000 1.721790 0.000000 
#    z -0.001490 0.000000 1.683950 
# 
# From -- ./inp_files/324314.got.cif
#   From: 2010.06.25/outbox.cif.g09.slc.cpg/sg12_163_cif.got.tgz:324314.got - 2010.06.28 00:19:55.
