data_PCOD8081579
_publ_section_title
;
Structure prediction by ZEFSAII (Michael W. Deem and Ramdas Pophale) SiO2 
 PCOD8081579
Probable space group: C 2/M
;
_chemical_formula_sum "Si O2"
_cell_formula_units_Z 64
_cell_length_a 17.415395
_cell_length_b 14.166826
_cell_length_c 20.560315
_cell_angle_alpha 90.000000
_cell_angle_beta 53.403782
_cell_angle_gamma 90.000000
_cell_volume 4072.618775
_symmetry_space_group_name_H-M "C 2/M"
_symmetry_group_IT_number 12
_symmetry_cell_setting 'monoclinic'
loop_
_space_group_symop_operation_xyz
x,y,z
-x,y,-z
-x,-y,-z
x,-y,z
1/2+x,1/2+y,z
1/2-x,1/2+y,-z
1/2-x,1/2-y,-z
1/2+x,1/2-y,z
loop_
_atom_site_type_symbol
_atom_site_label
_atom_site_fract_x
_atom_site_fract_y
_atom_site_fract_z
Si Si1 0.520707 0.888013 0.590589
Si Si2 0.673043 0.607822 0.751937
Si Si3 0.470439 0.888102 0.756293
Si Si4 0.747625 0.106735 0.145419
Si Si5 0.606741 0.105138 0.920326
Si Si6 0.964363 0.727365 0.156078
Si Si7 0.667449 0.246621 0.988618
Si Si8 0.852103 0.388213 0.586323
O O1 0.520831 0.850857 0.664531
O O2 0.429218 0.846092 0.598341
O O3 0.617476 0.857801 0.502617
O O4 0.511395 0.000000 0.597226
O O5 0.639210 0.500000 0.756726
O O6 0.730591 0.615173 0.789844
O O7 0.581073 0.674269 0.798158
O O8 0.745119 0.644764 0.658792
O O9 0.359824 0.856702 0.812356
O O10 0.523970 0.840137 0.788541
O O11 0.479589 0.000000 0.759516
O O12 0.822624 0.166206 0.065545
O O13 0.758247 0.000000 0.115632
O O14 0.606622 0.172418 0.857206
O O15 0.673370 0.150316 0.943095
O O16 0.645928 0.000000 0.884068
O O17 0.500000 0.096773 0.000000
O O18 0.064683 0.754477 0.073512
O O19 0.750000 0.250000 0.000000
O O20 0.855719 0.500000 0.591307
#
# Coordination Sequence:
#
# PCOD8081579 Si02
#       8
#     8   8   8   8   8   8   8   8
#     4   8  13  23  44  72  96 116 148 192 233 275
#     4  10  19  32  49  69  96 129 156 186 235 287
#     4  10  18  30  49  73  94 120 156 198 239 273
#     4  10  19  32  50  69  92 121 158 200 236 273
#     4   9  19  34  49  66  89 120 154 190 237 281
#     4  11  21  32  49  66  96 128 158 194 231 282
#     4  11  21  34  48  68  92 120 161 202 235 271
#     4   8  13  24  44  70  96 121 148 185 234 282
#
# _framework density 15.714703999999999
#
# number of rings (size 3 to 8) (size 9 to 14) (size 15 to 20)
#    0.000    2.375    3.750    1.125    0.000    1.500 
#    0.000    1.875    0.000    0.000    0.000    0.000 
#    0.000    0.000    0.000    5.750    0.000    0.750 
#
# Total GULP energy -396618.419011 kJ/mol
# GULP energy per Si atom -12394.325594 kJ/mol
# Density = 1.567894 g / cm^3
# Si number density = 15.714704 Si / 1000 Ang^3
#
#
#
# Elastic Constant Matrix: (Units=GPa)
#
#
# Indices 1 2 3 4 5 6 
#
# 1 70.3638 31.4281 36.2522 0.0000 2.9612 0.0000
# 2 31.4281 66.3297 45.3114 0.0000 -6.2158 0.0000
# 3 36.2522 45.3114 123.9564 0.0000 0.1020 0.0000
# 4 0.0000 0.0000 0.0000 15.3863 0.0000 2.9873
# 5 2.9612 -6.2158 0.1020 0.0000 19.6757 0.0000
# 6 0.0000 0.0000 0.0000 2.9873 0.0000 18.6427
#
#
#
# Elastic Compliance Matrix: (Units=1/GPa)
#
#
# Indices 1 2 3 4 5 6 
#
# 1 0.019349 -0.007738 -0.002826 0.000000 -0.005342 0.000000
# 2 -0.007738 0.024024 -0.006526 0.000000 0.008788 0.000000
# 3 -0.002826 -0.006526 0.011281 0.000000 -0.001695 0.000000
# 4 0.000000 0.000000 0.000000 0.067080 0.000000 -0.010749
# 5 -0.005342 0.008788 -0.001695 0.000000 0.054413 0.000000
# 6 0.000000 0.000000 0.000000 -0.010749 0.000000 0.055363
#
#
# Mechanical properties :
#
#
# Convention : Reuss Voigt Hill
#
# Bulk Modulus (GPa) = 48.84232 54.07037 51.45634
# Shear Modulus (GPa) = 18.34771 20.58482 19.46626
#
# Velocity S-wave (km/s) = 3.42065 3.62319 3.52338
# Velocity P-wave (km/s) = 6.83734 7.21010 7.02619
#
# Compressibility (1/GPa) = 0.02047405
#
# Stress axis : x y z
#
# Youngs Moduli (GPa) = 51.68301 41.62458 88.64676
#
# Poissons Ratio (x) = 0.32209 0.25049
# Poissons Ratio (y) = 0.39992 0.57852
# Poissons Ratio (z) = 0.14604 0.27165
#
# Static dielectric constant tensor:
#      x y z
#    x 2.829540 0.000000 0.073460 
#    y 0.000000 2.881800 0.000000 
#    z 0.073460 0.000000 3.332490 
# 
# 
# High freq. dielectric constant tensor:
#      x y z
#    x 1.582970 0.000000 0.009000 
#    y 0.000000 1.573760 0.000000 
#    z 0.009000 0.000000 1.610880 
# 
# From -- ./inp_files/270255.got.cif
#   From: 2010.06.25/outbox.cif.g09.slc.cpg/sg12_136_cif.got.tgz:270255.got - 2010.06.28 00:19:55.
