data_PCOD8081197
_publ_section_title
;
Structure prediction by ZEFSAII (Michael W. Deem and Ramdas Pophale) SiO2 
 PCOD8081197
Probable space group: C 2/M
;
_chemical_formula_sum "Si O2"
_cell_formula_units_Z 56
_cell_length_a 14.057336
_cell_length_b 14.217517
_cell_length_c 14.805029
_cell_angle_alpha 90.000000
_cell_angle_beta 84.781269
_cell_angle_gamma 90.000000
_cell_volume 2946.673575
_symmetry_space_group_name_H-M "C 2/M"
_symmetry_group_IT_number 12
_symmetry_cell_setting 'monoclinic'
loop_
_space_group_symop_operation_xyz
x,y,z
-x,y,-z
-x,-y,-z
x,-y,z
1/2+x,1/2+y,z
1/2-x,1/2+y,-z
1/2-x,1/2-y,-z
1/2+x,1/2-y,z
loop_
_atom_site_type_symbol
_atom_site_label
_atom_site_fract_x
_atom_site_fract_y
_atom_site_fract_z
Si Si1 0.957960 0.778659 0.745012
Si Si2 0.603782 0.392654 0.957711
Si Si3 0.197812 0.891758 0.134738
Si Si4 0.040992 0.897226 0.585142
Si Si5 0.795058 0.733660 0.635751
Si Si6 0.758741 0.895771 0.509526
Si Si7 0.649540 0.246879 0.802149
O O1 0.894920 0.840575 0.817446
O O2 0.889367 0.716626 0.687821
O O3 0.020515 0.847666 0.679663
O O4 0.039187 0.716455 0.789079
O O5 0.591752 0.500000 0.925637
O O6 0.644842 0.333252 0.871599
O O7 0.500000 0.355304 0.000000
O O8 0.684404 0.385795 0.028408
O O9 0.295441 0.840955 0.157355
O O10 0.202120 0.000000 0.166947
O O11 0.153150 0.906932 0.565005
O O12 0.000000 0.842568 0.500000
O O13 0.991012 0.000000 0.592934
O O14 0.785055 0.841611 0.600112
O O15 0.811415 0.666240 0.547456
O O16 0.703329 0.716925 0.707211
O O17 0.717272 0.000000 0.536779
#
# Coordination Sequence:
#
# PCOD8081197 Si02
#       7
#     8   8   8   8   8   8   8
#     4  11  20  34  55  85 118 149 190 242 288 338
#     4  10  20  37  62  92 118 145 186 239 293 347
#     4  10  22  39  60  86 119 156 195 235 285 348
#     4  10  18  29  51  79 107 142 182 235 291 332
#     4  10  22  35  53  83 113 152 191 233 287 341
#     4  10  20  36  54  77 112 150 193 240 285 334
#     4  11  22  36  58  88 119 153 188 238 295 346
#
# _framework density 19.004480000000001
#
# number of rings (size 3 to 8) (size 9 to 14) (size 15 to 20)
#    0.000    1.714    4.286    0.857    0.000    3.429 
#    0.000    0.714    0.000    2.143    0.000    0.000 
#    0.000    0.000    0.000    0.000    0.000    0.000 
#
# Total GULP energy -346973.739106 kJ/mol
# GULP energy per Si atom -12391.919254 kJ/mol
# Density = 1.896123 g / cm^3
# Si number density = 19.004480 Si / 1000 Ang^3
#
#
#
# Elastic Constant Matrix: (Units=GPa)
#
#
# Indices 1 2 3 4 5 6 
#
# 1 125.3555 43.9421 31.9440 0.0000 17.8309 0.0000
# 2 43.9421 80.2877 31.2457 0.0000 2.6213 0.0000
# 3 31.9440 31.2457 75.2069 0.0000 1.8807 0.0000
# 4 0.0000 0.0000 0.0000 21.3072 0.0000 2.4977
# 5 17.8309 2.6213 1.8807 0.0000 35.6781 0.0000
# 6 0.0000 0.0000 0.0000 2.4977 0.0000 22.1356
#
#
#
# Elastic Compliance Matrix: (Units=1/GPa)
#
#
# Indices 1 2 3 4 5 6 
#
# 1 0.011057 -0.004901 -0.002534 0.000000 -0.005032 0.000000
# 2 -0.004901 0.017051 -0.005039 0.000000 0.001462 0.000000
# 3 -0.002534 -0.005039 0.016447 0.000000 0.000770 0.000000
# 4 0.000000 0.000000 0.000000 0.047562 0.000000 -0.005367
# 5 -0.005032 0.001462 0.000770 0.000000 0.030395 0.000000
# 6 0.000000 0.000000 0.000000 -0.005367 0.000000 0.045782
#
#
# Mechanical properties :
#
#
# Convention : Reuss Voigt Hill
#
# Bulk Modulus (GPa) = 51.00317 55.01264 53.00790
# Shear Modulus (GPa) = 25.02781 27.40539 26.21660
#
# Velocity S-wave (km/s) = 3.63291 3.80155 3.71819
# Velocity P-wave (km/s) = 6.67031 6.94832 6.81073
#
# Compressibility (1/GPa) = 0.01960662
#
# Stress axis : x y z
#
# Youngs Moduli (GPa) = 90.44112 58.64837 60.80001
#
# Poissons Ratio (x) = 0.28743 0.15409
# Poissons Ratio (y) = 0.44324 0.30636
# Poissons Ratio (z) = 0.22921 0.29552
#
# Static dielectric constant tensor:
#      x y z
#    x 3.580920 0.000000 0.185020 
#    y 0.000000 3.408690 0.000000 
#    z 0.185020 0.000000 3.535110 
# 
# 
# High freq. dielectric constant tensor:
#      x y z
#    x 1.734090 0.000000 0.015860 
#    y 0.000000 1.709080 0.000000 
#    z 0.015860 0.000000 1.749940 
# 
# From -- ./inp_files/214188.got.cif
#   From: 2010.06.25/outbox.cif.g09.slc.cpg/sg12_108_cif.got.tgz:214188.got - 2010.06.28 00:19:55.
