data_PCOD8081606
_publ_section_title
;
Structure prediction by ZEFSAII (Michael W. Deem and Ramdas Pophale) SiO2 
 PCOD8081606
Probable space group: C 2/M
;
_chemical_formula_sum "Si O2"
_cell_formula_units_Z 64
_cell_length_a 24.633257
_cell_length_b 8.946175
_cell_length_c 20.216648
_cell_angle_alpha 90.000000
_cell_angle_beta 125.579277
_cell_angle_gamma 90.000000
_cell_volume 3623.474070
_symmetry_space_group_name_H-M "C 2/M"
_symmetry_group_IT_number 12
_symmetry_cell_setting 'monoclinic'
loop_
_space_group_symop_operation_xyz
x,y,z
-x,y,-z
-x,-y,-z
x,-y,z
1/2+x,1/2+y,z
1/2-x,1/2+y,-z
1/2-x,1/2-y,-z
1/2+x,1/2-y,z
loop_
_atom_site_type_symbol
_atom_site_label
_atom_site_fract_x
_atom_site_fract_y
_atom_site_fract_z
Si Si1 0.160718 0.675241 0.740657
Si Si2 0.819848 0.824325 0.031147
Si Si3 0.307829 0.673738 0.873217
Si Si4 0.926185 0.323447 0.708533
Si Si5 0.181158 0.324998 0.470278
Si Si6 0.924756 0.321299 0.201390
Si Si7 0.836804 0.324154 0.764906
Si Si8 0.701012 0.173975 0.630547
O O1 0.160323 0.500000 0.750577
O O2 0.232136 0.736991 0.816237
O O3 0.102040 0.737708 0.746085
O O4 0.151519 0.718230 0.656497
O O5 0.879799 0.749199 0.112681
O O6 0.814992 0.000000 0.042937
O O7 0.750000 0.750000 0.000000
O O8 0.836836 0.794783 0.966181
O O9 0.308823 0.500000 0.856016
O O10 0.351245 0.756812 0.847795
O O11 0.929298 0.500000 0.702566
O O12 0.878696 0.258462 0.616675
O O13 0.897679 0.277884 0.760037
O O14 0.000463 0.257672 0.753381
O O15 0.189512 0.500000 0.462930
O O16 0.250000 0.250000 0.500000
O O17 0.164430 0.290986 0.535445
O O18 0.921916 0.500000 0.192504
O O19 0.830534 0.500000 0.766867
O O20 0.769266 0.264811 0.683885
O O21 0.720277 0.000000 0.649802
#
# Coordination Sequence:
#
# PCOD8081606 Si02
#       8
#     8   8   8   8   8   8   8   8
#     4   8  14  28  48  71  97 128 164 200 250 301
#     4  11  21  35  55  80 106 131 170 217 254 304
#     4   9  18  33  51  74 102 130 164 210 255 301
#     4   9  19  33  50  74 106 138 173 212 259 307
#     4  10  18  31  50  74 102 134 173 217 257 301
#     4  10  19  35  54  72 103 143 171 209 259 307
#     4  10  18  30  49  75 103 132 170 213 253 302
#     4   9  17  29  48  73 101 131 166 213 259 303
#
# _framework density 17.662607000000001
#
# number of rings (size 3 to 8) (size 9 to 14) (size 15 to 20)
#    0.000    2.500    2.500    1.500    0.000    1.000 
#    0.000    3.125    0.000    7.500    0.000    0.000 
#    0.000    4.250    0.000    0.000    0.000    0.000 
#
# Total GULP energy -396624.877508 kJ/mol
# GULP energy per Si atom -12394.527422 kJ/mol
# Density = 1.762241 g / cm^3
# Si number density = 17.662607 Si / 1000 Ang^3
#
#
#
# Elastic Constant Matrix: (Units=GPa)
#
#
# Indices 1 2 3 4 5 6 
#
# 1 162.2989 39.4811 89.4239 0.0000 -11.2389 0.0000
# 2 39.4811 44.7129 35.4548 0.0000 -6.8251 0.0000
# 3 89.4239 35.4548 131.1298 0.0000 -8.5049 0.0000
# 4 0.0000 0.0000 0.0000 23.5051 0.0000 -3.1490
# 5 -11.2389 -6.8251 -8.5049 0.0000 31.9312 0.0000
# 6 0.0000 0.0000 0.0000 -3.1490 0.0000 21.2404
#
#
#
# Elastic Compliance Matrix: (Units=1/GPa)
#
#
# Indices 1 2 3 4 5 6 
#
# 1 0.010609 -0.004468 -0.005949 0.000000 0.001195 0.000000
# 2 -0.004468 0.030889 -0.005066 0.000000 0.003680 0.000000
# 3 -0.005949 -0.005066 0.013073 0.000000 0.000305 0.000000
# 4 0.000000 0.000000 0.000000 0.043406 0.000000 0.006435
# 5 0.001195 0.003680 0.000305 0.000000 0.032606 0.000000
# 6 0.000000 0.000000 0.000000 0.006435 0.000000 0.048034
#
#
# Mechanical properties :
#
#
# Convention : Reuss Voigt Hill
#
# Bulk Modulus (GPa) = 42.36569 74.09569 58.23069
# Shear Modulus (GPa) = 22.99363 26.92077 24.95720
#
# Velocity S-wave (km/s) = 3.61200 3.90829 3.76306
# Velocity P-wave (km/s) = 6.43689 7.89987 7.20561
#
# Compressibility (1/GPa) = 0.02360401
#
# Stress axis : x y z
#
# Youngs Moduli (GPa) = 94.25929 32.37399 76.49498
#
# Poissons Ratio (x) = 0.14464 0.45509
# Poissons Ratio (y) = 0.42114 0.38754
# Poissons Ratio (z) = 0.56078 0.16401
#
# Static dielectric constant tensor:
#      x y z
#    x 3.593390 0.000000 -0.283160 
#    y 0.000000 3.077550 0.000000 
#    z -0.283160 0.000000 3.457700 
# 
# 
# High freq. dielectric constant tensor:
#      x y z
#    x 1.682240 0.000000 -0.027070 
#    y 0.000000 1.658900 0.000000 
#    z -0.027070 0.000000 1.675560 
# 
# From -- ./inp_files/324254.got.cif
#   From: 2010.06.25/outbox.cif.g09.slc.cpg/sg12_163_cif.got.tgz:324254.got - 2010.06.28 00:19:55.
