data_PCOD8081565
_publ_section_title
;
Structure prediction by ZEFSAII (Michael W. Deem and Ramdas Pophale) SiO2 
 PCOD8081565
Probable space group: C 2/M
;
_chemical_formula_sum "Si O2"
_cell_formula_units_Z 64
_cell_length_a 13.953001
_cell_length_b 16.498908
_cell_length_c 19.978168
_cell_angle_alpha 90.000000
_cell_angle_beta 53.805500
_cell_angle_gamma 90.000000
_cell_volume 3711.600049
_symmetry_space_group_name_H-M "C 2/M"
_symmetry_group_IT_number 12
_symmetry_cell_setting 'monoclinic'
loop_
_space_group_symop_operation_xyz
x,y,z
-x,y,-z
-x,-y,-z
x,-y,z
1/2+x,1/2+y,z
1/2-x,1/2+y,-z
1/2-x,1/2-y,-z
1/2+x,1/2-y,z
loop_
_atom_site_type_symbol
_atom_site_label
_atom_site_fract_x
_atom_site_fract_y
_atom_site_fract_z
Si Si1 0.218042 0.192481 0.572011
Si Si2 0.762229 0.244984 0.291841
Si Si3 0.932281 0.593451 0.458476
Si Si4 0.164335 0.910463 0.815332
Si Si5 0.054089 0.177285 0.046049
Si Si6 0.781118 0.409580 0.905505
Si Si7 0.478664 0.761882 0.673923
Si Si8 0.489918 0.197331 0.821745
O O1 0.250000 0.250000 0.500000
O O2 0.261103 0.240270 0.620073
O O3 0.291388 0.109109 0.531241
O O4 0.074309 0.187875 0.629689
O O5 0.803633 0.154785 0.253950
O O6 0.642856 0.273837 0.305412
O O7 0.866683 0.309830 0.231049
O O8 0.948114 0.500000 0.427984
O O9 0.000000 0.609325 0.500000
O O10 0.982275 0.655132 0.381160
O O11 0.261077 0.903460 0.834194
O O12 0.032823 0.897359 0.899583
O O13 0.169414 0.000000 0.780574
O O14 0.058619 0.239638 0.104468
O O15 0.188224 0.147453 0.981943
O O16 0.000000 0.216958 0.000000
O O17 0.762659 0.500000 0.939664
O O18 0.917432 0.384996 0.865655
O O19 0.456025 0.776481 0.761006
#
# Coordination Sequence:
#
# PCOD8081565 Si02
#       8
#     8   8   8   8   8   8   8   8
#     4   9  19  32  48  71 100 134 167 194 232 293
#     4  10  18  31  48  72 104 132 164 202 240 290
#     4  10  19  31  51  79 109 130 151 198 257 303
#     4   9  17  28  46  74 105 129 152 196 260 313
#     4   9  18  32  50  73  99 130 167 207 251 297
#     4  10  18  30  49  73 100 128 163 206 251 302
#     4  10  19  33  51  73 103 135 167 198 242 294
#     4  10  20  32  49  75 100 132 170 205 246 293
#
# _framework density 17.243237000000001
#
# number of rings (size 3 to 8) (size 9 to 14) (size 15 to 20)
#    0.000    2.375    2.500    0.750    0.000    3.000 
#    0.000    0.000    0.000    1.125    0.000    7.875 
#    0.000    0.000    0.000    0.000    0.000    0.000 
#
# Total GULP energy -396479.346278 kJ/mol
# GULP energy per Si atom -12389.979571 kJ/mol
# Density = 1.720399 g / cm^3
# Si number density = 17.243237 Si / 1000 Ang^3
#
#
#
# Elastic Constant Matrix: (Units=GPa)
#
#
# Indices 1 2 3 4 5 6 
#
# 1 120.3350 36.3323 47.2154 0.0000 -15.5285 0.0000
# 2 36.3323 54.0146 27.0422 0.0000 1.1795 0.0000
# 3 47.2154 27.0422 88.8634 0.0000 6.5229 0.0000
# 4 0.0000 0.0000 0.0000 19.6044 0.0000 -1.1158
# 5 -15.5285 1.1795 6.5229 0.0000 34.6361 0.0000
# 6 0.0000 0.0000 0.0000 -1.1158 0.0000 18.6388
#
#
#
# Elastic Compliance Matrix: (Units=1/GPa)
#
#
# Indices 1 2 3 4 5 6 
#
# 1 0.013410 -0.006304 -0.005743 0.000000 0.007308 0.000000
# 2 -0.006304 0.024814 -0.003987 0.000000 -0.002921 0.000000
# 3 -0.005743 -0.003987 0.015917 0.000000 -0.005437 0.000000
# 4 0.000000 0.000000 0.000000 0.051183 0.000000 0.003064
# 5 0.007308 -0.002921 -0.005437 0.000000 0.033272 0.000000
# 6 0.000000 0.000000 0.000000 0.003064 0.000000 0.053835
#
#
# Mechanical properties :
#
#
# Convention : Reuss Voigt Hill
#
# Bulk Modulus (GPa) = 45.30646 53.82141 49.56394
# Shear Modulus (GPa) = 21.56497 24.75075 23.15786
#
# Velocity S-wave (km/s) = 3.54027 3.79276 3.66869
# Velocity P-wave (km/s) = 6.56074 7.10358 6.83755
#
# Compressibility (1/GPa) = 0.02207191
#
# Stress axis : x y z
#
# Youngs Moduli (GPa) = 74.57056 40.29973 62.82567
#
# Poissons Ratio (x) = 0.25407 0.36081
# Poissons Ratio (y) = 0.47013 0.25049
# Poissons Ratio (z) = 0.42826 0.16068
#
# Static dielectric constant tensor:
#      x y z
#    x 3.394290 0.000000 -0.315720 
#    y 0.000000 2.885760 0.000000 
#    z -0.315720 0.000000 3.703960 
# 
# 
# High freq. dielectric constant tensor:
#      x y z
#    x 1.665450 0.000000 -0.007030 
#    y 0.000000 1.622850 0.000000 
#    z -0.007030 0.000000 1.684790 
# 
# From -- ./inp_files/305968.got.cif
#   From: 2010.06.25/outbox.cif.g09.slc.cpg/sg12_153_cif.got.tgz:305968.got - 2010.06.28 00:19:55.
