data_PCOD8081104
_publ_section_title
;
Structure prediction by ZEFSAII (Michael W. Deem and Ramdas Pophale) SiO2 
 PCOD8081104
Probable space group: C 2/M
;
_chemical_formula_sum "Si O2"
_cell_formula_units_Z 64
_cell_length_a 13.388820
_cell_length_b 14.931001
_cell_length_c 17.512319
_cell_angle_alpha 90.000000
_cell_angle_beta 94.545661
_cell_angle_gamma 90.000000
_cell_volume 3489.849164
_symmetry_space_group_name_H-M "C 2/M"
_symmetry_group_IT_number 12
_symmetry_cell_setting 'monoclinic'
loop_
_space_group_symop_operation_xyz
x,y,z
-x,y,-z
-x,-y,-z
x,-y,z
1/2+x,1/2+y,z
1/2-x,1/2+y,-z
1/2-x,1/2-y,-z
1/2+x,1/2-y,z
loop_
_atom_site_type_symbol
_atom_site_label
_atom_site_fract_x
_atom_site_fract_y
_atom_site_fract_z
Si Si1 0.145574 0.760616 0.160983
Si Si2 0.112064 0.897499 0.028270
Si Si3 0.545437 0.696865 0.769980
Si Si4 0.783119 0.103074 0.124091
Si Si5 0.703674 0.596345 0.605717
Si Si6 0.219932 0.162302 0.453574
Si Si7 0.523008 0.601915 0.375718
Si Si8 0.784569 0.272433 0.307730
O O1 0.157194 0.834781 0.096321
O O2 0.185955 0.664583 0.134460
O O3 0.207185 0.797789 0.237007
O O4 0.028664 0.750848 0.177162
O O5 0.108539 0.000000 0.057620
O O6 0.186741 0.887861 0.961970
O O7 0.000000 0.866008 0.000000
O O8 0.624619 0.636047 0.819443
O O9 0.481418 0.630793 0.713064
O O10 0.603978 0.769269 0.720954
O O11 0.757757 0.000000 0.142937
O O12 0.725712 0.500000 0.646587
O O13 0.743597 0.588623 0.520280
O O14 0.584611 0.613945 0.591509
O O15 0.750299 0.674945 0.660448
O O16 0.250000 0.250000 0.500000
O O17 0.102648 0.163511 0.424575
O O18 0.282279 0.155393 0.377433
O O19 0.561291 0.500000 0.381847
#
# Coordination Sequence:
#
# PCOD8081104 Si02
#       8
#     8   8   8   8   8   8   8   8
#     4  11  20  35  58  84 114 152 185 224 284 335
#     4  10  20  35  57  88 118 146 184 233 278 325
#     4  10  19  33  55  81 113 142 182 226 276 330
#     4  10  21  37  59  87 115 147 190 232 275 330
#     4   9  18  32  52  76 102 130 170 227 279 327
#     4  10  18  30  44  67 107 136 173 214 270 326
#     4  10  18  29  49  77 104 131 169 221 279 326
#     4   9  20  33  48  77 110 138 179 218 271 331
#
# _framework density 18.338901
#
# number of rings (size 3 to 8) (size 9 to 14) (size 15 to 20)
#    0.000    2.125    2.500    1.500    0.000    4.500 
#    0.000    0.000    0.000    4.875    0.000    0.875 
#    0.000    0.000    0.000    0.000    0.000    0.000 
#
# Total GULP energy -396524.165167 kJ/mol
# GULP energy per Si atom -12391.380161 kJ/mol
# Density = 1.829716 g / cm^3
# Si number density = 18.338901 Si / 1000 Ang^3
#
#
#
# Elastic Constant Matrix: (Units=GPa)
#
#
# Indices 1 2 3 4 5 6 
#
# 1 61.3755 50.7559 39.9459 0.0000 -7.0201 0.0000
# 2 50.7559 83.9809 44.6272 0.0000 2.0013 0.0000
# 3 39.9459 44.6272 111.1338 0.0000 -3.3042 0.0000
# 4 0.0000 0.0000 0.0000 25.1276 0.0000 2.1406
# 5 -7.0201 2.0013 -3.3042 0.0000 37.3258 0.0000
# 6 0.0000 0.0000 0.0000 2.1406 0.0000 25.9736
#
#
#
# Elastic Compliance Matrix: (Units=1/GPa)
#
#
# Indices 1 2 3 4 5 6 
#
# 1 0.036733 -0.019682 -0.005076 0.000000 0.007515 0.000000
# 2 -0.019682 0.025752 -0.003427 0.000000 -0.005386 0.000000
# 3 -0.005076 -0.003427 0.012208 0.000000 0.000310 0.000000
# 4 0.000000 0.000000 0.000000 0.040078 0.000000 -0.003303
# 5 0.007515 -0.005386 0.000310 0.000000 0.028521 0.000000
# 6 0.000000 0.000000 0.000000 -0.003303 0.000000 0.038773
#
#
# Mechanical properties :
#
#
# Convention : Reuss Voigt Hill
#
# Bulk Modulus (GPa) = 54.57608 58.57202 56.57405
# Shear Modulus (GPa) = 20.44635 25.76282 23.10459
#
# Velocity S-wave (km/s) = 3.34266 3.75216 3.55331
# Velocity P-wave (km/s) = 6.68746 7.12598 6.91020
#
# Compressibility (1/GPa) = 0.01832304
#
# Stress axis : x y z
#
# Youngs Moduli (GPa) = 27.22347 38.83191 81.91327
#
# Poissons Ratio (x) = 0.76429 0.41582
# Poissons Ratio (y) = 0.53581 0.28069
# Poissons Ratio (z) = 0.13820 0.13307
#
# Static dielectric constant tensor:
#      x y z
#    x 3.306610 0.000000 -0.231560 
#    y 0.000000 3.407010 0.000000 
#    z -0.231560 0.000000 3.780710 
# 
# 
# High freq. dielectric constant tensor:
#      x y z
#    x 1.687080 0.000000 -0.008870 
#    y 0.000000 1.686880 0.000000 
#    z -0.008870 0.000000 1.734890 
# 
# From -- ./inp_files/269866.got.cif
#   From: 2010.06.25/outbox.cif.g09.slc.cpg/sg12_135_cif.got.tgz:269866.got - 2010.06.28 00:19:55.
