data_PCOD8081390
_publ_section_title
;
Structure prediction by ZEFSAII (Michael W. Deem and Ramdas Pophale) SiO2 
 PCOD8081390
Probable space group: C 2/M
;
_chemical_formula_sum "Si O2"
_cell_formula_units_Z 64
_cell_length_a 21.110504
_cell_length_b 23.896490
_cell_length_c 9.420543
_cell_angle_alpha 90.000000
_cell_angle_beta 132.901622
_cell_angle_gamma 90.000000
_cell_volume 3481.210548
_symmetry_space_group_name_H-M "C 2/M"
_symmetry_group_IT_number 12
_symmetry_cell_setting 'monoclinic'
loop_
_space_group_symop_operation_xyz
x,y,z
-x,y,-z
-x,-y,-z
x,-y,z
1/2+x,1/2+y,z
1/2-x,1/2+y,-z
1/2-x,1/2-y,-z
1/2+x,1/2-y,z
loop_
_atom_site_type_symbol
_atom_site_label
_atom_site_fract_x
_atom_site_fract_y
_atom_site_fract_z
Si Si1 0.519876 0.748511 0.877592
Si Si2 0.693113 0.769379 0.755313
Si Si3 0.521612 0.062806 0.189802
Si Si4 0.579512 0.676708 0.712063
Si Si5 0.184383 0.314069 0.195640
Si Si6 0.872256 0.332864 0.588526
Si Si7 0.258136 0.135775 0.981352
Si Si8 0.085591 0.437096 0.711143
O O1 0.549929 0.698351 0.821139
O O2 0.437019 0.780341 0.692097
O O3 0.500000 0.720169 0.000000
O O4 0.587214 0.799282 0.001088
O O5 0.612894 0.729819 0.671870
O O6 0.758661 0.740197 0.747516
O O7 0.670760 0.824915 0.629906
O O8 0.731367 0.797828 0.958009
O O9 0.589500 0.104925 0.362303
O O10 0.435039 0.062738 0.152577
O O11 0.561249 0.000000 0.243770
O O12 0.500000 0.085109 0.000000
O O13 0.500000 0.650885 0.500000
O O14 0.654022 0.627844 0.843198
O O15 0.191145 0.330614 0.371411
O O16 0.217920 0.365893 0.149406
O O17 0.322925 0.095655 0.168256
O O18 0.100653 0.500000 0.675647
O O19 0.000000 0.411616 0.500000
#
# Coordination Sequence:
#
# PCOD8081390 Si02
#       8
#     8   8   8   8   8   8   8   8
#     4  10  18  30  48  66  97 131 167 205 251 305
#     4  11  20  30  48  69  99 136 167 213 251 308
#     4  10  20  34  50  71  98 132 173 208 247 300
#     4  11  20  34  47  72 100 133 174 210 249 306
#     4  10  19  32  43  70 102 129 172 204 247 303
#     4  11  20  29  48  71  97 137 164 208 256 301
#     4  11  20  33  53  71 101 137 171 208 257 308
#     4  10  21  36  55  80 106 131 168 214 255 304
#
# _framework density 18.384409999999999
#
# number of rings (size 3 to 8) (size 9 to 14) (size 15 to 20)
#    0.000    1.500    3.750    4.500    0.000    0.500 
#    0.000    0.000    0.000    0.375    0.000    0.000 
#    0.000    0.500    0.000    0.000    0.000    2.375 
#
# Total GULP energy -396517.224524 kJ/mol
# GULP energy per Si atom -12391.163266 kJ/mol
# Density = 1.834257 g / cm^3
# Si number density = 18.384410 Si / 1000 Ang^3
#
#
#
# Elastic Constant Matrix: (Units=GPa)
#
#
# Indices 1 2 3 4 5 6 
#
# 1 96.3135 20.1966 29.4688 0.0000 -0.7944 0.0000
# 2 20.1966 55.2736 17.0707 0.0000 10.6382 0.0000
# 3 29.4688 17.0707 66.2562 0.0000 12.1099 0.0000
# 4 0.0000 0.0000 0.0000 24.4378 0.0000 3.6978
# 5 -0.7944 10.6382 12.1099 0.0000 31.4451 0.0000
# 6 0.0000 0.0000 0.0000 3.6978 0.0000 19.2559
#
#
#
# Elastic Compliance Matrix: (Units=1/GPa)
#
#
# Indices 1 2 3 4 5 6 
#
# 1 0.012856 -0.003728 -0.005430 0.000000 0.003677 0.000000
# 2 -0.003728 0.021514 -0.002729 0.000000 -0.006321 0.000000
# 3 -0.005430 -0.002729 0.019435 0.000000 -0.006699 0.000000
# 4 0.000000 0.000000 0.000000 0.042145 0.000000 -0.008093
# 5 0.003677 -0.006321 -0.006699 0.000000 0.036613 0.000000
# 6 0.000000 0.000000 0.000000 -0.008093 0.000000 0.053486
#
#
# Mechanical properties :
#
#
# Convention : Reuss Voigt Hill
#
# Bulk Modulus (GPa) = 33.29908 39.03505 36.16706
# Shear Modulus (GPa) = 22.74446 25.10159 23.92303
#
# Velocity S-wave (km/s) = 3.52114 3.69910 3.61122
# Velocity P-wave (km/s) = 5.88925 6.28676 6.09125
#
# Compressibility (1/GPa) = 0.03003086
#
# Stress axis : x y z
#
# Youngs Moduli (GPa) = 77.78353 46.48197 51.45268
#
# Poissons Ratio (x) = 0.17331 0.27936
# Poissons Ratio (y) = 0.29001 0.14043
# Poissons Ratio (z) = 0.42233 0.12686
#
# Static dielectric constant tensor:
#      x y z
#    x 3.594730 0.000000 -0.115670 
#    y 0.000000 3.003470 0.000000 
#    z -0.115670 0.000000 3.461770 
# 
# 
# High freq. dielectric constant tensor:
#      x y z
#    x 1.716360 0.000000 -0.020530 
#    y 0.000000 1.663920 0.000000 
#    z -0.020530 0.000000 1.716290 
# 
# From -- ./inp_files/90691.got.cif
#   From: 2010.06.25/outbox.cif.g09.slc.cpg/sg12_46_cif.got.tgz:90691.got - 2010.06.28 00:19:55.
