data_PCOD8081804
_publ_section_title
;
Structure prediction by ZEFSAII (Michael W. Deem and Ramdas Pophale) SiO2 
 PCOD8081804
Probable space group: C 2/M
;
_chemical_formula_sum "Si O2"
_cell_formula_units_Z 48
_cell_length_a 32.693570
_cell_length_b 8.968102
_cell_length_c 18.344024
_cell_angle_alpha 90.000000
_cell_angle_beta 29.671359
_cell_angle_gamma 90.000000
_cell_volume 2662.466164
_symmetry_space_group_name_H-M "C 2/M"
_symmetry_group_IT_number 12
_symmetry_cell_setting 'monoclinic'
loop_
_space_group_symop_operation_xyz
x,y,z
-x,y,-z
-x,-y,-z
x,-y,z
1/2+x,1/2+y,z
1/2-x,1/2+y,-z
1/2-x,1/2-y,-z
1/2+x,1/2-y,z
loop_
_atom_site_type_symbol
_atom_site_label
_atom_site_fract_x
_atom_site_fract_y
_atom_site_fract_z
Si Si1 0.169036 0.824981 0.830613
Si Si2 0.577186 0.332422 0.609398
Si Si3 0.919970 0.324727 0.908521
Si Si4 0.250076 0.327171 0.577266
Si Si5 0.267034 0.169353 0.048185
Si Si6 0.687086 0.330538 0.314347
O O1 0.178066 0.748350 0.737497
O O2 0.251440 0.791506 0.748457
O O3 0.155849 0.000000 0.840579
O O4 0.091778 0.757074 0.995380
O O5 0.544277 0.500000 0.674314
O O6 0.508822 0.214715 0.738438
O O7 0.660782 0.302624 0.524346
O O8 0.597668 0.309463 0.490942
O O9 0.914022 0.500000 0.931032
O O10 0.849287 0.270401 0.961336
O O11 0.228700 0.500000 0.601220
O O12 0.250000 0.250000 0.500000
O O13 0.187752 0.189034 0.225506
O O14 0.281123 0.000000 0.004704
O O15 0.250000 0.250000 0.000000
O O16 0.719364 0.500000 0.283124
#
# Coordination Sequence:
#
# PCOD8081804 Si02
#       6
#     8   8   8   8   8   8
#     4  10  18  30  51  75  98 130 170 204 242 296
#     4   9  18  33  53  75  99 129 165 205 247 294
#     4  10  20  34  51  73 102 132 165 207 251 295
#     4  10  20  35  54  77 105 133 165 205 247 293
#     4   9  18  32  50  72  98 130 166 206 250 295
#     4   8  16  32  50  70  99 131 165 205 247 294
#
# _framework density 18.028396999999998
#
# number of rings (size 3 to 8) (size 9 to 14) (size 15 to 20)
#    0.000    2.667    0.000    4.500    0.000    6.667 
#    0.000    1.667    0.000   10.000    0.000    0.000 
#    0.000    0.000    0.000    0.000    0.000    0.000 
#
# Total GULP energy -297434.758361 kJ/mol
# GULP energy per Si atom -12393.114932 kJ/mol
# Density = 1.798736 g / cm^3
# Si number density = 18.028397 Si / 1000 Ang^3
#
#
#
# Elastic Constant Matrix: (Units=GPa)
#
#
# Indices 1 2 3 4 5 6 
#
# 1 81.1585 39.9387 45.1361 0.0000 33.7601 -0.0001
# 2 39.9387 100.6867 52.9180 0.0000 17.3431 0.0005
# 3 45.1361 52.9180 127.7292 -0.0006 30.3241 0.0001
# 4 0.0000 0.0000 -0.0006 33.2466 0.0001 5.7595
# 5 33.7601 17.3431 30.3241 0.0001 30.5004 -0.0001
# 6 -0.0001 0.0005 0.0001 5.7595 -0.0001 30.1945
#
#
#
# Elastic Compliance Matrix: (Units=1/GPa)
#
#
# Indices 1 2 3 4 5 6 
#
# 1 0.025698 -0.005455 -0.001053 0.000000 -0.024296 0.000000
# 2 -0.005455 0.014014 -0.004477 0.000000 0.002520 0.000000
# 3 -0.001053 -0.004477 0.012009 0.000000 -0.008229 0.000000
# 4 0.000000 0.000000 0.000000 0.031106 0.000000 -0.005933
# 5 -0.024296 0.002520 -0.008229 0.000000 0.066428 0.000000
# 6 0.000000 0.000000 0.000000 -0.005933 0.000000 0.034250
#
#
# Mechanical properties :
#
#
# Convention : Reuss Voigt Hill
#
# Bulk Modulus (GPa) = 33.61066 65.06221 49.33644
# Shear Modulus (GPa) = 23.21332 30.22709 26.72020
#
# Velocity S-wave (km/s) = 3.59220 4.09912 3.85400
# Velocity P-wave (km/s) = 5.99073 7.65316 6.87240
#
# Compressibility (1/GPa) = 0.02975247
#
# Stress axis : x y z
#
# Youngs Moduli (GPa) = 38.91307 71.35501 83.26744
#
# Poissons Ratio (x) = 0.38926 0.08767
# Poissons Ratio (y) = 0.21228 0.37277
# Poissons Ratio (z) = 0.04097 0.31944
#
# Static dielectric constant tensor:
#      x y z
#    x 3.153920 0.000000 0.410310 
#    y 0.000000 3.288680 0.000000 
#    z 0.410310 0.000000 3.500040 
# 
# 
# High freq. dielectric constant tensor:
#      x y z
#    x 1.666090 0.000000 0.037590 
#    y 0.000000 1.702230 0.000000 
#    z 0.037590 0.000000 1.699640 
# 
# From -- ./inp_files/273717.got.cif
#   From: 2010.06.25/outbox.cif.g09.slc.cpg/sg12_137_cif.got.tgz:273717.got - 2010.06.28 00:19:55.
