data_PCOD8081861
_publ_section_title
;
Structure prediction by ZEFSAII (Michael W. Deem and Ramdas Pophale) SiO2 
 PCOD8081861
Probable space group: C 2/M
;
_chemical_formula_sum "Si O2"
_cell_formula_units_Z 60
_cell_length_a 21.493015
_cell_length_b 15.363303
_cell_length_c 16.765674
_cell_angle_alpha 90.000000
_cell_angle_beta 143.467744
_cell_angle_gamma 90.000000
_cell_volume 3295.495900
_symmetry_space_group_name_H-M "C 2/M"
_symmetry_group_IT_number 12
_symmetry_cell_setting 'monoclinic'
loop_
_space_group_symop_operation_xyz
x,y,z
-x,y,-z
-x,-y,-z
x,-y,z
1/2+x,1/2+y,z
1/2-x,1/2+y,-z
1/2-x,1/2-y,-z
1/2+x,1/2-y,z
loop_
_atom_site_type_symbol
_atom_site_label
_atom_site_fract_x
_atom_site_fract_y
_atom_site_fract_z
Si Si1 0.504820 0.898886 0.818024
Si Si2 0.268196 0.901752 0.572915
Si Si3 0.398078 0.783268 0.951326
Si Si4 0.747001 0.142532 0.611894
Si Si5 0.510572 0.903675 0.378413
Si Si6 0.880209 0.906963 0.894107
Si Si7 0.500000 0.766625 0.500000
Si Si8 0.706641 0.682919 0.654705
O O1 0.386008 0.868152 0.711295
O O2 0.535294 0.886428 0.756771
O O3 0.521787 0.000000 0.861915
O O4 0.578593 0.832550 0.942468
O O5 0.214878 0.855751 0.441022
O O6 0.198432 0.895435 0.581954
O O7 0.276936 0.000000 0.554091
O O8 0.360458 0.681673 0.925197
O O9 0.298667 0.834766 0.812738
O O10 0.500000 0.787921 0.000000
O O11 0.635398 0.096319 0.503939
O O12 0.825542 0.094337 0.751617
O O13 0.742095 0.241581 0.632123
O O14 0.467939 0.829014 0.393475
O O15 0.475024 0.000000 0.371536
O O16 0.846044 0.000000 0.900881
O O17 0.000000 0.912278 0.000000
O O18 0.596889 0.702928 0.583547
#
# Coordination Sequence:
#
# PCOD8081861 Si02
#       8
#     8   8   8   8   8   8   4   8
#     4   9  18  31  52  84 111 126 159 218 275 318
#     4  10  18  30  51  79 104 128 164 214 270 313
#     4  10  18  31  50  76 110 138 166 205 266 313
#     4   9  17  30  51  76 104 129 161 215 273 314
#     4   9  17  32  55  79 101 127 164 217 268 307
#     4   9  17  28  42  66 102 141 170 195 237 304
#     4  10  21  36  49  72 102 140 178 208 243 304
#     4  10  20  33  49  74 105 140 173 206 251 304
#
# _framework density 18.206668000000001
#
# number of rings (size 3 to 8) (size 9 to 14) (size 15 to 20)
#    0.000    2.533    1.333    2.600    0.000    0.800 
#    0.000    1.667    0.000    0.000    0.000    0.933 
#    0.000    0.000    0.000    0.000    0.000    0.000 
#
# Total GULP energy -371666.324868 kJ/mol
# GULP energy per Si atom -12388.877496 kJ/mol
# Density = 1.816523 g / cm^3
# Si number density = 18.206668 Si / 1000 Ang^3
#
#
#
# Elastic Constant Matrix: (Units=GPa)
#
#
# Indices 1 2 3 4 5 6 
#
# 1 75.1221 17.7936 37.0568 0.0000 -6.5178 0.0000
# 2 17.7936 59.4689 45.7018 0.0000 -14.0390 0.0000
# 3 37.0568 45.7018 122.5033 0.0000 -13.4828 0.0000
# 4 0.0000 0.0000 0.0000 43.8517 0.0000 8.4787
# 5 -6.5178 -14.0390 -13.4828 0.0000 21.1316 0.0000
# 6 0.0000 0.0000 0.0000 8.4787 0.0000 32.6632
#
#
#
# Elastic Compliance Matrix: (Units=1/GPa)
#
#
# Indices 1 2 3 4 5 6 
#
# 1 0.015774 -0.001174 -0.004177 0.000000 0.001420 0.000000
# 2 -0.001174 0.026205 -0.008115 0.000000 0.011870 0.000000
# 3 -0.004177 -0.008115 0.012604 0.000000 0.001362 0.000000
# 4 0.000000 0.000000 0.000000 0.024009 0.000000 -0.006232
# 5 0.001420 0.011870 0.001362 0.000000 0.056516 0.000000
# 6 0.000000 0.000000 0.000000 -0.006232 0.000000 0.032233
#
#
# Mechanical properties :
#
#
# Convention : Reuss Voigt Hill
#
# Bulk Modulus (GPa) = 36.16566 50.91096 43.53831
# Shear Modulus (GPa) = 24.57133 29.96545 27.26839
#
# Velocity S-wave (km/s) = 3.67765 4.06131 3.87423
# Velocity P-wave (km/s) = 6.15959 7.07219 6.63160
#
# Compressibility (1/GPa) = 0.02765054
#
# Stress axis : x y z
#
# Youngs Moduli (GPa) = 63.39745 38.16049 79.34115
#
# Poissons Ratio (x) = 0.04481 0.33141
# Poissons Ratio (y) = 0.07445 0.64382
# Poissons Ratio (z) = 0.26482 0.30966
#
# Static dielectric constant tensor:
#      x y z
#    x 2.974360 0.000000 0.006630 
#    y 0.000000 3.689430 0.000000 
#    z 0.006630 0.000000 2.994860 
# 
# 
# High freq. dielectric constant tensor:
#      x y z
#    x 1.659460 0.000000 -0.012330 
#    y 0.000000 1.710120 0.000000 
#    z -0.012330 0.000000 1.706790 
# 
# From -- ./inp_files/234309.got.cif
#   From: 2010.06.25/outbox.cif.g09.slc.cpg/sg12_118_cif.got.tgz:234309.got - 2010.06.28 00:19:55.
