data_PCOD8081540
_publ_section_title
;
Structure prediction by ZEFSAII (Michael W. Deem and Ramdas Pophale) SiO2 
 PCOD8081540
Probable space group: C 2/M
;
_chemical_formula_sum "Si O2"
_cell_formula_units_Z 64
_cell_length_a 30.052272
_cell_length_b 8.865777
_cell_length_c 30.898883
_cell_angle_alpha 90.000000
_cell_angle_beta 28.494535
_cell_angle_gamma 90.000000
_cell_volume 3927.566016
_symmetry_space_group_name_H-M "C 2/M"
_symmetry_group_IT_number 12
_symmetry_cell_setting 'monoclinic'
loop_
_space_group_symop_operation_xyz
x,y,z
-x,y,-z
-x,-y,-z
x,-y,z
1/2+x,1/2+y,z
1/2-x,1/2+y,-z
1/2-x,1/2-y,-z
1/2+x,1/2-y,z
loop_
_atom_site_type_symbol
_atom_site_label
_atom_site_fract_x
_atom_site_fract_y
_atom_site_fract_z
Si Si1 0.331131 0.678252 0.111900
Si Si2 0.838929 0.675487 0.873246
Si Si3 0.968446 0.325392 0.927350
Si Si4 0.988652 0.321496 0.573215
Si Si5 0.366284 0.323814 0.604550
Si Si6 0.123967 0.174666 0.072110
Si Si7 0.636163 0.178213 0.243251
Si Si8 0.338787 0.827635 0.195962
O O1 0.333251 0.500000 0.105658
O O2 0.231312 0.745956 0.182156
O O3 0.350735 0.721995 0.144397
O O4 0.411651 0.742326 0.013047
O O5 0.858943 0.500000 0.864155
O O6 0.890503 0.768313 0.866569
O O7 0.878987 0.734116 0.793016
O O8 0.728731 0.708132 0.966967
O O9 0.941962 0.500000 0.951480
O O10 0.946524 0.261781 0.898739
O O11 0.077828 0.297283 0.841968
O O12 0.002298 0.500000 0.557334
O O13 0.910356 0.269064 0.606304
O O14 0.952692 0.274744 0.651756
O O15 0.086496 0.237128 0.480199
O O16 0.388646 0.500000 0.591265
O O17 0.256351 0.291072 0.696945
O O18 0.099396 0.000000 0.091020
O O19 0.648498 0.000000 0.232192
O O20 0.339185 0.000000 0.179096
#
# Coordination Sequence:
#
# PCOD8081540 Si02
#       8
#     8   8   8   8   8   8   8   8
#     4  11  20  33  49  70  98 130 166 203 237 276
#     4   9  17  32  50  68  96 127 155 191 239 290
#     4  11  22  35  49  67  95 133 170 201 238 283
#     4  10  18  30  49  71  95 124 157 197 241 287
#     4  10  19  32  47  67  94 126 161 201 240 280
#     4  10  19  32  49  72  96 122 161 202 238 280
#     4   9  17  30  48  71  98 127 157 190 234 289
#     4  10  22  36  48  66  96 133 170 202 237 285
#
# _framework density 16.295078
#
# number of rings (size 3 to 8) (size 9 to 14) (size 15 to 20)
#    0.000    2.000    2.500    3.000    0.000    3.500 
#    0.000    1.250    0.000    0.000    0.000    0.875 
#    0.000    0.000    0.000    0.000    0.000    0.000 
#
# Total GULP energy -396806.904695 kJ/mol
# GULP energy per Si atom -12400.215772 kJ/mol
# Density = 1.625799 g / cm^3
# Si number density = 16.295078 Si / 1000 Ang^3
#
#
#
# Elastic Constant Matrix: (Units=GPa)
#
#
# Indices 1 2 3 4 5 6 
#
# 1 102.7633 39.5184 60.0849 -0.0020 9.6781 0.0166
# 2 39.5184 60.6194 35.8456 0.0199 -0.5401 -0.0699
# 3 60.0849 35.8456 108.1611 -0.0006 9.4823 0.0026
# 4 -0.0020 0.0199 -0.0006 22.0782 0.0040 1.9706
# 5 9.6781 -0.5401 9.4823 0.0040 26.1073 0.0082
# 6 0.0166 -0.0699 0.0026 1.9706 0.0082 23.2698
#
#
#
# Elastic Compliance Matrix: (Units=1/GPa)
#
#
# Indices 1 2 3 4 5 6 
#
# 1 0.016636 -0.006988 -0.006582 0.000011 -0.003921 -0.000032
# 2 -0.006988 0.023681 -0.004375 -0.000030 0.004670 0.000077
# 3 -0.006582 -0.004375 0.014611 0.000005 -0.002957 -0.000010
# 4 0.000011 -0.000030 0.000005 0.045639 -0.000012 -0.003865
# 5 -0.003921 0.004670 -0.002957 -0.000012 0.040928 0.000004
# 6 -0.000032 0.000077 -0.000010 -0.003865 0.000004 0.043302
#
#
# Mechanical properties :
#
#
# Convention : Reuss Voigt Hill
#
# Bulk Modulus (GPa) = 52.52870 60.27128 56.39999
# Shear Modulus (GPa) = 22.02320 23.36404 22.69362
#
# Velocity S-wave (km/s) = 3.68030 3.79068 3.73589
# Velocity P-wave (km/s) = 7.09686 7.49845 7.30041
#
# Compressibility (1/GPa) = 0.01903721
#
# Stress axis : x y z
#
# Youngs Moduli (GPa) = 60.11007 42.22784 68.44103
#
# Poissons Ratio (x) = 0.29510 0.45047
# Poissons Ratio (y) = 0.42006 0.29946
# Poissons Ratio (z) = 0.39564 0.18477
#
# Static dielectric constant tensor:
#      x y z
#    x 3.044300 -0.000040 0.143330 
#    y -0.000040 3.098830 0.000070 
#    z 0.143330 0.000070 3.253730 
# 
# 
# High freq. dielectric constant tensor:
#      x y z
#    x 1.606630 -0.000010 0.011510 
#    y -0.000010 1.630750 0.000010 
#    z 0.011510 0.000010 1.617080 
# 
# From -- ./inp_files/248501.got.cif
#   From: 2010.06.25/outbox.cif.g09.slc.cpg/sg12_125_cif.got.tgz:248501.got - 2010.06.28 00:19:55.
