data_PCOD8081278
_publ_section_title
;
Structure prediction by ZEFSAII (Michael W. Deem and Ramdas Pophale) SiO2 
 PCOD8081278
Probable space group: C 2/M
;
_chemical_formula_sum "Si O2"
_cell_formula_units_Z 64
_cell_length_a 27.854249
_cell_length_b 9.007235
_cell_length_c 22.473466
_cell_angle_alpha 90.000000
_cell_angle_beta 46.713589
_cell_angle_gamma 90.000000
_cell_volume 4104.363731
_symmetry_space_group_name_H-M "C 2/M"
_symmetry_group_IT_number 12
_symmetry_cell_setting 'monoclinic'
loop_
_space_group_symop_operation_xyz
x,y,z
-x,y,-z
-x,-y,-z
x,-y,z
1/2+x,1/2+y,z
1/2-x,1/2+y,-z
1/2-x,1/2-y,-z
1/2+x,1/2-y,z
loop_
_atom_site_type_symbol
_atom_site_label
_atom_site_fract_x
_atom_site_fract_y
_atom_site_fract_z
Si Si1 0.878741 0.825587 0.235723
Si Si2 0.143414 0.673881 0.985584
Si Si3 0.723955 0.330611 0.078606
Si Si4 0.076801 0.828118 0.933478
Si Si5 0.152784 0.835287 0.559303
Si Si6 0.953315 0.323694 0.277829
Si Si7 0.246689 0.163810 0.592555
Si Si8 0.089191 0.824827 0.150139
O O1 0.894650 0.784942 0.154854
O O2 0.928050 0.735293 0.235870
O O3 0.802515 0.779820 0.313448
O O4 0.889182 0.000000 0.240665
O O5 0.128086 0.500000 0.008070
O O6 0.110522 0.764921 0.067284
O O7 0.223481 0.703232 0.913216
O O8 0.113719 0.726269 0.949007
O O9 0.727815 0.500000 0.057520
O O10 0.646243 0.290701 0.151902
O O11 0.750000 0.250000 0.000000
O O12 0.089556 0.000000 0.937805
O O13 0.000000 0.790369 0.000000
O O14 0.091871 0.731332 0.629177
O O15 0.204218 0.842292 0.568910
O O16 0.190307 0.770631 0.469228
O O17 0.126788 0.000000 0.565901
O O18 0.953568 0.500000 0.276746
O O19 0.025988 0.261648 0.227644
O O20 0.273796 0.000000 0.584664
O O21 0.073983 0.000000 0.157280
#
# Coordination Sequence:
#
# PCOD8081278 Si02
#       8
#     8   8   8   8   8   8   8   8
#     4   9  18  31  44  59  83 116 151 181 211 250
#     4  10  19  31  46  65  86 108 141 182 218 248
#     4   8  16  29  45  63  82 106 136 172 212 254
#     4  10  20  32  45  61  84 117 152 180 209 247
#     4   9  16  26  40  58  81 110 140 169 207 255
#     4  11  20  28  41  63  89 113 140 175 213 251
#     4   8  14  25  40  57  78 106 141 179 211 241
#     4  10  18  30  46  62  84 114 143 170 209 258
#
# _framework density 15.593159999999999
#
# number of rings (size 3 to 8) (size 9 to 14) (size 15 to 20)
#    0.000    2.625    0.000    3.750    0.000    5.750 
#    0.000    0.000    0.000    0.000    0.000    0.000 
#    0.000    1.000    0.000   11.500    0.000    3.750 
#
# Total GULP energy -396511.309326 kJ/mol
# GULP energy per Si atom -12390.978416 kJ/mol
# Density = 1.555767 g / cm^3
# Si number density = 15.593160 Si / 1000 Ang^3
#
#
#
# Elastic Constant Matrix: (Units=GPa)
#
#
# Indices 1 2 3 4 5 6 
#
# 1 75.8532 40.4853 42.1109 0.0000 -17.5247 0.0008
# 2 40.4853 86.8268 40.3323 0.0045 -15.1065 0.0192
# 3 42.1109 40.3323 106.4470 -0.0011 -16.4984 0.0034
# 4 0.0000 0.0045 -0.0011 24.5592 -0.0009 -3.7445
# 5 -17.5247 -15.1065 -16.4984 -0.0009 17.6503 -0.0048
# 6 0.0008 0.0192 0.0034 -3.7445 -0.0048 14.3719
#
#
#
# Elastic Compliance Matrix: (Units=1/GPa)
#
#
# Indices 1 2 3 4 5 6 
#
# 1 0.021619 -0.005890 -0.004415 0.000003 0.012297 0.000013
# 2 -0.005890 0.016676 -0.003137 -0.000006 0.005492 -0.000021
# 3 -0.004415 -0.003137 0.013137 0.000002 0.005211 0.000004
# 4 0.000003 -0.000006 0.000002 0.042402 0.000005 0.011048
# 5 0.012297 0.005492 0.005211 0.000005 0.078438 0.000018
# 6 0.000013 -0.000021 0.000004 0.011048 0.000018 0.072458
#
#
# Mechanical properties :
#
#
# Convention : Reuss Voigt Hill
#
# Bulk Modulus (GPa) = 40.73592 57.22043 48.97817
# Shear Modulus (GPa) = 17.86997 21.06287 19.46642
#
# Velocity S-wave (km/s) = 3.38895 3.67928 3.53710
# Velocity P-wave (km/s) = 6.44161 7.40439 6.93971
#
# Compressibility (1/GPa) = 0.02454836
#
# Stress axis : x y z
#
# Youngs Moduli (GPa) = 46.25508 59.96466 76.11926
#
# Poissons Ratio (x) = 0.35321 0.33606
# Poissons Ratio (y) = 0.27245 0.23880
# Poissons Ratio (z) = 0.20421 0.18812
#
# Static dielectric constant tensor:
#      x y z
#    x 3.122270 -0.000050 -0.322960 
#    y -0.000050 3.116500 0.000030 
#    z -0.322960 0.000030 3.072590 
# 
# 
# High freq. dielectric constant tensor:
#      x y z
#    x 1.563410 0.000000 -0.028900 
#    y 0.000000 1.610190 0.000000 
#    z -0.028900 0.000000 1.585200 
# 
# From -- ./inp_files/326886.got.cif
#   From: 2010.06.25/outbox.cif.g09.slc.cpg/sg12_164_cif.got.tgz:326886.got - 2010.06.28 00:19:55.
