data_PCOD8081377
_publ_section_title
;
Structure prediction by ZEFSAII (Michael W. Deem and Ramdas Pophale) SiO2 
 PCOD8081377
Probable space group: C 2/M
;
_chemical_formula_sum "Si O2"
_cell_formula_units_Z 64
_cell_length_a 18.698600
_cell_length_b 13.545492
_cell_length_c 14.484491
_cell_angle_alpha 90.000000
_cell_angle_beta 58.017158
_cell_angle_gamma 90.000000
_cell_volume 3111.779660
_symmetry_space_group_name_H-M "C 2/M"
_symmetry_group_IT_number 12
_symmetry_cell_setting 'monoclinic'
loop_
_space_group_symop_operation_xyz
x,y,z
-x,y,-z
-x,-y,-z
x,-y,z
1/2+x,1/2+y,z
1/2-x,1/2+y,-z
1/2-x,1/2-y,-z
1/2+x,1/2-y,z
loop_
_atom_site_type_symbol
_atom_site_label
_atom_site_fract_x
_atom_site_fract_y
_atom_site_fract_z
Si Si1 0.679879 0.616792 0.534470
Si Si2 0.847616 0.610281 0.319482
Si Si3 0.600133 0.894932 0.926208
Si Si4 0.488323 0.387036 0.867011
Si Si5 0.429890 0.891350 0.622426
Si Si6 0.527946 0.741388 0.672925
Si Si7 0.251747 0.386178 0.313803
Si Si8 0.873966 0.816128 0.086341
O O1 0.662129 0.500000 0.542457
O O2 0.753868 0.647638 0.412524
O O3 0.593959 0.675820 0.566821
O O4 0.706074 0.653369 0.620327
O O5 0.858003 0.500000 0.352929
O O6 0.859760 0.612524 0.202507
O O7 0.921039 0.673311 0.312489
O O8 0.630618 0.794861 0.954401
O O9 0.632159 0.000000 0.948134
O O10 0.500000 0.896712 0.000000
O O11 0.517639 0.500000 0.832909
O O12 0.480630 0.333353 0.774473
O O13 0.555731 0.326577 0.881457
O O14 0.398604 0.385831 0.982965
O O15 0.500000 0.906617 0.500000
O O16 0.453810 0.797883 0.669385
O O17 0.346989 0.863376 0.620565
O O18 0.417994 0.000000 0.681038
O O19 0.273600 0.500000 0.294464
O O20 0.286323 0.339583 0.194999
#
# Coordination Sequence:
#
# PCOD8081377 Si02
#       8
#     8   8   8   8   8   8   8   8
#     4  10  20  33  55  86 116 145 187 243 294 343
#     4  10  19  30  46  74 109 144 183 232 284 339
#     4  10  18  30  47  74 114 152 184 224 278 344
#     4  11  21  33  55  88 118 145 188 243 296 348
#     4  10  23  41  59  83 116 158 201 240 288 351
#     4  12  20  34  56  84 116 151 189 238 294 349
#     4  10  19  35  58  84 116 151 194 244 292 344
#     4  11  18  34  56  85 116 153 191 237 296 344
#
# _framework density 20.567008999999999
#
# number of rings (size 3 to 8) (size 9 to 14) (size 15 to 20)
#    0.000    1.500    3.750    3.375    0.000    3.000 
#    0.000    1.250    0.000    3.000    0.000    0.000 
#    0.000    0.000    0.000    0.000    0.000    0.000 
#
# Total GULP energy -396450.872392 kJ/mol
# GULP energy per Si atom -12389.089762 kJ/mol
# Density = 2.052020 g / cm^3
# Si number density = 20.567009 Si / 1000 Ang^3
#
#
#
# Elastic Constant Matrix: (Units=GPa)
#
#
# Indices 1 2 3 4 5 6 
#
# 1 39.4097 20.8924 8.8544 0.0000 -6.1224 0.0000
# 2 20.8924 104.6515 11.1890 0.0000 5.2091 0.0000
# 3 8.8544 11.1890 114.0619 0.0000 -19.4096 0.0000
# 4 0.0000 0.0000 0.0000 34.2353 0.0000 -1.4580
# 5 -6.1224 5.2091 -19.4096 0.0000 22.4957 0.0000
# 6 0.0000 0.0000 0.0000 -1.4580 0.0000 24.2077
#
#
#
# Elastic Compliance Matrix: (Units=1/GPa)
#
#
# Indices 1 2 3 4 5 6 
#
# 1 0.030366 -0.006540 -0.000061 0.000000 0.009726 0.000000
# 2 -0.006540 0.011318 -0.001584 0.000000 -0.005767 0.000000
# 3 -0.000061 -0.001584 0.010533 0.000000 0.009439 0.000000
# 4 0.000000 0.000000 0.000000 0.029285 0.000000 0.001764
# 5 0.009726 -0.005767 0.009439 0.000000 0.056579 0.000000
# 6 0.000000 0.000000 0.000000 0.001764 0.000000 0.041415
#
#
# Mechanical properties :
#
#
# Convention : Reuss Voigt Hill
#
# Bulk Modulus (GPa) = 27.89536 37.77720 32.83628
# Shear Modulus (GPa) = 24.05987 30.66688 27.36337
#
# Velocity S-wave (km/s) = 3.42399 3.86563 3.65149
# Velocity P-wave (km/s) = 5.40594 6.19127 5.81189
#
# Compressibility (1/GPa) = 0.03584826
#
# Stress axis : x y z
#
# Youngs Moduli (GPa) = 32.93141 88.35828 94.93610
#
# Poissons Ratio (x) = 0.57786 0.00575
# Poissons Ratio (y) = 0.21537 0.15037
# Poissons Ratio (z) = 0.00200 0.13995
#
# Static dielectric constant tensor:
#      x y z
#    x 3.323480 0.000000 -0.201390 
#    y 0.000000 4.325170 0.000000 
#    z -0.201390 0.000000 4.088310 
# 
# 
# High freq. dielectric constant tensor:
#      x y z
#    x 1.725770 0.000000 -0.030950 
#    y 0.000000 1.834950 0.000000 
#    z -0.030950 0.000000 1.816050 
# 
# From -- ./inp_files/225264.got.cif
#   From: 2010.06.25/outbox.cif.g09.slc.cpg/sg12_113_cif.got.tgz:225264.got - 2010.06.28 00:19:55.
