data_PCOD8081481
_publ_section_title
;
Structure prediction by ZEFSAII (Michael W. Deem and Ramdas Pophale) SiO2 
 PCOD8081481
Probable space group: C 2/M
;
_chemical_formula_sum "Si O2"
_cell_formula_units_Z 40
_cell_length_a 20.663602
_cell_length_b 8.937787
_cell_length_c 18.047754
_cell_angle_alpha 90.000000
_cell_angle_beta 42.871811
_cell_angle_gamma 90.000000
_cell_volume 2267.765835
_symmetry_space_group_name_H-M "C 2/M"
_symmetry_group_IT_number 12
_symmetry_cell_setting 'monoclinic'
loop_
_space_group_symop_operation_xyz
x,y,z
-x,y,-z
-x,-y,-z
x,-y,z
1/2+x,1/2+y,z
1/2-x,1/2+y,-z
1/2-x,1/2-y,-z
1/2+x,1/2-y,z
loop_
_atom_site_type_symbol
_atom_site_label
_atom_site_fract_x
_atom_site_fract_y
_atom_site_fract_z
Si Si1 0.210215 0.326252 0.280603
Si Si2 0.445187 0.826134 0.713784
Si Si3 0.097163 0.822265 0.952195
Si Si4 0.420871 0.668453 0.503435
Si Si5 0.648147 0.322323 0.072951
O O1 0.210473 0.500000 0.301370
O O2 0.142622 0.296863 0.267262
O O3 0.314390 0.265517 0.171571
O O4 0.175744 0.237360 0.382136
O O5 0.543233 0.766301 0.595977
O O6 0.426991 0.734590 0.803754
O O7 0.456742 0.000000 0.722757
O O8 0.095728 0.000000 0.951021
O O9 0.108607 0.768465 0.026877
O O10 0.000000 0.754823 0.000000
O O11 0.500000 0.672932 0.500000
O O12 0.400955 0.500000 0.493293
O O13 0.658992 0.500000 0.068292
O O14 0.750000 0.250000 0.000000
#
# Coordination Sequence:
#
# PCOD8081481 Si02
#       5
#     8   8   8   8   8
#     4   9  16  29  48  71  98 131 167 204 247 296
#     4  10  18  30  48  74 102 131 165 207 253 300
#     4   9  18  33  52  74 101 135 173 206 245 300
#     4   9  17  28  44  71 101 131 162 203 254 300
#     4  11  20  32  51  76 103 134 168 209 254 297
#
# _framework density 17.638506
#
# number of rings (size 3 to 8) (size 9 to 14) (size 15 to 20)
#    0.000    2.400    2.000    1.800    0.000    3.200 
#    0.000    0.000    0.000    6.600    0.000    0.000 
#    0.000    0.000    0.000    0.000    0.000    0.000 
#
# Total GULP energy -247999.547994 kJ/mol
# GULP energy per Si atom -12399.977400 kJ/mol
# Density = 1.759836 g / cm^3
# Si number density = 17.638506 Si / 1000 Ang^3
#
#
#
# Elastic Constant Matrix: (Units=GPa)
#
#
# Indices 1 2 3 4 5 6 
#
# 1 82.3445 34.9276 60.8046 0.0000 -0.2858 0.0000
# 2 34.9276 75.8799 52.8742 0.0003 2.6244 -0.0004
# 3 60.8046 52.8742 174.8748 -0.0001 1.0135 0.0000
# 4 0.0000 0.0003 -0.0001 36.6923 0.0000 4.8618
# 5 -0.2858 2.6244 1.0135 0.0000 19.7138 0.0000
# 6 0.0000 -0.0004 0.0000 4.8618 0.0000 12.3574
#
#
#
# Elastic Compliance Matrix: (Units=1/GPa)
#
#
# Indices 1 2 3 4 5 6 
#
# 1 0.017684 -0.004929 -0.004665 0.000000 0.001152 0.000000
# 2 -0.004929 0.018147 -0.003760 0.000000 -0.002294 0.000001
# 3 -0.004665 -0.003760 0.008477 0.000000 -0.000003 0.000000
# 4 0.000000 0.000000 0.000000 0.028753 0.000000 -0.011312
# 5 0.001152 -0.002294 -0.000003 0.000000 0.051048 0.000000
# 6 0.000000 0.000001 0.000000 -0.011312 0.000000 0.085374
#
#
# Mechanical properties :
#
#
# Convention : Reuss Voigt Hill
#
# Bulk Modulus (GPa) = 56.81767 70.03467 63.42617
# Shear Modulus (GPa) = 20.65639 26.05221 23.35430
#
# Velocity S-wave (km/s) = 3.42584 3.84736 3.64270
# Velocity P-wave (km/s) = 6.92320 7.71544 7.33003
#
# Compressibility (1/GPa) = 0.01760016
#
# Stress axis : x y z
#
# Youngs Moduli (GPa) = 56.54983 55.10672 117.96391
#
# Poissons Ratio (x) = 0.27162 0.55030
# Poissons Ratio (y) = 0.27873 0.44350
# Poissons Ratio (z) = 0.26381 0.20718
#
# Static dielectric constant tensor:
#      x y z
#    x 3.033940 0.000000 0.033680 
#    y 0.000000 3.206510 0.000000 
#    z 0.033680 0.000000 3.603660 
# 
# 
# High freq. dielectric constant tensor:
#      x y z
#    x 1.630670 0.000000 0.006850 
#    y 0.000000 1.673710 0.000000 
#    z 0.006850 0.000000 1.702940 
# 
# From -- ./inp_files/179668.got.cif
#   From: 2010.06.25/outbox.cif.g09.slc.cpg/sg12_90_cif.got.tgz:179668.got - 2010.06.28 00:19:55.
