data_PCOD8081250
_publ_section_title
;
Structure prediction by ZEFSAII (Michael W. Deem and Ramdas Pophale) SiO2 
 PCOD8081250
Probable space group: C 2/M
;
_chemical_formula_sum "Si O2"
_cell_formula_units_Z 56
_cell_length_a 27.900805
_cell_length_b 8.746445
_cell_length_c 17.386359
_cell_angle_alpha 90.000000
_cell_angle_beta 126.284119
_cell_angle_gamma 90.000000
_cell_volume 3420.123133
_symmetry_space_group_name_H-M "C 2/M"
_symmetry_group_IT_number 12
_symmetry_cell_setting 'monoclinic'
loop_
_space_group_symop_operation_xyz
x,y,z
-x,y,-z
-x,-y,-z
x,-y,z
1/2+x,1/2+y,z
1/2-x,1/2+y,-z
1/2-x,1/2-y,-z
1/2+x,1/2-y,z
loop_
_atom_site_type_symbol
_atom_site_label
_atom_site_fract_x
_atom_site_fract_y
_atom_site_fract_z
Si Si1 0.605354 0.674424 0.619991
Si Si2 0.734378 0.822050 0.106282
Si Si3 0.727877 0.178236 0.708086
Si Si4 0.339677 0.320647 0.092095
Si Si5 0.082176 0.173114 0.426281
Si Si6 0.455860 0.318290 0.285516
Si Si7 0.713558 0.682344 0.535105
O O1 0.627736 0.500000 0.657618
O O2 0.661216 0.785885 0.670322
O O3 0.570438 0.680349 0.506587
O O4 0.563246 0.735298 0.647582
O O5 0.729283 0.735058 0.182681
O O6 0.796170 0.780719 0.121945
O O7 0.729146 0.000000 0.117776
O O8 0.679056 0.770339 0.001490
O O9 0.743378 0.264109 0.643161
O O10 0.737417 0.000000 0.703758
O O11 0.336813 0.500000 0.071513
O O12 0.406531 0.265254 0.176850
O O13 0.145625 0.249572 0.464902
O O14 0.022569 0.248741 0.331259
O O15 0.086921 0.000000 0.402084
O O16 0.460218 0.500000 0.289549
O O17 0.713897 0.500000 0.533700
O O18 0.750000 0.750000 0.500000
#
# Coordination Sequence:
#
# PCOD8081250 Si02
#       7
#     8   8   8   8   8   8   8
#     4   9  15  26  42  64  92 124 159 190 223 265
#     4  10  18  30  44  63  91 125 163 198 232 269
#     4  11  20  30  47  69  94 124 158 194 235 277
#     4   9  17  27  42  64  92 126 162 197 229 264
#     4   8  15  25  44  69  91 118 154 192 226 271
#     4   9  14  24  42  66  93 123 159 193 224 262
#     4  10  20  35  53  73  95 119 152 192 238 282
#
# _framework density 16.373678000000002
#
# number of rings (size 3 to 8) (size 9 to 14) (size 15 to 20)
#    0.000    2.571    1.429    3.429    0.000    2.286 
#    0.000    0.000    0.000   12.000    0.000    1.000 
#    0.000    8.000    0.000    0.000    0.000    0.000 
#
# Total GULP energy -346982.159987 kJ/mol
# GULP energy per Si atom -12392.220000 kJ/mol
# Density = 1.633641 g / cm^3
# Si number density = 16.373678 Si / 1000 Ang^3
#
#
#
# Elastic Constant Matrix: (Units=GPa)
#
#
# Indices 1 2 3 4 5 6 
#
# 1 84.8088 24.1529 62.7688 0.0000 0.4915 0.0000
# 2 24.1529 54.7140 34.3486 0.0000 -1.6181 0.0000
# 3 62.7688 34.3486 112.6508 0.0000 5.5369 0.0000
# 4 0.0000 0.0000 0.0000 24.0400 0.0000 -2.9772
# 5 0.4915 -1.6181 5.5369 0.0000 21.6809 0.0000
# 6 0.0000 0.0000 0.0000 -2.9772 0.0000 15.4350
#
#
#
# Elastic Compliance Matrix: (Units=1/GPa)
#
#
# Indices 1 2 3 4 5 6 
#
# 1 0.020394 -0.002152 -0.010813 0.000000 0.002138 0.000000
# 2 -0.002152 0.023095 -0.006005 0.000000 0.003306 0.000000
# 3 -0.010813 -0.006005 0.016956 0.000000 -0.004533 0.000000
# 4 0.000000 0.000000 0.000000 0.042615 0.000000 0.008220
# 5 0.002138 0.003306 -0.004533 0.000000 0.047479 0.000000
# 6 0.000000 0.000000 0.000000 0.008220 0.000000 0.066373
#
#
# Mechanical properties :
#
#
# Convention : Reuss Voigt Hill
#
# Bulk Modulus (GPa) = 44.43431 54.96826 49.70128
# Shear Modulus (GPa) = 19.05821 20.95807 20.00814
#
# Velocity S-wave (km/s) = 3.41538 3.58157 3.49946
# Velocity P-wave (km/s) = 6.53832 7.12373 6.83729
#
# Compressibility (1/GPa) = 0.02250513
#
# Stress axis : x y z
#
# Youngs Moduli (GPa) = 49.03322 43.30029 58.97682
#
# Poissons Ratio (x) = 0.09316 0.63770
# Poissons Ratio (y) = 0.10550 0.35418
# Poissons Ratio (z) = 0.53019 0.26004
#
# Static dielectric constant tensor:
#      x y z
#    x 3.004800 0.000000 0.197680 
#    y 0.000000 2.854460 0.000000 
#    z 0.197680 0.000000 3.248200 
# 
# 
# High freq. dielectric constant tensor:
#      x y z
#    x 1.592070 0.000000 0.014120 
#    y 0.000000 1.607050 0.000000 
#    z 0.014120 0.000000 1.631090 
# 
# From -- ./inp_files/248572.got.cif
#   From: 2010.06.25/outbox.cif.g09.slc.cpg/sg12_125_cif.got.tgz:248572.got - 2010.06.28 00:19:55.
