data_PCOD8081081
_publ_section_title
;
Structure prediction by ZEFSAII (Michael W. Deem and Ramdas Pophale) SiO2 
 PCOD8081081
Probable space group: C 2/M
;
_chemical_formula_sum "Si O2"
_cell_formula_units_Z 48
_cell_length_a 19.551034
_cell_length_b 36.591670
_cell_length_c 7.819062
_cell_angle_alpha 90.000000
_cell_angle_beta 28.994700
_cell_angle_gamma 90.000000
_cell_volume 2711.473505
_symmetry_space_group_name_H-M "C 2/M"
_symmetry_group_IT_number 12
_symmetry_cell_setting 'monoclinic'
loop_
_space_group_symop_operation_xyz
x,y,z
-x,y,-z
-x,-y,-z
x,-y,z
1/2+x,1/2+y,z
1/2-x,1/2+y,-z
1/2-x,1/2-y,-z
1/2+x,1/2-y,z
loop_
_atom_site_type_symbol
_atom_site_label
_atom_site_fract_x
_atom_site_fract_y
_atom_site_fract_z
Si Si1 0.166868 0.959232 0.823769
Si Si2 0.847294 0.661787 0.771009
Si Si3 0.221668 0.271305 0.888297
Si Si4 0.832152 0.040899 0.558335
Si Si5 0.168542 0.090445 0.129428
Si Si6 0.056087 0.278660 0.696111
O O1 0.216654 0.946475 0.525126
O O2 0.225381 0.000000 0.732878
O O3 0.223117 0.931757 0.844590
O O4 0.999515 0.960350 0.199384
O O5 0.865400 0.687194 0.564046
O O6 0.000000 0.647358 0.500000
O O7 0.771862 0.685240 0.087786
O O8 0.743584 0.629165 0.953134
O O9 0.339008 0.255951 0.500378
O O10 0.250000 0.250000 0.000000
O O11 0.066644 0.262910 0.156099
O O12 0.776690 0.069274 0.821238
O O13 0.774465 0.000000 0.723764
O O14 0.000000 0.095782 0.500000
O O15 0.000000 0.292806 0.000000
#
# Coordination Sequence:
#
# PCOD8081081 Si02
#       6
#     8   8   8   8   8   8
#     4   8  14  26  45  71 100 126 163 210 253 291
#     4   9  20  36  48  68 103 139 161 190 251 308
#     4   9  18  34  55  73  97 131 164 203 245 299
#     4   8  14  26  46  71  99 129 161 209 257 292
#     4  10  18  29  49  75 100 131 169 204 247 298
#     4  10  19  34  56  79  98 124 170 212 247 294
#
# _framework density 17.702552000000001
#
# number of rings (size 3 to 8) (size 9 to 14) (size 15 to 20)
#    0.000    3.000    0.000    3.500    0.000    4.667 
#    6.000    0.000    3.667    2.000    0.000    2.333 
#    0.000    0.000    0.000    0.000    0.000    0.000 
#
# Total GULP energy -297392.692828 kJ/mol
# GULP energy per Si atom -12391.362201 kJ/mol
# Density = 1.766226 g / cm^3
# Si number density = 17.702552 Si / 1000 Ang^3
#
#
#
# Elastic Constant Matrix: (Units=GPa)
#
#
# Indices 1 2 3 4 5 6 
#
# 1 90.6691 63.7533 43.5848 0.0000 16.1946 0.0000
# 2 63.7533 120.1331 58.2884 0.0000 4.3245 0.0000
# 3 43.5848 58.2884 62.7433 0.0000 12.3881 0.0000
# 4 0.0000 0.0000 0.0000 23.2894 0.0000 -4.1559
# 5 16.1946 4.3245 12.3881 0.0000 25.2754 0.0000
# 6 0.0000 0.0000 0.0000 -4.1559 0.0000 21.8273
#
#
#
# Elastic Compliance Matrix: (Units=1/GPa)
#
#
# Indices 1 2 3 4 5 6 
#
# 1 0.021033 -0.008467 -0.004839 0.000000 -0.009656 0.000000
# 2 -0.008467 0.019101 -0.013606 0.000000 0.008825 0.000000
# 3 -0.004839 -0.013606 0.034174 0.000000 -0.011322 0.000000
# 4 0.000000 0.000000 0.000000 0.044448 0.000000 0.008463
# 5 -0.009656 0.008825 -0.011322 0.000000 0.049790 0.000000
# 6 0.000000 0.000000 0.000000 0.008463 0.000000 0.047426
#
#
# Mechanical properties :
#
#
# Convention : Reuss Voigt Hill
#
# Bulk Modulus (GPa) = 48.81371 67.19982 58.00677
# Shear Modulus (GPa) = 18.07506 21.27301 19.67404
#
# Velocity S-wave (km/s) = 3.19884 3.47030 3.33733
# Velocity P-wave (km/s) = 6.42477 7.35529 6.90572
#
# Compressibility (1/GPa) = 0.02048605
#
# Stress axis : x y z
#
# Youngs Moduli (GPa) = 47.54413 52.35248 29.26162
#
# Poissons Ratio (x) = 0.44326 0.14158
# Poissons Ratio (y) = 0.40255 0.39814
# Poissons Ratio (z) = 0.23004 0.71231
#
# Static dielectric constant tensor:
#      x y z
#    x 3.417750 0.000000 0.221560 
#    y 0.000000 3.280530 0.000000 
#    z 0.221560 0.000000 3.364310 
# 
# 
# High freq. dielectric constant tensor:
#      x y z
#    x 1.686060 0.000000 0.014690 
#    y 0.000000 1.672800 0.000000 
#    z 0.014690 0.000000 1.654370 
# 
# From -- ./inp_files/91376.got.cif
#   From: 2010.06.25/outbox.cif.g09.slc.cpg/sg12_46_cif.got.tgz:91376.got - 2010.06.28 00:19:55.
