data_PCOD8081024
_publ_section_title
;
Structure prediction by ZEFSAII (Michael W. Deem and Ramdas Pophale) SiO2 
 PCOD8081024
Probable space group: C 2/M
;
_chemical_formula_sum "Si O2"
_cell_formula_units_Z 64
_cell_length_a 22.125414
_cell_length_b 12.319123
_cell_length_c 20.924455
_cell_angle_alpha 90.000000
_cell_angle_beta 39.905442
_cell_angle_gamma 90.000000
_cell_volume 3658.787963
_symmetry_space_group_name_H-M "C 2/M"
_symmetry_group_IT_number 12
_symmetry_cell_setting 'monoclinic'
loop_
_space_group_symop_operation_xyz
x,y,z
-x,y,-z
-x,-y,-z
x,-y,z
1/2+x,1/2+y,z
1/2-x,1/2+y,-z
1/2-x,1/2-y,-z
1/2+x,1/2-y,z
loop_
_atom_site_type_symbol
_atom_site_label
_atom_site_fract_x
_atom_site_fract_y
_atom_site_fract_z
Si Si1 0.870400 0.628107 0.402385
Si Si2 0.754349 0.377092 0.276051
Si Si3 0.249306 0.746583 0.401746
Si Si4 0.550597 0.253040 0.218412
Si Si5 0.465292 0.188762 0.099525
Si Si6 0.428242 0.624319 0.221384
Si Si7 0.363723 0.878203 0.958366
Si Si8 0.807022 0.128459 0.813686
O O1 0.865173 0.500000 0.418498
O O2 0.839650 0.694605 0.490343
O O3 0.800470 0.659301 0.401341
O O4 0.977313 0.660843 0.299961
O O5 0.721697 0.500000 0.315173
O O6 0.713169 0.301073 0.365471
O O7 0.867389 0.374733 0.182527
O O8 0.713361 0.334638 0.242155
O O9 0.321980 0.649591 0.329079
O O10 0.497671 0.348266 0.223350
O O11 0.629083 0.197951 0.109473
O O12 0.600477 0.307457 0.238666
O O13 0.455142 0.308942 0.136458
O O14 0.538851 0.120632 0.081505
O O15 0.500000 0.200130 0.000000
O O16 0.438336 0.500000 0.194711
O O17 0.342170 0.000000 0.952732
O O18 0.280479 0.835421 0.071289
O O19 0.823710 0.000000 0.804332
#
# Coordination Sequence:
#
# PCOD8081024 Si02
#       8
#     8   8   8   8   8   8   8   8
#     4  10  19  34  57  80 103 132 165 208 258 301
#     4  10  19  32  52  77 107 134 161 206 258 308
#     4   9  19  33  54  82 104 127 161 208 257 308
#     4  10  20  33  50  73 102 132 175 215 243 289
#     4  10  18  29  48  76 103 129 165 207 253 304
#     4   9  18  31  48  69  99 135 166 203 247 292
#     4  10  19  31  51  76 101 133 168 209 258 302
#     4  10  20  33  51  72 100 139 171 202 252 303
#
# _framework density 17.492132000000002
#
# number of rings (size 3 to 8) (size 9 to 14) (size 15 to 20)
#    0.000    2.250    1.250    3.000    0.000    0.750 
#    0.000    2.500    0.000   10.500    0.000    0.000 
#    0.000    0.000    0.000    0.000    0.000    0.000 
#
# Total GULP energy -396859.744524 kJ/mol
# GULP energy per Si atom -12401.867016 kJ/mol
# Density = 1.745232 g / cm^3
# Si number density = 17.492132 Si / 1000 Ang^3
#
#
#
# Elastic Constant Matrix: (Units=GPa)
#
#
# Indices 1 2 3 4 5 6 
#
# 1 91.4449 33.5144 26.2282 0.0000 12.8715 0.0000
# 2 33.5144 91.4593 33.2306 0.0000 8.6780 0.0000
# 3 26.2282 33.2306 79.5691 0.0000 21.2497 0.0000
# 4 0.0000 0.0000 0.0000 20.7326 0.0000 2.8531
# 5 12.8715 8.6780 21.2497 0.0000 22.4175 0.0000
# 6 0.0000 0.0000 0.0000 2.8531 0.0000 21.3441
#
#
#
# Elastic Compliance Matrix: (Units=1/GPa)
#
#
# Indices 1 2 3 4 5 6 
#
# 1 0.013488 -0.003934 -0.001528 0.000000 -0.004773 0.000000
# 2 -0.003934 0.014038 -0.004978 0.000000 0.001543 0.000000
# 3 -0.001528 -0.004978 0.019283 0.000000 -0.015474 0.000000
# 4 0.000000 0.000000 0.000000 0.049137 0.000000 -0.006568
# 5 -0.004773 0.001543 -0.015474 0.000000 0.061419 0.000000
# 6 0.000000 0.000000 0.000000 -0.006568 0.000000 0.047729
#
#
# Mechanical properties :
#
#
# Convention : Reuss Voigt Hill
#
# Bulk Modulus (GPa) = 38.56956 49.82442 44.19699
# Shear Modulus (GPa) = 21.31138 24.19885 22.75512
#
# Velocity S-wave (km/s) = 3.49426 3.72346 3.61068
# Velocity P-wave (km/s) = 6.19494 6.85794 6.53485
#
# Compressibility (1/GPa) = 0.02592718
#
# Stress axis : x y z
#
# Youngs Moduli (GPa) = 74.14244 71.23661 51.85957
#
# Poissons Ratio (x) = 0.28027 0.07925
# Poissons Ratio (y) = 0.29170 0.25815
# Poissons Ratio (z) = 0.11331 0.35461
#
# Static dielectric constant tensor:
#      x y z
#    x 3.149990 0.000000 0.125310 
#    y 0.000000 3.031280 0.000000 
#    z 0.125310 0.000000 3.288460 
# 
# 
# High freq. dielectric constant tensor:
#      x y z
#    x 1.661750 0.000000 0.009830 
#    y 0.000000 1.668660 0.000000 
#    z 0.009830 0.000000 1.676410 
# 
# From -- ./inp_files/321231.got.cif
#   From: 2010.06.25/outbox.cif.g09.slc.cpg/sg12_161_cif.got.tgz:321231.got - 2010.06.28 00:19:55.
