data_PCOD8081819
_publ_section_title
;
Structure prediction by ZEFSAII (Michael W. Deem and Ramdas Pophale) SiO2 
 PCOD8081819
Probable space group: C 2/M
;
_chemical_formula_sum "Si O2"
_cell_formula_units_Z 48
_cell_length_a 27.985681
_cell_length_b 8.929357
_cell_length_c 11.059043
_cell_angle_alpha 90.000000
_cell_angle_beta 103.408622
_cell_angle_gamma 90.000000
_cell_volume 2688.257283
_symmetry_space_group_name_H-M "C 2/M"
_symmetry_group_IT_number 12
_symmetry_cell_setting 'monoclinic'
loop_
_space_group_symop_operation_xyz
x,y,z
-x,y,-z
-x,-y,-z
x,-y,z
1/2+x,1/2+y,z
1/2-x,1/2+y,-z
1/2-x,1/2-y,-z
1/2+x,1/2-y,z
loop_
_atom_site_type_symbol
_atom_site_label
_atom_site_fract_x
_atom_site_fract_y
_atom_site_fract_z
Si Si1 0.991856 0.168675 0.137548
Si Si2 0.604133 0.825966 0.961023
Si Si3 0.793904 0.676889 0.098882
Si Si4 0.410976 0.175293 0.769893
Si Si5 0.820018 0.826451 0.612079
Si Si6 0.229390 0.826579 0.670747
O O1 0.938604 0.237790 0.135266
O O2 0.034253 0.265975 0.226382
O O3 0.994014 0.000000 0.189052
O O4 0.000000 0.173872 0.000000
O O5 0.655765 0.775923 0.936221
O O6 0.593370 0.000000 0.935645
O O7 0.604704 0.785356 0.102760
O O8 0.786670 0.500000 0.096043
O O9 0.796000 0.738296 0.235677
O O10 0.750000 0.750000 0.000000
O O11 0.374327 0.260921 0.658754
O O12 0.408784 0.000000 0.741743
O O13 0.805066 0.801788 0.464800
O O14 0.783572 0.737687 0.679178
O O15 0.818493 0.000000 0.647507
O O16 0.235292 0.000000 0.708650
#
# Coordination Sequence:
#
# PCOD8081819 Si02
#       6
#     8   8   8   8   8   8
#     4   9  17  29  47  72 100 130 165 204 246 294
#     4   9  19  33  48  71 102 134 165 201 248 297
#     4  11  22  35  53  76 104 136 170 207 248 299
#     4  10  18  30  51  76 103 132 164 205 251 299
#     4  10  20  34  53  75 100 131 169 212 252 296
#     4  10  21  36  52  73 102 134 169 208 253 301
#
# _framework density 17.855435
#
# number of rings (size 3 to 8) (size 9 to 14) (size 15 to 20)
#    0.000    2.167    0.000    3.500    0.000    7.333 
#    0.000    0.000    0.000    1.000    0.000    7.000 
#    0.000    0.000    0.000    0.000    0.000    0.000 
#
# Total GULP energy -297695.068885 kJ/mol
# GULP energy per Si atom -12403.961204 kJ/mol
# Density = 1.781479 g / cm^3
# Si number density = 17.855435 Si / 1000 Ang^3
#
#
#
# Elastic Constant Matrix: (Units=GPa)
#
#
# Indices 1 2 3 4 5 6 
#
# 1 141.8167 68.9641 49.2324 0.0000 18.8955 0.0000
# 2 68.9641 99.4169 41.2501 0.0000 9.9511 0.0000
# 3 49.2324 41.2501 55.1672 0.0000 8.6820 0.0000
# 4 0.0000 0.0000 0.0000 29.2952 0.0000 5.5757
# 5 18.8955 9.9511 8.6820 0.0000 29.7733 0.0000
# 6 0.0000 0.0000 0.0000 5.5757 0.0000 36.2328
#
#
#
# Elastic Compliance Matrix: (Units=1/GPa)
#
#
# Indices 1 2 3 4 5 6 
#
# 1 0.012564 -0.005677 -0.006300 0.000000 -0.004239 0.000000
# 2 -0.005677 0.017238 -0.007843 0.000000 0.000129 0.000000
# 3 -0.006300 -0.007843 0.029947 0.000000 -0.002112 0.000000
# 4 0.000000 0.000000 0.000000 0.035165 0.000000 -0.005411
# 5 -0.004239 0.000129 -0.002112 0.000000 0.036850 0.000000
# 6 0.000000 0.000000 0.000000 -0.005411 0.000000 0.028432
#
#
# Mechanical properties :
#
#
# Convention : Reuss Voigt Hill
#
# Bulk Modulus (GPa) = 49.73378 68.36602 59.04990
# Shear Modulus (GPa) = 24.20826 28.19054 26.19940
#
# Velocity S-wave (km/s) = 3.68610 3.97775 3.83470
# Velocity P-wave (km/s) = 6.78458 7.71158 7.26288
#
# Compressibility (1/GPa) = 0.02010706
#
# Stress axis : x y z
#
# Youngs Moduli (GPa) = 79.59192 58.01038 33.39271
#
# Poissons Ratio (x) = 0.32933 0.21039
# Poissons Ratio (y) = 0.45185 0.26192
# Poissons Ratio (z) = 0.50147 0.45500
#
# Static dielectric constant tensor:
#      x y z
#    x 3.369510 0.000000 0.110590 
#    y 0.000000 3.455160 0.000000 
#    z 0.110590 0.000000 3.115900 
# 
# 
# High freq. dielectric constant tensor:
#      x y z
#    x 1.692280 0.000000 0.019690 
#    y 0.000000 1.707470 0.000000 
#    z 0.019690 0.000000 1.663630 
# 
# From -- ./inp_files/172189.got.cif
#   From: 2010.06.25/outbox.cif.g09.slc.cpg/sg12_87_cif.got.tgz:172189.got - 2010.06.28 00:19:55.
