data_PCOD8081976
_publ_section_title
;
Structure prediction by ZEFSAII (Michael W. Deem and Ramdas Pophale) SiO2 
 PCOD8081976
Probable space group: C 2/M
;
_chemical_formula_sum "Si O2"
_cell_formula_units_Z 36
_cell_length_a 8.922712
_cell_length_b 25.985439
_cell_length_c 9.919334
_cell_angle_alpha 90.000000
_cell_angle_beta 47.844428
_cell_angle_gamma 90.000000
_cell_volume 1704.975850
_symmetry_space_group_name_H-M "C 2/M"
_symmetry_group_IT_number 12
_symmetry_cell_setting 'monoclinic'
loop_
_space_group_symop_operation_xyz
x,y,z
-x,y,-z
-x,-y,-z
x,-y,z
1/2+x,1/2+y,z
1/2-x,1/2+y,-z
1/2-x,1/2-y,-z
1/2+x,1/2-y,z
loop_
_atom_site_type_symbol
_atom_site_label
_atom_site_fract_x
_atom_site_fract_y
_atom_site_fract_z
Si Si1 0.340477 0.179633 0.879046
Si Si2 0.302511 0.500000 0.879129
Si Si3 0.919681 0.500000 0.270380
Si Si4 0.692151 0.890460 0.612715
Si Si5 0.500000 0.746689 0.000000
Si Si6 0.901928 0.110766 0.768457
O O1 0.201337 0.211824 0.859834
O O2 0.186114 0.147532 0.064745
O O3 0.491498 0.142903 0.705020
O O4 0.479606 0.218493 0.880055
O O5 0.431591 0.552560 0.806171
O O6 0.187526 0.500000 0.808098
O O7 0.158250 0.500000 0.096782
O O8 0.855775 0.449862 0.394184
O O9 0.745859 0.887069 0.738510
O O10 0.876284 0.869887 0.410377
#
# Coordination Sequence:
#
# PCOD8081976 Si02
#       6
#     8   4   4   8   4   8
#     4  11  20  41  55  80 105 142 178 230 269 322
#     4   9  15  25  47  82 116 143 171 212 261 313
#     4   9  15  25  47  82 116 143 171 212 261 313
#     4  10  18  30  53  83 114 144 175 216 266 321
#     4  10  24  38  62  74 104 140 186 230 278 306
#     4  10  18  30  53  83 114 144 175 216 266 321
#
# _framework density 21.114668999999999
#
# number of rings (size 3 to 8) (size 9 to 14) (size 15 to 20)
#    0.000    2.000    4.444    0.667    0.000    2.667 
#    0.000    7.778    0.000    2.667    0.000    3.111 
#    0.000    0.000    0.000    0.000    0.000    0.000 
#
# Total GULP energy -223148.874046 kJ/mol
# GULP energy per Si atom -12397.159669 kJ/mol
# Density = 2.106661 g / cm^3
# Si number density = 21.114669 Si / 1000 Ang^3
#
#
#
# Elastic Constant Matrix: (Units=GPa)
#
#
# Indices 1 2 3 4 5 6 
#
# 1 53.0030 39.4283 19.8777 0.0000 -19.9662 0.0000
# 2 39.4283 136.9097 54.2453 0.0000 -20.7292 0.0000
# 3 19.8777 54.2453 122.2921 0.0000 -23.3704 0.0000
# 4 0.0000 0.0000 0.0000 18.1811 0.0000 -14.3836
# 5 -19.9662 -20.7292 -23.3704 0.0000 20.8174 0.0000
# 6 0.0000 0.0000 0.0000 -14.3836 0.0000 13.0354
#
#
#
# Elastic Compliance Matrix: (Units=1/GPa)
#
#
# Indices 1 2 3 4 5 6 
#
# 1 0.033463 -0.006412 0.002951 0.000000 0.029023 0.000000
# 2 -0.006412 0.010638 -0.003600 0.000000 0.000402 0.000000
# 3 0.002951 -0.003600 0.011649 0.000000 0.012324 0.000000
# 4 0.000000 0.000000 0.000000 0.432916 0.000000 0.477690
# 5 0.029023 0.000402 0.012324 0.000000 0.090109 0.000000
# 6 0.000000 0.000000 0.000000 0.477690 0.000000 0.603807
#
#
# Mechanical properties :
#
#
# Convention : Reuss Voigt Hill
#
# Bulk Modulus (GPa) = 24.02139 59.92305 41.97222
# Shear Modulus (GPa) = 4.13026 23.65034 13.89030
#
# Velocity S-wave (km/s) = 1.40013 3.35041 2.56764
# Velocity P-wave (km/s) = 3.74368 6.58850 5.35834
#
# Compressibility (1/GPa) = 0.04162957
#
# Stress axis : x y z
#
# Youngs Moduli (GPa) = 29.88402 94.00551 85.84196
#
# Poissons Ratio (x) = 0.60276 -0.25336
# Poissons Ratio (y) = 0.19161 0.30899
# Poissons Ratio (z) = -0.08820 0.33838
#
# Static dielectric constant tensor:
#      x y z
#    x 3.341080 0.000000 -0.293220 
#    y 0.000000 4.150320 0.000000 
#    z -0.293220 0.000000 3.627070 
# 
# 
# High freq. dielectric constant tensor:
#      x y z
#    x 1.773260 0.000000 -0.026950 
#    y 0.000000 1.842510 0.000000 
#    z -0.026950 0.000000 1.817200 
# 
# From -- ./inp_files/123395.got.cif
#   From: 2010.06.25/outbox.cif.g09.slc.cpg/sg12_62_cif.got.tgz:123395.got - 2010.06.28 00:19:55.
