data_PCOD8081396
_publ_section_title
;
Structure prediction by ZEFSAII (Michael W. Deem and Ramdas Pophale) SiO2 
 PCOD8081396
Probable space group: C 2/M
;
_chemical_formula_sum "Si O2"
_cell_formula_units_Z 64
_cell_length_a 26.236541
_cell_length_b 9.350048
_cell_length_c 18.637085
_cell_angle_alpha 90.000000
_cell_angle_beta 49.411475
_cell_angle_gamma 90.000000
_cell_volume 3471.921739
_symmetry_space_group_name_H-M "C 2/M"
_symmetry_group_IT_number 12
_symmetry_cell_setting 'monoclinic'
loop_
_space_group_symop_operation_xyz
x,y,z
-x,y,-z
-x,-y,-z
x,-y,z
1/2+x,1/2+y,z
1/2-x,1/2+y,-z
1/2-x,1/2-y,-z
1/2+x,1/2-y,z
loop_
_atom_site_type_symbol
_atom_site_label
_atom_site_fract_x
_atom_site_fract_y
_atom_site_fract_z
Si Si1 0.817777 0.832693 0.837796
Si Si2 0.045825 0.331082 0.676843
Si Si3 0.172468 0.669034 0.925371
Si Si4 0.693629 0.156849 0.754621
Si Si5 0.091666 0.668738 0.133662
Si Si6 0.846962 0.155033 0.653819
Si Si7 0.550555 0.168643 0.512965
Si Si8 0.690466 0.827408 0.597961
O O1 0.741233 0.775110 0.899416
O O2 0.854247 0.743892 0.865659
O O3 0.857414 0.802765 0.727384
O O4 0.818979 0.000000 0.857006
O O5 0.048675 0.500000 0.678640
O O6 0.029656 0.278966 0.610961
O O7 0.118910 0.274172 0.632667
O O8 0.984335 0.274965 0.782609
O O9 0.181491 0.500000 0.905979
O O10 0.159021 0.733344 0.856601
O O11 0.109886 0.705771 0.034366
O O12 0.769615 0.143038 0.708353
O O13 0.689149 0.233242 0.681282
O O14 0.661094 0.000000 0.772882
O O15 0.096967 0.500000 0.143830
O O16 0.876523 0.272515 0.573388
O O17 0.880634 0.000000 0.608434
O O18 0.500000 0.232059 0.500000
O O19 0.554130 0.000000 0.505863
O O20 0.750000 0.750000 0.500000
O O21 0.700906 0.000000 0.584280
#
# Coordination Sequence:
#
# PCOD8081396 Si02
#       8
#     8   8   8   8   8   8   8   8
#     4   9  17  29  45  68  97 123 150 190 231 263
#     4   9  19  32  45  68  97 120 149 192 235 269
#     4   8  15  28  47  70  94 121 154 190 226 267
#     4   8  15  29  48  69  91 115 145 185 233 272
#     4  10  18  30  48  67  92 126 158 186 221 272
#     4   9  17  29  45  65  88 114 148 188 225 266
#     4  10  19  30  43  60  89 125 152 178 219 270
#     4  10  19  33  53  72  93 120 150 190 235 276
#
# _framework density 18.433596000000001
#
# number of rings (size 3 to 8) (size 9 to 14) (size 15 to 20)
#    0.000    2.875    0.000    3.375    0.000    1.750 
#    0.000    1.875    0.000    6.000    0.000    0.000 
#    0.000    2.000    0.000    0.000    0.000    0.000 
#
# Total GULP energy -396433.905629 kJ/mol
# GULP energy per Si atom -12388.559551 kJ/mol
# Density = 1.839164 g / cm^3
# Si number density = 18.433596 Si / 1000 Ang^3
#
#
#
# Elastic Constant Matrix: (Units=GPa)
#
#
# Indices 1 2 3 4 5 6 
#
# 1 99.3562 20.3113 75.0415 0.0028 17.8330 -0.0012
# 2 20.3113 19.3256 29.7206 0.0082 5.2846 -0.0046
# 3 75.0415 29.7206 174.4562 0.0021 11.7856 -0.0013
# 4 0.0028 0.0082 0.0021 19.2581 -0.0024 -0.1143
# 5 17.8330 5.2846 11.7856 -0.0024 29.3856 0.0007
# 6 -0.0012 -0.0046 -0.0013 -0.1143 0.0007 15.8719
#
#
#
# Elastic Compliance Matrix: (Units=1/GPa)
#
#
# Indices 1 2 3 4 5 6 
#
# 1 0.017027 -0.007435 -0.005601 0.000000 -0.006749 -0.000001
# 2 -0.007435 0.075258 -0.009264 -0.000031 -0.005306 0.000021
# 3 -0.005601 -0.009264 0.009639 0.000004 0.001200 -0.000002
# 4 0.000000 -0.000031 0.000004 0.051929 0.000008 0.000374
# 5 -0.006749 -0.005306 0.001200 0.000008 0.038599 -0.000004
# 6 -0.000001 0.000021 -0.000002 0.000374 -0.000004 0.063007
#
#
# Mechanical properties :
#
#
# Convention : Reuss Voigt Hill
#
# Bulk Modulus (GPa) = 17.44547 60.36498 38.90522
# Shear Modulus (GPa) = 15.66574 24.10741 19.88657
#
# Velocity S-wave (km/s) = 2.91838 3.62027 3.28811
# Velocity P-wave (km/s) = 4.56513 7.09179 5.96380
#
# Compressibility (1/GPa) = 0.05732147
#
# Stress axis : x y z
#
# Youngs Moduli (GPa) = 58.73110 13.28760 103.74823
#
# Poissons Ratio (x) = 0.09880 0.58113
# Poissons Ratio (y) = 0.43669 0.96115
# Poissons Ratio (z) = 0.32897 0.12310
#
# Static dielectric constant tensor:
#      x y z
#    x 3.437070 0.000000 0.216650 
#    y 0.000000 2.985470 0.000000 
#    z 0.216650 0.000000 3.794100 
# 
# 
# High freq. dielectric constant tensor:
#      x y z
#    x 1.703880 0.000000 0.013530 
#    y 0.000000 1.663730 0.000000 
#    z 0.013530 0.000000 1.730260 
# 
# From -- ./inp_files/289072.got.cif
#   From: 2010.06.25/outbox.cif.g09.slc.cpg/sg12_145_cif.got.tgz:289072.got - 2010.06.28 00:19:55.
