data_PCOD8081776
_publ_section_title
;
Structure prediction by ZEFSAII (Michael W. Deem and Ramdas Pophale) SiO2 
 PCOD8081776
Probable space group: C 2/M
;
_chemical_formula_sum "Si O2"
_cell_formula_units_Z 64
_cell_length_a 31.776254
_cell_length_b 8.688499
_cell_length_c 15.840033
_cell_angle_alpha 90.000000
_cell_angle_beta 55.381458
_cell_angle_gamma 90.000000
_cell_volume 3598.970912
_symmetry_space_group_name_H-M "C 2/M"
_symmetry_group_IT_number 12
_symmetry_cell_setting 'monoclinic'
loop_
_space_group_symop_operation_xyz
x,y,z
-x,y,-z
-x,-y,-z
x,-y,z
1/2+x,1/2+y,z
1/2-x,1/2+y,-z
1/2-x,1/2-y,-z
1/2+x,1/2-y,z
loop_
_atom_site_type_symbol
_atom_site_label
_atom_site_fract_x
_atom_site_fract_y
_atom_site_fract_z
Si Si1 0.676512 0.818675 0.915839
Si Si2 0.610505 0.678401 0.418556
Si Si3 0.021278 0.182372 0.848615
Si Si4 0.421146 0.682183 0.054414
Si Si5 0.464109 0.320835 0.355635
Si Si6 0.437753 0.179794 0.684599
Si Si7 0.288732 0.681230 0.778336
Si Si8 0.654118 0.681010 0.120318
O O1 0.633936 0.749808 0.903276
O O2 0.732231 0.752678 0.823134
O O3 0.673696 0.000000 0.910701
O O4 0.668980 0.773159 0.020778
O O5 0.605432 0.500000 0.396644
O O6 0.591291 0.702711 0.536543
O O7 0.575105 0.777291 0.396897
O O8 0.670039 0.730583 0.340703
O O9 0.061396 0.242680 0.873093
O O10 0.037909 0.244144 0.737696
O O11 0.022538 0.000000 0.849387
O O12 0.963691 0.237469 0.937506
O O13 0.416723 0.500000 0.057737
O O14 0.479926 0.500000 0.338309
O O15 0.503881 0.223188 0.364517
O O16 0.403670 0.276986 0.788882
O O17 0.428646 0.000000 0.709479
O O18 0.284128 0.500000 0.788089
O O19 0.308637 0.738317 0.847050
O O20 0.657758 0.500000 0.098151
#
# Coordination Sequence:
#
# PCOD8081776 Si02
#       8
#     8   8   8   8   8   8   8   8
#     4  11  20  30  47  72  98 123 155 195 241 287
#     4   9  18  33  50  67  91 128 169 202 231 271
#     4   8  16  31  51  72  92 118 154 196 236 278
#     4   9  17  32  51  70  95 124 153 188 236 290
#     4  10  18  30  51  73  92 122 166 205 236 276
#     4  11  21  31  45  70 103 131 155 190 238 286
#     4   8  17  32  47  65  93 127 162 198 233 273
#     4  10  19  33  50  68  94 128 164 196 228 274
#
# _framework density 17.782861
#
# number of rings (size 3 to 8) (size 9 to 14) (size 15 to 20)
#    0.000    2.500    0.000    4.875    0.000    3.000 
#    0.000    7.500    0.000    0.750    0.000    0.000 
#    0.000    0.000    0.000    0.000    0.000    0.125 
#
# Total GULP energy -396659.910073 kJ/mol
# GULP energy per Si atom -12395.622190 kJ/mol
# Density = 1.774239 g / cm^3
# Si number density = 17.782861 Si / 1000 Ang^3
#
#
#
# Elastic Constant Matrix: (Units=GPa)
#
#
# Indices 1 2 3 4 5 6 
#
# 1 121.5067 23.6927 69.9693 0.0000 -16.2884 0.0000
# 2 23.6927 31.5575 13.2127 0.0000 1.5001 -0.0001
# 3 69.9693 13.2127 129.9385 0.0000 -3.1278 0.0000
# 4 0.0000 0.0000 0.0000 15.2806 0.0000 -2.2329
# 5 -16.2884 1.5001 -3.1278 0.0000 20.8371 0.0000
# 6 0.0000 -0.0001 0.0000 -2.2329 0.0000 20.1317
#
#
#
# Elastic Compliance Matrix: (Units=1/GPa)
#
#
# Indices 1 2 3 4 5 6 
#
# 1 0.015886 -0.009439 -0.007306 0.000000 0.012001 0.000000
# 2 -0.009439 0.038881 0.000887 0.000000 -0.010044 0.000000
# 3 -0.007306 0.000887 0.011442 0.000000 -0.004057 0.000000
# 4 0.000000 0.000000 0.000000 0.066520 0.000000 0.007378
# 5 0.012001 -0.010044 -0.004057 0.000000 0.057487 0.000000
# 6 0.000000 0.000000 0.000000 0.007378 0.000000 0.050491
#
#
# Mechanical properties :
#
#
# Convention : Reuss Voigt Hill
#
# Bulk Modulus (GPa) = 28.99021 55.19468 42.09245
# Shear Modulus (GPa) = 17.61060 22.99176 20.30118
#
# Velocity S-wave (km/s) = 3.15034 3.59962 3.38244
# Velocity P-wave (km/s) = 5.43788 6.95570 6.24309
#
# Compressibility (1/GPa) = 0.03449440
#
# Stress axis : x y z
#
# Youngs Moduli (GPa) = 62.94740 25.71979 87.39661
#
# Poissons Ratio (x) = 0.24276 0.63850
# Poissons Ratio (y) = 0.59414 -0.07754
# Poissons Ratio (z) = 0.45988 -0.02282
#
# Static dielectric constant tensor:
#      x y z
#    x 3.472450 0.000000 -0.155390 
#    y 0.000000 3.033590 0.000000 
#    z -0.155390 0.000000 3.524230 
# 
# 
# High freq. dielectric constant tensor:
#      x y z
#    x 1.672050 0.000000 -0.011780 
#    y 0.000000 1.665140 0.000000 
#    z -0.011780 0.000000 1.686560 
# 
# From -- ./inp_files/248955.got.cif
#   From: 2010.06.25/outbox.cif.g09.slc.cpg/sg12_125_cif.got.tgz:248955.got - 2010.06.28 00:19:55.
