data_PCOD8081551
_publ_section_title
;
Structure prediction by ZEFSAII (Michael W. Deem and Ramdas Pophale) SiO2 
 PCOD8081551
Probable space group: C 2/M
;
_chemical_formula_sum "Si O2"
_cell_formula_units_Z 48
_cell_length_a 27.227000
_cell_length_b 8.631749
_cell_length_c 11.789045
_cell_angle_alpha 90.000000
_cell_angle_beta 107.525520
_cell_angle_gamma 90.000000
_cell_volume 2642.017460
_symmetry_space_group_name_H-M "C 2/M"
_symmetry_group_IT_number 12
_symmetry_cell_setting 'monoclinic'
loop_
_space_group_symop_operation_xyz
x,y,z
-x,y,-z
-x,-y,-z
x,-y,z
1/2+x,1/2+y,z
1/2-x,1/2+y,-z
1/2-x,1/2-y,-z
1/2+x,1/2-y,z
loop_
_atom_site_type_symbol
_atom_site_label
_atom_site_fract_x
_atom_site_fract_y
_atom_site_fract_z
Si Si1 0.820496 0.823735 0.777803
Si Si2 0.058453 0.318071 0.542054
Si Si3 0.194848 0.318989 0.996228
Si Si4 0.370367 0.679664 0.588956
Si Si5 0.791102 0.322686 0.378094
Si Si6 0.359112 0.683068 0.240620
O O1 0.819689 0.708493 0.882733
O O2 0.867166 0.785629 0.722240
O O3 0.769879 0.803903 0.665499
O O4 0.824454 0.000000 0.825943
O O5 0.061311 0.500000 0.564429
O O6 0.084402 0.277227 0.439165
O O7 0.086932 0.235463 0.666921
O O8 0.000000 0.258210 0.500000
O O9 0.196684 0.500000 0.973034
O O10 0.250000 0.250000 0.000000
O O11 0.148064 0.241004 0.893240
O O12 0.381556 0.500000 0.574275
O O13 0.315407 0.721411 0.495188
O O14 0.808677 0.500000 0.406174
O O15 0.811582 0.260738 0.272515
O O16 0.354991 0.500000 0.243869
#
# Coordination Sequence:
#
# PCOD8081551 Si02
#       6
#     8   8   8   8   8   8
#     4  10  21  34  49  73 108 148 182 217 260 314
#     4  10  21  38  60  83 107 137 176 224 275 324
#     4  12  23  35  53  76 108 149 188 222 259 310
#     4  10  20  33  51  77 108 139 177 221 269 321
#     4  10  18  30  49  72 106 145 180 217 257 311
#     4  11  21  34  54  80 109 141 181 224 268 316
#
# _framework density 18.167933999999999
#
# number of rings (size 3 to 8) (size 9 to 14) (size 15 to 20)
#    0.000    1.500    1.667    7.000    0.000    3.333 
#    0.000    0.000    0.000    1.000    0.000    7.000 
#    0.000    0.000    0.000    0.000    0.000    0.000 
#
# Total GULP energy -297569.126267 kJ/mol
# GULP energy per Si atom -12398.713594 kJ/mol
# Density = 1.812658 g / cm^3
# Si number density = 18.167934 Si / 1000 Ang^3
#
#
#
# Elastic Constant Matrix: (Units=GPa)
#
#
# Indices 1 2 3 4 5 6 
#
# 1 81.6566 15.3890 43.0909 0.0000 4.0916 0.0000
# 2 15.3890 -113.0085 -53.6935 0.0000 12.2978 0.0000
# 3 43.0909 -53.6935 59.0723 0.0000 -5.2648 0.0000
# 4 0.0000 0.0000 0.0000 31.8598 0.0000 -1.4047
# 5 4.0916 12.2978 -5.2648 0.0000 21.0203 0.0000
# 6 0.0000 0.0000 0.0000 -1.4047 0.0000 23.3660
#
#
#
# Elastic Compliance Matrix: (Units=1/GPa)
#
#
# Indices 1 2 3 4 5 6 
#
# 1 0.015778 0.004953 -0.007712 0.000000 -0.007901 0.000000
# 2 0.004953 -0.004522 -0.007746 0.000000 -0.000259 0.000000
# 3 -0.007712 -0.007746 0.016417 0.000000 0.010145 0.000000
# 4 0.000000 0.000000 0.000000 0.031471 0.000000 0.001892
# 5 -0.007901 -0.000259 0.010145 0.000000 0.051803 0.000000
# 6 0.000000 0.000000 0.000000 0.001892 0.000000 0.042911
#
#
# Mechanical properties :
#
#
# Convention : Reuss Voigt Hill
#
# Bulk Modulus (GPa) = 150.08295 4.14369 77.11332
# Shear Modulus (GPa) = 28.23421 16.77816 22.50619
#
# Velocity S-wave (km/s) = 3.94644 3.04222 3.52346
# Velocity P-wave (km/s) = 10.17615 3.82437 7.68699
#
# Compressibility (1/GPa) = 0.00666298
#
# Stress axis : x y z
#
# Youngs Moduli (GPa) = 63.37751 -221.13887 60.91217
#
# Poissons Ratio (x) = 1.09530 0.46975
# Poissons Ratio (y) = -0.31391 0.47185
# Poissons Ratio (z) = 0.48876 -1.71303
#
# Static dielectric constant tensor:
#      x y z
#    x 2.943380 0.000000 0.451100 
#    y 0.000000 3.406850 0.000000 
#    z 0.451100 0.000000 2.321860 
# 
# 
# High freq. dielectric constant tensor:
#      x y z
#    x 1.672910 0.000000 -0.013850 
#    y 0.000000 1.718570 0.000000 
#    z -0.013850 0.000000 1.700170 
# 
# From -- ./inp_files/185966.got.cif
#   From: 2010.06.25/outbox.cif.g09.slc.cpg/sg12_93_cif.got.tgz:185966.got - 2010.06.28 00:19:55.
