data_PCOD8081422
_publ_section_title
;
Structure prediction by ZEFSAII (Michael W. Deem and Ramdas Pophale) SiO2 
 PCOD8081422
Probable space group: C 2/M
;
_chemical_formula_sum "Si O2"
_cell_formula_units_Z 64
_cell_length_a 20.548543
_cell_length_b 9.168503
_cell_length_c 19.864557
_cell_angle_alpha 90.000000
_cell_angle_beta 74.922796
_cell_angle_gamma 90.000000
_cell_volume 3613.640141
_symmetry_space_group_name_H-M "C 2/M"
_symmetry_group_IT_number 12
_symmetry_cell_setting 'monoclinic'
loop_
_space_group_symop_operation_xyz
x,y,z
-x,y,-z
-x,-y,-z
x,-y,z
1/2+x,1/2+y,z
1/2-x,1/2+y,-z
1/2-x,1/2-y,-z
1/2+x,1/2-y,z
loop_
_atom_site_type_symbol
_atom_site_label
_atom_site_fract_x
_atom_site_fract_y
_atom_site_fract_z
Si Si1 0.689488 0.337074 0.933068
Si Si2 0.843614 0.338575 0.936765
Si Si3 0.846928 0.173357 0.569231
Si Si4 0.297728 0.167579 0.344607
Si Si5 0.766236 0.668847 0.201791
Si Si6 0.549501 0.671099 0.346085
Si Si7 0.627784 0.172942 0.216802
Si Si8 0.895499 0.829377 0.412571
O O1 0.663707 0.500000 0.924156
O O2 0.765694 0.339166 0.937465
O O3 0.684626 0.239444 0.867251
O O4 0.642675 0.270202 0.004842
O O5 0.865421 0.500000 0.954249
O O6 0.884669 0.290910 0.858959
O O7 0.773167 0.231884 0.609129
O O8 0.901378 0.229761 0.608528
O O9 0.866030 0.233760 0.490437
O O10 0.849063 0.000000 0.569305
O O11 0.303183 0.185191 0.263032
O O12 0.359290 0.254652 0.359680
O O13 0.303951 0.000000 0.364520
O O14 0.752905 0.500000 0.187250
O O15 0.695187 0.750477 0.225578
O O16 0.560241 0.500000 0.328832
O O17 0.564792 0.761576 0.274215
O O18 0.474235 0.706603 0.389236
O O19 0.635078 0.000000 0.225620
O O20 0.881929 0.000000 0.410829
#
# Coordination Sequence:
#
# PCOD8081422 Si02
#       8
#     8   8   8   8   8   8   8   8
#     4   9  16  25  40  66  97 128 162 203 246 288
#     4   8  15  26  39  61  95 130 161 195 243 297
#     4   9  17  34  55  75  97 129 171 208 250 304
#     4  10  20  34  52  73 101 135 168 207 253 301
#     4  10  18  30  48  69  96 134 170 203 248 300
#     4  10  19  34  53  74 100 133 170 206 251 305
#     4  10  19  30  47  72  99 129 166 210 251 290
#     4  10  21  34  53  76 100 131 168 212 253 297
#
# _framework density 17.710674000000001
#
# number of rings (size 3 to 8) (size 9 to 14) (size 15 to 20)
#    0.000    2.500    1.250    2.625    0.000    6.500 
#    0.000    0.625    0.000    1.500    0.000    0.875 
#    0.000    7.000    0.000    0.000    0.000    0.000 
#
# Total GULP energy -396775.148294 kJ/mol
# GULP energy per Si atom -12399.223384 kJ/mol
# Density = 1.767036 g / cm^3
# Si number density = 17.710674 Si / 1000 Ang^3
#
#
#
# Elastic Constant Matrix: (Units=GPa)
#
#
# Indices 1 2 3 4 5 6 
#
# 1 55.5207 26.9320 23.8935 0.0000 9.5970 0.0000
# 2 26.9320 80.4592 54.5096 0.0000 1.9682 0.0000
# 3 23.8935 54.5096 125.4331 0.0000 1.4533 0.0000
# 4 0.0000 0.0000 0.0000 30.8392 0.0000 0.3581
# 5 9.5970 1.9682 1.4533 0.0000 8.8857 0.0000
# 6 0.0000 0.0000 0.0000 0.3581 0.0000 20.8194
#
#
#
# Elastic Compliance Matrix: (Units=1/GPa)
#
#
# Indices 1 2 3 4 5 6 
#
# 1 0.026939 -0.007212 -0.001682 0.000000 -0.027223 0.000000
# 2 -0.007212 0.019608 -0.007201 0.000000 0.004623 0.000000
# 3 -0.001682 -0.007201 0.011404 0.000000 0.001547 0.000000
# 4 0.000000 0.000000 0.000000 0.032433 0.000000 -0.000558
# 5 -0.027223 0.004623 0.001547 0.000000 0.140665 0.000000
# 6 0.000000 0.000000 0.000000 -0.000558 0.000000 0.048042
#
#
# Mechanical properties :
#
#
# Convention : Reuss Voigt Hill
#
# Bulk Modulus (GPa) = 38.81725 52.45368 45.63547
# Shear Modulus (GPa) = 15.63150 22.51406 19.07278
#
# Velocity S-wave (km/s) = 2.97409 3.56928 3.28519
# Velocity P-wave (km/s) = 5.81022 6.83137 6.34138
#
# Compressibility (1/GPa) = 0.02576174
#
# Stress axis : x y z
#
# Youngs Moduli (GPa) = 37.12081 50.99960 87.68702
#
# Poissons Ratio (x) = 0.36779 0.14750
# Poissons Ratio (y) = 0.26770 0.63143
# Poissons Ratio (z) = 0.06244 0.36724
#
# Static dielectric constant tensor:
#      x y z
#    x 2.848370 0.000000 -0.078340 
#    y 0.000000 3.252200 0.000000 
#    z -0.078340 0.000000 3.595250 
# 
# 
# High freq. dielectric constant tensor:
#      x y z
#    x 1.634250 0.000000 -0.003940 
#    y 0.000000 1.677350 0.000000 
#    z -0.003940 0.000000 1.703190 
# 
# From -- ./inp_files/319084.got.cif
#   From: 2010.06.25/outbox.cif.g09.slc.cpg/sg12_160_cif.got.tgz:319084.got - 2010.06.28 00:19:55.
