data_PCOD8081101
_publ_section_title
;
Structure prediction by ZEFSAII (Michael W. Deem and Ramdas Pophale) SiO2 
 PCOD8081101
Probable space group: C 2/M
;
_chemical_formula_sum "Si O2"
_cell_formula_units_Z 56
_cell_length_a 11.726386
_cell_length_b 18.288856
_cell_length_c 17.706240
_cell_angle_alpha 90.000000
_cell_angle_beta 124.816024
_cell_angle_gamma 90.000000
_cell_volume 3117.559205
_symmetry_space_group_name_H-M "C 2/M"
_symmetry_group_IT_number 12
_symmetry_cell_setting 'monoclinic'
loop_
_space_group_symop_operation_xyz
x,y,z
-x,y,-z
-x,-y,-z
x,-y,z
1/2+x,1/2+y,z
1/2-x,1/2+y,-z
1/2-x,1/2-y,-z
1/2+x,1/2-y,z
loop_
_atom_site_type_symbol
_atom_site_label
_atom_site_fract_x
_atom_site_fract_y
_atom_site_fract_z
Si Si1 0.565347 0.190330 0.103780
Si Si2 0.812456 0.304196 0.584678
Si Si3 0.608678 0.832691 0.707650
Si Si4 0.475524 0.918283 0.184766
Si Si5 0.792373 0.918517 0.357029
Si Si6 0.620227 0.698293 0.253308
Si Si7 0.633590 0.335913 0.757187
O O1 0.464207 0.131083 0.105438
O O2 0.575666 0.263290 0.158337
O O3 0.716029 0.151969 0.147508
O O4 0.500000 0.213864 0.000000
O O5 0.750000 0.250000 0.500000
O O6 0.700806 0.367517 0.564769
O O7 0.847950 0.262576 0.675496
O O8 0.957504 0.340455 0.609443
O O9 0.619172 0.883486 0.785398
O O10 0.741034 0.851942 0.704336
O O11 0.626983 0.748335 0.733726
O O12 0.633439 0.919562 0.271720
O O13 0.421779 0.000000 0.146808
O O14 0.885434 0.885636 0.324644
O O15 0.846021 0.000000 0.396875
O O16 0.494262 0.646470 0.234471
#
# Coordination Sequence:
#
# PCOD8081101 Si02
#       7
#     8   8   8   8   8   8   8
#     4  10  18  29  49  77 100 129 166 212 260 290
#     4  10  18  30  53  79  96 132 168 207 252 294
#     4   9  16  32  50  70 102 130 168 206 245 304
#     4   9  16  30  50  72  99 132 168 209 252 296
#     4   9  16  31  53  76 101 132 166 206 255 296
#     4  10  18  34  47  73 105 128 172 205 241 307
#     4   9  16  32  50  71 103 133 163 206 248 295
#
# _framework density 17.962772000000001
#
# number of rings (size 3 to 8) (size 9 to 14) (size 15 to 20)
#    0.000    2.571    7.143    0.000    0.000    1.429 
#    0.000    0.714    0.000    7.714    0.000    5.000 
#    0.000    0.000    0.000    0.000    0.000    0.000 
#
# Total GULP energy -346921.917652 kJ/mol
# GULP energy per Si atom -12390.068488 kJ/mol
# Density = 1.792189 g / cm^3
# Si number density = 17.962772 Si / 1000 Ang^3
#
#
#
# Elastic Constant Matrix: (Units=GPa)
#
#
# Indices 1 2 3 4 5 6 
#
# 1 155.3985 38.6300 31.0433 0.0000 -18.8566 0.0000
# 2 38.6300 87.2785 34.3428 0.0000 -15.7731 0.0000
# 3 31.0433 34.3428 82.4509 0.0000 -7.6567 0.0000
# 4 0.0000 0.0000 0.0000 19.0975 0.0000 -8.2185
# 5 -18.8566 -15.7731 -7.6567 0.0000 15.0073 0.0000
# 6 0.0000 0.0000 0.0000 -8.2185 0.0000 22.0860
#
#
#
# Elastic Compliance Matrix: (Units=1/GPa)
#
#
# Indices 1 2 3 4 5 6 
#
# 1 0.008086 -0.001520 -0.001696 0.000000 0.007696 0.000000
# 2 -0.001520 0.016442 -0.005090 0.000000 0.012774 0.000000
# 3 -0.001696 -0.005090 0.014898 0.000000 0.000120 0.000000
# 4 0.000000 0.000000 0.000000 0.062347 0.000000 0.023200
# 5 0.007696 0.012774 0.000120 0.000000 0.089791 0.000000
# 6 0.000000 0.000000 0.000000 0.023200 0.000000 0.053911
#
#
# Mechanical properties :
#
#
# Convention : Reuss Voigt Hill
#
# Bulk Modulus (GPa) = 43.83515 59.24000 51.53757
# Shear Modulus (GPa) = 18.53970 25.97895 22.25932
#
# Velocity S-wave (km/s) = 3.21614 3.80711 3.52403
# Velocity P-wave (km/s) = 6.18448 7.23715 6.73142
#
# Compressibility (1/GPa) = 0.02281274
#
# Stress axis : x y z
#
# Youngs Moduli (GPa) = 123.67361 60.82091 67.12189
#
# Poissons Ratio (x) = 0.09248 0.11386
# Poissons Ratio (y) = 0.18804 0.34163
# Poissons Ratio (z) = 0.20979 0.30956
#
# Static dielectric constant tensor:
#      x y z
#    x 4.333880 0.000000 -0.132920 
#    y 0.000000 3.334490 0.000000 
#    z -0.132920 0.000000 2.939350 
# 
# 
# High freq. dielectric constant tensor:
#      x y z
#    x 1.705180 0.000000 -0.011440 
#    y 0.000000 1.665060 0.000000 
#    z -0.011440 0.000000 1.655940 
# 
# From -- ./inp_files/207312.got.cif
#   From: 2010.06.25/outbox.cif.g09.slc.cpg/sg12_104_cif.got.tgz:207312.got - 2010.06.28 00:19:55.
