data_PCOD8081858
_publ_section_title
;
Structure prediction by ZEFSAII (Michael W. Deem and Ramdas Pophale) SiO2 
 PCOD8081858
Probable space group: C 2/M
;
_chemical_formula_sum "Si O2"
_cell_formula_units_Z 48
_cell_length_a 27.061481
_cell_length_b 12.783788
_cell_length_c 7.983531
_cell_angle_alpha 90.000000
_cell_angle_beta 77.632043
_cell_angle_gamma 90.000000
_cell_volume 2697.791160
_symmetry_space_group_name_H-M "C 2/M"
_symmetry_group_IT_number 12
_symmetry_cell_setting 'monoclinic'
loop_
_space_group_symop_operation_xyz
x,y,z
-x,y,-z
-x,-y,-z
x,-y,z
1/2+x,1/2+y,z
1/2-x,1/2+y,-z
1/2-x,1/2-y,-z
1/2+x,1/2-y,z
loop_
_atom_site_type_symbol
_atom_site_label
_atom_site_fract_x
_atom_site_fract_y
_atom_site_fract_z
Si Si1 0.807238 0.717357 0.944409
Si Si2 0.113991 0.119979 0.232283
Si Si3 0.508060 0.376449 0.180210
Si Si4 0.318701 0.236301 0.297487
Si Si5 0.280282 0.120623 0.635247
Si Si6 0.099215 0.119520 0.626268
O O1 0.840676 0.819641 0.887931
O O2 0.812135 0.636638 0.785453
O O3 0.750000 0.750000 0.000000
O O4 0.822729 0.672931 0.117371
O O5 0.059734 0.169895 0.220225
O O6 0.121142 0.130012 0.425208
O O7 0.118336 0.000000 0.171296
O O8 0.514463 0.500000 0.172874
O O9 0.459605 0.345131 0.327605
O O10 0.500000 0.331425 0.000000
O O11 0.314925 0.154742 0.452805
O O12 0.270859 0.313390 0.328799
O O13 0.368879 0.306265 0.275859
O O14 0.266064 0.000000 0.625647
O O15 0.103562 0.000000 0.688406
#
# Coordination Sequence:
#
# PCOD8081858 Si02
#       6
#     8   8   8   8   8   8
#     4  10  21  35  51  75 104 138 182 218 256 310
#     4  10  19  32  50  75 110 145 176 215 264 316
#     4   9  17  28  45  74 108 141 175 209 256 320
#     4  10  20  35  54  78 103 138 178 214 261 320
#     4  10  21  37  53  74 105 137 175 222 265 307
#     4  10  18  30  51  78 110 144 175 212 262 318
#
# _framework density 17.792335000000001
#
# number of rings (size 3 to 8) (size 9 to 14) (size 15 to 20)
#    0.000    2.167    1.667    2.000    0.000    7.333 
#    0.000    0.000    0.000    0.000    0.000    2.333 
#    0.000    4.000    0.000    0.000    0.000    0.000 
#
# Total GULP energy -297488.106250 kJ/mol
# GULP energy per Si atom -12395.337760 kJ/mol
# Density = 1.775184 g / cm^3
# Si number density = 17.792335 Si / 1000 Ang^3
#
#
#
# Elastic Constant Matrix: (Units=GPa)
#
#
# Indices 1 2 3 4 5 6 
#
# 1 95.2244 17.6043 32.7286 0.0000 -0.5288 0.0000
# 2 17.6043 48.0698 29.5970 0.0000 4.6345 0.0000
# 3 32.7286 29.5970 116.3546 0.0000 9.4717 0.0000
# 4 0.0000 0.0000 0.0000 16.6721 0.0000 -2.4175
# 5 -0.5288 4.6345 9.4717 0.0000 34.9385 0.0000
# 6 0.0000 0.0000 0.0000 -2.4175 0.0000 24.3732
#
#
#
# Elastic Compliance Matrix: (Units=1/GPa)
#
#
# Indices 1 2 3 4 5 6 
#
# 1 0.011977 -0.002813 -0.002760 0.000000 0.001302 0.000000
# 2 -0.002813 0.025415 -0.005518 0.000000 -0.001918 0.000000
# 3 -0.002760 -0.005518 0.010960 0.000000 -0.002281 0.000000
# 4 0.000000 0.000000 0.000000 0.060856 0.000000 0.006036
# 5 0.001302 -0.001918 -0.002281 0.000000 0.029514 0.000000
# 6 0.000000 0.000000 0.000000 0.006036 0.000000 0.041627
#
#
# Mechanical properties :
#
#
# Convention : Reuss Voigt Hill
#
# Bulk Modulus (GPa) = 38.20797 46.61207 42.41002
# Shear Modulus (GPa) = 23.66823 27.17801 25.42312
#
# Velocity S-wave (km/s) = 3.65121 3.91258 3.78415
# Velocity P-wave (km/s) = 6.26867 6.83123 6.55599
#
# Compressibility (1/GPa) = 0.02617255
#
# Stress axis : x y z
#
# Youngs Moduli (GPa) = 83.49196 39.34632 91.24268
#
# Poissons Ratio (x) = 0.11068 0.25178
# Poissons Ratio (y) = 0.23485 0.50343
# Poissons Ratio (z) = 0.23040 0.21709
#
# Static dielectric constant tensor:
#      x y z
#    x 3.453280 0.000000 0.237000 
#    y 0.000000 2.831270 0.000000 
#    z 0.237000 0.000000 3.758350 
# 
# 
# High freq. dielectric constant tensor:
#      x y z
#    x 1.691080 0.000000 0.008220 
#    y 0.000000 1.625360 0.000000 
#    z 0.008220 0.000000 1.711390 
# 
# From -- ./inp_files/94907.got.cif
#   From: 2010.06.25/outbox.cif.g09.slc.cpg/sg12_48_cif.got.tgz:94907.got - 2010.06.28 00:19:55.
