data_PCOD8081358
_publ_section_title
;
Structure prediction by ZEFSAII (Michael W. Deem and Ramdas Pophale) SiO2 
 PCOD8081358
Probable space group: C 2/M
;
_chemical_formula_sum "Si O2"
_cell_formula_units_Z 40
_cell_length_a 20.786026
_cell_length_b 8.729112
_cell_length_c 21.695768
_cell_angle_alpha 90.000000
_cell_angle_beta 144.961058
_cell_angle_gamma 90.000000
_cell_volume 2260.107574
_symmetry_space_group_name_H-M "C 2/M"
_symmetry_group_IT_number 12
_symmetry_cell_setting 'monoclinic'
loop_
_space_group_symop_operation_xyz
x,y,z
-x,y,-z
-x,-y,-z
x,-y,z
1/2+x,1/2+y,z
1/2-x,1/2+y,-z
1/2-x,1/2-y,-z
1/2+x,1/2-y,z
loop_
_atom_site_type_symbol
_atom_site_label
_atom_site_fract_x
_atom_site_fract_y
_atom_site_fract_z
Si Si1 0.615808 0.320139 0.770134
Si Si2 0.523965 0.682085 0.451385
Si Si3 0.245281 0.318807 0.428482
Si Si4 0.322749 0.819785 0.002889
Si Si5 0.518514 0.681343 0.216032
O O1 0.595106 0.500000 0.754125
O O2 0.569891 0.251883 0.669792
O O3 0.541686 0.256778 0.768998
O O4 0.749054 0.284397 0.883260
O O5 0.500000 0.753074 0.500000
O O6 0.516184 0.500000 0.448403
O O7 0.645644 0.734201 0.523662
O O8 0.238870 0.500000 0.429441
O O9 0.250000 0.250000 0.500000
O O10 0.140401 0.256084 0.307644
O O11 0.444553 0.738776 0.099126
O O12 0.338133 0.000000 0.024499
O O13 0.250000 0.750000 0.000000
O O14 0.529605 0.500000 0.222450
#
# Coordination Sequence:
#
# PCOD8081358 Si02
#       5
#     8   8   8   8   8
#     4   8  14  26  44  68  97 125 157 200 242 284
#     4   9  17  30  49  73 100 130 163 200 245 295
#     4  11  20  31  50  75 101 130 164 203 250 298
#     4   9  16  26  43  69 100 129 160 201 249 297
#     4  10  18  30  47  70 100 128 163 207 249 291
#
# _framework density 17.698273
#
# number of rings (size 3 to 8) (size 9 to 14) (size 15 to 20)
#    0.000    2.600    2.000    3.000    0.000    0.000 
#    0.000    0.000    0.000    3.600    0.000    8.400 
#    0.000    0.000    0.000    0.000    0.000    0.000 
#
# Total GULP energy -247824.466527 kJ/mol
# GULP energy per Si atom -12391.223326 kJ/mol
# Density = 1.765799 g / cm^3
# Si number density = 17.698273 Si / 1000 Ang^3
#
#
#
# Elastic Constant Matrix: (Units=GPa)
#
#
# Indices 1 2 3 4 5 6 
#
# 1 88.8973 24.5198 66.5875 0.0000 -0.7865 0.0000
# 2 24.5198 52.3395 39.2732 0.0000 5.2037 0.0000
# 3 66.5875 39.2732 200.7894 0.0000 7.3619 0.0000
# 4 0.0000 0.0000 0.0000 29.4666 0.0000 4.1671
# 5 -0.7865 5.2037 7.3619 0.0000 20.5370 0.0000
# 6 0.0000 0.0000 0.0000 4.1671 0.0000 12.5198
#
#
#
# Elastic Compliance Matrix: (Units=1/GPa)
#
#
# Indices 1 2 3 4 5 6 
#
# 1 0.015880 -0.004369 -0.004534 0.000000 0.003341 0.000000
# 2 -0.004369 0.023951 -0.003047 0.000000 -0.005144 0.000000
# 3 -0.004534 -0.003047 0.007152 0.000000 -0.001965 0.000000
# 4 0.000000 0.000000 0.000000 0.035613 0.000000 -0.011853
# 5 0.003341 -0.005144 -0.001965 0.000000 0.050828 0.000000
# 6 0.000000 0.000000 0.000000 -0.011853 0.000000 0.083819
#
#
# Mechanical properties :
#
#
# Convention : Reuss Voigt Hill
#
# Bulk Modulus (GPa) = 43.32426 66.97633 55.15030
# Shear Modulus (GPa) = 20.09346 26.61440 23.35393
#
# Velocity S-wave (km/s) = 3.37313 3.88207 3.63652
# Velocity P-wave (km/s) = 6.30105 7.61706 6.99009
#
# Compressibility (1/GPa) = 0.02308175
#
# Stress axis : x y z
#
# Youngs Moduli (GPa) = 62.97300 41.75244 139.82074
#
# Poissons Ratio (x) = 0.18243 0.63396
# Poissons Ratio (y) = 0.27515 0.42604
# Poissons Ratio (z) = 0.28552 0.12722
#
# Static dielectric constant tensor:
#      x y z
#    x 3.056040 0.000000 -0.068930 
#    y 0.000000 3.103040 0.000000 
#    z -0.068930 0.000000 4.140110 
# 
# 
# High freq. dielectric constant tensor:
#      x y z
#    x 1.626140 0.000000 0.005750 
#    y 0.000000 1.661850 0.000000 
#    z 0.005750 0.000000 1.715300 
# 
# From -- ./inp_files/151855.got.cif
#   From: 2010.06.25/outbox.cif.g09.slc.cpg/sg12_76_cif.got.tgz:151855.got - 2010.06.28 00:19:55.
