data_PCOD8081869
_publ_section_title
;
Structure prediction by ZEFSAII (Michael W. Deem and Ramdas Pophale) SiO2 
 PCOD8081869
Probable space group: C 2/M
;
_chemical_formula_sum "Si O2"
_cell_formula_units_Z 40
_cell_length_a 19.299004
_cell_length_b 8.750153
_cell_length_c 27.417711
_cell_angle_alpha 90.000000
_cell_angle_beta 151.922717
_cell_angle_gamma 90.000000
_cell_volume 2179.169235
_symmetry_space_group_name_H-M "C 2/M"
_symmetry_group_IT_number 12
_symmetry_cell_setting 'monoclinic'
loop_
_space_group_symop_operation_xyz
x,y,z
-x,y,-z
-x,-y,-z
x,-y,z
1/2+x,1/2+y,z
1/2-x,1/2+y,-z
1/2-x,1/2-y,-z
1/2+x,1/2-y,z
loop_
_atom_site_type_symbol
_atom_site_label
_atom_site_fract_x
_atom_site_fract_y
_atom_site_fract_z
Si Si1 0.970746 0.178869 0.262941
Si Si2 0.608211 0.819617 0.887092
Si Si3 0.920659 0.679835 0.332024
Si Si4 0.311883 0.679510 0.731176
Si Si5 0.705887 0.178340 0.562569
O O1 0.897926 0.264124 0.172372
O O2 0.893989 0.236811 0.264357
O O3 0.144905 0.217274 0.374028
O O4 0.943839 0.000000 0.239198
O O5 0.466426 0.766394 0.829894
O O6 0.618680 0.000000 0.894606
O O7 0.750000 0.750000 0.000000
O O8 0.938265 0.500000 0.333693
O O9 0.779223 0.716685 0.277051
O O10 0.065791 0.751891 0.448209
O O11 0.344816 0.500000 0.745679
O O12 0.220295 0.738665 0.627082
O O13 0.674352 0.000000 0.545315
#
# Coordination Sequence:
#
# PCOD8081869 Si02
#       5
#     8   8   8   8   8
#     4  10  20  34  52  77 109 141 177 217 256 302
#     4  11  22  39  61  79  98 128 170 217 266 319
#     4  10  18  30  51  79 112 146 177 211 253 301
#     4   9  18  33  53  79 109 140 176 215 256 305
#     4   8  15  29  50  75 106 147 184 211 246 297
#
# _framework density 18.355619000000001
#
# number of rings (size 3 to 8) (size 9 to 14) (size 15 to 20)
#    0.000    2.400    0.000    4.800    0.000    3.200 
#    0.000    5.000    0.000   12.000    0.000    0.000 
#    0.000    0.000    0.000    0.000    0.000    0.000 
#
# Total GULP energy -247999.730932 kJ/mol
# GULP energy per Si atom -12399.986547 kJ/mol
# Density = 1.831384 g / cm^3
# Si number density = 18.355619 Si / 1000 Ang^3
#
#
#
# Elastic Constant Matrix: (Units=GPa)
#
#
# Indices 1 2 3 4 5 6 
#
# 1 135.1368 60.5531 60.0678 0.0001 2.4676 -0.0001
# 2 60.5531 90.7370 56.8807 0.0000 0.0992 -0.0005
# 3 60.0678 56.8807 137.0897 -0.0002 -0.8811 0.0001
# 4 0.0001 0.0000 -0.0002 24.1833 0.0001 -0.0531
# 5 2.4676 0.0992 -0.8811 0.0001 11.9008 0.0000
# 6 -0.0001 -0.0005 0.0001 -0.0531 0.0000 31.0617
#
#
#
# Elastic Compliance Matrix: (Units=1/GPa)
#
#
# Indices 1 2 3 4 5 6 
#
# 1 0.011194 -0.005924 -0.002463 0.000000 -0.002454 0.000000
# 2 -0.005924 0.018034 -0.004882 0.000000 0.000716 0.000000
# 3 -0.002463 -0.004882 0.010408 0.000000 0.001322 0.000000
# 4 0.000000 0.000000 0.000000 0.041351 0.000000 0.000071
# 5 -0.002454 0.000716 0.001322 0.000000 0.084629 0.000000
# 6 0.000000 0.000000 0.000000 0.000071 0.000000 0.032194
#
#
# Mechanical properties :
#
#
# Convention : Reuss Voigt Hill
#
# Bulk Modulus (GPa) = 76.34744 79.77404 78.06074
# Shear Modulus (GPa) = 21.86151 25.79328 23.82740
#
# Velocity S-wave (km/s) = 3.45483 3.75266 3.60682
# Velocity P-wave (km/s) = 7.58935 7.89502 7.74369
#
# Compressibility (1/GPa) = 0.01309802
#
# Stress axis : x y z
#
# Youngs Moduli (GPa) = 89.33644 55.45129 96.08165
#
# Poissons Ratio (x) = 0.32847 0.23661
# Poissons Ratio (y) = 0.52919 0.46911
# Poissons Ratio (z) = 0.22000 0.27074
#
# Static dielectric constant tensor:
#      x y z
#    x 3.325840 0.000000 0.197850 
#    y 0.000000 3.184790 0.000000 
#    z 0.197850 0.000000 3.026970 
# 
# 
# High freq. dielectric constant tensor:
#      x y z
#    x 1.716640 0.000000 -0.001930 
#    y 0.000000 1.693820 0.000000 
#    z -0.001930 0.000000 1.701840 
# 
# From -- ./inp_files/151956.got.cif
#   From: 2010.06.25/outbox.cif.g09.slc.cpg/sg12_76_cif.got.tgz:151956.got - 2010.06.28 00:19:55.
