data_PCOD8081460
_publ_section_title
;
Structure prediction by ZEFSAII (Michael W. Deem and Ramdas Pophale) SiO2 
 PCOD8081460
Probable space group: C 2/M
;
_chemical_formula_sum "Si O2"
_cell_formula_units_Z 64
_cell_length_a 23.679402
_cell_length_b 9.816979
_cell_length_c 21.220612
_cell_angle_alpha 90.000000
_cell_angle_beta 132.497734
_cell_angle_gamma 90.000000
_cell_volume 3637.082228
_symmetry_space_group_name_H-M "C 2/M"
_symmetry_group_IT_number 12
_symmetry_cell_setting 'monoclinic'
loop_
_space_group_symop_operation_xyz
x,y,z
-x,y,-z
-x,-y,-z
x,-y,z
1/2+x,1/2+y,z
1/2-x,1/2+y,-z
1/2-x,1/2-y,-z
1/2+x,1/2-y,z
loop_
_atom_site_type_symbol
_atom_site_label
_atom_site_fract_x
_atom_site_fract_y
_atom_site_fract_z
Si Si1 0.265483 0.163784 0.315908
Si Si2 0.464029 0.154774 0.252750
Si Si3 0.825514 0.657609 0.230030
Si Si4 0.224846 0.158811 0.039246
Si Si5 0.897531 0.850027 0.779224
Si Si6 0.784226 0.850884 0.442765
Si Si7 0.130018 0.243428 0.376059
Si Si8 0.059089 0.158960 0.880258
O O1 0.308463 0.219741 0.286206
O O2 0.176886 0.219388 0.245058
O O3 0.302767 0.234912 0.405076
O O4 0.269820 0.000000 0.328979
O O5 0.413818 0.184713 0.277837
O O6 0.553446 0.172168 0.334954
O O7 0.429531 0.254992 0.174492
O O8 0.448849 0.000000 0.218876
O O9 0.806242 0.500000 0.222087
O O10 0.767412 0.715788 0.133337
O O11 0.245452 0.000000 0.041548
O O12 0.250000 0.250000 0.000000
O O13 0.133209 0.176074 0.980364
O O14 0.887439 0.855395 0.695743
O O15 0.981488 0.784233 0.856938
O O16 0.899097 0.000000 0.808639
O O17 0.847109 0.841371 0.545272
O O18 0.699529 0.842499 0.409222
O O19 0.791907 0.000000 0.417334
O O20 0.046821 0.000000 0.852668
#
# Coordination Sequence:
#
# PCOD8081460 Si02
#       8
#     8   8   8   8   8   8   8   8
#     4   9  18  33  50  66  92 132 167 193 230 283
#     4  10  18  30  49  71  96 124 157 195 234 281
#     4   9  18  32  49  69  95 128 163 196 231 278
#     4  10  18  30  48  71  98 125 158 198 238 280
#     4   8  14  27  46  68  94 123 154 189 232 279
#     4  10  19  32  51  74  98 122 155 200 243 282
#     4   9  18  29  48  74  98 120 151 193 243 285
#     4   9  17  28  45  72 100 122 151 197 246 282
#
# _framework density 17.596523000000001
#
# number of rings (size 3 to 8) (size 9 to 14) (size 15 to 20)
#    0.000    2.750    1.250    0.750    0.000    4.000 
#    0.000    2.500    0.000    6.750    0.000    0.000 
#    0.000    7.000    0.000    0.000    0.000    0.000 
#
# Total GULP energy -396424.366800 kJ/mol
# GULP energy per Si atom -12388.261462 kJ/mol
# Density = 1.755647 g / cm^3
# Si number density = 17.596523 Si / 1000 Ang^3
#
#
#
# Elastic Constant Matrix: (Units=GPa)
#
#
# Indices 1 2 3 4 5 6 
#
# 1 102.3201 20.4660 38.6590 0.0000 -2.5035 0.0000
# 2 20.4660 58.2440 15.7753 0.0000 -3.8914 0.0000
# 3 38.6590 15.7753 73.5881 0.0000 5.6654 0.0000
# 4 0.0000 0.0000 0.0000 17.4436 0.0000 -0.8509
# 5 -2.5035 -3.8914 5.6654 0.0000 27.9518 0.0000
# 6 0.0000 0.0000 0.0000 -0.8509 0.0000 17.8128
#
#
#
# Elastic Compliance Matrix: (Units=1/GPa)
#
#
# Indices 1 2 3 4 5 6 
#
# 1 0.012721 -0.002634 -0.006276 0.000000 0.002045 0.000000
# 2 -0.002634 0.019093 -0.002942 0.000000 0.003018 0.000000
# 3 -0.006276 -0.002942 0.017870 0.000000 -0.004594 0.000000
# 4 0.000000 0.000000 0.000000 0.057462 0.000000 0.002745
# 5 0.002045 0.003018 -0.004594 0.000000 0.037310 0.000000
# 6 0.000000 0.000000 0.000000 0.002745 0.000000 0.056270
#
#
# Mechanical properties :
#
#
# Convention : Reuss Voigt Hill
#
# Bulk Modulus (GPa) = 38.48811 42.66141 40.57476
# Shear Modulus (GPa) = 21.45092 23.25844 22.35468
#
# Velocity S-wave (km/s) = 3.49527 3.63955 3.56814
# Velocity P-wave (km/s) = 6.18136 6.47755 6.33119
#
# Compressibility (1/GPa) = 0.02598205
#
# Stress axis : x y z
#
# Youngs Moduli (GPa) = 78.60881 52.37511 55.95835
#
# Poissons Ratio (x) = 0.13794 0.35119
# Poissons Ratio (y) = 0.20702 0.16462
# Poissons Ratio (z) = 0.49334 0.15408
#
# Static dielectric constant tensor:
#      x y z
#    x 3.470670 0.000000 0.223840 
#    y 0.000000 3.049640 0.000000 
#    z 0.223840 0.000000 3.254510 
# 
# 
# High freq. dielectric constant tensor:
#      x y z
#    x 1.679140 0.000000 0.022380 
#    y 0.000000 1.654440 0.000000 
#    z 0.022380 0.000000 1.663900 
# 
# From -- ./inp_files/289139.got.cif
#   From: 2010.06.25/outbox.cif.g09.slc.cpg/sg12_145_cif.got.tgz:289139.got - 2010.06.28 00:19:55.
