data_PCOD8081576
_publ_section_title
;
Structure prediction by ZEFSAII (Michael W. Deem and Ramdas Pophale) SiO2 
 PCOD8081576
Probable space group: C 2/M
;
_chemical_formula_sum "Si O2"
_cell_formula_units_Z 52
_cell_length_a 5.126133
_cell_length_b 25.444392
_cell_length_c 21.969082
_cell_angle_alpha 90.000000
_cell_angle_beta 105.513773
_cell_angle_gamma 90.000000
_cell_volume 2761.057229
_symmetry_space_group_name_H-M "C 2/M"
_symmetry_group_IT_number 12
_symmetry_cell_setting 'monoclinic'
loop_
_space_group_symop_operation_xyz
x,y,z
-x,y,-z
-x,-y,-z
x,-y,z
1/2+x,1/2+y,z
1/2-x,1/2+y,-z
1/2-x,1/2-y,-z
1/2+x,1/2-y,z
loop_
_atom_site_type_symbol
_atom_site_label
_atom_site_fract_x
_atom_site_fract_y
_atom_site_fract_z
Si Si1 0.295925 0.164174 0.265712
Si Si2 0.983523 0.000000 0.322616
Si Si3 0.500000 0.285934 0.000000
Si Si4 0.005967 0.716991 0.391092
Si Si5 0.332510 0.608219 0.303154
Si Si6 0.082765 0.500000 0.408817
Si Si7 0.788635 0.215667 0.865670
Si Si8 0.228917 0.111513 0.562134
O O1 0.433202 0.210259 0.314609
O O2 0.511173 0.116503 0.275260
O O3 0.228021 0.178304 0.192823
O O4 0.012555 0.151295 0.280540
O O5 0.918461 0.947885 0.279507
O O6 0.782602 0.000000 0.365876
O O7 0.283934 0.000000 0.365478
O O8 0.588711 0.316792 0.067620
O O9 0.750000 0.250000 0.000000
O O10 0.270542 0.753438 0.412877
O O11 0.051687 0.659194 0.423883
O O12 0.406636 0.609081 0.379420
O O13 0.135978 0.554928 0.448611
O O14 0.488584 0.236191 0.862296
O O15 0.000000 0.125896 0.500000
#
# Coordination Sequence:
#
# PCOD8081576 Si02
#       8
#     8   4   4   8   8   4   8   8
#     4  11  20  34  52  74 101 133 173 208 242 292
#     4  10  18  36  55  74 102 125 152 205 270 313
#     4   8  16  28  44  70 102 135 168 201 242 288
#     4  11  22  36  52  72 100 134 169 203 245 301
#     4  10  21  35  53  75  99 127 164 211 259 310
#     4  10  21  38  60  80  96 124 164 212 272 326
#     4  10  18  30  49  73 104 139 170 203 243 287
#     4  10  22  40  58  77 101 130 170 218 267 316
#
# _framework density 18.833365000000001
#
# number of rings (size 3 to 8) (size 9 to 14) (size 15 to 20)
#    0.000    1.846    0.000    6.692    0.000    1.846 
#    0.000   21.538    0.000    0.000    0.000    0.000 
#    0.000    3.692    0.000    0.000    0.000    0.000 
#
# Total GULP energy -322142.823915 kJ/mol
# GULP energy per Si atom -12390.108612 kJ/mol
# Density = 1.879050 g / cm^3
# Si number density = 18.833365 Si / 1000 Ang^3
#
#
#
# Elastic Constant Matrix: (Units=GPa)
#
#
# Indices 1 2 3 4 5 6 
#
# 1 99.3377 15.5495 8.1181 0.0000 4.4448 0.0000
# 2 15.5495 93.5039 22.3179 0.0000 6.6237 0.0000
# 3 8.1181 22.3179 116.7620 0.0000 8.5826 0.0000
# 4 0.0000 0.0000 0.0000 0.6186 0.0000 -24.6768
# 5 4.4448 6.6237 8.5826 0.0000 20.6219 0.0000
# 6 0.0000 0.0000 0.0000 -24.6768 0.0000 -52.8374
#
#
#
# Elastic Compliance Matrix: (Units=1/GPa)
#
#
# Indices 1 2 3 4 5 6 
#
# 1 0.010406 -0.001542 -0.000310 0.000000 -0.001619 0.000000
# 2 -0.001542 0.011593 -0.001918 0.000000 -0.002593 0.000000
# 3 -0.000310 -0.001918 0.009183 0.000000 -0.003139 0.000000
# 4 0.000000 0.000000 0.000000 0.082349 0.000000 -0.038460
# 5 -0.001619 -0.002593 -0.003139 0.000000 0.050980 0.000000
# 6 0.000000 0.000000 0.000000 -0.038460 0.000000 -0.000964
#
#
# Mechanical properties :
#
#
# Convention : Reuss Voigt Hill
#
# Bulk Modulus (GPa) = 42.29691 44.61941 43.45816
# Shear Modulus (GPa) = 27.93815 11.25515 19.59665
#
# Velocity S-wave (km/s) = 3.85572 2.44727 3.22922
# Velocity P-wave (km/s) = 6.50610 5.63282 6.08515
#
# Compressibility (1/GPa) = 0.02364239
#
# Stress axis : x y z
#
# Youngs Moduli (GPa) = 96.10058 86.26169 108.89302
#
# Poissons Ratio (x) = 0.13300 0.03373
# Poissons Ratio (y) = 0.14817 0.20886
# Poissons Ratio (z) = 0.02977 0.16545
#
# Static dielectric constant tensor:
#      x y z
#    x 3.596820 0.000000 0.086450 
#    y 0.000000 3.992580 0.000000 
#    z 0.086450 0.000000 3.636910 
# 
# 
# High freq. dielectric constant tensor:
#      x y z
#    x 1.756400 0.000000 0.005790 
#    y 0.000000 1.708020 0.000000 
#    z 0.005790 0.000000 1.704350 
# 
# From -- ./inp_files/298035.got.cif
#   From: 2010.06.25/outbox.cif.g09.slc.cpg/sg12_150_cif.got.tgz:298035.got - 2010.06.28 00:19:55.
