data_PCOD8081152
_publ_section_title
;
Structure prediction by ZEFSAII (Michael W. Deem and Ramdas Pophale) SiO2 
 PCOD8081152
Probable space group: C 2/M
;
_chemical_formula_sum "Si O2"
_cell_formula_units_Z 40
_cell_length_a 25.344461
_cell_length_b 10.262923
_cell_length_c 13.999452
_cell_angle_alpha 90.000000
_cell_angle_beta 135.194920
_cell_angle_gamma 90.000000
_cell_volume 2566.065054
_symmetry_space_group_name_H-M "C 2/M"
_symmetry_group_IT_number 12
_symmetry_cell_setting 'monoclinic'
loop_
_space_group_symop_operation_xyz
x,y,z
-x,y,-z
-x,-y,-z
x,-y,z
1/2+x,1/2+y,z
1/2-x,1/2+y,-z
1/2-x,1/2-y,-z
1/2+x,1/2-y,z
loop_
_atom_site_type_symbol
_atom_site_label
_atom_site_fract_x
_atom_site_fract_y
_atom_site_fract_z
Si Si1 0.444673 0.247277 0.217342
Si Si2 0.043106 0.000000 0.655098
Si Si3 0.045989 0.345211 0.968728
Si Si4 0.691812 0.241375 0.079980
Si Si5 0.939009 0.500000 0.341375
Si Si6 0.280834 0.500000 0.126022
Si Si7 0.231055 0.500000 0.844102
O O1 0.479809 0.373962 0.312300
O O2 0.487979 0.216489 0.172971
O O3 0.355890 0.266929 0.079400
O O4 0.452569 0.126612 0.296560
O O5 0.000000 0.000000 0.500000
O O6 0.130819 0.000000 0.748274
O O7 0.040975 0.500000 0.955856
O O8 0.133238 0.300610 0.088448
O O9 0.000000 0.290925 0.000000
O O10 0.751282 0.127658 0.141738
O O11 0.734466 0.373290 0.163445
O O12 0.857586 0.500000 0.284931
O O13 0.000000 0.500000 0.500000
O O14 0.250316 0.500000 0.980060
#
# Coordination Sequence:
#
# PCOD8081152 Si02
#       7
#     8   4   8   8   4   4   4
#     4  10  18  35  47  75 103 126 175 205 242 299
#     4  12  24  32  46  73 110 149 162 188 248 309
#     4   9  16  31  54  80 100 121 164 225 267 286
#     4  10  18  29  50  76  94 125 166 205 257 288
#     4  12  22  32  48  73 104 143 172 196 240 301
#     4  12  16  32  50  67  98 135 168 206 240 291
#     4  12  18  30  48  69 102 135 158 210 248 287
#
# _framework density 15.588069000000001
#
# number of rings (size 3 to 8) (size 9 to 14) (size 15 to 20)
#    1.200    0.200    6.000    2.400    0.000    0.000 
#    0.000    2.000    0.000    0.000    0.000    8.400 
#    0.000    0.000    0.000    0.000    0.000    0.000 
#
# Total GULP energy -247867.953235 kJ/mol
# GULP energy per Si atom -12393.397662 kJ/mol
# Density = 1.555259 g / cm^3
# Si number density = 15.588069 Si / 1000 Ang^3
#
#
#
# Elastic Constant Matrix: (Units=GPa)
#
#
# Indices 1 2 3 4 5 6 
#
# 1 114.0070 48.6328 38.5394 0.0000 -1.7936 0.0000
# 2 48.6328 129.5068 29.1163 0.0000 -7.3753 0.0000
# 3 38.5394 29.1163 85.9800 0.0000 1.3518 0.0000
# 4 0.0000 0.0000 0.0000 15.9485 0.0000 -10.3405
# 5 -1.7936 -7.3753 1.3518 0.0000 14.9650 0.0000
# 6 0.0000 0.0000 0.0000 -10.3405 0.0000 8.9581
#
#
#
# Elastic Compliance Matrix: (Units=1/GPa)
#
#
# Indices 1 2 3 4 5 6 
#
# 1 0.011608 -0.003448 -0.004036 0.000000 0.000056 0.000000
# 2 -0.003448 0.009679 -0.001803 0.000000 0.004520 0.000000
# 3 -0.004036 -0.001803 0.014092 0.000000 -0.002645 0.000000
# 4 0.000000 0.000000 0.000000 0.249243 0.000000 0.287709
# 5 0.000056 0.004520 -0.002645 0.000000 0.069296 0.000000
# 6 0.000000 0.000000 0.000000 0.287709 0.000000 0.443742
#
#
# Mechanical properties :
#
#
# Convention : Reuss Voigt Hill
#
# Bulk Modulus (GPa) = 59.51083 62.45230 60.98156
# Shear Modulus (GPa) = 6.08394 22.18801 14.13597
#
# Velocity S-wave (km/s) = 1.97773 3.77689 3.01465
# Velocity P-wave (km/s) = 6.59358 7.69227 7.16402
#
# Compressibility (1/GPa) = 0.01680366
#
# Stress axis : x y z
#
# Youngs Moduli (GPa) = 86.15025 103.31283 70.96230
#
# Poissons Ratio (x) = 0.35625 0.28641
# Poissons Ratio (y) = 0.29707 0.12796
# Poissons Ratio (z) = 0.34771 0.18630
#
# Static dielectric constant tensor:
#      x y z
#    x 2.933650 0.000000 0.087120 
#    y 0.000000 3.128510 0.000000 
#    z 0.087120 0.000000 2.729670 
# 
# 
# High freq. dielectric constant tensor:
#      x y z
#    x 1.579440 0.000000 0.009400 
#    y 0.000000 1.618610 0.000000 
#    z 0.009400 0.000000 1.560320 
# 
# From -- ./inp_files/231549.got.cif
#   From: 2010.06.25/outbox.cif.g09.slc.cpg/sg12_116_cif.got.tgz:231549.got - 2010.06.28 00:19:55.
