data_PCOD8081319
_publ_section_title
;
Structure prediction by ZEFSAII (Michael W. Deem and Ramdas Pophale) SiO2 
 PCOD8081319
Probable space group: C 2/M
;
_chemical_formula_sum "Si O2"
_cell_formula_units_Z 44
_cell_length_a 33.138150
_cell_length_b 9.717778
_cell_length_c 11.450508
_cell_angle_alpha 90.000000
_cell_angle_beta 44.269829
_cell_angle_gamma 90.000000
_cell_volume 2573.944925
_symmetry_space_group_name_H-M "C 2/M"
_symmetry_group_IT_number 12
_symmetry_cell_setting 'monoclinic'
loop_
_space_group_symop_operation_xyz
x,y,z
-x,y,-z
-x,-y,-z
x,-y,z
1/2+x,1/2+y,z
1/2-x,1/2+y,-z
1/2-x,1/2-y,-z
1/2+x,1/2-y,z
loop_
_atom_site_type_symbol
_atom_site_label
_atom_site_fract_x
_atom_site_fract_y
_atom_site_fract_z
Si Si1 0.694740 0.344463 0.246259
Si Si2 0.922279 0.844612 0.864114
Si Si3 0.703697 0.654194 0.951703
Si Si4 0.500000 0.749698 0.500000
Si Si5 0.912342 0.652122 0.498435
Si Si6 0.492409 0.842302 0.884116
O O1 0.693573 0.500000 0.299291
O O2 0.747432 0.259476 0.195771
O O3 0.634818 0.270955 0.400103
O O4 0.703276 0.348280 0.091351
O O5 0.963231 0.843161 0.665267
O O6 0.943438 0.747257 0.923583
O O7 0.921134 0.000000 0.913356
O O8 0.858227 0.793241 0.964331
O O9 0.717099 0.500000 0.877567
O O10 0.543872 0.843581 0.482866
O O11 0.883441 0.500000 0.560786
O O12 0.946642 0.674772 0.307240
O O13 0.471269 0.000000 0.925408
O O14 0.500000 0.788898 0.000000
#
# Coordination Sequence:
#
# PCOD8081319 Si02
#       6
#     8   8   8   4   8   8
#     4  10  19  31  47  71 101 135 166 200 243 292
#     4  10  19  31  51  75 102 131 162 203 248 294
#     4   9  18  32  46  69 102 136 165 196 240 294
#     4  10  18  30  46  74 104 132 160 196 244 302
#     4  10  19  31  50  73  99 132 165 203 245 295
#     4   9  20  37  53  72  99 132 169 206 248 294
#
# _framework density 17.094383000000001
#
# number of rings (size 3 to 8) (size 9 to 14) (size 15 to 20)
#    0.000    2.364    1.818    1.091    0.000    5.455 
#    0.000    0.000    0.000    1.091    0.000    0.000 
#    0.000    0.000    0.000    0.000    0.000    0.000 
#
# Total GULP energy -272762.243393 kJ/mol
# GULP energy per Si atom -12398.283791 kJ/mol
# Density = 1.705548 g / cm^3
# Si number density = 17.094383 Si / 1000 Ang^3
#
#
#
# Elastic Constant Matrix: (Units=GPa)
#
#
# Indices 1 2 3 4 5 6 
#
# 1 101.3595 55.9488 51.1270 0.0000 -14.0677 0.0000
# 2 55.9488 117.0554 43.6724 0.0000 -20.1069 0.0000
# 3 51.1270 43.6724 61.2752 0.0000 -10.2146 0.0000
# 4 0.0000 0.0000 0.0000 46.8008 0.0000 -19.1638
# 5 -14.0677 -20.1069 -10.2146 0.0000 32.8377 0.0000
# 6 0.0000 0.0000 0.0000 -19.1638 0.0000 33.7010
#
#
#
# Elastic Compliance Matrix: (Units=1/GPa)
#
#
# Indices 1 2 3 4 5 6 
#
# 1 0.018507 -0.003953 -0.012347 0.000000 0.001667 0.000000
# 2 -0.003953 0.013244 -0.005349 0.000000 0.004752 0.000000
# 3 -0.012347 -0.005349 0.030593 0.000000 0.000952 0.000000
# 4 0.000000 0.000000 0.000000 0.027852 0.000000 0.015838
# 5 0.001667 0.004752 0.000952 0.000000 0.034373 0.000000
# 6 0.000000 0.000000 0.000000 0.015838 0.000000 0.038679
#
#
# Mechanical properties :
#
#
# Convention : Reuss Voigt Hill
#
# Bulk Modulus (GPa) = 52.50237 64.57626 58.53932
# Shear Modulus (GPa) = 23.48576 31.26403 27.37489
#
# Velocity S-wave (km/s) = 3.71062 4.28121 4.00609
# Velocity P-wave (km/s) = 7.00986 7.89282 7.46441
#
# Compressibility (1/GPa) = 0.01904676
#
# Stress axis : x y z
#
# Youngs Moduli (GPa) = 54.03338 75.50371 32.68744
#
# Poissons Ratio (x) = 0.29846 0.40358
# Poissons Ratio (y) = 0.21359 0.17485
# Poissons Ratio (z) = 0.66713 0.40388
#
# Static dielectric constant tensor:
#      x y z
#    x 3.096840 0.000000 -0.164910 
#    y 0.000000 3.341930 0.000000 
#    z -0.164910 0.000000 3.052710 
# 
# 
# High freq. dielectric constant tensor:
#      x y z
#    x 1.642830 0.000000 -0.021780 
#    y 0.000000 1.669130 0.000000 
#    z -0.021780 0.000000 1.637480 
# 
# From -- ./inp_files/171480.got.cif
#   From: 2010.06.25/outbox.cif.g09.slc.cpg/sg12_86_cif.got.tgz:171480.got - 2010.06.28 00:19:55.
