data_PCOD8081658
_publ_section_title
;
Structure prediction by ZEFSAII (Michael W. Deem and Ramdas Pophale) SiO2 
 PCOD8081658
Probable space group: C 2/M
;
_chemical_formula_sum "Si O2"
_cell_formula_units_Z 56
_cell_length_a 16.083272
_cell_length_b 9.484905
_cell_length_c 30.918022
_cell_angle_alpha 90.000000
_cell_angle_beta 38.931081
_cell_angle_gamma 90.000000
_cell_volume 2963.773409
_symmetry_space_group_name_H-M "C 2/M"
_symmetry_group_IT_number 12
_symmetry_cell_setting 'monoclinic'
loop_
_space_group_symop_operation_xyz
x,y,z
-x,y,-z
-x,-y,-z
x,-y,z
1/2+x,1/2+y,z
1/2-x,1/2+y,-z
1/2-x,1/2-y,-z
1/2+x,1/2-y,z
loop_
_atom_site_type_symbol
_atom_site_label
_atom_site_fract_x
_atom_site_fract_y
_atom_site_fract_z
Si Si1 0.203748 0.332785 0.927300
Si Si2 0.561067 0.337366 0.355399
Si Si3 0.975523 0.332838 0.077036
Si Si4 0.611373 0.337047 0.652068
Si Si5 0.383686 0.836886 0.581052
Si Si6 0.488237 0.337158 0.789585
Si Si7 0.351577 0.160802 0.214271
O O1 0.211027 0.500000 0.919796
O O2 0.120965 0.270982 0.920641
O O3 0.352209 0.272306 0.864202
O O4 0.127429 0.290736 0.002846
O O5 0.534489 0.500000 0.379254
O O6 0.443948 0.276317 0.371361
O O7 0.572950 0.246535 0.393778
O O8 0.694166 0.328326 0.272689
O O9 0.960190 0.500000 0.084307
O O10 0.929064 0.271854 0.141814
O O11 0.639021 0.500000 0.632560
O O12 0.750599 0.271366 0.612626
O O13 0.496800 0.316257 0.734487
O O14 0.500000 0.820418 0.500000
O O15 0.360047 0.000000 0.603670
O O16 0.504433 0.500000 0.795685
O O17 0.610382 0.252247 0.759722
O O18 0.396163 0.000000 0.203725
#
# Coordination Sequence:
#
# PCOD8081658 Si02
#       7
#     8   8   8   8   8   8   8
#     4   8  14  25  44  68  91 124 171 213 248 295
#     4  10  20  35  56  79 104 138 179 214 251 303
#     4   8  14  26  43  66  96 125 163 215 256 290
#     4   9  18  34  55  77 104 139 175 211 252 304
#     4  10  21  38  58  81 110 139 167 206 260 314
#     4  10  18  30  50  72  97 132 173 210 251 305
#     4  10  19  30  47  72 101 130 164 212 262 297
#
# _framework density 18.894831
#
# number of rings (size 3 to 8) (size 9 to 14) (size 15 to 20)
#    0.000    2.714    1.429    1.714    0.000    4.857 
#    0.000    1.429    0.000    2.571    0.000    2.000 
#    0.000    0.000    0.000    0.000    0.000    0.000 
#
# Total GULP energy -346937.094672 kJ/mol
# GULP energy per Si atom -12390.610524 kJ/mol
# Density = 1.885183 g / cm^3
# Si number density = 18.894831 Si / 1000 Ang^3
#
#
#
# Elastic Constant Matrix: (Units=GPa)
#
#
# Indices 1 2 3 4 5 6 
#
# 1 140.6764 38.6354 47.2686 0.0004 6.3902 0.0009
# 2 38.6354 36.5841 25.6784 0.0012 5.8795 0.0010
# 3 47.2686 25.6784 95.1773 -0.0001 0.9898 0.0005
# 4 0.0004 0.0012 -0.0001 13.0939 0.0001 1.0272
# 5 6.3902 5.8795 0.9898 0.0001 28.0326 0.0002
# 6 0.0009 0.0010 0.0005 1.0272 0.0002 22.3050
#
#
#
# Elastic Compliance Matrix: (Units=1/GPa)
#
#
# Indices 1 2 3 4 5 6 
#
# 1 0.010574 -0.009154 -0.002777 0.000000 -0.000392 0.000000
# 2 -0.009154 0.042973 -0.006978 -0.000003 -0.006680 -0.000001
# 3 -0.002777 -0.006978 0.013752 0.000001 0.001611 0.000000
# 4 0.000000 -0.000003 0.000001 0.076649 0.000000 -0.003530
# 5 -0.000392 -0.006680 0.001611 0.000000 0.037106 0.000000
# 6 0.000000 -0.000001 0.000000 -0.003530 0.000000 0.044995
#
#
# Mechanical properties :
#
#
# Convention : Reuss Voigt Hill
#
# Bulk Modulus (GPa) = 33.92201 55.06696 44.49449
# Shear Modulus (GPa) = 18.26850 23.41000 20.83925
#
# Velocity S-wave (km/s) = 3.11280 3.52371 3.32461
# Velocity P-wave (km/s) = 5.55980 6.76480 6.19169
#
# Compressibility (1/GPa) = 0.02947938
#
# Stress axis : x y z
#
# Youngs Moduli (GPa) = 94.57489 23.27034 72.71630
#
# Poissons Ratio (x) = 0.21302 0.20197
# Poissons Ratio (y) = 0.86573 0.50744
# Poissons Ratio (z) = 0.26268 0.16239
#
# Static dielectric constant tensor:
#      x y z
#    x 3.536350 0.000000 -0.116560 
#    y 0.000000 2.948300 0.000000 
#    z -0.116560 0.000000 3.679310 
# 
# 
# High freq. dielectric constant tensor:
#      x y z
#    x 1.733010 0.000000 -0.003310 
#    y 0.000000 1.674400 0.000000 
#    z -0.003310 0.000000 1.747520 
# 
# From -- ./inp_files/304166.got.cif
#   From: 2010.06.25/outbox.cif.g09.slc.cpg/sg12_153_cif.got.tgz:304166.got - 2010.06.28 00:19:55.
