data_PCOD8081845
_publ_section_title
;
Structure prediction by ZEFSAII (Michael W. Deem and Ramdas Pophale) SiO2 
 PCOD8081845
Probable space group: C 2/M
;
_chemical_formula_sum "Si O2"
_cell_formula_units_Z 64
_cell_length_a 29.168109
_cell_length_b 13.758327
_cell_length_c 15.864899
_cell_angle_alpha 90.000000
_cell_angle_beta 146.480783
_cell_angle_gamma 90.000000
_cell_volume 3515.771991
_symmetry_space_group_name_H-M "C 2/M"
_symmetry_group_IT_number 12
_symmetry_cell_setting 'monoclinic'
loop_
_space_group_symop_operation_xyz
x,y,z
-x,y,-z
-x,-y,-z
x,-y,z
1/2+x,1/2+y,z
1/2-x,1/2+y,-z
1/2-x,1/2-y,-z
1/2+x,1/2-y,z
loop_
_atom_site_type_symbol
_atom_site_label
_atom_site_fract_x
_atom_site_fract_y
_atom_site_fract_z
Si Si1 0.986305 0.887099 0.386244
Si Si2 0.910339 0.297309 0.869046
Si Si3 0.421837 0.109377 0.061529
Si Si4 0.731868 0.201959 0.100244
Si Si5 0.892812 0.389498 0.661274
Si Si6 0.760999 0.748070 0.417813
Si Si7 0.692581 0.386332 0.945225
Si Si8 0.664350 0.386128 0.592462
O O1 0.902526 0.848957 0.213209
O O2 0.000000 0.838589 0.500000
O O3 0.065462 0.868554 0.447442
O O4 0.970722 0.000000 0.377965
O O5 0.916974 0.374949 0.953755
O O6 0.888804 0.353849 0.751071
O O7 0.830547 0.227012 0.763692
O O8 0.000000 0.241354 0.000000
O O9 0.363430 0.181465 0.022891
O O10 0.392937 0.000000 0.035145
O O11 0.515710 0.127250 0.236796
O O12 0.758659 0.129810 0.066854
O O13 0.791294 0.180342 0.269745
O O14 0.735320 0.316385 0.080630
O O15 0.866183 0.500000 0.619941
O O16 0.827189 0.336250 0.499033
O O17 0.750000 0.750000 0.500000
O O18 0.800688 0.849180 0.443853
O O19 0.698896 0.500000 0.981987
O O20 0.686096 0.500000 0.637424
#
# Coordination Sequence:
#
# PCOD8081845 Si02
#       8
#     8   8   8   8   8   8   8   8
#     4   9  17  32  56  82 110 142 178 227 276 324
#     4   9  17  31  52  75 100 132 173 222 275 316
#     4  10  18  30  51  78 104 131 175 229 268 313
#     4  11  21  32  56  86 107 145 184 228 272 324
#     4   9  19  33  49  73 106 141 173 213 272 331
#     4  10  21  34  51  78 108 142 179 225 281 334
#     4  10  21  37  53  80 117 149 180 221 277 326
#     4  11  21  35  58  84 108 139 189 242 283 322
#
# _framework density 18.203683999999999
#
# number of rings (size 3 to 8) (size 9 to 14) (size 15 to 20)
#    0.000    2.125    2.500    1.500    1.750    3.500 
#    0.000    0.625    0.000    0.375    0.000    3.500 
#    0.000    0.000    0.000    0.000    0.000    0.000 
#
# Total GULP energy -396507.409482 kJ/mol
# GULP energy per Si atom -12390.856546 kJ/mol
# Density = 1.816225 g / cm^3
# Si number density = 18.203684 Si / 1000 Ang^3
#
#
#
# Elastic Constant Matrix: (Units=GPa)
#
#
# Indices 1 2 3 4 5 6 
#
# 1 87.0982 26.0842 29.4755 0.0000 11.9495 0.0000
# 2 26.0842 79.8559 51.1337 0.0000 2.8714 0.0000
# 3 29.4755 51.1337 92.6816 0.0000 26.2754 0.0000
# 4 0.0000 0.0000 0.0000 26.9210 0.0000 2.4011
# 5 11.9495 2.8714 26.2754 0.0000 29.9034 0.0000
# 6 0.0000 0.0000 0.0000 2.4011 0.0000 21.6006
#
#
#
# Elastic Compliance Matrix: (Units=1/GPa)
#
#
# Indices 1 2 3 4 5 6 
#
# 1 0.013485 -0.003453 -0.001265 0.000000 -0.003945 0.000000
# 2 -0.003453 0.022801 -0.014985 0.000000 0.012357 0.000000
# 3 -0.001265 -0.014985 0.025181 0.000000 -0.020181 0.000000
# 4 0.000000 0.000000 0.000000 0.037518 0.000000 -0.004170
# 5 -0.003945 0.012357 -0.020181 0.000000 0.051564 0.000000
# 6 0.000000 0.000000 0.000000 -0.004170 0.000000 0.046759
#
#
# Mechanical properties :
#
#
# Convention : Reuss Voigt Hill
#
# Bulk Modulus (GPa) = 45.32845 52.55804 48.94325
# Shear Modulus (GPa) = 20.48621 25.88116 23.18369
#
# Velocity S-wave (km/s) = 3.35832 3.77471 3.57258
# Velocity P-wave (km/s) = 6.32396 6.92335 6.63043
#
# Compressibility (1/GPa) = 0.02206120
#
# Stress axis : x y z
#
# Youngs Moduli (GPa) = 74.15791 43.85715 39.71266
#
# Poissons Ratio (x) = 0.15143 0.05024
# Poissons Ratio (y) = 0.25605 0.59510
# Poissons Ratio (z) = 0.09382 0.65720
#
# Static dielectric constant tensor:
#      x y z
#    x 3.586840 0.000000 0.437160 
#    y 0.000000 3.183840 0.000000 
#    z 0.437160 0.000000 3.753560 
# 
# 
# High freq. dielectric constant tensor:
#      x y z
#    x 1.715050 0.000000 0.026440 
#    y 0.000000 1.668450 0.000000 
#    z 0.026440 0.000000 1.702870 
# 
# From -- ./inp_files/245953.got.cif
#   From: 2010.06.25/outbox.cif.g09.slc.cpg/sg12_123_cif.got.tgz:245953.got - 2010.06.28 00:19:55.
