data_PCOD8081613
_publ_section_title
;
Structure prediction by ZEFSAII (Michael W. Deem and Ramdas Pophale) SiO2 
 PCOD8081613
Probable space group: C 2/M
;
_chemical_formula_sum "Si O2"
_cell_formula_units_Z 64
_cell_length_a 19.560427
_cell_length_b 9.018566
_cell_length_c 21.533681
_cell_angle_alpha 90.000000
_cell_angle_beta 116.997681
_cell_angle_gamma 90.000000
_cell_volume 3384.729247
_symmetry_space_group_name_H-M "C 2/M"
_symmetry_group_IT_number 12
_symmetry_cell_setting 'monoclinic'
loop_
_space_group_symop_operation_xyz
x,y,z
-x,y,-z
-x,-y,-z
x,-y,z
1/2+x,1/2+y,z
1/2-x,1/2+y,-z
1/2-x,1/2-y,-z
1/2+x,1/2-y,z
loop_
_atom_site_type_symbol
_atom_site_label
_atom_site_fract_x
_atom_site_fract_y
_atom_site_fract_z
Si Si1 0.815188 0.173087 0.791084
Si Si2 0.258553 0.170554 0.568404
Si Si3 0.821784 0.676355 0.352706
Si Si4 0.064804 0.329669 0.350566
Si Si5 0.880546 0.333150 0.925941
Si Si6 0.519709 0.325265 0.578878
Si Si7 0.959071 0.331527 0.078072
Si Si8 0.469722 0.325555 0.785641
O O1 0.737739 0.225064 0.725310
O O2 0.817831 0.240121 0.861698
O O3 0.887629 0.223696 0.779634
O O4 0.817302 0.000000 0.800955
O O5 0.250000 0.250000 0.500000
O O6 0.202897 0.253842 0.592459
O O7 0.345465 0.182801 0.627650
O O8 0.232004 0.000000 0.551923
O O9 0.825851 0.500000 0.361744
O O10 0.903430 0.742577 0.367541
O O11 0.039316 0.500000 0.348511
O O12 0.018148 0.257493 0.274485
O O13 0.048271 0.238599 0.406550
O O14 0.849964 0.500000 0.915814
O O15 0.960600 0.323993 0.923706
O O16 0.893473 0.275819 0.002306
O O17 0.500000 0.285916 0.500000
O O18 0.528610 0.500000 0.592673
O O19 0.942198 0.500000 0.092274
O O20 0.962314 0.225883 0.139709
O O21 0.475240 0.500000 0.776740
#
# Coordination Sequence:
#
# PCOD8081613 Si02
#       8
#     8   8   8   8   8   8   8   8
#     4   9  18  30  47  74 107 141 176 220 268 313
#     4  11  23  37  57  83 109 139 177 220 271 328
#     4  11  22  38  58  81 111 144 180 223 272 326
#     4  11  23  38  57  81 108 143 181 222 272 326
#     4   8  14  24  41  65  99 141 179 217 260 311
#     4  11  25  43  61  81 107 140 180 228 277 327
#     4   8  14  25  40  65 101 140 179 217 262 312
#     4  10  18  30  49  75 107 142 179 222 269 315
#
# _framework density 18.908456000000001
#
# number of rings (size 3 to 8) (size 9 to 14) (size 15 to 20)
#    0.000    2.125    1.250    3.375    0.000    6.500 
#    0.000    2.500    0.000    0.000    0.000    0.875 
#    0.000    0.000    0.000    0.000    0.000    0.000 
#
# Total GULP energy -396774.182007 kJ/mol
# GULP energy per Si atom -12399.193188 kJ/mol
# Density = 1.886542 g / cm^3
# Si number density = 18.908456 Si / 1000 Ang^3
#
#
#
# Elastic Constant Matrix: (Units=GPa)
#
#
# Indices 1 2 3 4 5 6 
#
# 1 32.1254 14.9948 3.9480 0.0000 1.7419 0.0000
# 2 14.9948 83.6672 49.9907 0.0000 -1.2627 0.0000
# 3 3.9480 49.9907 123.2765 0.0000 -0.8607 0.0000
# 4 0.0000 0.0000 0.0000 39.0330 0.0000 -2.3179
# 5 1.7419 -1.2627 -0.8607 0.0000 20.1278 0.0000
# 6 0.0000 0.0000 0.0000 -2.3179 0.0000 24.8906
#
#
#
# Elastic Compliance Matrix: (Units=1/GPa)
#
#
# Indices 1 2 3 4 5 6 
#
# 1 0.034509 -0.007339 0.001848 0.000000 -0.003368 0.000000
# 2 -0.007339 0.017345 -0.006789 0.000000 0.001433 0.000000
# 3 0.001848 -0.006789 0.010805 0.000000 -0.000124 0.000000
# 4 0.000000 0.000000 0.000000 0.025762 0.000000 0.002399
# 5 -0.003368 0.001433 -0.000124 0.000000 0.050059 0.000000
# 6 0.000000 0.000000 0.000000 0.002399 0.000000 0.040399
#
#
# Mechanical properties :
#
#
# Convention : Reuss Voigt Hill
#
# Bulk Modulus (GPa) = 26.24799 41.88179 34.06489
# Shear Modulus (GPa) = 23.13316 28.15265 25.64290
#
# Velocity S-wave (km/s) = 3.50155 3.86280 3.68660
# Velocity P-wave (km/s) = 5.50087 6.48790 6.01467
#
# Compressibility (1/GPa) = 0.03809815
#
# Stress axis : x y z
#
# Youngs Moduli (GPa) = 28.97764 57.65222 92.55162
#
# Poissons Ratio (x) = 0.42314 -0.17100
# Poissons Ratio (y) = 0.21268 0.62831
# Poissons Ratio (z) = -0.05354 0.39139
#
# Static dielectric constant tensor:
#      x y z
#    x 3.061760 0.000000 0.105360 
#    y 0.000000 3.519820 0.000000 
#    z 0.105360 0.000000 3.851430 
# 
# 
# High freq. dielectric constant tensor:
#      x y z
#    x 1.683720 0.000000 0.000670 
#    y 0.000000 1.740150 0.000000 
#    z 0.000670 0.000000 1.752610 
# 
# From -- ./inp_files/320005.got.cif
#   From: 2010.06.25/outbox.cif.g09.slc.cpg/sg12_161_cif.got.tgz:320005.got - 2010.06.28 00:19:55.
