data_PCOD8081058
_publ_section_title
;
Structure prediction by ZEFSAII (Michael W. Deem and Ramdas Pophale) SiO2 
 PCOD8081058
Probable space group: C 2/M
;
_chemical_formula_sum "Si O2"
_cell_formula_units_Z 64
_cell_length_a 29.174940
_cell_length_b 8.951183
_cell_length_c 15.641156
_cell_angle_alpha 90.000000
_cell_angle_beta 62.926260
_cell_angle_gamma 90.000000
_cell_volume 3637.097070
_symmetry_space_group_name_H-M "C 2/M"
_symmetry_group_IT_number 12
_symmetry_cell_setting 'monoclinic'
loop_
_space_group_symop_operation_xyz
x,y,z
-x,y,-z
-x,-y,-z
x,-y,z
1/2+x,1/2+y,z
1/2-x,1/2+y,-z
1/2-x,1/2-y,-z
1/2+x,1/2-y,z
loop_
_atom_site_type_symbol
_atom_site_label
_atom_site_fract_x
_atom_site_fract_y
_atom_site_fract_z
Si Si1 0.387752 0.676641 0.648906
Si Si2 0.923569 0.176843 0.106163
Si Si3 0.526103 0.676891 0.109957
Si Si4 0.161758 0.669639 0.564500
Si Si5 0.045634 0.676541 0.271809
Si Si6 0.320922 0.323905 0.276039
Si Si7 0.707941 0.825627 0.344733
Si Si8 0.939193 0.672565 0.447421
O O1 0.389122 0.500000 0.653556
O O2 0.406413 0.746197 0.722263
O O3 0.329161 0.729946 0.684276
O O4 0.425439 0.729831 0.541415
O O5 0.868932 0.246563 0.182799
O O6 0.968492 0.228592 0.132871
O O7 0.921725 0.000000 0.110177
O O8 0.935660 0.226238 0.999121
O O9 0.528521 0.500000 0.125106
O O10 0.544179 0.766138 0.176801
O O11 0.170816 0.500000 0.585762
O O12 0.178556 0.775100 0.626507
O O13 0.196239 0.710342 0.453462
O O14 0.102020 0.697904 0.592733
O O15 0.052928 0.500000 0.265566
O O16 0.993871 0.724500 0.365191
O O17 0.325587 0.500000 0.272816
O O18 0.267055 0.277842 0.276949
O O19 0.697660 0.000000 0.334969
O O20 0.939335 0.500000 0.476981
#
# Coordination Sequence:
#
# PCOD8081058 Si02
#       8
#     8   8   8   8   8   8   8   8
#     4  11  22  34  50  71  95 126 166 206 240 282
#     4   8  16  31  51  75 102 130 158 195 242 285
#     4   9  17  32  52  74 103 132 158 193 238 288
#     4   9  17  29  44  67 100 131 158 193 240 285
#     4  11  21  33  51  73  99 130 162 197 240 288
#     4  10  18  29  49  73  95 127 169 202 236 287
#     4   9  19  34  48  65  96 133 165 202 245 285
#     4   9  19  34  49  69 101 135 161 192 238 286
#
# _framework density 17.596450000000001
#
# number of rings (size 3 to 8) (size 9 to 14) (size 15 to 20)
#    0.000    2.500    0.000    4.500    0.000    5.000 
#    0.000    1.875    0.000    0.750    0.000    0.000 
#    0.000    0.000    0.000    0.000    0.000    0.000 
#
# Total GULP energy -396780.628564 kJ/mol
# GULP energy per Si atom -12399.394643 kJ/mol
# Density = 1.755640 g / cm^3
# Si number density = 17.596450 Si / 1000 Ang^3
#
#
#
# Elastic Constant Matrix: (Units=GPa)
#
#
# Indices 1 2 3 4 5 6 
#
# 1 130.9839 48.9727 77.1135 0.0000 0.4859 0.0000
# 2 48.9727 60.2299 39.3541 0.0000 5.4318 0.0000
# 3 77.1135 39.3541 89.8053 0.0000 4.8089 0.0000
# 4 0.0000 0.0000 0.0000 20.7296 0.0000 5.2655
# 5 0.4859 5.4318 4.8089 0.0000 29.0102 0.0000
# 6 0.0000 0.0000 0.0000 5.2655 0.0000 20.7346
#
#
#
# Elastic Compliance Matrix: (Units=1/GPa)
#
#
# Indices 1 2 3 4 5 6 
#
# 1 0.017067 -0.006251 -0.012070 0.000000 0.002885 0.000000
# 2 -0.006251 0.025763 -0.005721 0.000000 -0.003771 0.000000
# 3 -0.012070 -0.005721 0.024153 0.000000 -0.002730 0.000000
# 4 0.000000 0.000000 0.000000 0.051567 0.000000 -0.013095
# 5 0.002885 -0.003771 -0.002730 0.000000 0.035581 0.000000
# 6 0.000000 0.000000 0.000000 -0.013095 0.000000 0.051554
#
#
# Mechanical properties :
#
#
# Convention : Reuss Voigt Hill
#
# Bulk Modulus (GPa) = 52.91071 67.98885 60.44978
# Shear Modulus (GPa) = 19.22573 21.80013 20.51293
#
# Velocity S-wave (km/s) = 3.30902 3.52361 3.41800
# Velocity P-wave (km/s) = 6.68833 7.43479 7.07142
#
# Compressibility (1/GPa) = 0.01889976
#
# Stress axis : x y z
#
# Youngs Moduli (GPa) = 58.59288 38.81480 41.40294
#
# Poissons Ratio (x) = 0.24261 0.49975
# Poissons Ratio (y) = 0.36624 0.23686
# Poissons Ratio (z) = 0.70724 0.22205
#
# Static dielectric constant tensor:
#      x y z
#    x 3.527810 0.000000 -0.238380 
#    y 0.000000 3.052830 0.000000 
#    z -0.238380 0.000000 3.277640 
# 
# 
# High freq. dielectric constant tensor:
#      x y z
#    x 1.686610 0.000000 -0.001690 
#    y 0.000000 1.664760 0.000000 
#    z -0.001690 0.000000 1.659460 
# 
# From -- ./inp_files/243853.got.cif
#   From: 2010.06.25/outbox.cif.g09.slc.cpg/sg12_122_cif.got.tgz:243853.got - 2010.06.28 00:19:55.
