data_PCOD8081823
_publ_section_title
;
Structure prediction by ZEFSAII (Michael W. Deem and Ramdas Pophale) SiO2 
 PCOD8081823
Probable space group: C 2/M
;
_chemical_formula_sum "Si O2"
_cell_formula_units_Z 56
_cell_length_a 15.113873
_cell_length_b 8.981664
_cell_length_c 19.850320
_cell_angle_alpha 90.000000
_cell_angle_beta 95.229742
_cell_angle_gamma 90.000000
_cell_volume 2683.418677
_symmetry_space_group_name_H-M "C 2/M"
_symmetry_group_IT_number 12
_symmetry_cell_setting 'monoclinic'
loop_
_space_group_symop_operation_xyz
x,y,z
-x,y,-z
-x,-y,-z
x,-y,z
1/2+x,1/2+y,z
1/2-x,1/2+y,-z
1/2-x,1/2-y,-z
1/2+x,1/2-y,z
loop_
_atom_site_type_symbol
_atom_site_label
_atom_site_fract_x
_atom_site_fract_y
_atom_site_fract_z
Si Si1 0.107048 0.328006 0.829611
Si Si2 0.865131 0.825416 0.302427
Si Si3 0.668684 0.173029 0.426067
Si Si4 0.771191 0.823448 0.930979
Si Si5 0.145951 0.329053 0.567937
Si Si6 0.161736 0.327307 0.281547
Si Si7 0.417789 0.173678 0.859802
O O1 0.115762 0.500000 0.810897
O O2 0.085924 0.241858 0.758949
O O3 0.196013 0.270468 0.872489
O O4 0.023679 0.302631 0.874179
O O5 0.903280 0.764417 0.376740
O O6 0.763147 0.771484 0.290607
O O7 0.878292 0.000000 0.302530
O O8 0.751591 0.283854 0.433168
O O9 0.606862 0.196655 0.488580
O O10 0.616565 0.207040 0.351810
O O11 0.702457 0.000000 0.426192
O O12 0.867268 0.766460 0.913528
O O13 0.771540 0.000000 0.939162
O O14 0.750000 0.750000 0.000000
O O15 0.137939 0.500000 0.588683
O O16 0.160273 0.500000 0.266189
O O17 0.109954 0.256084 0.215064
O O18 0.392873 0.000000 0.866504
#
# Coordination Sequence:
#
# PCOD8081823 Si02
#       7
#     8   8   8   8   8   8   8
#     4  10  22  38  59  87 117 147 186 233 279 329
#     4  10  18  30  51  76 106 145 190 234 279 335
#     4   8  14  24  39  66 101 139 185 232 280 333
#     4  11  24  42  63  89 119 149 183 225 273 331
#     4   9  15  23  39  66 103 141 182 234 285 332
#     4   8  14  27  50  76 102 139 184 228 274 328
#     4  10  20  38  62  87 116 151 187 228 280 333
#
# _framework density 20.868901999999999
#
# number of rings (size 3 to 8) (size 9 to 14) (size 15 to 20)
#    0.000    2.571    1.429    2.143    0.000    2.286 
#    0.000    2.857    0.000    0.857    0.000    6.000 
#    0.000    0.000    0.000    0.000    0.000    0.000 
#
# Total GULP energy -346911.428422 kJ/mol
# GULP energy per Si atom -12389.693872 kJ/mol
# Density = 2.082140 g / cm^3
# Si number density = 20.868902 Si / 1000 Ang^3
#
#
#
# Elastic Constant Matrix: (Units=GPa)
#
#
# Indices 1 2 3 4 5 6 
#
# 1 47.0236 24.9577 26.4787 0.0000 -20.8951 0.0000
# 2 24.9577 75.5893 50.8495 0.0000 -14.8009 0.0000
# 3 26.4787 50.8495 136.9021 0.0000 -30.2582 0.0000
# 4 0.0000 0.0000 0.0000 34.6326 0.0000 -8.2017
# 5 -20.8951 -14.8009 -30.2582 0.0000 20.3887 0.0000
# 6 0.0000 0.0000 0.0000 -8.2017 0.0000 19.3451
#
#
#
# Elastic Compliance Matrix: (Units=1/GPa)
#
#
# Indices 1 2 3 4 5 6 
#
# 1 0.043229 -0.008690 0.004857 0.000000 0.045203 0.000000
# 2 -0.008690 0.019676 -0.006605 0.000000 -0.004425 0.000000
# 3 0.004857 -0.006605 0.013183 0.000000 0.019747 0.000000
# 4 0.000000 0.000000 0.000000 0.032097 0.000000 0.013608
# 5 0.045203 -0.004425 0.019747 0.000000 0.121466 0.000000
# 6 0.000000 0.000000 0.000000 0.013608 0.000000 0.057462
#
#
# Mechanical properties :
#
#
# Convention : Reuss Voigt Hill
#
# Bulk Modulus (GPa) = 18.11203 51.56520 34.83862
# Shear Modulus (GPa) = 15.31897 25.35521 20.33709
#
# Velocity S-wave (km/s) = 2.71229 3.48943 3.12511
# Velocity P-wave (km/s) = 4.30192 6.40294 5.45454
#
# Compressibility (1/GPa) = 0.05521192
#
# Stress axis : x y z
#
# Youngs Moduli (GPa) = 23.13272 50.82453 75.85489
#
# Poissons Ratio (x) = 0.44165 -0.36845
# Poissons Ratio (y) = 0.20101 0.50106
# Poissons Ratio (z) = -0.11236 0.33572
#
# Static dielectric constant tensor:
#      x y z
#    x 3.433160 0.000000 0.034690 
#    y 0.000000 3.533750 0.000000 
#    z 0.034690 0.000000 4.285340 
# 
# 
# High freq. dielectric constant tensor:
#      x y z
#    x 1.776580 0.000000 -0.011250 
#    y 0.000000 1.797220 0.000000 
#    z -0.011250 0.000000 1.836840 
# 
# From -- ./inp_files/308988.got.cif
#   From: 2010.06.25/outbox.cif.g09.slc.cpg/sg12_155_cif.got.tgz:308988.got - 2010.06.28 00:19:55.
