data_PCOD8081586
_publ_section_title
;
Structure prediction by ZEFSAII (Michael W. Deem and Ramdas Pophale) SiO2 
 PCOD8081586
Probable space group: C 2/M
;
_chemical_formula_sum "Si O2"
_cell_formula_units_Z 64
_cell_length_a 20.380202
_cell_length_b 8.803111
_cell_length_c 20.339166
_cell_angle_alpha 90.000000
_cell_angle_beta 96.041668
_cell_angle_gamma 90.000000
_cell_volume 3628.764966
_symmetry_space_group_name_H-M "C 2/M"
_symmetry_group_IT_number 12
_symmetry_cell_setting 'monoclinic'
loop_
_space_group_symop_operation_xyz
x,y,z
-x,y,-z
-x,-y,-z
x,-y,z
1/2+x,1/2+y,z
1/2-x,1/2+y,-z
1/2-x,1/2-y,-z
1/2+x,1/2-y,z
loop_
_atom_site_type_symbol
_atom_site_label
_atom_site_fract_x
_atom_site_fract_y
_atom_site_fract_z
Si Si1 0.245988 0.319599 0.322703
Si Si2 0.096888 0.320191 0.330789
Si Si3 0.061287 0.679409 0.467224
Si Si4 0.800835 0.320675 0.454575
Si Si5 0.944133 0.820163 0.944787
Si Si6 0.286290 0.324514 0.805423
Si Si7 0.703895 0.673136 0.048075
Si Si8 0.574660 0.823126 0.187991
O O1 0.253265 0.500000 0.318219
O O2 0.172407 0.263373 0.334009
O O3 0.295072 0.255073 0.382573
O O4 0.264828 0.240795 0.254361
O O5 0.100647 0.500000 0.336654
O O6 0.063878 0.251746 0.393237
O O7 0.054357 0.275084 0.260891
O O8 0.052097 0.500000 0.461065
O O9 0.126816 0.721650 0.513098
O O10 0.000000 0.752760 0.500000
O O11 0.789181 0.500000 0.449205
O O12 0.750000 0.250000 0.500000
O O13 0.871096 0.758359 0.957260
O O14 0.964155 0.766356 0.873228
O O15 0.943274 0.000000 0.943926
O O16 0.000000 0.756808 0.000000
O O17 0.305135 0.500000 0.792666
O O18 0.259596 0.310854 0.877283
O O19 0.348555 0.214122 0.808391
O O20 0.697295 0.500000 0.025977
O O21 0.750000 0.750000 0.000000
O O22 0.562713 0.000000 0.174849
#
# Coordination Sequence:
#
# PCOD8081586 Si02
#       8
#     8   8   8   8   8   8   8   8
#     4  10  18  30  49  74 101 127 160 209 254 289
#     4   8  14  26  44  69  96 120 156 199 239 285
#     4   9  17  30  49  71  96 130 166 199 240 293
#     4  11  20  31  50  76 100 128 165 206 250 296
#     4   9  18  33  51  71  97 130 166 206 247 291
#     4   9  17  30  47  72 101 130 166 202 241 292
#     4   9  18  31  50  74 100 130 164 201 241 292
#     4   9  16  26  45  72 100 126 157 204 249 288
#
# _framework density 17.636855000000001
#
# number of rings (size 3 to 8) (size 9 to 14) (size 15 to 20)
#    0.000    2.750    1.250    3.000    0.000    2.750 
#    0.000    0.000    2.750    1.500    0.000    0.000 
#    0.000    0.000    0.000    0.000    0.000    0.000 
#
# Total GULP energy -396483.035968 kJ/mol
# GULP energy per Si atom -12390.094874 kJ/mol
# Density = 1.759671 g / cm^3
# Si number density = 17.636855 Si / 1000 Ang^3
#
#
#
# Elastic Constant Matrix: (Units=GPa)
#
#
# Indices 1 2 3 4 5 6 
#
# 1 73.7042 27.4766 64.7649 0.0000 -0.8263 0.0000
# 2 27.4766 38.3460 42.4478 0.0000 1.8835 0.0000
# 3 64.7649 42.4478 184.1545 0.0000 10.4418 0.0000
# 4 0.0000 0.0000 0.0000 31.9004 0.0000 3.3229
# 5 -0.8263 1.8835 10.4418 0.0000 25.7005 0.0000
# 6 0.0000 0.0000 0.0000 3.3229 0.0000 14.7425
#
#
#
# Elastic Compliance Matrix: (Units=1/GPa)
#
#
# Indices 1 2 3 4 5 6 
#
# 1 0.022377 -0.009761 -0.005836 0.000000 0.003806 0.000000
# 2 -0.009761 0.039283 -0.005569 0.000000 -0.000930 0.000000
# 3 -0.005836 -0.005569 0.008960 0.000000 -0.003420 0.000000
# 4 0.000000 0.000000 0.000000 0.032101 0.000000 -0.007236
# 5 0.003806 -0.000930 -0.003420 0.000000 0.040490 0.000000
# 6 0.000000 0.000000 0.000000 -0.007236 0.000000 0.069462
#
#
# Mechanical properties :
#
#
# Convention : Reuss Voigt Hill
#
# Bulk Modulus (GPa) = 35.35008 62.84260 49.09634
# Shear Modulus (GPa) = 18.90818 25.23635 22.07226
#
# Velocity S-wave (km/s) = 3.27782 3.78681 3.54147
# Velocity P-wave (km/s) = 5.86620 7.40464 6.67986
#
# Compressibility (1/GPa) = 0.02828848
#
# Stress axis : x y z
#
# Youngs Moduli (GPa) = 44.68830 25.45601 111.60550
#
# Poissons Ratio (x) = 0.24849 0.65128
# Poissons Ratio (y) = 0.43622 0.62155
# Poissons Ratio (z) = 0.26078 0.14177
#
# Static dielectric constant tensor:
#      x y z
#    x 2.795100 0.000000 0.062360 
#    y 0.000000 3.111670 0.000000 
#    z 0.062360 0.000000 4.063440 
# 
# 
# High freq. dielectric constant tensor:
#      x y z
#    x 1.628890 0.000000 0.010220 
#    y 0.000000 1.665870 0.000000 
#    z 0.010220 0.000000 1.707790 
# 
# From -- ./inp_files/319178.got.cif
#   From: 2010.06.25/outbox.cif.g09.slc.cpg/sg12_160_cif.got.tgz:319178.got - 2010.06.28 00:19:55.
