data_PCOD8081164
_publ_section_title
;
Structure prediction by ZEFSAII (Michael W. Deem and Ramdas Pophale) SiO2 
 PCOD8081164
Probable space group: C 2/M
;
_chemical_formula_sum "Si O2"
_cell_formula_units_Z 48
_cell_length_a 27.800619
_cell_length_b 8.843177
_cell_length_c 11.271023
_cell_angle_alpha 90.000000
_cell_angle_beta 77.111267
_cell_angle_gamma 90.000000
_cell_volume 2701.120145
_symmetry_space_group_name_H-M "C 2/M"
_symmetry_group_IT_number 12
_symmetry_cell_setting 'monoclinic'
loop_
_space_group_symop_operation_xyz
x,y,z
-x,y,-z
-x,-y,-z
x,-y,z
1/2+x,1/2+y,z
1/2-x,1/2+y,-z
1/2-x,1/2-y,-z
1/2+x,1/2-y,z
loop_
_atom_site_type_symbol
_atom_site_label
_atom_site_fract_x
_atom_site_fract_y
_atom_site_fract_z
Si Si1 0.222084 0.174305 0.338206
Si Si2 0.495295 0.333591 0.862282
Si Si3 0.679352 0.826987 0.580499
Si Si4 0.591775 0.174762 0.799261
Si Si5 0.888027 0.178409 0.964427
Si Si6 0.793610 0.322066 0.901291
O O1 0.278151 0.205886 0.346574
O O2 0.184941 0.218548 0.464498
O O3 0.210899 0.278153 0.232774
O O4 0.213540 0.000000 0.308938
O O5 0.504694 0.500000 0.801924
O O6 0.536180 0.218542 0.788834
O O7 0.439183 0.280015 0.867711
O O8 0.500000 0.343400 0.000000
O O9 0.626990 0.791693 0.668826
O O10 0.683060 0.000000 0.535106
O O11 0.593397 0.000000 0.835707
O O12 0.610000 0.273562 0.899500
O O13 0.845781 0.267527 0.920861
O O14 0.877864 0.000000 0.965622
O O15 0.789932 0.500000 0.917649
O O16 0.750000 0.250000 0.000000
#
# Coordination Sequence:
#
# PCOD8081164 Si02
#       6
#     8   8   8   8   8   8
#     4  10  20  35  54  75 101 134 171 207 248 297
#     4   8  16  30  47  70 101 134 168 209 254 300
#     4   9  19  34  51  74 103 133 167 208 250 295
#     4  10  18  29  50  78 106 135 170 211 254 301
#     4  10  20  34  51  73 104 138 171 209 254 301
#     4  12  24  37  54  76 104 135 168 205 248 301
#
# _framework density 17.770403999999999
#
# number of rings (size 3 to 8) (size 9 to 14) (size 15 to 20)
#    0.000    2.167    0.000    5.000    0.000    7.000 
#    0.000    0.000    0.000    1.000    0.000    7.000 
#    0.000    0.000    0.000    0.000    0.000    0.000 
#
# Total GULP energy -297601.896456 kJ/mol
# GULP energy per Si atom -12400.079019 kJ/mol
# Density = 1.772996 g / cm^3
# Si number density = 17.770404 Si / 1000 Ang^3
#
#
#
# Elastic Constant Matrix: (Units=GPa)
#
#
# Indices 1 2 3 4 5 6 
#
# 1 126.6437 60.9018 54.3414 0.0000 -15.7775 0.0000
# 2 60.9018 113.7691 46.9653 0.0000 -7.1662 0.0000
# 3 54.3414 46.9653 71.3639 0.0000 -9.7414 0.0000
# 4 0.0000 0.0000 0.0000 30.8539 0.0000 -2.0274
# 5 -15.7775 -7.1662 -9.7414 0.0000 26.2436 0.0000
# 6 0.0000 0.0000 0.0000 -2.0274 0.0000 31.5720
#
#
#
# Elastic Compliance Matrix: (Units=1/GPa)
#
#
# Indices 1 2 3 4 5 6 
#
# 1 0.013336 -0.004006 -0.006924 0.000000 0.004353 0.000000
# 2 -0.004006 0.013275 -0.005814 0.000000 -0.000942 0.000000
# 3 -0.006924 -0.005814 0.023519 0.000000 0.002979 0.000000
# 4 0.000000 0.000000 0.000000 0.032548 0.000000 0.002090
# 5 0.004353 -0.000942 0.002979 0.000000 0.041571 0.000000
# 6 0.000000 0.000000 0.000000 0.002090 0.000000 0.031808
#
#
# Mechanical properties :
#
#
# Convention : Reuss Voigt Hill
#
# Bulk Modulus (GPa) = 60.09639 70.68819 65.39229
# Shear Modulus (GPa) = 25.62871 27.70510 26.66691
#
# Velocity S-wave (km/s) = 3.80177 3.95278 3.87801
# Velocity P-wave (km/s) = 7.29129 7.79086 7.54521
#
# Compressibility (1/GPa) = 0.01663994
#
# Stress axis : x y z
#
# Youngs Moduli (GPa) = 74.98339 75.32752 42.51967
#
# Poissons Ratio (x) = 0.30179 0.29442
# Poissons Ratio (y) = 0.30041 0.24723
# Poissons Ratio (z) = 0.51920 0.43799
#
# Static dielectric constant tensor:
#      x y z
#    x 3.670550 0.000000 -0.210110 
#    y 0.000000 3.413060 0.000000 
#    z -0.210110 0.000000 3.065390 
# 
# 
# High freq. dielectric constant tensor:
#      x y z
#    x 1.691070 0.000000 -0.017670 
#    y 0.000000 1.699150 0.000000 
#    z -0.017670 0.000000 1.659730 
# 
# From -- ./inp_files/179190.got.cif
#   From: 2010.06.25/outbox.cif.g09.slc.cpg/sg12_90_cif.got.tgz:179190.got - 2010.06.28 00:19:55.
