data_PCOD8081466
_publ_section_title
;
Structure prediction by ZEFSAII (Michael W. Deem and Ramdas Pophale) SiO2 
 PCOD8081466
Probable space group: C 2/M
;
_chemical_formula_sum "Si O2"
_cell_formula_units_Z 44
_cell_length_a 23.272761
_cell_length_b 9.703273
_cell_length_c 18.351707
_cell_angle_alpha 90.000000
_cell_angle_beta 34.791388
_cell_angle_gamma 90.000000
_cell_volume 2364.650098
_symmetry_space_group_name_H-M "C 2/M"
_symmetry_group_IT_number 12
_symmetry_cell_setting 'monoclinic'
loop_
_space_group_symop_operation_xyz
x,y,z
-x,y,-z
-x,-y,-z
x,-y,z
1/2+x,1/2+y,z
1/2-x,1/2+y,-z
1/2-x,1/2-y,-z
1/2+x,1/2-y,z
loop_
_atom_site_type_symbol
_atom_site_label
_atom_site_fract_x
_atom_site_fract_y
_atom_site_fract_z
Si Si1 0.701914 0.665261 0.114674
Si Si2 0.500000 0.744366 0.000000
Si Si3 0.718047 0.335006 0.398790
Si Si4 0.100763 0.154624 0.751800
Si Si5 0.479551 0.339710 0.317273
Si Si6 0.209881 0.656032 0.828359
O O1 0.714545 0.500000 0.089310
O O2 0.585146 0.711550 0.239621
O O3 0.755483 0.724470 0.131957
O O4 0.750000 0.750000 0.000000
O O5 0.540627 0.653447 0.890766
O O6 0.590436 0.836075 0.937908
O O7 0.731634 0.500000 0.391542
O O8 0.809158 0.263630 0.347103
O O9 0.613946 0.276317 0.539920
O O10 0.726895 0.283737 0.305644
O O11 0.026830 0.195413 0.762152
O O12 0.143242 0.000000 0.695721
O O13 0.471452 0.500000 0.339092
O O14 0.242339 0.500000 0.803316
#
# Coordination Sequence:
#
# PCOD8081466 Si02
#       6
#     8   4   8   8   8   8
#     4  10  20  35  52  73  99 129 162 198 238 288
#     4  10  18  30  48  72 101 132 159 196 243 288
#     4   9  18  33  51  73  97 126 161 202 245 285
#     4  10  19  31  48  73 100 129 163 200 239 286
#     4   9  18  32  51  72  98 128 162 201 242 285
#     4   9  18  31  50  74  99 125 161 203 242 283
#
# _framework density 18.607405
#
# number of rings (size 3 to 8) (size 9 to 14) (size 15 to 20)
#    0.000    2.545    0.000    2.182    0.000    1.455 
#    0.000    9.091    0.000    0.000    0.000    6.364 
#    0.000    0.000    0.000    0.000    0.000    0.000 
#
# Total GULP energy -272621.519811 kJ/mol
# GULP energy per Si atom -12391.887264 kJ/mol
# Density = 1.856505 g / cm^3
# Si number density = 18.607405 Si / 1000 Ang^3
#
#
#
# Elastic Constant Matrix: (Units=GPa)
#
#
# Indices 1 2 3 4 5 6 
#
# 1 160.0519 22.9622 72.3120 0.0000 2.1779 0.0000
# 2 22.9622 37.6612 19.9002 -0.0004 0.7038 0.0002
# 3 72.3120 19.9002 131.8265 -0.0003 -6.7659 0.0001
# 4 0.0000 -0.0004 -0.0003 22.4722 0.0001 0.5826
# 5 2.1779 0.7038 -6.7659 0.0001 28.5888 0.0000
# 6 0.0000 0.0002 0.0001 0.5826 0.0000 22.3626
#
#
#
# Elastic Compliance Matrix: (Units=1/GPa)
#
#
# Indices 1 2 3 4 5 6 
#
# 1 0.008680 -0.002936 -0.004402 0.000000 -0.001631 0.000000
# 2 -0.002936 0.029935 -0.002971 0.000001 -0.001216 0.000000
# 3 -0.004402 -0.002971 0.010599 0.000000 0.002917 0.000000
# 4 0.000000 0.000001 0.000000 0.044529 0.000000 -0.001160
# 5 -0.001631 -0.001216 0.002917 0.000000 0.035823 0.000000
# 6 0.000000 0.000000 0.000000 -0.001160 0.000000 0.044748
#
#
# Mechanical properties :
#
#
# Convention : Reuss Voigt Hill
#
# Bulk Modulus (GPa) = 34.96942 62.20980 48.58961
# Shear Modulus (GPa) = 24.45421 28.97574 26.71498
#
# Velocity S-wave (km/s) = 3.62915 3.95044 3.79320
# Velocity P-wave (km/s) = 6.03283 7.36976 6.73455
#
# Compressibility (1/GPa) = 0.02859641
#
# Stress axis : x y z
#
# Youngs Moduli (GPa) = 115.20512 33.40554 94.35266
#
# Poissons Ratio (x) = 0.09808 0.41533
# Poissons Ratio (y) = 0.33823 0.28031
# Poissons Ratio (z) = 0.50712 0.09925
#
# Static dielectric constant tensor:
#      x y z
#    x 3.807260 0.000000 -0.044950 
#    y 0.000000 3.081080 0.000000 
#    z -0.044950 0.000000 3.756230 
# 
# 
# High freq. dielectric constant tensor:
#      x y z
#    x 1.730700 0.000000 0.008250 
#    y 0.000000 1.683020 0.000000 
#    z 0.008250 0.000000 1.731550 
# 
# From -- ./inp_files/154107.got.cif
#   From: 2010.06.25/outbox.cif.g09.slc.cpg/sg12_78_cif.got.tgz:154107.got - 2010.06.28 00:19:55.
