data_PCOD8081610
_publ_section_title
;
Structure prediction by ZEFSAII (Michael W. Deem and Ramdas Pophale) SiO2 
 PCOD8081610
Probable space group: C 2/M
;
_chemical_formula_sum "Si O2"
_cell_formula_units_Z 40
_cell_length_a 28.489086
_cell_length_b 8.601720
_cell_length_c 12.664895
_cell_angle_alpha 90.000000
_cell_angle_beta 44.441707
_cell_angle_gamma 90.000000
_cell_volume 2173.087034
_symmetry_space_group_name_H-M "C 2/M"
_symmetry_group_IT_number 12
_symmetry_cell_setting 'monoclinic'
loop_
_space_group_symop_operation_xyz
x,y,z
-x,y,-z
-x,-y,-z
x,-y,z
1/2+x,1/2+y,z
1/2-x,1/2+y,-z
1/2-x,1/2-y,-z
1/2+x,1/2-y,z
loop_
_atom_site_type_symbol
_atom_site_label
_atom_site_fract_x
_atom_site_fract_y
_atom_site_fract_z
Si Si1 0.344658 0.181882 0.038605
Si Si2 0.817101 0.818050 0.441033
Si Si3 0.800525 0.316717 0.687624
Si Si4 0.424976 0.319346 0.092267
Si Si5 0.823538 0.184110 0.862501
O O1 0.276908 0.265170 0.185957
O O2 0.403290 0.218133 0.026687
O O3 0.330432 0.000000 0.054510
O O4 0.368518 0.245642 0.885160
O O5 0.750000 0.750000 0.500000
O O6 0.833834 0.737936 0.525385
O O7 0.878852 0.779476 0.266056
O O8 0.806996 0.000000 0.474839
O O9 0.803744 0.500000 0.692593
O O10 0.844638 0.242035 0.712048
O O11 0.419658 0.500000 0.070216
O O12 0.500000 0.270171 0.000000
O O13 0.825134 0.000000 0.865193
O O14 0.750000 0.250000 0.000000
#
# Coordination Sequence:
#
# PCOD8081610 Si02
#       5
#     8   8   8   8   8
#     4  11  20  32  52  78 109 142 180 223 271 322
#     4  11  21  34  55  81 110 143 180 224 273 322
#     4  11  20  32  51  78 111 142 178 223 272 321
#     4  10  22  39  57  78 108 147 186 222 267 325
#     4  10  18  30  49  75 107 140 177 220 271 322
#
# _framework density 18.406994999999998
#
# number of rings (size 3 to 8) (size 9 to 14) (size 15 to 20)
#    0.000    1.400    2.000    8.400    0.000    1.200 
#    0.000    0.000    0.000    1.200    0.000    8.400 
#    0.000    0.000    0.000    0.000    0.000    0.000 
#
# Total GULP energy -248021.830700 kJ/mol
# GULP energy per Si atom -12401.091535 kJ/mol
# Density = 1.836510 g / cm^3
# Si number density = 18.406995 Si / 1000 Ang^3
#
#
#
# Elastic Constant Matrix: (Units=GPa)
#
#
# Indices 1 2 3 4 5 6 
#
# 1 111.3256 52.6206 66.0242 0.0000 29.9880 0.0000
# 2 52.6206 136.7888 42.0455 0.0000 17.7067 0.0000
# 3 66.0242 42.0455 89.8166 0.0000 20.2948 0.0000
# 4 0.0000 0.0000 0.0000 24.8811 0.0000 10.8918
# 5 29.9880 17.7067 20.2948 0.0000 40.4189 0.0000
# 6 0.0000 0.0000 0.0000 10.8918 0.0000 32.5762
#
#
#
# Elastic Compliance Matrix: (Units=1/GPa)
#
#
# Indices 1 2 3 4 5 6 
#
# 1 0.018671 -0.002959 -0.010719 0.000000 -0.007174 0.000000
# 2 -0.002959 0.009148 -0.001915 0.000000 -0.000850 0.000000
# 3 -0.010719 -0.001915 0.020217 0.000000 -0.001360 0.000000
# 4 0.000000 0.000000 0.000000 0.047082 0.000000 -0.015742
# 5 -0.007174 -0.000850 -0.001360 0.000000 0.031119 0.000000
# 6 0.000000 0.000000 0.000000 -0.015742 0.000000 0.035961
#
#
# Mechanical properties :
#
#
# Convention : Reuss Voigt Hill
#
# Bulk Modulus (GPa) = 59.34729 73.25685 66.30207
# Shear Modulus (GPa) = 25.12586 31.39130 28.25858
#
# Velocity S-wave (km/s) = 3.69862 4.13413 3.92242
# Velocity P-wave (km/s) = 7.10995 7.91662 7.52410
#
# Compressibility (1/GPa) = 0.01684997
#
# Stress axis : x y z
#
# Youngs Moduli (GPa) = 53.55973 109.31946 49.46417
#
# Poissons Ratio (x) = 0.32348 0.53019
# Poissons Ratio (y) = 0.15849 0.09471
# Poissons Ratio (z) = 0.57408 0.20933
#
# Static dielectric constant tensor:
#      x y z
#    x 3.656920 0.000000 0.679340 
#    y 0.000000 3.480610 0.000000 
#    z 0.679340 0.000000 3.610200 
# 
# 
# High freq. dielectric constant tensor:
#      x y z
#    x 1.705870 0.000000 0.045310 
#    y 0.000000 1.731690 0.000000 
#    z 0.045310 0.000000 1.688370 
# 
# From -- ./inp_files/162752.got.cif
#   From: 2010.06.25/outbox.cif.g09.slc.cpg/sg12_82_cif.got.tgz:162752.got - 2010.06.28 00:19:55.
