data_PCOD8081767
_publ_section_title
;
Structure prediction by ZEFSAII (Michael W. Deem and Ramdas Pophale) SiO2 
 PCOD8081767
Probable space group: C 2/M
;
_chemical_formula_sum "Si O2"
_cell_formula_units_Z 64
_cell_length_a 18.886822
_cell_length_b 9.161316
_cell_length_c 20.810641
_cell_angle_alpha 90.000000
_cell_angle_beta 80.703839
_cell_angle_gamma 90.000000
_cell_volume 3553.535295
_symmetry_space_group_name_H-M "C 2/M"
_symmetry_group_IT_number 12
_symmetry_cell_setting 'monoclinic'
loop_
_space_group_symop_operation_xyz
x,y,z
-x,y,-z
-x,-y,-z
x,-y,z
1/2+x,1/2+y,z
1/2-x,1/2+y,-z
1/2-x,1/2-y,-z
1/2+x,1/2-y,z
loop_
_atom_site_type_symbol
_atom_site_label
_atom_site_fract_x
_atom_site_fract_y
_atom_site_fract_z
Si Si1 0.419820 0.170738 0.016039
Si Si2 0.204265 0.672925 0.722420
Si Si3 0.699061 0.171441 0.870273
Si Si4 0.333065 0.174664 0.906441
Si Si5 0.661417 0.836404 0.338561
Si Si6 0.057054 0.325361 0.685634
Si Si7 0.924369 0.336805 0.778133
Si Si8 0.520812 0.825982 0.427644
O O1 0.367025 0.230041 0.968147
O O2 0.428825 0.000000 0.003114
O O3 0.500000 0.241926 0.000000
O O4 0.380998 0.203598 0.089971
O O5 0.206985 0.500000 0.721073
O O6 0.203103 0.729063 0.796295
O O7 0.269931 0.732460 0.670899
O O8 0.134154 0.732455 0.695842
O O9 0.755535 0.254067 0.907213
O O10 0.715945 0.000000 0.871291
O O11 0.386681 0.239986 0.844047
O O12 0.324064 0.000000 0.903603
O O13 0.631355 0.837794 0.271545
O O14 0.601009 0.774338 0.396320
O O15 0.684458 0.000000 0.355378
O O16 0.052044 0.500000 0.687983
O O17 0.998322 0.260325 0.744540
O O18 0.037234 0.270930 0.616579
O O19 0.943425 0.500000 0.797446
O O20 0.500000 0.759586 0.500000
O O21 0.520514 0.000000 0.429336
#
# Coordination Sequence:
#
# PCOD8081767 Si02
#       8
#     8   8   8   8   8   8   8   8
#     4   9  19  32  47  70  93 115 152 200 238 271
#     4  10  19  29  45  69  97 125 150 187 234 275
#     4  10  20  32  46  67  95 124 153 188 232 278
#     4  10  18  30  51  70  88 118 154 191 233 278
#     4   9  16  29  48  70  95 119 150 190 226 269
#     4   8  15  26  42  66  94 120 151 189 227 265
#     4   8  14  25  44  68  86 111 152 190 219 257
#     4   8  14  27  49  73  93 118 156 196 226 258
#
# _framework density 18.010232999999999
#
# number of rings (size 3 to 8) (size 9 to 14) (size 15 to 20)
#    0.000    3.000    1.250    1.875    1.750    0.000 
#    0.000    0.625    0.000    5.625    0.000    0.000 
#    0.000    0.000    0.000    0.000    0.000    0.000 
#
# Total GULP energy -396536.046631 kJ/mol
# GULP energy per Si atom -12391.751457 kJ/mol
# Density = 1.796924 g / cm^3
# Si number density = 18.010233 Si / 1000 Ang^3
#
#
#
# Elastic Constant Matrix: (Units=GPa)
#
#
# Indices 1 2 3 4 5 6 
#
# 1 147.0670 23.1533 57.7820 0.0000 -8.0425 0.0000
# 2 23.1533 15.2022 13.6045 0.0000 -1.4592 0.0000
# 3 57.7820 13.6045 109.2077 0.0000 -15.5368 0.0000
# 4 0.0000 0.0000 0.0000 13.2790 0.0000 -3.4555
# 5 -8.0425 -1.4592 -15.5368 0.0000 24.9779 0.0000
# 6 0.0000 0.0000 0.0000 -3.4555 0.0000 22.7246
#
#
#
# Elastic Compliance Matrix: (Units=1/GPa)
#
#
# Indices 1 2 3 4 5 6 
#
# 1 0.010242 -0.012104 -0.003886 0.000000 0.000173 0.000000
# 2 -0.012104 0.088392 -0.004857 0.000000 -0.001754 0.000000
# 3 -0.003886 -0.004857 0.012726 0.000000 0.006381 0.000000
# 4 0.000000 0.000000 0.000000 0.078410 0.000000 0.011923
# 5 0.000173 -0.001754 0.006381 0.000000 0.043958 0.000000
# 6 0.000000 0.000000 0.000000 0.011923 0.000000 0.045818
#
#
# Mechanical properties :
#
#
# Convention : Reuss Voigt Hill
#
# Bulk Modulus (GPa) = 14.35424 51.17294 32.76359
# Shear Modulus (GPa) = 14.51543 23.99210 19.25377
#
# Velocity S-wave (km/s) = 2.84201 3.65380 3.27317
# Velocity P-wave (km/s) = 4.33090 6.80260 5.70228
#
# Compressibility (1/GPa) = 0.06966585
#
# Stress axis : x y z
#
# Youngs Moduli (GPa) = 97.64154 11.31321 78.57933
#
# Poissons Ratio (x) = 0.13693 0.30539
# Poissons Ratio (y) = 1.18181 0.38166
# Poissons Ratio (z) = 0.37947 0.05495
#
# Static dielectric constant tensor:
#      x y z
#    x 3.471900 0.000000 -0.104770 
#    y 0.000000 2.762400 0.000000 
#    z -0.104770 0.000000 3.551720 
# 
# 
# High freq. dielectric constant tensor:
#      x y z
#    x 1.702540 0.000000 -0.011880 
#    y 0.000000 1.631020 0.000000 
#    z -0.011880 0.000000 1.699190 
# 
# From -- ./inp_files/315078.got.cif
#   From: 2010.06.25/outbox.cif.g09.slc.cpg/sg12_158_cif.got.tgz:315078.got - 2010.06.28 00:19:55.
