data_PCOD8081401
_publ_section_title
;
Structure prediction by ZEFSAII (Michael W. Deem and Ramdas Pophale) SiO2 
 PCOD8081401
Probable space group: C 2/M
;
_chemical_formula_sum "Si O2"
_cell_formula_units_Z 48
_cell_length_a 13.578761
_cell_length_b 18.258933
_cell_length_c 12.116125
_cell_angle_alpha 90.000000
_cell_angle_beta 107.761383
_cell_angle_gamma 90.000000
_cell_volume 2860.810740
_symmetry_space_group_name_H-M "C 2/M"
_symmetry_group_IT_number 12
_symmetry_cell_setting 'monoclinic'
loop_
_space_group_symop_operation_xyz
x,y,z
-x,y,-z
-x,-y,-z
x,-y,z
1/2+x,1/2+y,z
1/2-x,1/2+y,-z
1/2-x,1/2-y,-z
1/2+x,1/2-y,z
loop_
_atom_site_type_symbol
_atom_site_label
_atom_site_fract_x
_atom_site_fract_y
_atom_site_fract_z
Si Si1 0.267905 0.416282 0.466056
Si Si2 0.454321 0.331055 0.605951
Si Si3 0.840265 0.586507 0.926978
Si Si4 0.860318 0.083620 0.254795
Si Si5 0.948755 0.664175 0.601172
Si Si6 0.478832 0.913402 0.169130
O O1 0.256089 0.500000 0.500160
O O2 0.348291 0.376827 0.575914
O O3 0.306804 0.411297 0.354944
O O4 0.159051 0.377041 0.438715
O O5 0.500000 0.336490 0.500000
O O6 0.537730 0.366242 0.718518
O O7 0.430974 0.247931 0.631587
O O8 0.842743 0.500000 0.914766
O O9 0.723619 0.614077 0.862838
O O10 0.920657 0.615943 0.862764
O O11 0.876973 0.608281 0.062802
O O12 0.892937 0.000000 0.240886
O O13 0.000000 0.658832 0.500000
O O14 0.026297 0.626961 0.715360
O O15 0.483989 0.000000 0.191476
#
# Coordination Sequence:
#
# PCOD8081401 Si02
#       6
#     8   8   8   8   8   8
#     4  10  18  30  48  68  90 120 157 195 227 264
#     4   9  19  31  44  66  96 124 151 187 232 276
#     4   8  14  26  48  72  91 111 146 198 240 261
#     4   9  15  28  50  73  90 112 151 198 240 268
#     4  11  21  31  43  66 101 131 152 173 223 282
#     4   9  16  28  45  69  94 119 153 189 227 268
#
# _framework density 16.778459999999999
#
# number of rings (size 3 to 8) (size 9 to 14) (size 15 to 20)
#    0.000    2.667    1.667    2.500    0.000    3.333 
#    0.000    0.833    0.000    0.000    0.000    0.000 
#    0.000    5.333    0.000    0.000    0.000    0.000 
#
# Total GULP energy -297497.952709 kJ/mol
# GULP energy per Si atom -12395.748030 kJ/mol
# Density = 1.674027 g / cm^3
# Si number density = 16.778460 Si / 1000 Ang^3
#
#
#
# Elastic Constant Matrix: (Units=GPa)
#
#
# Indices 1 2 3 4 5 6 
#
# 1 49.3985 46.6468 43.7227 0.0000 25.7989 0.0000
# 2 46.6468 112.0915 52.3336 0.0000 19.4851 0.0000
# 3 43.7227 52.3336 113.4451 0.0000 34.3374 0.0000
# 4 0.0000 0.0000 0.0000 8.5313 0.0000 0.0287
# 5 25.7989 19.4851 34.3374 0.0000 32.1874 0.0000
# 6 0.0000 0.0000 0.0000 0.0287 0.0000 22.9552
#
#
#
# Elastic Compliance Matrix: (Units=1/GPa)
#
#
# Indices 1 2 3 4 5 6 
#
# 1 0.054053 -0.015086 -0.005205 0.000000 -0.028640 0.000000
# 2 -0.015086 0.015660 -0.003250 0.000000 0.006078 0.000000
# 3 -0.005205 -0.003250 0.015451 0.000000 -0.010344 0.000000
# 4 0.000000 0.000000 0.000000 0.117216 0.000000 -0.000147
# 5 -0.028640 0.006078 -0.010344 0.000000 0.061379 0.000000
# 6 0.000000 0.000000 0.000000 -0.000147 0.000000 0.043563
#
#
# Mechanical properties :
#
#
# Convention : Reuss Voigt Hill
#
# Bulk Modulus (GPa) = 26.25784 62.26015 44.25900
# Shear Modulus (GPa) = 13.62040 21.55025 17.58533
#
# Velocity S-wave (km/s) = 2.85226 3.58774 3.24093
# Velocity P-wave (km/s) = 5.15082 7.37226 6.35929
#
# Compressibility (1/GPa) = 0.03808386
#
# Stress axis : x y z
#
# Youngs Moduli (GPa) = 18.50033 63.85780 64.72181
#
# Poissons Ratio (x) = 0.96334 0.33684
# Poissons Ratio (y) = 0.27909 0.21033
# Poissons Ratio (z) = 0.09628 0.20752
#
# Static dielectric constant tensor:
#      x y z
#    x 3.284690 0.000000 0.482510 
#    y 0.000000 3.127880 0.000000 
#    z 0.482510 0.000000 3.291050 
# 
# 
# High freq. dielectric constant tensor:
#      x y z
#    x 1.625260 0.000000 0.037210 
#    y 0.000000 1.634140 0.000000 
#    z 0.037210 0.000000 1.634330 
# 
# From -- ./inp_files/131065.got.cif
#   From: 2010.06.25/outbox.cif.g09.slc.cpg/sg12_66_cif.got.tgz:131065.got - 2010.06.28 00:19:55.
