data_PCOD8081642
_publ_section_title
;
Structure prediction by ZEFSAII (Michael W. Deem and Ramdas Pophale) SiO2 
 PCOD8081642
Probable space group: C 2/M
;
_chemical_formula_sum "Si O2"
_cell_formula_units_Z 56
_cell_length_a 19.424299
_cell_length_b 8.981062
_cell_length_c 24.864061
_cell_angle_alpha 90.000000
_cell_angle_beta 43.873435
_cell_angle_gamma 90.000000
_cell_volume 3006.219959
_symmetry_space_group_name_H-M "C 2/M"
_symmetry_group_IT_number 12
_symmetry_cell_setting 'monoclinic'
loop_
_space_group_symop_operation_xyz
x,y,z
-x,y,-z
-x,-y,-z
x,-y,z
1/2+x,1/2+y,z
1/2-x,1/2+y,-z
1/2-x,1/2-y,-z
1/2+x,1/2-y,z
loop_
_atom_site_type_symbol
_atom_site_label
_atom_site_fract_x
_atom_site_fract_y
_atom_site_fract_z
Si Si1 0.706470 0.822997 0.223001
Si Si2 0.531243 0.327062 0.258304
Si Si3 0.442547 0.670450 0.197343
Si Si4 0.856507 0.175586 0.433951
Si Si5 0.088067 0.825157 0.483407
Si Si6 0.740388 0.326845 0.311272
Si Si7 0.069430 0.827027 0.915383
O O1 0.625769 0.763468 0.226195
O O2 0.684672 0.761690 0.294918
O O3 0.817739 0.764196 0.145244
O O4 0.701377 0.000000 0.226573
O O5 0.548965 0.500000 0.261791
O O6 0.524373 0.299368 0.197590
O O7 0.426634 0.274608 0.344514
O O8 0.403825 0.500000 0.223519
O O9 0.353155 0.782384 0.256815
O O10 0.481975 0.699536 0.114324
O O11 0.750000 0.250000 0.500000
O O12 0.914547 0.231706 0.454218
O O13 0.837974 0.000000 0.443026
O O14 0.190547 0.785872 0.396079
O O15 0.000000 0.746168 0.500000
O O16 0.070276 0.000000 0.494459
O O17 0.731424 0.500000 0.302191
O O18 0.077154 0.000000 0.924064
O O19 0.000000 0.749594 0.000000
#
# Coordination Sequence:
#
# PCOD8081642 Si02
#       7
#     8   8   8   8   8   8   8
#     4  10  20  33  52  76 100 129 166 206 246 294
#     4  10  20  34  51  72 102 136 167 204 250 296
#     4   9  18  32  51  74  98 127 163 199 238 290
#     4  10  20  33  49  69  96 131 167 205 249 292
#     4   9  17  29  45  65  89 121 162 201 238 285
#     4  10  18  30  50  71  94 127 165 205 248 293
#     4   8  15  31  54  76  98 127 162 198 241 295
#
# _framework density 18.628045
#
# number of rings (size 3 to 8) (size 9 to 14) (size 15 to 20)
#    0.000    2.571    0.000    3.429    0.000    3.429 
#    0.000    1.429    0.000   13.714    0.000    0.000 
#    0.000    0.000    0.000    0.000    0.000    0.000 
#
# Total GULP energy -346961.637401 kJ/mol
# GULP energy per Si atom -12391.487050 kJ/mol
# Density = 1.858565 g / cm^3
# Si number density = 18.628045 Si / 1000 Ang^3
#
#
#
# Elastic Constant Matrix: (Units=GPa)
#
#
# Indices 1 2 3 4 5 6 
#
# 1 116.9531 27.6940 51.1025 0.0000 12.6616 0.0000
# 2 27.6940 45.7376 27.6611 0.0000 1.5491 0.0001
# 3 51.1025 27.6611 94.7827 0.0000 15.9639 0.0000
# 4 0.0000 0.0000 0.0000 16.5716 0.0000 -2.1833
# 5 12.6616 1.5491 15.9639 0.0000 26.2791 0.0000
# 6 0.0000 0.0001 0.0000 -2.1833 0.0000 29.3206
#
#
#
# Elastic Compliance Matrix: (Units=1/GPa)
#
#
# Indices 1 2 3 4 5 6 
#
# 1 0.011913 -0.004258 -0.004741 0.000000 -0.002609 0.000000
# 2 -0.004258 0.028364 -0.006735 0.000000 0.004471 0.000000
# 3 -0.004741 -0.006735 0.016287 0.000000 -0.007213 0.000000
# 4 0.000000 0.000000 0.000000 0.060942 0.000000 0.004538
# 5 -0.002609 0.004471 -0.007213 0.000000 0.043428 0.000000
# 6 0.000000 0.000000 0.000000 0.004538 0.000000 0.034444
#
#
# Mechanical properties :
#
#
# Convention : Reuss Voigt Hill
#
# Bulk Modulus (GPa) = 39.84680 52.26540 46.05610
# Shear Modulus (GPa) = 21.25774 24.50199 22.87986
#
# Velocity S-wave (km/s) = 3.38178 3.63068 3.50844
# Velocity P-wave (km/s) = 6.05688 6.75974 6.41794
#
# Compressibility (1/GPa) = 0.02509612
#
# Stress axis : x y z
#
# Youngs Moduli (GPa) = 83.94537 35.25647 61.39943
#
# Poissons Ratio (x) = 0.15011 0.29108
# Poissons Ratio (y) = 0.35740 0.41353
# Poissons Ratio (z) = 0.39797 0.23745
#
# Static dielectric constant tensor:
#      x y z
#    x 3.762590 0.000000 0.200730 
#    y 0.000000 3.143890 0.000000 
#    z 0.200730 0.000000 3.631460 
# 
# 
# High freq. dielectric constant tensor:
#      x y z
#    x 1.729030 0.000000 0.013080 
#    y 0.000000 1.693640 0.000000 
#    z 0.013080 0.000000 1.713790 
# 
# From -- ./inp_files/280318.got.cif
#   From: 2010.06.25/outbox.cif.g09.slc.cpg/sg12_141_cif.got.tgz:280318.got - 2010.06.28 00:19:55.
