data_PCOD8081664
_publ_section_title
;
Structure prediction by ZEFSAII (Michael W. Deem and Ramdas Pophale) SiO2 
 PCOD8081664
Probable space group: C 2/M
;
_chemical_formula_sum "Si O2"
_cell_formula_units_Z 56
_cell_length_a 28.379930
_cell_length_b 9.513133
_cell_length_c 17.492708
_cell_angle_alpha 90.000000
_cell_angle_beta 136.646888
_cell_angle_gamma 90.000000
_cell_volume 3242.110787
_symmetry_space_group_name_H-M "C 2/M"
_symmetry_group_IT_number 12
_symmetry_cell_setting 'monoclinic'
loop_
_space_group_symop_operation_xyz
x,y,z
-x,y,-z
-x,-y,-z
x,-y,z
1/2+x,1/2+y,z
1/2-x,1/2+y,-z
1/2-x,1/2-y,-z
1/2+x,1/2-y,z
loop_
_atom_site_type_symbol
_atom_site_label
_atom_site_fract_x
_atom_site_fract_y
_atom_site_fract_z
Si Si1 0.151282 0.661536 0.265341
Si Si2 0.806805 0.833809 0.424801
Si Si3 0.064763 0.837811 0.865208
Si Si4 0.909211 0.836162 0.672289
Si Si5 0.868018 0.662093 0.932027
Si Si6 0.815205 0.164702 0.104945
Si Si7 0.784464 0.834993 0.234175
O O1 0.144459 0.500000 0.282915
O O2 0.230750 0.709234 0.362326
O O3 0.107303 0.757822 0.268952
O O4 0.120363 0.682296 0.144413
O O5 0.863160 0.770965 0.549332
O O6 0.819239 0.773783 0.352904
O O7 0.814924 0.000000 0.433655
O O8 0.117114 0.788371 0.860691
O O9 0.988388 0.810995 0.743807
O O10 0.076520 0.000000 0.899506
O O11 0.075670 0.750364 0.955448
O O12 0.893217 0.000000 0.666056
O O13 0.876426 0.500000 0.965514
O O14 0.793096 0.722573 0.867150
O O15 0.828368 0.200432 0.210350
O O16 0.799216 0.000000 0.075883
O O17 0.750000 0.250000 0.000000
O O18 0.775964 0.000000 0.237887
#
# Coordination Sequence:
#
# PCOD8081664 Si02
#       7
#     8   8   8   8   8   8   8
#     4   9  18  32  52  74  91 117 165 209 232 266
#     4   8  15  30  51  71  93 122 158 198 234 273
#     4  10  21  32  44  70 104 128 152 190 236 287
#     4  10  20  33  47  67  99 133 156 186 239 288
#     4   9  17  31  50  71  93 122 160 198 236 277
#     4  10  18  30  50  73  96 122 156 194 232 279
#     4   8  14  27  49  73  92 116 154 198 236 269
#
# _framework density 17.272697999999998
#
# number of rings (size 3 to 8) (size 9 to 14) (size 15 to 20)
#    0.000    2.857    1.429    2.143    0.000    1.714 
#    0.000    3.571    0.000    6.000    0.000    0.000 
#    0.000    3.429    0.000    0.000    0.000    0.000 
#
# Total GULP energy -347078.595339 kJ/mol
# GULP energy per Si atom -12395.664119 kJ/mol
# Density = 1.723338 g / cm^3
# Si number density = 17.272698 Si / 1000 Ang^3
#
#
#
# Elastic Constant Matrix: (Units=GPa)
#
#
# Indices 1 2 3 4 5 6 
#
# 1 111.8754 38.6863 55.1757 0.0000 -5.1286 0.0000
# 2 38.6863 37.2421 32.9757 0.0000 -1.8228 0.0000
# 3 55.1757 32.9757 87.6253 0.0000 -3.2827 0.0000
# 4 0.0000 0.0000 0.0000 21.1423 0.0000 -1.1728
# 5 -5.1286 -1.8228 -3.2827 0.0000 22.2883 0.0000
# 6 0.0000 0.0000 0.0000 -1.1728 0.0000 21.6262
#
#
#
# Elastic Compliance Matrix: (Units=1/GPa)
#
#
# Indices 1 2 3 4 5 6 
#
# 1 0.015654 -0.011253 -0.005552 0.000000 0.001864 0.000000
# 2 -0.011253 0.048385 -0.011133 0.000000 -0.000272 0.000000
# 3 -0.005552 -0.011133 0.019121 0.000000 0.000628 0.000000
# 4 0.000000 0.000000 0.000000 0.047441 0.000000 0.002573
# 5 0.001864 -0.000272 0.000628 0.000000 0.045366 0.000000
# 6 0.000000 0.000000 0.000000 0.002573 0.000000 0.046380
#
#
# Mechanical properties :
#
#
# Convention : Reuss Voigt Hill
#
# Bulk Modulus (GPa) = 36.65179 54.49093 45.57136
# Shear Modulus (GPa) = 17.40235 20.33839 18.87037
#
# Velocity S-wave (km/s) = 3.17757 3.43518 3.30888
# Velocity P-wave (km/s) = 5.89306 6.88112 6.40617
#
# Compressibility (1/GPa) = 0.02728380
#
# Stress axis : x y z
#
# Youngs Moduli (GPa) = 63.88346 20.66740 52.29794
#
# Poissons Ratio (x) = 0.23258 0.29035
# Poissons Ratio (y) = 0.71891 0.58222
# Poissons Ratio (z) = 0.35467 0.23009
#
# Static dielectric constant tensor:
#      x y z
#    x 3.273890 0.000000 -0.159670 
#    y 0.000000 2.910930 0.000000 
#    z -0.159670 0.000000 3.439510 
# 
# 
# High freq. dielectric constant tensor:
#      x y z
#    x 1.665020 0.000000 -0.012420 
#    y 0.000000 1.633670 0.000000 
#    z -0.012420 0.000000 1.665150 
# 
# From -- ./inp_files/282929.got.cif
#   From: 2010.06.25/outbox.cif.g09.slc.cpg/sg12_142_cif.got.tgz:282929.got - 2010.06.28 00:19:55.
