data_PCOD8081328
_publ_section_title
;
Structure prediction by ZEFSAII (Michael W. Deem and Ramdas Pophale) SiO2 
 PCOD8081328
Probable space group: C 2/M
;
_chemical_formula_sum "Si O2"
_cell_formula_units_Z 64
_cell_length_a 27.772325
_cell_length_b 8.885312
_cell_length_c 30.663478
_cell_angle_alpha 90.000000
_cell_angle_beta 31.961138
_cell_angle_gamma 90.000000
_cell_volume 4005.385094
_symmetry_space_group_name_H-M "C 2/M"
_symmetry_group_IT_number 12
_symmetry_cell_setting 'monoclinic'
loop_
_space_group_symop_operation_xyz
x,y,z
-x,y,-z
-x,-y,-z
x,-y,z
1/2+x,1/2+y,z
1/2-x,1/2+y,-z
1/2-x,1/2-y,-z
1/2+x,1/2-y,z
loop_
_atom_site_type_symbol
_atom_site_label
_atom_site_fract_x
_atom_site_fract_y
_atom_site_fract_z
Si Si1 0.718974 0.177602 0.068601
Si Si2 0.473197 0.679364 0.769863
Si Si3 0.612301 0.822393 0.728168
Si Si4 0.245256 0.333654 0.437210
Si Si5 0.114126 0.165836 0.592562
Si Si6 0.105755 0.669086 0.908102
Si Si7 0.365379 0.325685 0.028508
Si Si8 0.071228 0.176059 0.848732
O O1 0.624983 0.247560 0.156558
O O2 0.793397 0.220266 0.047312
O O3 0.708924 0.000000 0.070136
O O4 0.750000 0.250000 0.000000
O O5 0.467221 0.500000 0.779602
O O6 0.528752 0.740694 0.768447
O O7 0.522877 0.726031 0.686389
O O8 0.709304 0.775442 0.633228
O O9 0.613126 0.772100 0.777458
O O10 0.599694 0.000000 0.733610
O O11 0.232230 0.500000 0.426995
O O12 0.146188 0.271936 0.528190
O O13 0.308266 0.343194 0.430841
O O14 0.096848 0.000000 0.586382
O O15 0.140063 0.500000 0.872544
O O16 0.159054 0.734752 0.908844
O O17 0.123855 0.772418 0.851988
O O18 0.000000 0.672026 0.000000
O O19 0.360486 0.500000 0.044550
O O20 0.464624 0.284642 0.933890
O O21 0.087898 0.000000 0.828028
#
# Coordination Sequence:
#
# PCOD8081328 Si02
#       8
#     8   8   8   8   8   8   8   8
#     4  11  22  34  48  66  90 120 156 193 227 262
#     4  10  20  33  46  62  87 119 155 190 226 265
#     4  11  20  29  43  64  91 120 151 184 221 266
#     4   9  16  26  41  61  85 113 144 178 219 265
#     4   8  15  27  42  59  81 111 146 183 219 260
#     4   9  17  29  46  67  87 109 142 182 222 266
#     4   9  19  33  47  63  85 116 150 185 224 264
#     4  10  18  30  47  65  89 118 147 181 224 269
#
# _framework density 15.978489
#
# number of rings (size 3 to 8) (size 9 to 14) (size 15 to 20)
#    0.000    2.375    0.000    4.500    0.000    7.500 
#    0.000    0.000    0.000    0.000    0.000    0.000 
#    0.000    1.000    0.000   10.500    0.000    6.000 
#
# Total GULP energy -396764.644089 kJ/mol
# GULP energy per Si atom -12398.895128 kJ/mol
# Density = 1.594212 g / cm^3
# Si number density = 15.978489 Si / 1000 Ang^3
#
#
#
# Elastic Constant Matrix: (Units=GPa)
#
#
# Indices 1 2 3 4 5 6 
#
# 1 77.5294 44.4659 46.1096 -0.0142 12.3584 0.0405
# 2 44.4659 96.9369 46.9155 0.0220 6.5771 -0.0396
# 3 46.1096 46.9155 101.4398 0.0019 4.7506 -0.0117
# 4 -0.0142 0.0220 0.0019 29.3632 0.0121 5.0784
# 5 12.3584 6.5771 4.7506 0.0121 15.0068 -0.0245
# 6 0.0405 -0.0396 -0.0117 5.0784 -0.0245 23.7863
#
#
#
# Elastic Compliance Matrix: (Units=1/GPa)
#
#
# Indices 1 2 3 4 5 6 
#
# 1 0.022696 -0.006176 -0.006813 0.000035 -0.013828 -0.000074
# 2 -0.006176 0.015205 -0.004214 -0.000021 -0.000244 0.000038
# 3 -0.006813 -0.004214 0.014773 -0.000005 0.002781 0.000016
# 4 0.000035 -0.000021 -0.000005 0.035362 -0.000059 -0.007550
# 5 -0.013828 -0.000244 0.002781 -0.000059 0.077251 0.000116
# 6 -0.000074 0.000038 0.000016 -0.007550 0.000116 0.043653
#
#
# Mechanical properties :
#
#
# Convention : Reuss Voigt Hill
#
# Bulk Modulus (GPa) = 54.73343 61.20977 57.97160
# Shear Modulus (GPa) = 20.04534 22.85895 21.45215
#
# Velocity S-wave (km/s) = 3.54576 3.78644 3.66808
# Velocity P-wave (km/s) = 7.14787 7.58333 7.36882
#
# Compressibility (1/GPa) = 0.01827037
#
# Stress axis : x y z
#
# Youngs Moduli (GPa) = 44.05999 65.76940 67.68926
#
# Poissons Ratio (x) = 0.40616 0.46116
# Poissons Ratio (y) = 0.27210 0.28521
# Poissons Ratio (z) = 0.30018 0.27712
#
# Static dielectric constant tensor:
#      x y z
#    x 2.774680 -0.000050 0.103160 
#    y -0.000050 3.237440 0.000010 
#    z 0.103160 0.000010 3.117100 
# 
# 
# High freq. dielectric constant tensor:
#      x y z
#    x 1.570600 0.000000 0.019770 
#    y 0.000000 1.630920 0.000000 
#    z 0.019770 0.000000 1.605720 
# 
# From -- ./inp_files/384560.got.cif
#   From: 2010.06.25/outbox.cif.g09.slc.cpg/sg12_193_cif.got.tgz:384560.got - 2010.06.28 00:19:55.
