data_PCOD8081228
_publ_section_title
;
Structure prediction by ZEFSAII (Michael W. Deem and Ramdas Pophale) SiO2 
 PCOD8081228
Probable space group: C 2/M
;
_chemical_formula_sum "Si O2"
_cell_formula_units_Z 44
_cell_length_a 21.437174
_cell_length_b 14.289557
_cell_length_c 11.780013
_cell_angle_alpha 90.000000
_cell_angle_beta 133.906339
_cell_angle_gamma 90.000000
_cell_volume 2599.863919
_symmetry_space_group_name_H-M "C 2/M"
_symmetry_group_IT_number 12
_symmetry_cell_setting 'monoclinic'
loop_
_space_group_symop_operation_xyz
x,y,z
-x,y,-z
-x,-y,-z
x,-y,z
1/2+x,1/2+y,z
1/2-x,1/2+y,-z
1/2-x,1/2-y,-z
1/2+x,1/2-y,z
loop_
_atom_site_type_symbol
_atom_site_label
_atom_site_fract_x
_atom_site_fract_y
_atom_site_fract_z
Si Si1 0.000000 0.837488 0.000000
Si Si2 0.799936 0.500000 0.297718
Si Si3 0.834824 0.797520 0.154258
Si Si4 0.884737 0.000000 0.852007
Si Si5 0.090711 0.684938 0.554494
Si Si6 0.509002 0.500000 0.242877
Si Si7 0.819221 0.000000 0.061313
Si Si8 0.989168 0.794436 0.738108
O O1 0.077364 0.903208 0.046540
O O2 0.027174 0.778524 0.146550
O O3 0.718668 0.500000 0.281343
O O4 0.856745 0.590209 0.393857
O O5 0.765568 0.500000 0.125138
O O6 0.854830 0.760582 0.305420
O O7 0.820237 0.909255 0.143113
O O8 0.912277 0.768123 0.167566
O O9 0.750000 0.750000 0.000000
O O10 0.927064 0.000000 0.781698
O O11 0.076384 0.726947 0.410920
O O12 0.000000 0.662310 0.500000
O O13 0.403707 0.500000 0.084618
O O14 0.528469 0.401538 0.330238
#
# Coordination Sequence:
#
# PCOD8081228 Si02
#       8
#     4   4   8   4   8   4   4   8
#     4   9  16  32  54  77 102 122 168 209 268 299
#     4  12  19  31  51  69 104 136 177 201 243 290
#     4  10  18  32  51  76 105 128 171 206 248 303
#     4   9  16  27  52  79  91 127 167 216 242 305
#     4  10  22  34  48  75 106 135 168 209 248 301
#     4   8  16  32  52  75 103 120 164 209 268 295
#     4  10  18  29  53  78  95 138 159 210 256 297
#     4   9  18  32  52  76 101 135 163 208 257 299
#
# _framework density 16.923964000000002
#
# number of rings (size 3 to 8) (size 9 to 14) (size 15 to 20)
#    0.000    2.364    1.818    4.091    0.000    0.727 
#    0.000    7.273    0.000    0.545    0.000    0.000 
#    0.000    0.000    0.000    0.000    0.000    0.000 
#
# Total GULP energy -272564.832205 kJ/mol
# GULP energy per Si atom -12389.310555 kJ/mol
# Density = 1.688544 g / cm^3
# Si number density = 16.923964 Si / 1000 Ang^3
#
#
#
# Elastic Constant Matrix: (Units=GPa)
#
#
# Indices 1 2 3 4 5 6 
#
# 1 67.1523 48.3110 54.9062 0.0000 -4.3658 0.0000
# 2 48.3110 126.2813 75.9363 0.0000 0.5429 0.0000
# 3 54.9062 75.9363 124.2343 0.0000 -3.0436 0.0000
# 4 0.0000 0.0000 0.0000 35.8860 0.0000 2.2352
# 5 -4.3658 0.5429 -3.0436 0.0000 30.0225 0.0000
# 6 0.0000 0.0000 0.0000 2.2352 0.0000 11.6618
#
#
#
# Elastic Compliance Matrix: (Units=1/GPa)
#
#
# Indices 1 2 3 4 5 6 
#
# 1 0.025151 -0.004733 -0.008151 0.000000 0.002917 0.000000
# 2 -0.004733 0.013442 -0.006163 0.000000 -0.001556 0.000000
# 3 -0.008151 -0.006163 0.015431 0.000000 0.000490 0.000000
# 4 0.000000 0.000000 0.000000 0.028203 0.000000 -0.005406
# 5 0.002917 -0.001556 0.000490 0.000000 0.033810 0.000000
# 6 0.000000 0.000000 0.000000 -0.005406 0.000000 0.086786
#
#
# Mechanical properties :
#
#
# Convention : Reuss Voigt Hill
#
# Bulk Modulus (GPa) = 62.77464 75.10833 68.94149
# Shear Modulus (GPa) = 20.30655 24.74834 22.52745
#
# Velocity S-wave (km/s) = 3.46767 3.82819 3.65238
# Velocity P-wave (km/s) = 7.29422 8.00101 7.65578
#
# Compressibility (1/GPa) = 0.01593000
#
# Stress axis : x y z
#
# Youngs Moduli (GPa) = 39.76011 74.39455 64.80631
#
# Poissons Ratio (x) = 0.35210 0.52825
# Poissons Ratio (y) = 0.18818 0.39937
# Poissons Ratio (z) = 0.32410 0.45846
#
# Static dielectric constant tensor:
#      x y z
#    x 3.008880 0.000000 0.052390 
#    y 0.000000 3.245630 0.000000 
#    z 0.052390 0.000000 3.198920 
# 
# 
# High freq. dielectric constant tensor:
#      x y z
#    x 1.638240 0.000000 0.003320 
#    y 0.000000 1.644780 0.000000 
#    z 0.003320 0.000000 1.643120 
# 
# From -- ./inp_files/154752.got.cif
#   From: 2010.06.25/outbox.cif.g09.slc.cpg/sg12_78_cif.got.tgz:154752.got - 2010.06.28 00:19:55.
