data_PCOD8081004
_publ_section_title
;
Structure prediction by ZEFSAII (Michael W. Deem and Ramdas Pophale) SiO2 
 PCOD8081004
Probable space group: C 2/M
;
_chemical_formula_sum "Si O2"
_cell_formula_units_Z 64
_cell_length_a 19.166884
_cell_length_b 9.244690
_cell_length_c 23.887283
_cell_angle_alpha 90.000000
_cell_angle_beta 59.993156
_cell_angle_gamma 90.000000
_cell_volume 3665.314952
_symmetry_space_group_name_H-M "C 2/M"
_symmetry_group_IT_number 12
_symmetry_cell_setting 'monoclinic'
loop_
_space_group_symop_operation_xyz
x,y,z
-x,y,-z
-x,-y,-z
x,-y,z
1/2+x,1/2+y,z
1/2-x,1/2+y,-z
1/2-x,1/2-y,-z
1/2+x,1/2-y,z
loop_
_atom_site_type_symbol
_atom_site_label
_atom_site_fract_x
_atom_site_fract_y
_atom_site_fract_z
Si Si1 0.692321 0.330623 0.152348
Si Si2 0.416500 0.831069 0.240257
Si Si3 0.758966 0.828932 0.322263
Si Si4 0.205843 0.165026 0.565804
Si Si5 0.643344 0.667880 0.292865
Si Si6 0.308584 0.166418 0.016439
Si Si7 0.426888 0.166474 0.881196
Si Si8 0.466262 0.334197 0.327621
O O1 0.673167 0.500000 0.159948
O O2 0.686017 0.276286 0.218599
O O3 0.782692 0.294616 0.091038
O O4 0.623361 0.259977 0.142483
O O5 0.335083 0.743485 0.260288
O O6 0.477791 0.803595 0.163731
O O7 0.461346 0.774152 0.277645
O O8 0.395847 0.000000 0.255724
O O9 0.762206 0.785841 0.386181
O O10 0.677143 0.764345 0.329790
O O11 0.762823 0.000000 0.311904
O O12 0.250000 0.250000 0.500000
O O13 0.109667 0.192141 0.600879
O O14 0.227811 0.000000 0.546746
O O15 0.662708 0.500000 0.296576
O O16 0.547661 0.695523 0.329069
O O17 0.288631 0.000000 0.015498
O O18 0.250000 0.250000 0.000000
O O19 0.399580 0.199836 0.957338
O O20 0.408702 0.000000 0.873632
O O21 0.463730 0.500000 0.306037
#
# Coordination Sequence:
#
# PCOD8081004 Si02
#       8
#     8   8   8   8   8   8   8   8
#     4   9  16  26  44  67  94 130 165 199 246 295
#     4  10  18  29  48  73  98 129 169 209 249 294
#     4  10  22  37  52  73 102 132 163 202 247 292
#     4   9  19  36  57  78 100 129 161 195 237 286
#     4  10  19  32  51  75 102 132 167 206 245 291
#     4   8  14  24  37  60  93 125 159 201 246 291
#     4   9  16  25  41  67  97 125 161 208 250 291
#     4   9  18  33  52  76 105 132 163 202 242 285
#
# _framework density 17.460982000000001
#
# number of rings (size 3 to 8) (size 9 to 14) (size 15 to 20)
#    0.000    2.750    1.250    1.500    0.000    4.000 
#    0.000    0.625    0.000    4.500    0.000    5.250 
#    0.000    0.000    0.000    0.000    0.000    0.000 
#
# Total GULP energy -396466.701184 kJ/mol
# GULP energy per Si atom -12389.584412 kJ/mol
# Density = 1.742124 g / cm^3
# Si number density = 17.460982 Si / 1000 Ang^3
#
#
#
# Elastic Constant Matrix: (Units=GPa)
#
#
# Indices 1 2 3 4 5 6 
#
# 1 92.8655 36.0476 48.4667 0.0000 -6.1753 0.0003
# 2 36.0476 53.6822 35.0821 0.0000 -3.1453 0.0005
# 3 48.4667 35.0821 121.7556 0.0000 -16.8264 0.0001
# 4 0.0000 0.0000 0.0000 23.2343 0.0000 -1.2004
# 5 -6.1753 -3.1453 -16.8264 0.0000 18.9643 0.0001
# 6 0.0003 0.0005 0.0001 -1.2004 0.0001 26.8918
#
#
#
# Elastic Compliance Matrix: (Units=1/GPa)
#
#
# Indices 1 2 3 4 5 6 
#
# 1 0.016032 -0.008138 -0.003992 0.000000 0.000329 0.000000
# 2 -0.008138 0.027172 -0.004939 0.000000 -0.002525 0.000000
# 3 -0.003992 -0.004939 0.012460 0.000000 0.008937 0.000000
# 4 0.000000 0.000000 0.000000 0.043139 0.000000 0.001926
# 5 0.000329 -0.002525 0.008937 0.000000 0.060348 0.000000
# 6 0.000000 0.000000 0.000000 0.001926 0.000000 0.037272
#
#
# Mechanical properties :
#
#
# Convention : Reuss Voigt Hill
#
# Bulk Modulus (GPa) = 46.45084 56.38846 51.41965
# Shear Modulus (GPa) = 21.03166 23.73187 22.38177
#
# Velocity S-wave (km/s) = 3.47435 3.69065 3.58413
# Velocity P-wave (km/s) = 6.53875 7.10811 6.82937
#
# Compressibility (1/GPa) = 0.02152813
#
# Stress axis : x y z
#
# Youngs Moduli (GPa) = 62.37450 36.80211 80.25553
#
# Poissons Ratio (x) = 0.29949 0.32035
# Poissons Ratio (y) = 0.50759 0.39638
# Poissons Ratio (z) = 0.24897 0.18176
#
# Static dielectric constant tensor:
#      x y z
#    x 3.006040 0.000000 -0.287980 
#    y 0.000000 3.236700 0.000000 
#    z -0.287980 0.000000 3.558030 
# 
# 
# High freq. dielectric constant tensor:
#      x y z
#    x 1.640740 0.000000 -0.024660 
#    y 0.000000 1.677220 0.000000 
#    z -0.024660 0.000000 1.677190 
# 
# From -- ./inp_files/345549.got.cif
#   From: 2010.06.25/outbox.cif.g09.slc.cpg/sg12_173_cif.got.tgz:345549.got - 2010.06.28 00:19:55.
