data_PCOD8081030
_publ_section_title
;
Structure prediction by ZEFSAII (Michael W. Deem and Ramdas Pophale) SiO2 
 PCOD8081030
Probable space group: C 2/M
;
_chemical_formula_sum "Si O2"
_cell_formula_units_Z 56
_cell_length_a 19.495182
_cell_length_b 14.852505
_cell_length_c 18.395346
_cell_angle_alpha 90.000000
_cell_angle_beta 30.071724
_cell_angle_gamma 90.000000
_cell_volume 2668.979582
_symmetry_space_group_name_H-M "C 2/M"
_symmetry_group_IT_number 12
_symmetry_cell_setting 'monoclinic'
loop_
_space_group_symop_operation_xyz
x,y,z
-x,y,-z
-x,-y,-z
x,-y,z
1/2+x,1/2+y,z
1/2-x,1/2+y,-z
1/2-x,1/2-y,-z
1/2+x,1/2-y,z
loop_
_atom_site_type_symbol
_atom_site_label
_atom_site_fract_x
_atom_site_fract_y
_atom_site_fract_z
Si Si1 0.607079 0.397439 0.034248
Si Si2 0.498505 0.772292 0.190539
Si Si3 0.711113 0.102530 0.553242
Si Si4 0.816013 0.601903 0.718490
Si Si5 0.098443 0.330425 0.505688
Si Si6 0.506564 0.669537 0.663653
Si Si7 0.241280 0.599466 0.953229
O O1 0.547186 0.500000 0.083306
O O2 0.487540 0.321303 0.153604
O O3 0.307211 0.370320 0.115473
O O4 0.706682 0.390108 0.012011
O O5 0.360637 0.833141 0.319959
O O6 0.531214 0.747318 0.243504
O O7 0.622483 0.830332 0.044288
O O8 0.685496 0.139652 0.495838
O O9 0.873507 0.104523 0.417450
O O10 0.658155 0.000000 0.609388
O O11 0.796091 0.500000 0.711899
O O12 0.809951 0.661260 0.650857
O O13 0.961650 0.609703 0.625495
O O14 0.054258 0.224832 0.549130
O O15 0.367598 0.612800 0.780561
O O16 0.181074 0.500000 0.996476
#
# Coordination Sequence:
#
# PCOD8081030 Si02
#       7
#     8   8   8   8   8   8   8
#     4   9  17  28  45  70 101 130 161 202 254 309
#     4  10  18  31  49  74 101 133 174 217 256 304
#     4  11  21  34  53  78 107 139 173 217 264 307
#     4  10  18  29  48  77 108 140 173 209 256 315
#     4  10  18  30  48  74 107 141 174 210 254 311
#     4  10  20  33  49  73 107 139 170 212 262 313
#     4  10  18  30  50  75 102 135 172 217 262 300
#
# _framework density 20.981801999999998
#
# number of rings (size 3 to 8) (size 9 to 14) (size 15 to 20)
#    0.000    2.000    0.000    8.571    0.000    1.714 
#    0.000    0.000    0.000    7.714    0.000   45.000 
#    0.000    0.000    0.000    0.000    0.000    0.000 
#
# Total GULP energy -346995.577399 kJ/mol
# GULP energy per Si atom -12392.699193 kJ/mol
# Density = 2.093405 g / cm^3
# Si number density = 20.981802 Si / 1000 Ang^3
#
#
#
# Elastic Constant Matrix: (Units=GPa)
#
#
# Indices 1 2 3 4 5 6 
#
# 1 44.1746 25.5153 31.3846 -0.0006 20.4857 0.0002
# 2 25.5153 124.4159 51.0793 -0.0010 21.8331 0.0003
# 3 31.3846 51.0793 94.4988 -0.0021 9.5220 0.0007
# 4 -0.0006 -0.0010 -0.0021 36.4192 0.0004 6.9111
# 5 20.4857 21.8331 9.5220 0.0004 30.8187 -0.0002
# 6 0.0002 0.0003 0.0007 6.9111 -0.0002 20.9994
#
#
#
# Elastic Compliance Matrix: (Units=1/GPa)
#
#
# Indices 1 2 3 4 5 6 
#
# 1 0.042219 0.000545 -0.011817 0.000000 -0.024798 0.000000
# 2 0.000545 0.011438 -0.005688 0.000000 -0.006708 0.000000
# 3 -0.011817 -0.005688 0.016910 0.000001 0.006660 -0.000001
# 4 0.000000 0.000000 0.000001 0.029287 -0.000001 -0.009639
# 5 -0.024798 -0.006708 0.006660 -0.000001 0.051626 0.000001
# 6 0.000000 0.000000 -0.000001 -0.009639 0.000001 0.050793
#
#
# Mechanical properties :
#
#
# Convention : Reuss Voigt Hill
#
# Bulk Modulus (GPa) = 27.28744 53.22755 40.25749
# Shear Modulus (GPa) = 20.12814 27.98812 24.05813
#
# Velocity S-wave (km/s) = 3.10064 3.65625 3.38985
# Velocity P-wave (km/s) = 5.08450 6.57630 5.87792
#
# Compressibility (1/GPa) = 0.03664690
#
# Stress axis : x y z
#
# Youngs Moduli (GPa) = 23.68630 87.42744 59.13588
#
# Poissons Ratio (x) = -0.04767 0.69883
# Poissons Ratio (y) = -0.01291 0.33635
# Poissons Ratio (z) = 0.27991 0.49726
#
# Static dielectric constant tensor:
#      x y z
#    x 3.266960 0.000000 0.271390 
#    y 0.000000 4.119750 0.000000 
#    z 0.271390 0.000000 3.920730 
# 
# 
# High freq. dielectric constant tensor:
#      x y z
#    x 1.752810 0.000000 0.013290 
#    y 0.000000 1.828440 0.000000 
#    z 0.013290 0.000000 1.831490 
# 
# From -- ./inp_files/316671.got.cif
#   From: 2010.06.25/outbox.cif.g09.slc.cpg/sg12_159_cif.got.tgz:316671.got - 2010.06.28 00:19:55.
