data_PCOD8081433
_publ_section_title
;
Structure prediction by ZEFSAII (Michael W. Deem and Ramdas Pophale) SiO2 
 PCOD8081433
Probable space group: C 2/M
;
_chemical_formula_sum "Si O2"
_cell_formula_units_Z 56
_cell_length_a 23.837141
_cell_length_b 9.179681
_cell_length_c 23.772438
_cell_angle_alpha 90.000000
_cell_angle_beta 36.417539
_cell_angle_gamma 90.000000
_cell_volume 3088.140882
_symmetry_space_group_name_H-M "C 2/M"
_symmetry_group_IT_number 12
_symmetry_cell_setting 'monoclinic'
loop_
_space_group_symop_operation_xyz
x,y,z
-x,y,-z
-x,-y,-z
x,-y,z
1/2+x,1/2+y,z
1/2-x,1/2+y,-z
1/2-x,1/2-y,-z
1/2+x,1/2-y,z
loop_
_atom_site_type_symbol
_atom_site_label
_atom_site_fract_x
_atom_site_fract_y
_atom_site_fract_z
Si Si1 0.119662 0.828732 0.700895
Si Si2 0.979222 0.170164 0.331175
Si Si3 0.168087 0.826920 0.235366
Si Si4 0.895882 0.828007 0.592101
Si Si5 0.189880 0.172354 0.455148
Si Si6 0.643166 0.327579 0.915362
Si Si7 0.949670 0.172448 0.123797
O O1 0.039149 0.795282 0.719482
O O2 0.214363 0.750709 0.603598
O O3 0.084681 0.763069 0.788759
O O4 0.140105 0.000000 0.688382
O O5 0.895083 0.234307 0.437722
O O6 0.081663 0.231694 0.266453
O O7 0.981000 0.000000 0.342595
O O8 0.149829 0.770459 0.313508
O O9 0.264028 0.752617 0.136537
O O10 0.179839 0.000000 0.222226
O O11 0.830080 0.782933 0.593212
O O12 0.000000 0.759051 0.500000
O O13 0.906993 0.000000 0.587012
O O14 0.202488 0.000000 0.452466
O O15 0.658202 0.500000 0.906330
O O16 0.620203 0.277087 0.869823
O O17 0.556536 0.276252 0.024828
O O18 0.949772 0.000000 0.126415
#
# Coordination Sequence:
#
# PCOD8081433 Si02
#       7
#     8   8   8   8   8   8   8
#     4  10  19  32  49  68  90 122 159 192 225 269
#     4   9  18  31  47  66  94 128 157 182 220 277
#     4  10  18  30  48  71  95 122 154 188 225 269
#     4   9  15  26  46  67  90 121 153 180 215 269
#     4  10  18  30  48  70  93 122 156 190 226 268
#     4   9  17  32  52  71  90 118 152 190 234 278
#     4   8  16  32  52  69  90 120 154 187 229 282
#
# _framework density 18.133887000000001
#
# number of rings (size 3 to 8) (size 9 to 14) (size 15 to 20)
#    0.000    2.714    1.429    2.143    0.000    0.000 
#    0.000    4.286    0.000    0.857    0.000    0.000 
#    0.000    0.000    0.000    0.000    0.000    0.000 
#
# Total GULP energy -347114.439604 kJ/mol
# GULP energy per Si atom -12396.944272 kJ/mol
# Density = 1.809261 g / cm^3
# Si number density = 18.133887 Si / 1000 Ang^3
#
#
#
# Elastic Constant Matrix: (Units=GPa)
#
#
# Indices 1 2 3 4 5 6 
#
# 1 111.1913 25.7804 62.2308 0.0000 -13.0463 0.0000
# 2 25.7804 23.9051 24.3089 0.0001 -7.6794 -0.0001
# 3 62.2308 24.3089 116.5192 0.0002 -19.3875 0.0000
# 4 0.0000 0.0001 0.0002 24.3692 0.0000 -8.3368
# 5 -13.0463 -7.6794 -19.3875 0.0000 32.3356 0.0000
# 6 0.0000 -0.0001 0.0000 -8.3368 0.0000 16.8477
#
#
#
# Elastic Compliance Matrix: (Units=1/GPa)
#
#
# Indices 1 2 3 4 5 6 
#
# 1 0.014439 -0.009789 -0.005650 0.000000 0.000113 0.000000
# 2 -0.009789 0.061045 -0.006389 0.000000 0.006717 0.000000
# 3 -0.005650 -0.006389 0.013664 0.000000 0.004396 0.000000
# 4 0.000000 0.000000 0.000000 0.049398 0.000000 0.024443
# 5 0.000113 0.006717 0.004396 0.000000 0.035202 0.000000
# 6 0.000000 0.000000 0.000000 0.024443 0.000000 0.071450
#
#
# Mechanical properties :
#
#
# Convention : Reuss Voigt Hill
#
# Bulk Modulus (GPa) = 21.98318 52.91729 37.45023
# Shear Modulus (GPa) = 16.44630 23.99688 20.22159
#
# Velocity S-wave (km/s) = 3.01481 3.64169 3.34297
# Velocity P-wave (km/s) = 4.92623 6.85035 5.96637
#
# Compressibility (1/GPa) = 0.04548933
#
# Stress axis : x y z
#
# Youngs Moduli (GPa) = 69.25744 16.38143 73.18250
#
# Poissons Ratio (x) = 0.16037 0.41351
# Poissons Ratio (y) = 0.67799 0.46760
# Poissons Ratio (z) = 0.39134 0.10467
#
# Static dielectric constant tensor:
#      x y z
#    x 3.495990 0.000000 0.066150 
#    y 0.000000 2.799300 0.000000 
#    z 0.066150 0.000000 3.493540 
# 
# 
# High freq. dielectric constant tensor:
#      x y z
#    x 1.706980 0.000000 -0.004990 
#    y 0.000000 1.649340 0.000000 
#    z -0.004990 0.000000 1.704460 
# 
# From -- ./inp_files/164933.got.cif
#   From: 2010.06.25/outbox.cif.g09.slc.cpg/sg12_83_cif.got.tgz:164933.got - 2010.06.28 00:19:55.
