data_PCOD8081524
_publ_section_title
;
Structure prediction by ZEFSAII (Michael W. Deem and Ramdas Pophale) SiO2 
 PCOD8081524
Probable space group: C 2/M
;
_chemical_formula_sum "Si O2"
_cell_formula_units_Z 64
_cell_length_a 20.832684
_cell_length_b 9.160223
_cell_length_c 20.074141
_cell_angle_alpha 90.000000
_cell_angle_beta 103.397210
_cell_angle_gamma 90.000000
_cell_volume 3726.542457
_symmetry_space_group_name_H-M "C 2/M"
_symmetry_group_IT_number 12
_symmetry_cell_setting 'monoclinic'
loop_
_space_group_symop_operation_xyz
x,y,z
-x,y,-z
-x,-y,-z
x,-y,z
1/2+x,1/2+y,z
1/2-x,1/2+y,-z
1/2-x,1/2-y,-z
1/2+x,1/2-y,z
loop_
_atom_site_type_symbol
_atom_site_label
_atom_site_fract_x
_atom_site_fract_y
_atom_site_fract_z
Si Si1 0.798831 0.827772 0.461562
Si Si2 0.050776 0.673467 0.957139
Si Si3 0.035133 0.327257 0.181192
Si Si4 0.071983 0.672335 0.332820
Si Si5 0.556130 0.672253 0.462715
Si Si6 0.214489 0.672137 0.321585
Si Si7 0.176715 0.326480 0.172884
Si Si8 0.695318 0.173624 0.030430
O O1 0.750000 0.750000 0.500000
O O2 0.873481 0.775716 0.491081
O O3 0.777373 0.781379 0.381178
O O4 0.791242 0.000000 0.470191
O O5 0.051067 0.500000 0.961753
O O6 0.026659 0.727925 0.878023
O O7 0.124282 0.731159 0.988036
O O8 0.000000 0.735738 0.000000
O O9 0.039584 0.500000 0.178615
O O10 0.028970 0.281415 0.257329
O O11 0.102682 0.265099 0.165416
O O12 0.069159 0.500000 0.345009
O O13 0.041262 0.753406 0.388619
O O14 0.147022 0.728454 0.339900
O O15 0.500000 0.724857 0.500000
O O16 0.554210 0.500000 0.451944
O O17 0.207748 0.500000 0.316036
O O18 0.220839 0.730047 0.246630
O O19 0.174292 0.500000 0.170565
O O20 0.205475 0.272358 0.109298
O O21 0.701628 0.000000 0.025084
O O22 0.750000 0.250000 0.000000
#
# Coordination Sequence:
#
# PCOD8081524 Si02
#       8
#     8   8   8   8   8   8   8   8
#     4  10  18  30  49  70  92 118 154 197 232 269
#     4   9  14  24  45  73  95 115 155 201 231 260
#     4   8  13  23  44  73  95 110 147 204 240 260
#     4   9  16  28  48  72  94 116 149 196 240 273
#     4  10  21  34  46  65  97 131 156 182 226 285
#     4   8  14  25  45  71  91 109 147 199 236 261
#     4   8  13  24  43  68  92 115 149 192 230 267
#     4  10  19  30  47  70  98 128 155 188 230 277
#
# _framework density 17.174097
#
# number of rings (size 3 to 8) (size 9 to 14) (size 15 to 20)
#    0.000    3.000    2.500    1.500    0.000    0.250 
#    0.000    1.250    0.000    6.375    0.000    0.000 
#    0.000    0.000    0.000    0.000    0.000    0.000 
#
# Total GULP energy -396501.485792 kJ/mol
# GULP energy per Si atom -12390.671431 kJ/mol
# Density = 1.713501 g / cm^3
# Si number density = 17.174097 Si / 1000 Ang^3
#
#
#
# Elastic Constant Matrix: (Units=GPa)
#
#
# Indices 1 2 3 4 5 6 
#
# 1 114.6519 21.4863 84.7151 0.0000 -2.3789 0.0000
# 2 21.4863 14.3043 27.2169 0.0000 -2.6888 0.0000
# 3 84.7151 27.2169 186.6991 0.0000 0.6870 0.0000
# 4 0.0000 0.0000 0.0000 18.2021 0.0000 -5.1745
# 5 -2.3789 -2.6888 0.6870 0.0000 29.7275 0.0000
# 6 0.0000 0.0000 0.0000 -5.1745 0.0000 16.9037
#
#
#
# Elastic Compliance Matrix: (Units=1/GPa)
#
#
# Indices 1 2 3 4 5 6 
#
# 1 0.014677 -0.012942 -0.004773 0.000000 0.000114 0.000000
# 2 -0.012942 0.110668 -0.010295 0.000000 0.009212 0.000000
# 3 -0.004773 -0.010295 0.009028 0.000000 -0.001522 0.000000
# 4 0.000000 0.000000 0.000000 0.060175 0.000000 0.018421
# 5 0.000114 0.009212 -0.001522 0.000000 0.034516 0.000000
# 6 0.000000 0.000000 0.000000 0.018421 0.000000 0.064798
#
#
# Mechanical properties :
#
#
# Convention : Reuss Voigt Hill
#
# Bulk Modulus (GPa) = 12.76271 64.72134 38.74202
# Shear Modulus (GPa) = 13.29787 25.11580 19.20684
#
# Velocity S-wave (km/s) = 2.78564 3.82831 3.34782
# Velocity P-wave (km/s) = 4.21828 7.57024 6.12791
#
# Compressibility (1/GPa) = 0.07835325
#
# Stress axis : x y z
#
# Youngs Moduli (GPa) = 68.13463 9.03605 110.76067
#
# Poissons Ratio (x) = 0.11694 0.52870
# Poissons Ratio (y) = 0.88180 1.14023
# Poissons Ratio (z) = 0.32523 0.09302
#
# Static dielectric constant tensor:
#      x y z
#    x 3.183450 0.000000 0.329580 
#    y 0.000000 2.662400 0.000000 
#    z 0.329580 0.000000 3.901930 
# 
# 
# High freq. dielectric constant tensor:
#      x y z
#    x 1.639150 0.000000 0.013420 
#    y 0.000000 1.605080 0.000000 
#    z 0.013420 0.000000 1.685300 
# 
# From -- ./inp_files/276523.got.cif
#   From: 2010.06.25/outbox.cif.g09.slc.cpg/sg12_139_cif.got.tgz:276523.got - 2010.06.28 00:19:55.
