data_PCOD8081373
_publ_section_title
;
Structure prediction by ZEFSAII (Michael W. Deem and Ramdas Pophale) SiO2 
 PCOD8081373
Probable space group: C 2/M
;
_chemical_formula_sum "Si O2"
_cell_formula_units_Z 56
_cell_length_a 31.386983
_cell_length_b 13.088468
_cell_length_c 9.105825
_cell_angle_alpha 90.000000
_cell_angle_beta 121.437740
_cell_angle_gamma 90.000000
_cell_volume 3191.628363
_symmetry_space_group_name_H-M "C 2/M"
_symmetry_group_IT_number 12
_symmetry_cell_setting 'monoclinic'
loop_
_space_group_symop_operation_xyz
x,y,z
-x,y,-z
-x,-y,-z
x,-y,z
1/2+x,1/2+y,z
1/2-x,1/2+y,-z
1/2-x,1/2-y,-z
1/2+x,1/2-y,z
loop_
_atom_site_type_symbol
_atom_site_label
_atom_site_fract_x
_atom_site_fract_y
_atom_site_fract_z
Si Si1 0.643830 0.716320 0.407294
Si Si2 0.557180 0.621659 0.075401
Si Si3 0.614860 0.385415 0.908993
Si Si4 0.669287 0.617361 0.740815
Si Si5 0.807966 0.616961 0.342569
Si Si6 0.780790 0.619035 0.964278
Si Si7 0.797572 0.793598 0.778214
O O1 0.589288 0.688004 0.248345
O O2 0.658369 0.628845 0.550055
O O3 0.644914 0.822968 0.501187
O O4 0.686143 0.723608 0.359851
O O5 0.568241 0.500000 0.113520
O O6 0.500000 0.647971 0.000000
O O7 0.571864 0.662173 0.937285
O O8 0.597228 0.500000 0.850734
O O9 0.626049 0.332589 0.769712
O O10 0.667163 0.381465 0.091447
O O11 0.670546 0.500000 0.787257
O O12 0.723913 0.661575 0.881400
O O13 0.811623 0.500000 0.396098
O O14 0.758522 0.666725 0.321502
O O15 0.809844 0.631254 0.170265
O O16 0.781072 0.500000 0.914557
O O17 0.806153 0.687410 0.883212
#
# Coordination Sequence:
#
# PCOD8081373 Si02
#       7
#     8   8   8   8   8   8   8
#     4  11  22  32  48  75 101 133 164 211 255 294
#     4   9  19  37  57  75  97 126 164 211 260 305
#     4   9  17  30  51  73  98 134 168 197 240 297
#     4  10  18  30  47  72 102 135 170 200 238 291
#     4  11  21  32  46  69 102 137 170 201 236 286
#     4  10  20  32  48  68 100 144 177 201 233 283
#     4  11  19  32  46  70 102 139 171 199 239 286
#
# _framework density 17.545902000000002
#
# number of rings (size 3 to 8) (size 9 to 14) (size 15 to 20)
#    0.000    1.857    2.857    2.571    0.000    2.286 
#    0.000    0.714    0.000    3.857    0.000    0.000 
#    0.000   10.286    0.000    0.000    0.000    0.000 
#
# Total GULP energy -346900.192729 kJ/mol
# GULP energy per Si atom -12389.292597 kJ/mol
# Density = 1.750597 g / cm^3
# Si number density = 17.545902 Si / 1000 Ang^3
#
#
#
# Elastic Constant Matrix: (Units=GPa)
#
#
# Indices 1 2 3 4 5 6 
#
# 1 107.7006 34.8126 60.5400 0.0000 -14.8138 0.0000
# 2 34.8126 64.1508 31.3994 0.0000 1.5885 0.0000
# 3 60.5400 31.3994 92.5070 0.0000 -16.9625 0.0000
# 4 0.0000 0.0000 0.0000 30.5895 0.0000 -2.4421
# 5 -14.8138 1.5885 -16.9625 0.0000 29.7274 0.0000
# 6 0.0000 0.0000 0.0000 -2.4421 0.0000 15.8871
#
#
#
# Elastic Compliance Matrix: (Units=1/GPa)
#
#
# Indices 1 2 3 4 5 6 
#
# 1 0.015868 -0.004714 -0.008140 0.000000 0.003514 0.000000
# 2 -0.004714 0.020831 -0.005160 0.000000 -0.006407 0.000000
# 3 -0.008140 -0.005160 0.019205 0.000000 0.007178 0.000000
# 4 0.000000 0.000000 0.000000 0.033097 0.000000 0.005087
# 5 0.003514 -0.006407 0.007178 0.000000 0.039828 0.000000
# 6 0.000000 0.000000 0.000000 0.005087 0.000000 0.063726
#
#
# Mechanical properties :
#
#
# Convention : Reuss Voigt Hill
#
# Bulk Modulus (GPa) = 50.31459 57.54025 53.92742
# Shear Modulus (GPa) = 21.25780 24.41457 22.83618
#
# Velocity S-wave (km/s) = 3.48451 3.73429 3.61156
# Velocity P-wave (km/s) = 6.70279 7.17346 6.94211
#
# Compressibility (1/GPa) = 0.01987495
#
# Stress axis : x y z
#
# Youngs Moduli (GPa) = 63.02149 48.00608 52.07021
#
# Poissons Ratio (x) = 0.22628 0.42385
# Poissons Ratio (y) = 0.29706 0.26871
# Poissons Ratio (z) = 0.51300 0.24773
#
# Static dielectric constant tensor:
#      x y z
#    x 3.307820 0.000000 -0.350720 
#    y 0.000000 3.288130 0.000000 
#    z -0.350720 0.000000 3.171710 
# 
# 
# High freq. dielectric constant tensor:
#      x y z
#    x 1.659140 0.000000 -0.036940 
#    y 0.000000 1.665900 0.000000 
#    z -0.036940 0.000000 1.665200 
# 
# From -- ./inp_files/104711.got.cif
#   From: 2010.06.25/outbox.cif.g09.slc.cpg/sg12_53_cif.got.tgz:104711.got - 2010.06.28 00:19:55.
