data_PCOD8081521
_publ_section_title
;
Structure prediction by ZEFSAII (Michael W. Deem and Ramdas Pophale) SiO2 
 PCOD8081521
Probable space group: C 2/M
;
_chemical_formula_sum "Si O2"
_cell_formula_units_Z 40
_cell_length_a 5.292227
_cell_length_b 14.472856
_cell_length_c 22.184356
_cell_angle_alpha 90.000000
_cell_angle_beta 83.149601
_cell_angle_gamma 90.000000
_cell_volume 1687.050065
_symmetry_space_group_name_H-M "C 2/M"
_symmetry_group_IT_number 12
_symmetry_cell_setting 'monoclinic'
loop_
_space_group_symop_operation_xyz
x,y,z
-x,y,-z
-x,-y,-z
x,-y,z
1/2+x,1/2+y,z
1/2-x,1/2+y,-z
1/2-x,1/2-y,-z
1/2+x,1/2-y,z
loop_
_atom_site_type_symbol
_atom_site_label
_atom_site_fract_x
_atom_site_fract_y
_atom_site_fract_z
Si Si1 0.335311 0.890352 0.329384
Si Si2 0.938624 0.149378 0.122714
Si Si3 0.464200 0.855251 0.071563
Si Si4 0.129825 0.890022 0.740345
Si Si5 0.733082 0.110240 0.533836
O O1 0.604284 0.855404 0.295476
O O2 0.301169 0.851038 0.397662
O O3 0.100248 0.855405 0.295475
O O4 0.334316 0.000000 0.331376
O O5 0.698655 0.095811 0.099969
O O6 0.954565 0.248659 0.090776
O O7 0.902546 0.159706 0.194911
O O8 0.201328 0.095811 0.099961
O O9 0.500000 0.867034 0.000000
O O10 0.125282 0.000000 0.749434
O O11 0.500000 0.147828 0.500000
O O12 0.000000 0.147828 0.500000
O O13 0.733176 0.000000 0.533650
#
# Coordination Sequence:
#
# PCOD8081521 Si02
#       5
#     8   8   8   8   8
#     4   9  17  28  40  58  87 123 156 181 214 260
#     4  10  18  30  49  70  89 115 148 181 217 269
#     4  10  19  33  53  71  88 111 141 186 236 269
#     4  10  19  30  44  63  92 127 153 174 210 267
#     4   9  15  23  37  56  78 110 153 192 218 244
#
# _framework density 23.710025000000002
#
# number of rings (size 3 to 8) (size 9 to 14) (size 15 to 20)
#    0.000    2.400    0.000    5.400    0.000    4.800 
#    0.000    0.000    0.000    6.600    0.000    0.000 
#    0.000    0.000    0.000  252.000    0.000  112.000 
#
# Total GULP energy -247937.848878 kJ/mol
# GULP energy per Si atom -12396.892444 kJ/mol
# Density = 2.365606 g / cm^3
# Si number density = 23.710025 Si / 1000 Ang^3
#
#
#
# Elastic Constant Matrix: (Units=GPa)
#
#
# Indices 1 2 3 4 5 6 
#
# 1 305.5365 -8.8635 133.6427 0.0000 -0.1710 0.0000
# 2 -8.8635 17.2014 -6.0384 0.0000 0.0088 0.0000
# 3 133.6427 -6.0384 251.2933 0.0000 0.0045 0.0000
# 4 0.0000 0.0000 0.0000 -448.7047 0.0000 -1.3026
# 5 -0.1710 0.0088 0.0045 0.0000 57.5891 0.0000
# 6 0.0000 0.0000 0.0000 -1.3026 0.0000 -11.4164
#
#
#
# Elastic Compliance Matrix: (Units=1/GPa)
#
#
# Indices 1 2 3 4 5 6 
#
# 1 0.004299 0.001425 -0.002252 0.000000 0.000013 0.000000
# 2 0.001425 0.059101 0.000662 0.000000 -0.000005 0.000000
# 3 -0.002252 0.000662 0.005193 0.000000 -0.000007 0.000000
# 4 0.000000 0.000000 0.000000 -0.002229 0.000000 0.000254
# 5 0.000013 -0.000005 -0.000007 0.000000 0.017364 0.000000
# 6 0.000000 0.000000 0.000000 0.000254 0.000000 -0.087623
#
#
# Mechanical properties :
#
#
# Convention : Reuss Voigt Hill
#
# Bulk Modulus (GPa) = 14.64904 90.16809 52.40856
# Shear Modulus (GPa) = 260.53617 -50.15369 105.19124
#
# Velocity S-wave (km/s) = 10.49395 -4.60422 6.66799
# Velocity P-wave (km/s) = 12.37022 3.13798 9.02412
#
# Compressibility (1/GPa) = 0.06826387
#
# Stress axis : x y z
#
# Youngs Moduli (GPa) = 232.58917 16.92006 192.56170
#
# Poissons Ratio (x) = -0.02411 0.43370
# Poissons Ratio (y) = -0.33138 -0.12757
# Poissons Ratio (z) = 0.52386 -0.01121
#
# Static dielectric constant tensor:
#      x y z
#    x 31.312790 0.000000 -0.081100 
#    y 0.000000 3.463180 0.000000 
#    z -0.081100 0.000000 4.256010 
# 
# 
# High freq. dielectric constant tensor:
#      x y z
#    x 1.971610 0.000000 -0.000070 
#    y 0.000000 1.888370 0.000000 
#    z -0.000070 0.000000 1.948100 
# 
# From -- ./inp_files/252797.got.cif
#   From: 2010.06.25/outbox.cif.g09.slc.cpg/sg12_127_cif.got.tgz:252797.got - 2010.06.28 00:19:55.
