data_PCOD8081686
_publ_section_title
;
Structure prediction by ZEFSAII (Michael W. Deem and Ramdas Pophale) SiO2 
 PCOD8081686
Probable space group: C 2/M
;
_chemical_formula_sum "Si O2"
_cell_formula_units_Z 64
_cell_length_a 23.429073
_cell_length_b 8.949865
_cell_length_c 16.944155
_cell_angle_alpha 90.000000
_cell_angle_beta 85.787198
_cell_angle_gamma 90.000000
_cell_volume 3543.369904
_symmetry_space_group_name_H-M "C 2/M"
_symmetry_group_IT_number 12
_symmetry_cell_setting 'monoclinic'
loop_
_space_group_symop_operation_xyz
x,y,z
-x,y,-z
-x,-y,-z
x,-y,z
1/2+x,1/2+y,z
1/2-x,1/2+y,-z
1/2-x,1/2-y,-z
1/2+x,1/2-y,z
loop_
_atom_site_type_symbol
_atom_site_label
_atom_site_fract_x
_atom_site_fract_y
_atom_site_fract_z
Si Si1 0.381813 0.673901 0.096927
Si Si2 0.699472 0.322831 0.751979
Si Si3 0.527404 0.835138 0.824086
Si Si4 0.487733 0.672100 0.409620
Si Si5 0.316556 0.322452 0.782102
Si Si6 0.431645 0.178785 0.721769
Si Si7 0.693120 0.675692 0.037181
Si Si8 0.608574 0.168593 0.665177
O O1 0.390850 0.500000 0.101240
O O2 0.334368 0.724618 0.165390
O O3 0.444629 0.740798 0.107991
O O4 0.360109 0.725098 0.012853
O O5 0.706794 0.500000 0.744140
O O6 0.760527 0.243860 0.747351
O O7 0.666335 0.259885 0.678774
O O8 0.466980 0.772041 0.797301
O O9 0.569776 0.835848 0.746196
O O10 0.518562 0.000000 0.859231
O O11 0.500000 0.686520 0.500000
O O12 0.486771 0.500000 0.381675
O O13 0.537438 0.759911 0.359032
O O14 0.425729 0.745566 0.399908
O O15 0.317065 0.500000 0.772961
O O16 0.369607 0.251545 0.731041
O O17 0.319938 0.272064 0.873013
O O18 0.428380 0.000000 0.716427
O O19 0.702888 0.500000 0.030630
O O20 0.750000 0.750000 0.000000
O O21 0.623622 0.000000 0.636179
#
# Coordination Sequence:
#
# PCOD8081686 Si02
#       8
#     8   8   8   8   8   8   8   8
#     4   9  17  29  47  71  97 128 171 219 266 309
#     4  10  18  30  50  74 103 138 178 221 264 310
#     4   8  16  30  48  70  95 128 169 213 259 303
#     4  10  20  35  58  87 114 138 168 208 255 307
#     4  11  22  34  51  74 104 141 179 221 270 319
#     4  10  21  37  55  76 105 139 177 215 257 315
#     4  10  20  33  48  71 101 135 177 223 270 315
#     4   9  17  30  50  78 109 137 173 214 253 303
#
# _framework density 18.061902
#
# number of rings (size 3 to 8) (size 9 to 14) (size 15 to 20)
#    0.000    2.375    1.250    2.625    0.000    6.000 
#    0.000    0.625    0.000    4.500    0.000    0.000 
#    0.000    0.000    0.000    0.000    0.000    0.000 
#
# Total GULP energy -396742.404341 kJ/mol
# GULP energy per Si atom -12398.200136 kJ/mol
# Density = 1.802079 g / cm^3
# Si number density = 18.061902 Si / 1000 Ang^3
#
#
#
# Elastic Constant Matrix: (Units=GPa)
#
#
# Indices 1 2 3 4 5 6 
#
# 1 123.3421 54.7567 48.5100 0.0000 18.4398 0.0000
# 2 54.7567 86.7937 36.9763 0.0000 9.6183 0.0000
# 3 48.5100 36.9763 65.9375 0.0000 17.9949 0.0000
# 4 0.0000 0.0000 0.0000 21.5591 0.0000 7.7116
# 5 18.4398 9.6183 17.9949 0.0000 25.7536 0.0000
# 6 0.0000 0.0000 0.0000 7.7116 0.0000 34.8196
#
#
#
# Elastic Compliance Matrix: (Units=1/GPa)
#
#
# Indices 1 2 3 4 5 6 
#
# 1 0.013376 -0.005604 -0.005752 0.000000 -0.003465 0.000000
# 2 -0.005604 0.017488 -0.006174 0.000000 0.001795 0.000000
# 3 -0.005752 -0.006174 0.026080 0.000000 -0.011798 0.000000
# 4 0.000000 0.000000 0.000000 0.050375 0.000000 -0.011157
# 5 -0.003465 0.001795 -0.011798 0.000000 0.048884 0.000000
# 6 0.000000 0.000000 0.000000 -0.011157 0.000000 0.031190
#
#
# Mechanical properties :
#
#
# Convention : Reuss Voigt Hill
#
# Bulk Modulus (GPa) = 45.69699 61.83992 53.76845
# Shear Modulus (GPa) = 21.76288 25.48181 23.62235
#
# Velocity S-wave (km/s) = 3.47494 3.76014 3.62035
# Velocity P-wave (km/s) = 6.43859 7.29134 6.87819
#
# Compressibility (1/GPa) = 0.02188328
#
# Stress axis : x y z
#
# Youngs Moduli (GPa) = 74.76241 57.18059 38.34331
#
# Poissons Ratio (x) = 0.32043 0.22056
# Poissons Ratio (y) = 0.41896 0.23674
# Poissons Ratio (z) = 0.43006 0.35305
#
# Static dielectric constant tensor:
#      x y z
#    x 4.037950 0.000000 0.890390 
#    y 0.000000 3.462580 0.000000 
#    z 0.890390 0.000000 3.717240 
# 
# 
# High freq. dielectric constant tensor:
#      x y z
#    x 1.697940 0.000000 0.029030 
#    y 0.000000 1.709260 0.000000 
#    z 0.029030 0.000000 1.666740 
# 
# From -- ./inp_files/281384.got.cif
#   From: 2010.06.25/outbox.cif.g09.slc.cpg/sg12_141_cif.got.tgz:281384.got - 2010.06.28 00:19:55.
