data_PCOD8081777
_publ_section_title
;
Structure prediction by ZEFSAII (Michael W. Deem and Ramdas Pophale) SiO2 
 PCOD8081777
Probable space group: C 2/M
;
_chemical_formula_sum "Si O2"
_cell_formula_units_Z 56
_cell_length_a 5.189529
_cell_length_b 31.982860
_cell_length_c 18.932874
_cell_angle_alpha 90.000000
_cell_angle_beta 90.106635
_cell_angle_gamma 90.000000
_cell_volume 3142.396864
_symmetry_space_group_name_H-M "C 2/M"
_symmetry_group_IT_number 12
_symmetry_cell_setting 'monoclinic'
loop_
_space_group_symop_operation_xyz
x,y,z
-x,y,-z
-x,-y,-z
x,-y,z
1/2+x,1/2+y,z
1/2-x,1/2+y,-z
1/2-x,1/2-y,-z
1/2+x,1/2-y,z
loop_
_atom_site_type_symbol
_atom_site_label
_atom_site_fract_x
_atom_site_fract_y
_atom_site_fract_z
Si Si1 0.756263 0.398992 0.185485
Si Si2 0.745005 0.590644 0.628197
Si Si3 0.243930 0.857433 0.771032
Si Si4 0.281337 0.223013 0.687701
Si Si5 0.244515 0.548915 0.671302
Si Si6 0.249937 0.671598 0.455243
Si Si7 0.749301 0.048976 0.956122
O O1 0.510582 0.368462 0.184971
O O2 0.755858 0.428706 0.253352
O O3 0.749084 0.427900 0.117733
O O4 0.007571 0.369751 0.182868
O O5 0.749068 0.617131 0.699049
O O6 0.490153 0.562346 0.624970
O O7 0.749153 0.622286 0.562384
O O8 0.993892 0.560893 0.625594
O O9 0.245682 0.808314 0.753528
O O10 0.569006 0.240941 0.692964
O O11 0.246100 0.199165 0.614495
O O12 0.250765 0.500000 0.685789
O O13 0.500000 0.683617 0.500000
O O14 0.000000 0.683303 0.500000
O O15 0.746669 0.000000 0.939453
O O16 0.500000 0.062625 0.000000
O O17 0.000000 0.062086 0.000000
#
# Coordination Sequence:
#
# PCOD8081777 Si02
#       7
#     8   8   8   8   8   8   8
#     4  10  18  32  51  73 102 135 175 204 236 296
#     4   9  19  33  48  69  95 124 161 208 252 289
#     4   9  19  33  51  73  98 131 165 204 248 294
#     4  11  22  36  54  79 109 128 151 202 258 302
#     4  10  18  30  51  73  93 122 165 216 258 287
#     4  11  22  36  54  72  96 135 169 190 233 307
#     4  10  20  32  47  73 112 149 175 206 247 284
#
# _framework density 17.820792000000001
#
# number of rings (size 3 to 8) (size 9 to 14) (size 15 to 20)
#    0.000    2.000    0.000    4.286    0.000    6.286 
#    0.000    4.286    0.000    8.571    0.000    0.000 
#    0.000   40.000    0.000    0.000    0.000    0.000 
#
# Total GULP energy -347275.419928 kJ/mol
# GULP energy per Si atom -12402.693569 kJ/mol
# Density = 1.778023 g / cm^3
# Si number density = 17.820792 Si / 1000 Ang^3
#
#
#
# Elastic Constant Matrix: (Units=GPa)
#
#
# Indices 1 2 3 4 5 6 
#
# 1 150.3981 34.2497 24.6468 0.0000 -0.7794 0.0000
# 2 34.2497 80.6993 21.0091 0.0000 -1.0125 0.0000
# 3 24.6468 21.0091 36.3200 0.0000 -0.6458 0.0000
# 4 0.0000 0.0000 0.0000 32.2351 0.0000 -0.5459
# 5 -0.7794 -1.0125 -0.6458 0.0000 20.4843 0.0000
# 6 0.0000 0.0000 0.0000 -0.5459 0.0000 98.9871
#
#
#
# Elastic Compliance Matrix: (Units=1/GPa)
#
#
# Indices 1 2 3 4 5 6 
#
# 1 0.007822 -0.002281 -0.003988 0.000000 0.000059 0.000000
# 2 -0.002281 0.015258 -0.007270 0.000000 0.000438 0.000000
# 3 -0.003988 -0.007270 0.034455 0.000000 0.000575 0.000000
# 4 0.000000 0.000000 0.000000 0.031025 0.000000 0.000171
# 5 0.000059 0.000438 0.000575 0.000000 0.048860 0.000000
# 6 0.000000 0.000000 0.000000 0.000171 0.000000 0.010103
#
#
# Mechanical properties :
#
#
# Convention : Reuss Voigt Hill
#
# Bulk Modulus (GPa) = 32.83300 47.46985 40.15143
# Shear Modulus (GPa) = 27.06311 42.84209 34.95260
#
# Velocity S-wave (km/s) = 3.90118 4.90843 4.43350
# Velocity P-wave (km/s) = 6.22545 7.66934 6.98481
#
# Compressibility (1/GPa) = 0.03045716
#
# Stress axis : x y z
#
# Youngs Moduli (GPa) = 127.84026 65.53958 29.02355
#
# Poissons Ratio (x) = 0.14949 0.11574
# Poissons Ratio (y) = 0.29160 0.21101
# Poissons Ratio (z) = 0.50979 0.47649
#
# Static dielectric constant tensor:
#      x y z
#    x 3.589430 0.000000 -0.001120 
#    y 0.000000 3.286760 0.000000 
#    z -0.001120 0.000000 3.026630 
# 
# 
# High freq. dielectric constant tensor:
#      x y z
#    x 1.714450 0.000000 0.000140 
#    y 0.000000 1.682720 0.000000 
#    z 0.000140 0.000000 1.659830 
# 
# From -- ./inp_files/192604.got.cif
#   From: 2010.06.25/outbox.cif.g09.slc.cpg/sg12_97_cif.got.tgz:192604.got - 2010.06.28 00:19:55.
