data_PCOD8081241
_publ_section_title
;
Structure prediction by ZEFSAII (Michael W. Deem and Ramdas Pophale) SiO2 
 PCOD8081241
Probable space group: C 2/M
;
_chemical_formula_sum "Si O2"
_cell_formula_units_Z 64
_cell_length_a 26.737190
_cell_length_b 8.778631
_cell_length_c 17.215990
_cell_angle_alpha 90.000000
_cell_angle_beta 79.756593
_cell_angle_gamma 90.000000
_cell_volume 3976.460313
_symmetry_space_group_name_H-M "C 2/M"
_symmetry_group_IT_number 12
_symmetry_cell_setting 'monoclinic'
loop_
_space_group_symop_operation_xyz
x,y,z
-x,y,-z
-x,-y,-z
x,-y,z
1/2+x,1/2+y,z
1/2-x,1/2+y,-z
1/2-x,1/2-y,-z
1/2+x,1/2-y,z
loop_
_atom_site_type_symbol
_atom_site_label
_atom_site_fract_x
_atom_site_fract_y
_atom_site_fract_z
Si Si1 0.311836 0.819553 0.316199
Si Si2 0.119173 0.329153 0.325690
Si Si3 0.644288 0.319419 0.554367
Si Si4 0.303737 0.178791 0.004383
Si Si5 0.705239 0.680754 0.839216
Si Si6 0.286921 0.172987 0.584722
Si Si7 0.555611 0.679844 0.466187
Si Si8 0.820068 0.678447 0.832177
O O1 0.356371 0.754764 0.359832
O O2 0.321719 0.754730 0.227592
O O3 0.258020 0.762108 0.361818
O O4 0.313706 0.000000 0.314120
O O5 0.098729 0.500000 0.318702
O O6 0.166952 0.327965 0.368766
O O7 0.073399 0.233373 0.375965
O O8 0.137603 0.253578 0.238612
O O9 0.645909 0.500000 0.559933
O O10 0.695789 0.260492 0.498095
O O11 0.594482 0.262157 0.521849
O O12 0.337152 0.209776 0.916945
O O13 0.298422 0.000000 0.021707
O O14 0.250000 0.250000 0.000000
O O15 0.325427 0.261673 0.075348
O O16 0.701913 0.500000 0.834576
O O17 0.763443 0.741906 0.829544
O O18 0.270184 0.000000 0.569106
O O19 0.500000 0.747877 0.500000
O O20 0.554016 0.500000 0.465668
O O21 0.816888 0.500000 0.815615
#
# Coordination Sequence:
#
# PCOD8081241 Si02
#       8
#     8   8   8   8   8   8   8   8
#     4  12  22  30  42  62  88 117 152 187 218 260
#     4   9  16  28  46  67  88 116 150 182 218 261
#     4  10  20  33  47  63  84 113 147 181 222 267
#     4   9  16  26  40  59  84 118 155 188 222 258
#     4  10  18  30  43  58  85 121 155 188 224 257
#     4  10  18  30  45  61  87 118 149 184 219 255
#     4   9  19  35  51  67  88 112 141 183 230 270
#     4   8  14  26  42  60  86 116 147 184 219 252
#
# _framework density 16.094716999999999
#
# number of rings (size 3 to 8) (size 9 to 14) (size 15 to 20)
#    0.000    2.375    1.250    3.750    0.000    1.250 
#    0.000    1.250    0.000    0.000    0.000    0.000 
#    0.000    1.000    0.000   11.500    0.000    3.500 
#
# Total GULP energy -396614.155372 kJ/mol
# GULP energy per Si atom -12394.192355 kJ/mol
# Density = 1.605808 g / cm^3
# Si number density = 16.094717 Si / 1000 Ang^3
#
#
#
# Elastic Constant Matrix: (Units=GPa)
#
#
# Indices 1 2 3 4 5 6 
#
# 1 43.2897 18.8441 34.6383 0.0000 -3.4958 0.0000
# 2 18.8441 74.2517 41.8466 0.0000 7.6428 0.0000
# 3 34.6383 41.8466 143.1743 0.0000 9.9395 0.0000
# 4 0.0000 0.0000 0.0000 28.6520 0.0000 2.5680
# 5 -3.4958 7.6428 9.9395 0.0000 18.7959 0.0000
# 6 0.0000 0.0000 0.0000 2.5680 0.0000 13.9618
#
#
#
# Elastic Compliance Matrix: (Units=1/GPa)
#
#
# Indices 1 2 3 4 5 6 
#
# 1 0.031996 -0.005403 -0.006984 0.000000 0.011841 0.000000
# 2 -0.005403 0.017365 -0.003330 0.000000 -0.006305 0.000000
# 3 -0.006984 -0.003330 0.010011 0.000000 -0.005239 0.000000
# 4 0.000000 0.000000 0.000000 0.035487 0.000000 -0.006527
# 5 0.011841 -0.006305 -0.005239 0.000000 0.060739 0.000000
# 6 0.000000 0.000000 0.000000 -0.006527 0.000000 0.072824
#
#
# Mechanical properties :
#
#
# Convention : Reuss Voigt Hill
#
# Bulk Modulus (GPa) = 35.79395 50.15263 42.97329
# Shear Modulus (GPa) = 18.57561 23.30773 20.94167
#
# Velocity S-wave (km/s) = 3.40095 3.80960 3.61106
# Velocity P-wave (km/s) = 6.14083 7.11191 6.64414
#
# Compressibility (1/GPa) = 0.02793768
#
# Stress axis : x y z
#
# Youngs Moduli (GPa) = 31.25347 57.58739 99.88840
#
# Poissons Ratio (x) = 0.31116 0.69759
# Poissons Ratio (y) = 0.16887 0.33268
# Poissons Ratio (z) = 0.21827 0.19179
#
# Static dielectric constant tensor:
#      x y z
#    x 2.782270 0.000000 0.116640 
#    y 0.000000 3.075990 0.000000 
#    z 0.116640 0.000000 3.622930 
# 
# 
# High freq. dielectric constant tensor:
#      x y z
#    x 1.555980 0.000000 0.014800 
#    y 0.000000 1.620310 0.000000 
#    z 0.014800 0.000000 1.630890 
# 
# From -- ./inp_files/294537.got.cif
#   From: 2010.06.25/outbox.cif.g09.slc.cpg/sg12_148_cif.got.tgz:294537.got - 2010.06.28 00:19:55.
