data_PCOD8081787
_publ_section_title
;
Structure prediction by ZEFSAII (Michael W. Deem and Ramdas Pophale) SiO2 
 PCOD8081787
Probable space group: C 2/M
;
_chemical_formula_sum "Si O2"
_cell_formula_units_Z 56
_cell_length_a 32.857776
_cell_length_b 9.502654
_cell_length_c 12.503993
_cell_angle_alpha 90.000000
_cell_angle_beta 124.586114
_cell_angle_gamma 90.000000
_cell_volume 3214.224333
_symmetry_space_group_name_H-M "C 2/M"
_symmetry_group_IT_number 12
_symmetry_cell_setting 'monoclinic'
loop_
_space_group_symop_operation_xyz
x,y,z
-x,y,-z
-x,-y,-z
x,-y,z
1/2+x,1/2+y,z
1/2-x,1/2+y,-z
1/2-x,1/2-y,-z
1/2+x,1/2-y,z
loop_
_atom_site_type_symbol
_atom_site_label
_atom_site_fract_x
_atom_site_fract_y
_atom_site_fract_z
Si Si1 0.638931 0.332433 0.931115
Si Si2 0.882605 0.339860 0.539101
Si Si3 0.272141 0.837893 0.438354
Si Si4 0.438449 0.333653 0.009345
Si Si5 0.950800 0.833381 0.790602
Si Si6 0.244935 0.166637 0.168245
Si Si7 0.149676 0.335043 0.745787
O O1 0.635190 0.500000 0.910997
O O2 0.603666 0.276693 0.973686
O O3 0.622811 0.255657 0.797714
O O4 0.694471 0.280788 0.039774
O O5 0.900509 0.500000 0.578654
O O6 0.830871 0.317813 0.521748
O O7 0.922770 0.238948 0.651378
O O8 0.877532 0.302387 0.406333
O O9 0.250000 0.750000 0.500000
O O10 0.247752 0.777118 0.293666
O O11 0.257961 0.000000 0.434638
O O12 0.437213 0.500000 0.005516
O O13 0.492093 0.285091 0.130873
O O14 0.429070 0.282275 0.873323
O O15 0.945300 0.000000 0.769110
O O16 0.293114 0.217373 0.174627
O O17 0.247398 0.000000 0.178723
O O18 0.146471 0.500000 0.768648
#
# Coordination Sequence:
#
# PCOD8081787 Si02
#       7
#     8   8   8   8   8   8   8
#     4  10  18  30  51  74  96 124 162 203 241 284
#     4   9  19  34  50  69  99 133 160 196 246 288
#     4   9  18  31  46  69 100 129 160 196 236 285
#     4   8  17  32  50  76 102 121 153 207 253 283
#     4   9  17  33  55  74  95 126 163 199 242 296
#     4   8  16  30  48  68  95 131 160 189 240 287
#     4   9  18  34  49  67  99 133 161 195 237 286
#
# _framework density 17.422554999999999
#
# number of rings (size 3 to 8) (size 9 to 14) (size 15 to 20)
#    0.000    3.143    0.000    3.000    2.000    1.143 
#    0.000    6.429    0.000    4.286    0.000    0.000 
#    0.000    0.000    0.000    0.000    0.000    0.000 
#
# Total GULP energy -347074.866006 kJ/mol
# GULP energy per Si atom -12395.530929 kJ/mol
# Density = 1.738290 g / cm^3
# Si number density = 17.422555 Si / 1000 Ang^3
#
#
#
# Elastic Constant Matrix: (Units=GPa)
#
#
# Indices 1 2 3 4 5 6 
#
# 1 85.9132 30.5171 58.1762 0.0000 -13.6781 0.0000
# 2 30.5171 41.3773 42.6186 0.0000 -0.9510 0.0000
# 3 58.1762 42.6186 112.8394 0.0000 -1.3102 0.0000
# 4 0.0000 0.0000 0.0000 32.5670 0.0000 -3.0858
# 5 -13.6781 -0.9510 -1.3102 0.0000 25.3697 0.0000
# 6 0.0000 0.0000 0.0000 -3.0858 0.0000 23.7158
#
#
#
# Elastic Compliance Matrix: (Units=1/GPa)
#
#
# Indices 1 2 3 4 5 6 
#
# 1 0.021497 -0.007069 -0.008287 0.000000 0.010897 0.000000
# 2 -0.007069 0.041893 -0.012212 0.000000 -0.002871 0.000000
# 3 -0.008287 -0.012212 0.017700 0.000000 -0.004011 0.000000
# 4 0.000000 0.000000 0.000000 0.031089 0.000000 0.004045
# 5 0.010897 -0.002871 -0.004011 0.000000 0.044977 0.000000
# 6 0.000000 0.000000 0.000000 0.004045 0.000000 0.042692
#
#
# Mechanical properties :
#
#
# Convention : Reuss Voigt Hill
#
# Bulk Modulus (GPa) = 38.52682 55.86152 47.19417
# Shear Modulus (GPa) = 18.96555 23.58502 21.27528
#
# Velocity S-wave (km/s) = 3.30292 3.68327 3.49826
# Velocity P-wave (km/s) = 6.05862 7.08668 6.59272
#
# Compressibility (1/GPa) = 0.02595594
#
# Stress axis : x y z
#
# Youngs Moduli (GPa) = 46.51851 23.87008 56.49663
#
# Poissons Ratio (x) = 0.16874 0.46817
# Poissons Ratio (y) = 0.32883 0.68992
# Poissons Ratio (z) = 0.38548 0.29149
#
# Static dielectric constant tensor:
#      x y z
#    x 3.424260 0.000000 -0.037430 
#    y 0.000000 2.881180 0.000000 
#    z -0.037430 0.000000 3.285970 
# 
# 
# High freq. dielectric constant tensor:
#      x y z
#    x 1.667820 0.000000 -0.006880 
#    y 0.000000 1.640660 0.000000 
#    z -0.006880 0.000000 1.678540 
# 
# From -- ./inp_files/186790.got.cif
#   From: 2010.06.25/outbox.cif.g09.slc.cpg/sg12_94_cif.got.tgz:186790.got - 2010.06.28 00:19:55.
