data_PCOD8081890
_publ_section_title
;
Structure prediction by ZEFSAII (Michael W. Deem and Ramdas Pophale) SiO2 
 PCOD8081890
Probable space group: C 2/M
;
_chemical_formula_sum "Si O2"
_cell_formula_units_Z 56
_cell_length_a 19.200876
_cell_length_b 24.461614
_cell_length_c 9.278975
_cell_angle_alpha 90.000000
_cell_angle_beta 134.967137
_cell_angle_gamma 90.000000
_cell_volume 3083.472737
_symmetry_space_group_name_H-M "C 2/M"
_symmetry_group_IT_number 12
_symmetry_cell_setting 'monoclinic'
loop_
_space_group_symop_operation_xyz
x,y,z
-x,y,-z
-x,-y,-z
x,-y,z
1/2+x,1/2+y,z
1/2-x,1/2+y,-z
1/2-x,1/2-y,-z
1/2+x,1/2-y,z
loop_
_atom_site_type_symbol
_atom_site_label
_atom_site_fract_x
_atom_site_fract_y
_atom_site_fract_z
Si Si1 0.888133 0.282697 0.857260
Si Si2 0.699417 0.129127 0.473458
Si Si3 0.390454 0.062791 0.886551
Si Si4 0.299805 0.153008 0.955132
Si Si5 0.594501 0.335644 0.221695
Si Si6 0.098510 0.804688 0.555320
Si Si7 0.612279 0.177996 0.621182
O O1 0.815366 0.319108 0.654340
O O2 0.858274 0.294274 0.978573
O O3 0.871503 0.219748 0.805664
O O4 0.000000 0.301398 0.000000
O O5 0.670758 0.073653 0.349278
O O6 0.815736 0.123062 0.673537
O O7 0.634977 0.138228 0.521095
O O8 0.348493 0.098243 0.958459
O O9 0.382613 0.000000 0.921748
O O10 0.500000 0.080053 0.000000
O O11 0.184144 0.157197 0.747117
O O12 0.314785 0.156663 0.147638
O O13 0.572329 0.323551 0.355746
O O14 0.500000 0.359872 0.000000
O O15 0.131935 0.741148 0.607495
O O16 0.000000 0.814420 0.500000
O O17 0.500000 0.168580 0.500000
#
# Coordination Sequence:
#
# PCOD8081890 Si02
#       7
#     8   8   8   8   8   8   8
#     4  10  18  30  52  73 106 147 187 221 260 324
#     4  11  19  36  55  77 109 147 188 226 276 325
#     4  10  21  39  64  86 102 132 184 240 290 338
#     4  11  21  36  54  78 113 152 181 225 274 333
#     4  11  22  33  52  78 110 155 194 227 260 317
#     4  11  23  35  49  80 118 154 187 223 261 317
#     4  11  22  32  50  84 120 149 179 217 270 332
#
# _framework density 18.161341
#
# number of rings (size 3 to 8) (size 9 to 14) (size 15 to 20)
#    0.000    1.286    4.286    5.143    8.000    0.000 
#    0.000    0.714    0.000    3.429    0.000    0.000 
#    0.000    0.000    0.000    0.000    0.000    0.000 
#
# Total GULP energy -347157.864416 kJ/mol
# GULP energy per Si atom -12398.495158 kJ/mol
# Density = 1.812000 g / cm^3
# Si number density = 18.161341 Si / 1000 Ang^3
#
#
#
# Elastic Constant Matrix: (Units=GPa)
#
#
# Indices 1 2 3 4 5 6 
#
# 1 73.3283 18.4376 22.1071 0.0000 2.5132 0.0000
# 2 18.4376 45.6120 20.0058 0.0000 3.6304 0.0000
# 3 22.1071 20.0058 110.5341 0.0000 6.4844 0.0000
# 4 0.0000 0.0000 0.0000 14.0044 0.0000 1.9109
# 5 2.5132 3.6304 6.4844 0.0000 42.8045 0.0000
# 6 0.0000 0.0000 0.0000 1.9109 0.0000 10.4532
#
#
#
# Elastic Compliance Matrix: (Units=1/GPa)
#
#
# Indices 1 2 3 4 5 6 
#
# 1 0.015640 -0.005369 -0.002148 0.000000 -0.000137 0.000000
# 2 -0.005369 0.025739 -0.003506 0.000000 -0.001337 0.000000
# 3 -0.002148 -0.003506 0.010177 0.000000 -0.001118 0.000000
# 4 0.000000 0.000000 0.000000 0.073233 0.000000 -0.013387
# 5 -0.000137 -0.001337 -0.001118 0.000000 0.023653 0.000000
# 6 0.000000 0.000000 0.000000 -0.013387 0.000000 0.098111
#
#
# Mechanical properties :
#
#
# Convention : Reuss Voigt Hill
#
# Bulk Modulus (GPa) = 33.88863 38.95283 36.42073
# Shear Modulus (GPa) = 17.95752 24.71401 21.33576
#
# Velocity S-wave (km/s) = 3.14789 3.69291 3.43124
# Velocity P-wave (km/s) = 5.64912 6.29906 5.98293
#
# Compressibility (1/GPa) = 0.02950843
#
# Stress axis : x y z
#
# Youngs Moduli (GPa) = 63.94036 38.85225 98.26238
#
# Poissons Ratio (x) = 0.20859 0.21109
# Poissons Ratio (y) = 0.34328 0.34454
# Poissons Ratio (z) = 0.13736 0.13623
#
# Static dielectric constant tensor:
#      x y z
#    x 3.451110 0.000000 0.046610 
#    y 0.000000 2.896220 0.000000 
#    z 0.046610 0.000000 3.675020 
# 
# 
# High freq. dielectric constant tensor:
#      x y z
#    x 1.715370 0.000000 0.003840 
#    y 0.000000 1.644960 0.000000 
#    z 0.003840 0.000000 1.718200 
# 
# From -- ./inp_files/66491.got.cif
#   From: 2010.06.25/outbox.cif.g09.slc.cpg/sg12_34_cif.got.tgz:66491.got - 2010.06.28 00:19:55.
