data_PCOD8081189
_publ_section_title
;
Structure prediction by ZEFSAII (Michael W. Deem and Ramdas Pophale) SiO2 
 PCOD8081189
Probable space group: C 2/M
;
_chemical_formula_sum "Si O2"
_cell_formula_units_Z 56
_cell_length_a 8.473804
_cell_length_b 18.716792
_cell_length_c 27.996539
_cell_angle_alpha 90.000000
_cell_angle_beta 40.315019
_cell_angle_gamma 90.000000
_cell_volume 2872.840572
_symmetry_space_group_name_H-M "C 2/M"
_symmetry_group_IT_number 12
_symmetry_cell_setting 'monoclinic'
loop_
_space_group_symop_operation_xyz
x,y,z
-x,y,-z
-x,-y,-z
x,-y,z
1/2+x,1/2+y,z
1/2-x,1/2+y,-z
1/2-x,1/2-y,-z
1/2+x,1/2-y,z
loop_
_atom_site_type_symbol
_atom_site_label
_atom_site_fract_x
_atom_site_fract_y
_atom_site_fract_z
Si Si1 0.946315 0.693630 0.374611
Si Si2 0.761244 0.850319 0.077401
Si Si3 0.839832 0.826562 0.210660
Si Si4 0.784953 0.921474 0.511664
Si Si5 0.591440 0.656787 0.372126
Si Si6 0.161192 0.721207 0.872940
Si Si7 0.023292 0.582478 0.220453
O O1 0.909044 0.639224 0.427615
O O2 0.738196 0.682302 0.384168
O O3 0.210448 0.678583 0.291513
O O4 0.933060 0.776373 0.391503
O O5 0.872801 0.783603 0.080707
O O6 0.584540 0.824952 0.075211
O O7 0.606263 0.902684 0.147104
O O8 0.000000 0.889570 0.000000
O O9 0.777543 0.756601 0.192811
O O10 0.745971 0.896655 0.204390
O O11 0.125454 0.831097 0.157403
O O12 0.000000 0.925147 0.500000
O O13 0.898022 0.903129 0.433496
O O14 0.659150 0.000000 0.537463
O O15 0.778420 0.627227 0.288904
O O16 0.963074 0.500000 0.241514
#
# Coordination Sequence:
#
# PCOD8081189 Si02
#       7
#     8   8   8   8   8   8   8
#     4  10  18  29  51  77  98 128 168 215 258 292
#     4  10  19  32  54  80 106 132 165 211 258 310
#     4   9  17  30  51  74 101 130 165 213 254 306
#     4   9  18  31  48  73 103 135 171 208 249 298
#     4  10  19  33  53  74  99 131 171 215 254 301
#     4   9  17  32  52  79 105 130 165 209 263 306
#     4  10  21  35  51  71  99 139 177 211 259 312
#
# _framework density 19.492902999999998
#
# number of rings (size 3 to 8) (size 9 to 14) (size 15 to 20)
#    0.000    2.429    0.000    4.714    0.000    3.714 
#    0.000    0.714    0.000    5.143    0.000    0.000 
#    0.000    0.000    0.000    0.000    0.000    0.000 
#
# Total GULP energy -347079.234363 kJ/mol
# GULP energy per Si atom -12395.686942 kJ/mol
# Density = 1.944854 g / cm^3
# Si number density = 19.492903 Si / 1000 Ang^3
#
#
#
# Elastic Constant Matrix: (Units=GPa)
#
#
# Indices 1 2 3 4 5 6 
#
# 1 47.8995 14.0172 10.1979 -0.0171 -4.6918 0.0077
# 2 14.0172 112.3865 29.4953 -0.0132 -3.0536 0.0081
# 3 10.1979 29.4953 99.1548 -0.0243 6.7585 0.0273
# 4 -0.0171 -0.0132 -0.0243 20.7252 0.0202 -2.0250
# 5 -4.6918 -3.0536 6.7585 0.0202 18.6488 -0.0132
# 6 0.0077 0.0081 0.0273 -2.0250 -0.0132 14.4361
#
#
#
# Elastic Compliance Matrix: (Units=1/GPa)
#
#
# Indices 1 2 3 4 5 6 
#
# 1 0.022535 -0.002091 -0.002111 0.000009 0.006092 0.000000
# 2 -0.002091 0.009979 -0.002900 -0.000001 0.002159 0.000003
# 3 -0.002111 -0.002900 0.011518 0.000013 -0.005180 -0.000022
# 4 0.000009 -0.000001 0.000013 0.048921 -0.000051 0.006862
# 5 0.006092 0.002159 -0.005180 -0.000051 0.057386 0.000051
# 6 0.000000 0.000003 -0.000022 0.006862 0.000051 0.070233
#
#
# Mechanical properties :
#
#
# Convention : Reuss Voigt Hill
#
# Bulk Modulus (GPa) = 33.52657 40.76238 37.14447
# Shear Modulus (GPa) = 20.43154 24.47739 22.45447
#
# Velocity S-wave (km/s) = 3.24103 3.54744 3.39769
# Velocity P-wave (km/s) = 5.58949 6.14296 5.87275
#
# Compressibility (1/GPa) = 0.02982709
#
# Stress axis : x y z
#
# Youngs Moduli (GPa) = 44.37514 100.21525 86.81903
#
# Poissons Ratio (x) = 0.20956 0.18327
# Poissons Ratio (y) = 0.09279 0.25181
# Poissons Ratio (z) = 0.09367 0.29066
#
# Static dielectric constant tensor:
#      x y z
#    x 3.434830 -0.000020 0.085410 
#    y -0.000020 3.468450 0.000020 
#    z 0.085410 0.000020 3.663500 
# 
# 
# High freq. dielectric constant tensor:
#      x y z
#    x 1.737970 0.000000 0.005440 
#    y 0.000000 1.733150 0.000000 
#    z 0.005440 0.000000 1.765720 
# 
# From -- ./inp_files/356729.got.cif
#   From: 2010.06.25/outbox.cif.g09.slc.cpg/sg12_179_cif.got.tgz:356729.got - 2010.06.28 00:19:55.
