data_PCOD8081180
_publ_section_title
;
Structure prediction by ZEFSAII (Michael W. Deem and Ramdas Pophale) SiO2 
 PCOD8081180
Probable space group: C 2/M
;
_chemical_formula_sum "Si O2"
_cell_formula_units_Z 48
_cell_length_a 19.349555
_cell_length_b 19.222601
_cell_length_c 13.422397
_cell_angle_alpha 90.000000
_cell_angle_beta 149.504328
_cell_angle_gamma 90.000000
_cell_volume 2533.531975
_symmetry_space_group_name_H-M "C 2/M"
_symmetry_group_IT_number 12
_symmetry_cell_setting 'monoclinic'
loop_
_space_group_symop_operation_xyz
x,y,z
-x,y,-z
-x,-y,-z
x,-y,z
1/2+x,1/2+y,z
1/2-x,1/2+y,-z
1/2-x,1/2-y,-z
1/2+x,1/2-y,z
loop_
_atom_site_type_symbol
_atom_site_label
_atom_site_fract_x
_atom_site_fract_y
_atom_site_fract_z
Si Si1 0.630183 0.777773 0.919453
Si Si2 0.643910 0.077519 0.228890
Si Si3 0.262438 0.921981 0.441224
Si Si4 0.881626 0.787609 0.712451
Si Si5 0.940134 0.665230 0.530500
Si Si6 0.764564 0.711765 0.737427
O O1 0.517692 0.721997 0.816984
O O2 0.555104 0.834953 0.758805
O O3 0.750000 0.750000 0.000000
O O4 0.696467 0.807544 0.101439
O O5 0.632634 0.079916 0.334952
O O6 0.756331 0.135236 0.337338
O O7 0.689551 0.000000 0.251073
O O8 0.500000 0.097655 0.000000
O O9 0.135667 0.870878 0.304562
O O10 0.334685 0.894300 0.431098
O O11 0.207768 0.000000 0.354975
O O12 0.750000 0.750000 0.500000
O O13 0.884736 0.753542 0.827469
O O14 0.872588 0.742005 0.436868
O O15 0.000000 0.641727 0.500000
#
# Coordination Sequence:
#
# PCOD8081180 Si02
#       6
#     8   8   8   8   8   8
#     4  12  22  34  58  90 113 151 188 237 295 333
#     4  10  18  29  50  82 112 138 179 236 288 335
#     4  10  20  35  58  82 111 151 191 232 287 339
#     4  11  19  36  59  84 112 143 194 240 275 330
#     4  11  21  37  54  84 115 148 194 241 281 343
#     4  11  20  35  59  82 114 147 192 241 283 330
#
# _framework density 18.945884
#
# number of rings (size 3 to 8) (size 9 to 14) (size 15 to 20)
#    0.000    1.167    6.667    2.500    0.000    0.333 
#    0.000    0.000    0.000   10.500    0.000    0.000 
#    0.000    0.000    0.000    0.000    0.000    0.000 
#
# Total GULP energy -297331.177294 kJ/mol
# GULP energy per Si atom -12388.799054 kJ/mol
# Density = 1.890276 g / cm^3
# Si number density = 18.945884 Si / 1000 Ang^3
#
#
#
# Elastic Constant Matrix: (Units=GPa)
#
#
# Indices 1 2 3 4 5 6 
#
# 1 141.1663 39.3278 26.5148 0.0000 1.2411 0.0000
# 2 39.3278 131.1641 7.4585 0.0000 1.8078 0.0000
# 3 26.5148 7.4585 37.8285 0.0000 -6.3262 0.0000
# 4 0.0000 0.0000 0.0000 17.7219 0.0000 -0.8114
# 5 1.2411 1.8078 -6.3262 0.0000 41.4115 0.0000
# 6 0.0000 0.0000 0.0000 -0.8114 0.0000 19.9736
#
#
#
# Elastic Compliance Matrix: (Units=1/GPa)
#
#
# Indices 1 2 3 4 5 6 
#
# 1 0.008847 -0.002301 -0.005927 0.000000 -0.001070 0.000000
# 2 -0.002301 0.008323 -0.000079 0.000000 -0.000306 0.000000
# 3 -0.005927 -0.000079 0.031438 0.000000 0.004984 0.000000
# 4 0.000000 0.000000 0.000000 0.056533 0.000000 0.002297
# 5 -0.001070 -0.000306 0.004984 0.000000 0.024955 0.000000
# 6 0.000000 0.000000 0.000000 0.002297 0.000000 0.050159
#
#
# Mechanical properties :
#
#
# Convention : Reuss Voigt Hill
#
# Bulk Modulus (GPa) = 31.25550 50.75123 41.00337
# Shear Modulus (GPa) = 24.09242 31.61192 27.85217
#
# Velocity S-wave (km/s) = 3.56988 4.08921 3.83834
# Velocity P-wave (km/s) = 5.79009 7.01007 6.42908
#
# Compressibility (1/GPa) = 0.03199437
#
# Stress axis : x y z
#
# Youngs Moduli (GPa) = 113.02649 120.15321 31.80833
#
# Poissons Ratio (x) = 0.27648 0.18852
# Poissons Ratio (y) = 0.26008 0.00252
# Poissons Ratio (z) = 0.66987 0.00954
#
# Static dielectric constant tensor:
#      x y z
#    x 3.743960 0.000000 -0.319900 
#    y 0.000000 3.437570 0.000000 
#    z -0.319900 0.000000 3.527760 
# 
# 
# High freq. dielectric constant tensor:
#      x y z
#    x 1.738650 0.000000 -0.027460 
#    y 0.000000 1.715760 0.000000 
#    z -0.027460 0.000000 1.725670 
# 
# From -- ./inp_files/234348.got.cif
#   From: 2010.06.25/outbox.cif.g09.slc.cpg/sg12_118_cif.got.tgz:234348.got - 2010.06.28 00:19:55.
