data_PCOD8081905
_publ_section_title
;
Structure prediction by ZEFSAII (Michael W. Deem and Ramdas Pophale) SiO2 
 PCOD8081905
Probable space group: C 2/M
;
_chemical_formula_sum "Si O2"
_cell_formula_units_Z 48
_cell_length_a 24.996428
_cell_length_b 9.553294
_cell_length_c 12.379290
_cell_angle_alpha 90.000000
_cell_angle_beta 109.272259
_cell_angle_gamma 90.000000
_cell_volume 2790.492263
_symmetry_space_group_name_H-M "C 2/M"
_symmetry_group_IT_number 12
_symmetry_cell_setting 'monoclinic'
loop_
_space_group_symop_operation_xyz
x,y,z
-x,y,-z
-x,-y,-z
x,-y,z
1/2+x,1/2+y,z
1/2-x,1/2+y,-z
1/2-x,1/2-y,-z
1/2+x,1/2-y,z
loop_
_atom_site_type_symbol
_atom_site_label
_atom_site_fract_x
_atom_site_fract_y
_atom_site_fract_z
Si Si1 0.933173 0.338688 0.138304
Si Si2 0.438275 0.838397 0.732369
Si Si3 0.749344 0.663029 0.890440
Si Si4 0.130734 0.664651 0.113415
Si Si5 0.056612 0.839322 0.477183
Si Si6 0.627899 0.340563 0.727490
O O1 0.915703 0.500000 0.142469
O O2 0.911876 0.256517 0.227966
O O3 0.000259 0.320409 0.172976
O O4 0.903841 0.274082 0.011959
O O5 0.393592 0.776572 0.789922
O O6 0.431180 0.751966 0.619037
O O7 0.426274 0.000000 0.695955
O O8 0.752124 0.500000 0.923889
O O9 0.803270 0.705124 0.853290
O O10 0.693748 0.700232 0.784216
O O11 0.750000 0.750000 0.000000
O O12 0.120298 0.500000 0.107607
O O13 0.110665 0.820808 0.591407
O O14 0.000000 0.786087 0.500000
O O15 0.048308 0.000000 0.435871
O O16 0.617369 0.500000 0.757548
#
# Coordination Sequence:
#
# PCOD8081905 Si02
#       6
#     8   8   8   8   8   8
#     4  10  18  30  52  78 103 130 163 206 252 300
#     4  10  20  33  52  77 103 132 170 209 248 298
#     4  10  19  33  54  76 101 132 167 205 248 298
#     4   9  18  33  51  75 106 135 160 202 260 303
#     4  10  20  35  52  70 101 139 170 205 251 297
#     4  10  20  33  51  76 102 131 168 207 248 297
#
# _framework density 17.201266
#
# number of rings (size 3 to 8) (size 9 to 14) (size 15 to 20)
#    0.000    2.167    3.333    0.500    0.000    3.000 
#    0.000    2.500    0.000    2.000    0.000    0.000 
#    0.000    0.000    0.000    0.000    0.000    0.000 
#
# Total GULP energy -297617.096866 kJ/mol
# GULP energy per Si atom -12400.712369 kJ/mol
# Density = 1.716212 g / cm^3
# Si number density = 17.201266 Si / 1000 Ang^3
#
#
#
# Elastic Constant Matrix: (Units=GPa)
#
#
# Indices 1 2 3 4 5 6 
#
# 1 120.3974 37.8374 52.2961 0.0000 -4.0806 0.0000
# 2 37.8374 46.5857 36.7933 0.0000 -7.1902 0.0000
# 3 52.2961 36.7933 100.7397 0.0000 -0.4007 0.0000
# 4 0.0000 0.0000 0.0000 25.8248 0.0000 0.1351
# 5 -4.0806 -7.1902 -0.4007 0.0000 34.2963 0.0000
# 6 0.0000 0.0000 0.0000 0.1351 0.0000 15.9607
#
#
#
# Elastic Compliance Matrix: (Units=1/GPa)
#
#
# Indices 1 2 3 4 5 6 
#
# 1 0.012098 -0.006847 -0.003780 0.000000 -0.000040 0.000000
# 2 -0.006847 0.035420 -0.009356 0.000000 0.006502 0.000000
# 3 -0.003780 -0.009356 0.015297 0.000000 -0.002232 0.000000
# 4 0.000000 0.000000 0.000000 0.038724 0.000000 -0.000328
# 5 -0.000040 0.006502 -0.002232 0.000000 0.030490 0.000000
# 6 0.000000 0.000000 0.000000 -0.000328 0.000000 0.062657
#
#
# Mechanical properties :
#
#
# Convention : Reuss Voigt Hill
#
# Bulk Modulus (GPa) = 43.76543 57.95293 50.85918
# Shear Modulus (GPa) = 20.63827 24.60277 22.62052
#
# Velocity S-wave (km/s) = 3.46759 3.78602 3.63030
# Velocity P-wave (km/s) = 6.44442 7.27160 6.87047
#
# Compressibility (1/GPa) = 0.02284908
#
# Stress axis : x y z
#
# Youngs Moduli (GPa) = 82.65750 28.23252 65.37240
#
# Poissons Ratio (x) = 0.19331 0.24709
# Poissons Ratio (y) = 0.56597 0.61163
# Poissons Ratio (z) = 0.31242 0.26415
#
# Static dielectric constant tensor:
#      x y z
#    x 3.365330 0.000000 0.101750 
#    y 0.000000 3.068160 0.000000 
#    z 0.101750 0.000000 3.247910 
# 
# 
# High freq. dielectric constant tensor:
#      x y z
#    x 1.665920 0.000000 0.008170 
#    y 0.000000 1.644420 0.000000 
#    z 0.008170 0.000000 1.663500 
# 
# From -- ./inp_files/94329.got.cif
#   From: 2010.06.25/outbox.cif.g09.slc.cpg/sg12_48_cif.got.tgz:94329.got - 2010.06.28 00:19:55.
