data_PCOD8081020
_publ_section_title
;
Structure prediction by ZEFSAII (Michael W. Deem and Ramdas Pophale) SiO2 
 PCOD8081020
Probable space group: C 2/M
;
_chemical_formula_sum "Si O2"
_cell_formula_units_Z 52
_cell_length_a 22.619168
_cell_length_b 12.797794
_cell_length_c 10.977878
_cell_angle_alpha 90.000000
_cell_angle_beta 109.954609
_cell_angle_gamma 90.000000
_cell_volume 2987.039946
_symmetry_space_group_name_H-M "C 2/M"
_symmetry_group_IT_number 12
_symmetry_cell_setting 'monoclinic'
loop_
_space_group_symop_operation_xyz
x,y,z
-x,y,-z
-x,-y,-z
x,-y,z
1/2+x,1/2+y,z
1/2-x,1/2+y,-z
1/2-x,1/2-y,-z
1/2+x,1/2-y,z
loop_
_atom_site_type_symbol
_atom_site_label
_atom_site_fract_x
_atom_site_fract_y
_atom_site_fract_z
Si Si1 0.761236 0.673349 0.189263
Si Si2 0.130777 0.119540 0.173537
Si Si3 0.500000 0.234277 0.500000
Si Si4 0.716339 0.385098 0.894962
Si Si5 0.464925 0.379600 0.691599
Si Si6 0.410371 0.695384 0.105365
Si Si7 0.101319 0.620014 0.728914
O O1 0.706074 0.635239 0.240594
O O2 0.758608 0.799696 0.182977
O O3 0.829108 0.632723 0.280954
O O4 0.751412 0.626860 0.047892
O O5 0.098620 0.147391 0.278948
O O6 0.115879 0.000000 0.126350
O O7 0.103347 0.194599 0.048523
O O8 0.465829 0.307722 0.573855
O O9 0.552379 0.160935 0.595165
O O10 0.730054 0.500000 0.850936
O O11 0.641676 0.372292 0.860389
O O12 0.465814 0.500000 0.651016
O O13 0.522756 0.356251 0.821916
O O14 0.406030 0.814556 0.150874
O O15 0.086850 0.500000 0.749433
#
# Coordination Sequence:
#
# PCOD8081020 Si02
#       7
#     8   8   4   8   8   8   8
#     4   9  17  27  44  70  95 124 158 188 227 284
#     4  10  18  29  48  75 105 128 147 182 237 296
#     4  10  22  36  50  68  88 120 172 216 232 266
#     4   9  15  25  43  69 101 128 150 183 227 279
#     4  10  19  32  51  72  97 127 155 192 240 283
#     4   9  17  28  48  77 101 123 152 188 231 289
#     4  10  19  33  52  69  91 128 166 201 236 267
#
# _framework density 17.408539000000001
#
# number of rings (size 3 to 8) (size 9 to 14) (size 15 to 20)
#    0.000    2.462    0.000    5.538    0.000    1.231 
#    0.000    1.538    0.000   12.923    0.000    0.000 
#    0.000    0.000    0.000    0.000    0.000    0.000 
#
# Total GULP energy -322369.346213 kJ/mol
# GULP energy per Si atom -12398.821008 kJ/mol
# Density = 1.736892 g / cm^3
# Si number density = 17.408539 Si / 1000 Ang^3
#
#
#
# Elastic Constant Matrix: (Units=GPa)
#
#
# Indices 1 2 3 4 5 6 
#
# 1 108.6927 41.7556 47.3183 0.0000 1.9502 0.0000
# 2 41.7556 139.3608 46.7849 0.0000 -2.5342 0.0000
# 3 47.3183 46.7849 60.6908 0.0000 -1.3994 0.0000
# 4 0.0000 0.0000 0.0000 17.4017 0.0000 -0.0326
# 5 1.9502 -2.5342 -1.3994 0.0000 24.4760 0.0000
# 6 0.0000 0.0000 0.0000 -0.0326 0.0000 21.0401
#
#
#
# Elastic Compliance Matrix: (Units=1/GPa)
#
#
# Indices 1 2 3 4 5 6 
#
# 1 0.014058 -0.000744 -0.010429 0.000000 -0.001793 0.000000
# 2 -0.000744 0.009728 -0.006904 0.000000 0.000672 0.000000
# 3 -0.010429 -0.006904 0.029972 0.000000 0.001830 0.000000
# 4 0.000000 0.000000 0.000000 0.057466 0.000000 0.000089
# 5 -0.001793 0.000672 0.001830 0.000000 0.041173 0.000000
# 6 0.000000 0.000000 0.000000 0.000089 0.000000 0.047528
#
#
# Mechanical properties :
#
#
# Convention : Reuss Voigt Hill
#
# Bulk Modulus (GPa) = 56.79924 64.49577 60.64750
# Shear Modulus (GPa) = 20.66565 24.10927 22.38746
#
# Velocity S-wave (km/s) = 3.44917 3.72548 3.58998
# Velocity P-wave (km/s) = 6.96853 7.45884 7.21785
#
# Compressibility (1/GPa) = 0.01760587
#
# Stress axis : x y z
#
# Youngs Moduli (GPa) = 71.13323 102.79151 33.36447
#
# Poissons Ratio (x) = 0.07645 0.34794
# Poissons Ratio (y) = 0.05291 0.23035
# Poissons Ratio (z) = 0.74182 0.70967
#
# Static dielectric constant tensor:
#      x y z
#    x 3.356880 0.000000 0.195580 
#    y 0.000000 3.323110 0.000000 
#    z 0.195580 0.000000 2.923160 
# 
# 
# High freq. dielectric constant tensor:
#      x y z
#    x 1.673820 0.000000 0.021300 
#    y 0.000000 1.676100 0.000000 
#    z 0.021300 0.000000 1.633330 
# 
# From -- ./inp_files/174042.got.cif
#   From: 2010.06.25/outbox.cif.g09.slc.cpg/sg12_88_cif.got.tgz:174042.got - 2010.06.28 00:19:55.
