data_PCOD8081757
_publ_section_title
;
Structure prediction by ZEFSAII (Michael W. Deem and Ramdas Pophale) SiO2 
 PCOD8081757
Probable space group: C 2/M
;
_chemical_formula_sum "Si O2"
_cell_formula_units_Z 64
_cell_length_a 19.229887
_cell_length_b 9.503339
_cell_length_c 23.102085
_cell_angle_alpha 90.000000
_cell_angle_beta 52.771065
_cell_angle_gamma 90.000000
_cell_volume 3361.550663
_symmetry_space_group_name_H-M "C 2/M"
_symmetry_group_IT_number 12
_symmetry_cell_setting 'monoclinic'
loop_
_space_group_symop_operation_xyz
x,y,z
-x,y,-z
-x,-y,-z
x,-y,z
1/2+x,1/2+y,z
1/2-x,1/2+y,-z
1/2-x,1/2-y,-z
1/2+x,1/2-y,z
loop_
_atom_site_type_symbol
_atom_site_label
_atom_site_fract_x
_atom_site_fract_y
_atom_site_fract_z
Si Si1 0.668195 0.336996 0.376602
Si Si2 0.978238 0.163998 0.640417
Si Si3 0.056805 0.345889 0.878914
Si Si4 0.639758 0.160740 0.222268
Si Si5 0.788576 0.164371 0.237618
Si Si6 0.828463 0.164346 0.489951
Si Si7 0.241812 0.338102 0.062099
Si Si8 0.612625 0.846069 0.980608
O O1 0.691694 0.500000 0.353883
O O2 0.576857 0.299600 0.390103
O O3 0.745831 0.240000 0.314158
O O4 0.661283 0.302393 0.447527
O O5 0.939066 0.242958 0.715929
O O6 0.078801 0.210955 0.583855
O O7 0.971984 0.000000 0.656812
O O8 0.075650 0.500000 0.840917
O O9 0.114570 0.227463 0.819164
O O10 0.952972 0.310953 0.931883
O O11 0.070035 0.357264 0.940160
O O12 0.728976 0.196083 0.211792
O O13 0.655767 0.186464 0.145503
O O14 0.613088 0.000000 0.247556
O O15 0.798201 0.000000 0.245917
O O16 0.750000 0.250000 0.500000
O O17 0.810125 0.000000 0.488698
O O18 0.254077 0.500000 0.041115
O O19 0.250000 0.250000 0.000000
O O20 0.321271 0.282260 0.060311
O O21 0.655513 0.000000 0.973595
#
# Coordination Sequence:
#
# PCOD8081757 Si02
#       8
#     8   8   8   8   8   8   8   8
#     4   9  18  34  56  81 109 143 181 222 269 317
#     4   9  18  34  59  85 106 136 181 227 264 312
#     4   9  17  30  50  75 103 133 168 211 263 319
#     4   9  19  34  51  76 107 135 170 219 272 317
#     4  10  18  30  50  79 110 137 172 222 270 314
#     4  10  21  37  57  83 114 145 178 216 264 322
#     4  11  22  36  52  73 103 140 180 223 268 319
#     4   9  18  32  50  73  99 131 172 216 261 315
#
# _framework density 19.038831999999999
#
# number of rings (size 3 to 8) (size 9 to 14) (size 15 to 20)
#    0.000    2.500    1.250    1.875    0.000    4.500 
#    0.000    2.500    0.000    5.250    0.000    0.000 
#    0.000    0.000    0.000    0.000    0.000    0.000 
#
# Total GULP energy -396474.044664 kJ/mol
# GULP energy per Si atom -12389.813896 kJ/mol
# Density = 1.899550 g / cm^3
# Si number density = 19.038832 Si / 1000 Ang^3
#
#
#
# Elastic Constant Matrix: (Units=GPa)
#
#
# Indices 1 2 3 4 5 6 
#
# 1 49.5681 34.8606 42.6795 0.0000 -5.9339 0.0000
# 2 34.8606 103.9876 80.4940 0.0000 -9.8544 0.0002
# 3 42.6795 80.4940 136.6488 0.0000 -13.9567 0.0000
# 4 0.0000 0.0000 0.0000 34.2802 0.0000 -2.8279
# 5 -5.9339 -9.8544 -13.9567 0.0000 26.8456 0.0000
# 6 0.0000 0.0002 0.0000 -2.8279 0.0000 26.9578
#
#
#
# Elastic Compliance Matrix: (Units=1/GPa)
#
#
# Indices 1 2 3 4 5 6 
#
# 1 0.028984 -0.004937 -0.005993 0.000000 0.001478 0.000000
# 2 -0.004937 0.018550 -0.009295 0.000000 0.000886 0.000000
# 3 -0.005993 -0.009295 0.014977 0.000000 0.003049 0.000000
# 4 0.000000 0.000000 0.000000 0.029426 0.000000 0.003087
# 5 0.001478 0.000886 0.003049 0.000000 0.039487 0.000000
# 6 0.000000 0.000000 0.000000 0.003087 0.000000 0.037419
#
#
# Mechanical properties :
#
#
# Convention : Reuss Voigt Hill
#
# Bulk Modulus (GPa) = 45.33002 67.36362 56.34682
# Shear Modulus (GPa) = 23.07903 26.42807 24.75355
#
# Velocity S-wave (km/s) = 3.48546 3.72978 3.60969
# Velocity P-wave (km/s) = 6.32920 7.34897 6.85807
#
# Compressibility (1/GPa) = 0.02206044
#
# Stress axis : x y z
#
# Youngs Moduli (GPa) = 34.50200 53.90708 66.77120
#
# Poissons Ratio (x) = 0.26615 0.40018
# Poissons Ratio (y) = 0.17034 0.62062
# Poissons Ratio (z) = 0.20678 0.50105
#
# Static dielectric constant tensor:
#      x y z
#    x 3.539260 0.000000 -0.228480 
#    y 0.000000 4.042080 0.000000 
#    z -0.228480 0.000000 3.623720 
# 
# 
# High freq. dielectric constant tensor:
#      x y z
#    x 1.712400 0.000000 -0.006940 
#    y 0.000000 1.738560 0.000000 
#    z -0.006940 0.000000 1.746050 
# 
# From -- ./inp_files/346049.got.cif
#   From: 2010.06.25/outbox.cif.g09.slc.cpg/sg12_174_cif.got.tgz:346049.got - 2010.06.28 00:19:55.
