data_PCOD8081140
_publ_section_title
;
Structure prediction by ZEFSAII (Michael W. Deem and Ramdas Pophale) SiO2 
 PCOD8081140
Probable space group: C 2/M
;
_chemical_formula_sum "Si O2"
_cell_formula_units_Z 48
_cell_length_a 12.932491
_cell_length_b 13.481591
_cell_length_c 16.173314
_cell_angle_alpha 90.000000
_cell_angle_beta 108.992700
_cell_angle_gamma 90.000000
_cell_volume 2666.315055
_symmetry_space_group_name_H-M "C 2/M"
_symmetry_group_IT_number 12
_symmetry_cell_setting 'monoclinic'
loop_
_space_group_symop_operation_xyz
x,y,z
-x,y,-z
-x,-y,-z
x,-y,z
1/2+x,1/2+y,z
1/2-x,1/2+y,-z
1/2-x,1/2-y,-z
1/2+x,1/2-y,z
loop_
_atom_site_type_symbol
_atom_site_label
_atom_site_fract_x
_atom_site_fract_y
_atom_site_fract_z
Si Si1 0.570958 0.773844 0.438720
Si Si2 0.877518 0.616484 0.302640
Si Si3 0.266673 0.300870 0.872629
Si Si4 0.262219 0.614980 0.573155
Si Si5 0.478547 0.607822 0.897670
Si Si6 0.217469 0.886482 0.944735
O O1 0.500000 0.740621 0.500000
O O2 0.491410 0.831114 0.355241
O O3 0.625539 0.676838 0.410786
O O4 0.667835 0.850209 0.485678
O O5 0.898831 0.500000 0.292502
O O6 0.837117 0.671729 0.209603
O O7 0.783924 0.631393 0.346976
O O8 0.377806 0.321216 0.850427
O O9 0.282804 0.185638 0.900859
O O10 0.256279 0.367154 0.952529
O O11 0.288800 0.500000 0.562881
O O12 0.445486 0.500000 0.854365
O O13 0.592517 0.642056 0.887991
O O14 0.500000 0.600917 0.000000
O O15 0.245690 0.000000 0.931465
#
# Coordination Sequence:
#
# PCOD8081140 Si02
#       6
#     8   8   8   8   8   8
#     4   9  18  33  52  75 102 128 157 196 242 289
#     4  10  19  31  49  73  99 127 163 204 242 284
#     4  10  18  29  50  73  96 125 165 208 245 284
#     4   9  18  33  53  74  98 131 165 195 234 289
#     4   8  14  27  46  65  85 114 154 195 234 278
#     4   9  18  32  50  70  94 128 167 205 246 289
#
# _framework density 18.002372999999999
#
# number of rings (size 3 to 8) (size 9 to 14) (size 15 to 20)
#    0.000    2.833    0.000    3.000    0.000    3.667 
#    0.000    2.500    0.000   21.500    0.000    0.000 
#    0.000    0.000    0.000    0.000    0.000    0.000 
#
# Total GULP energy -297416.169793 kJ/mol
# GULP energy per Si atom -12392.340408 kJ/mol
# Density = 1.796140 g / cm^3
# Si number density = 18.002373 Si / 1000 Ang^3
#
#
#
# Elastic Constant Matrix: (Units=GPa)
#
#
# Indices 1 2 3 4 5 6 
#
# 1 72.9894 49.5731 32.1577 0.0000 11.8283 0.0000
# 2 49.5731 132.8648 49.7081 0.0000 6.1807 0.0000
# 3 32.1577 49.7081 81.1705 0.0000 20.7679 0.0000
# 4 0.0000 0.0000 0.0000 15.8799 0.0000 3.7248
# 5 11.8283 6.1807 20.7679 0.0000 20.0515 0.0000
# 6 0.0000 0.0000 0.0000 3.7248 0.0000 33.5166
#
#
#
# Elastic Compliance Matrix: (Units=1/GPa)
#
#
# Indices 1 2 3 4 5 6 
#
# 1 0.020237 -0.006401 -0.002106 0.000000 -0.007783 0.000000
# 2 -0.006401 0.012072 -0.006627 0.000000 0.006919 0.000000
# 3 -0.002106 -0.006627 0.022275 0.000000 -0.019786 0.000000
# 4 0.000000 0.000000 0.000000 0.064658 0.000000 -0.007186
# 5 -0.007783 0.006919 -0.019786 0.000000 0.072823 0.000000
# 6 0.000000 0.000000 0.000000 -0.007186 0.000000 0.030635
#
#
# Mechanical properties :
#
#
# Convention : Reuss Voigt Hill
#
# Bulk Modulus (GPa) = 41.12566 61.10026 51.11296
# Shear Modulus (GPa) = 19.15168 24.26198 21.70683
#
# Velocity S-wave (km/s) = 3.26520 3.67510 3.47620
# Velocity P-wave (km/s) = 6.09176 7.21265 6.67577
#
# Compressibility (1/GPa) = 0.02431572
#
# Stress axis : x y z
#
# Youngs Moduli (GPa) = 49.41421 82.83530 44.89326
#
# Poissons Ratio (x) = 0.53019 0.09457
# Poissons Ratio (y) = 0.31628 0.29752
# Poissons Ratio (z) = 0.10409 0.54898
#
# Static dielectric constant tensor:
#      x y z
#    x 3.430380 0.000000 0.167120 
#    y 0.000000 3.338400 0.000000 
#    z 0.167120 0.000000 3.107930 
# 
# 
# High freq. dielectric constant tensor:
#      x y z
#    x 1.687510 0.000000 0.018800 
#    y 0.000000 1.696150 0.000000 
#    z 0.018800 0.000000 1.678840 
# 
# From -- ./inp_files/268211.got.cif
#   From: 2010.06.25/outbox.cif.g09.slc.cpg/sg12_135_cif.got.tgz:268211.got - 2010.06.28 00:19:55.
