data_PCOD8081284
_publ_section_title
;
Structure prediction by ZEFSAII (Michael W. Deem and Ramdas Pophale) SiO2 
 PCOD8081284
Probable space group: C 2/M
;
_chemical_formula_sum "Si O2"
_cell_formula_units_Z 56
_cell_length_a 27.601344
_cell_length_b 8.817992
_cell_length_c 17.422861
_cell_angle_alpha 90.000000
_cell_angle_beta 126.420168
_cell_angle_gamma 90.000000
_cell_volume 3412.284514
_symmetry_space_group_name_H-M "C 2/M"
_symmetry_group_IT_number 12
_symmetry_cell_setting 'monoclinic'
loop_
_space_group_symop_operation_xyz
x,y,z
-x,y,-z
-x,-y,-z
x,-y,z
1/2+x,1/2+y,z
1/2-x,1/2+y,-z
1/2-x,1/2-y,-z
1/2+x,1/2-y,z
loop_
_atom_site_type_symbol
_atom_site_label
_atom_site_fract_x
_atom_site_fract_y
_atom_site_fract_z
Si Si1 0.207219 0.318718 0.023198
Si Si2 0.841740 0.320596 0.599549
Si Si3 0.538396 0.822454 0.206010
Si Si4 0.910560 0.670624 0.909599
Si Si5 0.917961 0.822978 0.073937
Si Si6 0.771383 0.819335 0.406995
Si Si7 0.726510 0.828785 0.209162
O O1 0.208287 0.500000 0.022169
O O2 0.229527 0.252885 0.127384
O O3 0.250000 0.250000 0.000000
O O4 0.139192 0.264397 0.944278
O O5 0.841973 0.500000 0.593703
O O6 0.906069 0.261364 0.690650
O O7 0.829646 0.250749 0.503695
O O8 0.789179 0.263962 0.606977
O O9 0.550456 0.787811 0.127791
O O10 0.478111 0.733645 0.174150
O O11 0.529104 0.000000 0.211090
O O12 0.925850 0.500000 0.953322
O O13 0.840862 0.678313 0.820549
O O14 0.925238 0.788021 0.990593
O O15 0.908972 0.000000 0.079099
O O16 0.768516 0.757023 0.315789
O O17 0.775438 0.000000 0.411411
O O18 0.747624 0.000000 0.217088
#
# Coordination Sequence:
#
# PCOD8081284 Si02
#       7
#     8   8   8   8   8   8   8
#     4  10  20  36  56  74  94 119 152 192 238 285
#     4   9  17  27  42  64  92 126 164 199 228 264
#     4  10  18  30  46  63  90 131 169 194 227 278
#     4   9  16  29  46  63  88 127 167 194 225 274
#     4  11  22  32  44  67  96 122 155 196 237 280
#     4   9  15  27  44  64  91 124 162 195 227 267
#     4   8  14  27  48  69  90 123 159 189 224 278
#
# _framework density 16.411293000000001
#
# number of rings (size 3 to 8) (size 9 to 14) (size 15 to 20)
#    0.000    2.571    1.429    3.000    0.000    2.857 
#    0.000    3.571    0.000    0.000    0.000    1.000 
#    0.000    8.000    0.000    0.000    0.000    0.000 
#
# Total GULP energy -347017.925633 kJ/mol
# GULP energy per Si atom -12393.497344 kJ/mol
# Density = 1.637394 g / cm^3
# Si number density = 16.411293 Si / 1000 Ang^3
#
#
#
# Elastic Constant Matrix: (Units=GPa)
#
#
# Indices 1 2 3 4 5 6 
#
# 1 86.0689 29.1380 49.8872 0.0000 3.7727 0.0000
# 2 29.1380 51.1497 33.2423 0.0000 3.9465 0.0000
# 3 49.8872 33.2423 108.2433 0.0000 12.8821 0.0000
# 4 0.0000 0.0000 0.0000 24.6764 0.0000 1.6758
# 5 3.7727 3.9465 12.8821 0.0000 17.6781 0.0000
# 6 0.0000 0.0000 0.0000 1.6758 0.0000 21.3072
#
#
#
# Elastic Compliance Matrix: (Units=1/GPa)
#
#
# Indices 1 2 3 4 5 6 
#
# 1 0.017205 -0.005806 -0.006420 0.000000 0.002303 0.000000
# 2 -0.005806 0.026385 -0.005336 0.000000 -0.000763 0.000000
# 3 -0.006420 -0.005336 0.014816 0.000000 -0.008235 0.000000
# 4 0.000000 0.000000 0.000000 0.040742 0.000000 -0.003204
# 5 0.002303 -0.000763 -0.008235 0.000000 0.062247 0.000000
# 6 0.000000 0.000000 0.000000 -0.003204 0.000000 0.047185
#
#
# Mechanical properties :
#
#
# Convention : Reuss Voigt Hill
#
# Bulk Modulus (GPa) = 42.95426 52.22187 47.58807
# Shear Modulus (GPa) = 19.88351 21.61197 20.74774
#
# Velocity S-wave (km/s) = 3.48454 3.63284 3.55947
# Velocity P-wave (km/s) = 6.51305 7.03466 6.77888
#
# Compressibility (1/GPa) = 0.02328058
#
# Stress axis : x y z
#
# Youngs Moduli (GPa) = 58.12429 37.90064 67.49307
#
# Poissons Ratio (x) = 0.22005 0.43332
# Poissons Ratio (y) = 0.33746 0.36017
# Poissons Ratio (z) = 0.37317 0.20225
#
# Static dielectric constant tensor:
#      x y z
#    x 2.847830 0.000000 0.031530 
#    y 0.000000 2.879320 0.000000 
#    z 0.031530 0.000000 3.367480 
# 
# 
# High freq. dielectric constant tensor:
#      x y z
#    x 1.589710 0.000000 0.008510 
#    y 0.000000 1.613100 0.000000 
#    z 0.008510 0.000000 1.636590 
# 
# From -- ./inp_files/291813.got.cif
#   From: 2010.06.25/outbox.cif.g09.slc.cpg/sg12_146_cif.got.tgz:291813.got - 2010.06.28 00:19:55.
