data_PCOD8081626
_publ_section_title
;
Structure prediction by ZEFSAII (Michael W. Deem and Ramdas Pophale) SiO2 
 PCOD8081626
Probable space group: C 2/M
;
_chemical_formula_sum "Si O2"
_cell_formula_units_Z 56
_cell_length_a 29.383162
_cell_length_b 8.874365
_cell_length_c 12.439972
_cell_angle_alpha 90.000000
_cell_angle_beta 65.024730
_cell_angle_gamma 90.000000
_cell_volume 2940.480416
_symmetry_space_group_name_H-M "C 2/M"
_symmetry_group_IT_number 12
_symmetry_cell_setting 'monoclinic'
loop_
_space_group_symop_operation_xyz
x,y,z
-x,y,-z
-x,-y,-z
x,-y,z
1/2+x,1/2+y,z
1/2-x,1/2+y,-z
1/2-x,1/2-y,-z
1/2+x,1/2-y,z
loop_
_atom_site_type_symbol
_atom_site_label
_atom_site_fract_x
_atom_site_fract_y
_atom_site_fract_z
Si Si1 0.416629 0.322893 0.214613
Si Si2 0.516167 0.832815 0.118820
Si Si3 0.576370 0.673727 0.548245
Si Si4 0.376706 0.821602 0.060284
Si Si5 0.976927 0.331193 0.642362
Si Si6 0.695799 0.178217 0.055036
Si Si7 0.875122 0.172224 0.709975
O O1 0.414840 0.500000 0.204283
O O2 0.470194 0.263177 0.113853
O O3 0.408082 0.273014 0.347526
O O4 0.372556 0.251748 0.183692
O O5 0.504454 0.838898 0.255112
O O6 0.513765 0.000000 0.071476
O O7 0.571149 0.763630 0.043578
O O8 0.558416 0.500000 0.571069
O O9 0.529798 0.767519 0.537067
O O10 0.624526 0.692517 0.421080
O O11 0.374041 0.000000 0.073696
O O12 0.333032 0.765183 0.023466
O O13 0.963377 0.500000 0.613644
O O14 0.930388 0.218499 0.692303
O O15 0.666949 0.225945 0.192433
O O16 0.700296 0.000000 0.051630
O O17 0.750000 0.250000 0.000000
O O18 0.864848 0.000000 0.752851
#
# Coordination Sequence:
#
# PCOD8081626 Si02
#       7
#     8   8   8   8   8   8   8
#     4  10  20  32  49  78 112 146 186 224 258 314
#     4   9  17  31  48  71 108 150 183 218 269 322
#     4   9  20  35  49  75 115 153 185 222 269 322
#     4  10  20  36  55  75 107 144 177 221 276 329
#     4  10  18  30  49  77 111 149 190 228 267 322
#     4  11  24  43  63  86 110 136 179 232 285 334
#     4  11  21  35  56  78 108 148 184 225 279 328
#
# _framework density 19.044506999999999
#
# number of rings (size 3 to 8) (size 9 to 14) (size 15 to 20)
#    0.000    2.000    1.429    2.571    0.000    7.429 
#    0.000    0.000    0.000    0.857    0.000    0.000 
#    0.000    0.000    0.000    0.000    0.000    0.000 
#
# Total GULP energy -347026.738642 kJ/mol
# GULP energy per Si atom -12393.812094 kJ/mol
# Density = 1.900116 g / cm^3
# Si number density = 19.044507 Si / 1000 Ang^3
#
#
#
# Elastic Constant Matrix: (Units=GPa)
#
#
# Indices 1 2 3 4 5 6 
#
# 1 116.2787 41.0508 67.9659 0.0000 4.8885 0.0000
# 2 41.0508 63.6405 31.1984 0.0000 2.4751 0.0000
# 3 67.9659 31.1984 100.9742 0.0000 -1.4752 0.0000
# 4 0.0000 0.0000 0.0000 27.4197 0.0000 -0.4582
# 5 4.8885 2.4751 -1.4752 0.0000 22.0688 0.0000
# 6 0.0000 0.0000 0.0000 -0.4582 0.0000 28.1860
#
#
#
# Elastic Compliance Matrix: (Units=1/GPa)
#
#
# Indices 1 2 3 4 5 6 
#
# 1 0.016120 -0.005794 -0.009112 0.000000 -0.003530 0.000000
# 2 -0.005794 0.020735 -0.002525 0.000000 -0.001211 0.000000
# 3 -0.009112 -0.002525 0.016867 0.000000 0.003429 0.000000
# 4 0.000000 0.000000 0.000000 0.036480 0.000000 0.000593
# 5 -0.003530 -0.001211 0.003429 0.000000 0.046460 0.000000
# 6 0.000000 0.000000 0.000000 0.000593 0.000000 0.035488
#
#
# Mechanical properties :
#
#
# Convention : Reuss Voigt Hill
#
# Bulk Modulus (GPa) = 53.01756 62.36927 57.69341
# Shear Modulus (GPa) = 23.44152 24.91345 24.17749
#
# Velocity S-wave (km/s) = 3.51220 3.62079 3.56691
# Velocity P-wave (km/s) = 6.65932 7.09228 6.87921
#
# Compressibility (1/GPa) = 0.01886168
#
# Stress axis : x y z
#
# Youngs Moduli (GPa) = 62.03594 48.22721 59.28852
#
# Poissons Ratio (x) = 0.27942 0.54021
# Poissons Ratio (y) = 0.35942 0.14967
# Poissons Ratio (z) = 0.56525 0.12175
#
# Static dielectric constant tensor:
#      x y z
#    x 3.375800 0.000000 0.396070 
#    y 0.000000 3.566000 0.000000 
#    z 0.396070 0.000000 3.827290 
# 
# 
# High freq. dielectric constant tensor:
#      x y z
#    x 1.711060 0.000000 0.037230 
#    y 0.000000 1.740960 0.000000 
#    z 0.037230 0.000000 1.749440 
# 
# From -- ./inp_files/243620.got.cif
#   From: 2010.06.25/outbox.cif.g09.slc.cpg/sg12_122_cif.got.tgz:243620.got - 2010.06.28 00:19:55.
