data_PCOD8081148
_publ_section_title
;
Structure prediction by ZEFSAII (Michael W. Deem and Ramdas Pophale) SiO2 
 PCOD8081148
Probable space group: C 2/M
;
_chemical_formula_sum "Si O2"
_cell_formula_units_Z 56
_cell_length_a 19.578313
_cell_length_b 8.823182
_cell_length_c 22.403048
_cell_angle_alpha 90.000000
_cell_angle_beta 54.386451
_cell_angle_gamma 90.000000
_cell_volume 3146.142851
_symmetry_space_group_name_H-M "C 2/M"
_symmetry_group_IT_number 12
_symmetry_cell_setting 'monoclinic'
loop_
_space_group_symop_operation_xyz
x,y,z
-x,y,-z
-x,-y,-z
x,-y,z
1/2+x,1/2+y,z
1/2-x,1/2+y,-z
1/2-x,1/2-y,-z
1/2+x,1/2-y,z
loop_
_atom_site_type_symbol
_atom_site_label
_atom_site_fract_x
_atom_site_fract_y
_atom_site_fract_z
Si Si1 0.465387 0.825218 0.698580
Si Si2 0.371014 0.174863 0.444164
Si Si3 0.309406 0.179946 0.920585
Si Si4 0.237598 0.177815 0.600785
Si Si5 0.835241 0.819570 0.240680
Si Si6 0.220148 0.677526 0.196795
Si Si7 0.982691 0.821702 0.813779
O O1 0.528154 0.798120 0.610398
O O2 0.370558 0.784240 0.727386
O O3 0.494552 0.721992 0.738752
O O4 0.468559 0.000000 0.718689
O O5 0.331224 0.223143 0.528659
O O6 0.330732 0.269954 0.411877
O O7 0.348791 0.000000 0.443604
O O8 0.277675 0.240925 0.871985
O O9 0.404592 0.234714 0.883321
O O10 0.306784 0.000000 0.925769
O O11 0.250000 0.250000 0.000000
O O12 0.216786 0.248492 0.676210
O O13 0.228316 0.000000 0.611771
O O14 0.792755 0.751177 0.201984
O O15 0.932881 0.772101 0.193930
O O16 0.827324 0.000000 0.244570
O O17 0.234684 0.500000 0.185779
O O18 0.966921 0.000000 0.827000
#
# Coordination Sequence:
#
# PCOD8081148 Si02
#       7
#     8   8   8   8   8   8   8
#     4   9  16  28  45  66  93 127 165 203 239 281
#     4   9  16  25  40  64  93 123 161 204 245 279
#     4  10  20  36  57  77  98 123 152 188 229 277
#     4   9  16  26  41  64  92 124 160 202 242 277
#     4   9  16  28  46  70  97 125 160 198 235 280
#     4   8  16  30  48  69  95 125 155 191 236 282
#     4  10  18  29  50  75  96 123 159 195 230 274
#
# _framework density 17.799572999999999
#
# number of rings (size 3 to 8) (size 9 to 14) (size 15 to 20)
#    0.000    2.857    1.429    1.714    0.000    0.000 
#    0.000    1.429    0.000   21.429    0.000    0.000 
#    0.000    9.143    0.000    0.000    0.000    0.000 
#
# Total GULP energy -346914.320411 kJ/mol
# GULP energy per Si atom -12389.797158 kJ/mol
# Density = 1.775906 g / cm^3
# Si number density = 17.799573 Si / 1000 Ang^3
#
#
#
# Elastic Constant Matrix: (Units=GPa)
#
#
# Indices 1 2 3 4 5 6 
#
# 1 134.3308 22.3850 73.9892 -0.0001 -5.5667 -0.0001
# 2 22.3850 29.7615 25.9477 -0.0002 -5.0881 -0.0003
# 3 73.9892 25.9477 149.2191 0.0000 -18.6436 0.0000
# 4 -0.0001 -0.0002 0.0000 21.2237 0.0000 -3.3028
# 5 -5.5667 -5.0881 -18.6436 0.0000 24.1878 0.0000
# 6 -0.0001 -0.0003 0.0000 -3.3028 0.0000 17.2707
#
#
#
# Elastic Compliance Matrix: (Units=1/GPa)
#
#
# Indices 1 2 3 4 5 6 
#
# 1 0.010733 -0.004204 -0.004861 0.000000 -0.002161 0.000000
# 2 -0.004204 0.041498 -0.004605 0.000000 0.004212 0.000001
# 3 -0.004861 -0.004605 0.010680 0.000000 0.006145 0.000000
# 4 0.000000 0.000000 0.000000 0.048562 0.000000 0.009287
# 5 -0.002161 0.004212 0.006145 0.000000 0.046468 0.000000
# 6 0.000000 0.000001 0.000000 0.009287 0.000000 0.059677
#
#
# Mechanical properties :
#
#
# Convention : Reuss Voigt Hill
#
# Bulk Modulus (GPa) = 28.11301 61.99502 45.05402
# Shear Modulus (GPa) = 19.46925 25.26907 22.36916
#
# Velocity S-wave (km/s) = 3.31086 3.77190 3.54888
# Velocity P-wave (km/s) = 5.51763 7.33995 6.49304
#
# Compressibility (1/GPa) = 0.03557071
#
# Stress axis : x y z
#
# Youngs Moduli (GPa) = 93.17461 24.09766 93.63150
#
# Poissons Ratio (x) = 0.10131 0.45510
# Poissons Ratio (y) = 0.39172 0.43119
# Poissons Ratio (z) = 0.45288 0.11097
#
# Static dielectric constant tensor:
#      x y z
#    x 3.490720 0.000000 -0.072750 
#    y 0.000000 3.059920 0.000000 
#    z -0.072750 0.000000 3.530310 
# 
# 
# High freq. dielectric constant tensor:
#      x y z
#    x 1.670590 0.000000 -0.019880 
#    y 0.000000 1.661170 0.000000 
#    z -0.019880 0.000000 1.689120 
# 
# From -- ./inp_files/313276.got.cif
#   From: 2010.06.25/outbox.cif.g09.slc.cpg/sg12_157_cif.got.tgz:313276.got - 2010.06.28 00:19:55.
