data_PCOD8081535
_publ_section_title
;
Structure prediction by ZEFSAII (Michael W. Deem and Ramdas Pophale) SiO2 
 PCOD8081535
Probable space group: C 2/M
;
_chemical_formula_sum "Si O2"
_cell_formula_units_Z 64
_cell_length_a 23.735608
_cell_length_b 9.379849
_cell_length_c 15.084310
_cell_angle_alpha 90.000000
_cell_angle_beta 86.874791
_cell_angle_gamma 90.000000
_cell_volume 3353.322205
_symmetry_space_group_name_H-M "C 2/M"
_symmetry_group_IT_number 12
_symmetry_cell_setting 'monoclinic'
loop_
_space_group_symop_operation_xyz
x,y,z
-x,y,-z
-x,-y,-z
x,-y,z
1/2+x,1/2+y,z
1/2-x,1/2+y,-z
1/2-x,1/2-y,-z
1/2+x,1/2-y,z
loop_
_atom_site_type_symbol
_atom_site_label
_atom_site_fract_x
_atom_site_fract_y
_atom_site_fract_z
Si Si1 0.041987 0.832638 0.311721
Si Si2 0.065972 0.332466 0.996216
Si Si3 0.377414 0.329852 0.849109
Si Si4 0.862163 0.335962 0.180458
Si Si5 0.401740 0.660474 0.523496
Si Si6 0.726498 0.660985 0.420374
Si Si7 0.414890 0.667225 0.328578
Si Si8 0.261792 0.334466 0.777087
O O1 0.081751 0.771793 0.231656
O O2 0.057406 0.765513 0.406898
O O3 0.978135 0.797492 0.292020
O O4 0.053498 0.000000 0.318415
O O5 0.071686 0.500000 0.015850
O O6 0.101177 0.244578 0.064237
O O7 0.095853 0.290524 0.901415
O O8 0.000000 0.286793 0.000000
O O9 0.380526 0.500000 0.862251
O O10 0.314224 0.274604 0.830352
O O11 0.871880 0.500000 0.204169
O O12 0.873004 0.243834 0.266089
O O13 0.796030 0.308131 0.162933
O O14 0.423246 0.500000 0.503964
O O15 0.340470 0.663041 0.570720
O O16 0.404651 0.735270 0.427142
O O17 0.749913 0.500000 0.428017
O O18 0.750000 0.750000 0.500000
O O19 0.742979 0.729184 0.322929
O O20 0.401213 0.500000 0.326800
O O21 0.274749 0.500000 0.761094
#
# Coordination Sequence:
#
# PCOD8081535 Si02
#       8
#     8   8   8   8   8   8   8   8
#     4   9  16  29  50  76 104 133 166 206 255 305
#     4  10  22  39  56  76 104 136 168 207 263 321
#     4  10  19  34  58  81 101 131 174 218 255 299
#     4  10  21  37  54  71 100 140 172 201 253 318
#     4   9  16  28  47  73 103 134 166 203 252 302
#     4  10  18  30  49  71 101 138 174 209 246 294
#     4  10  19  30  50  79 105 130 168 216 253 288
#     4   9  18  34  54  75 101 136 174 209 251 305
#
# _framework density 19.085549
#
# number of rings (size 3 to 8) (size 9 to 14) (size 15 to 20)
#    0.000    2.375    1.250    1.875    0.000    2.750 
#    0.000    1.250    0.000    3.000    0.000    0.000 
#    0.000    0.000    0.000    0.000    0.000    0.000 
#
# Total GULP energy -396645.646380 kJ/mol
# GULP energy per Si atom -12395.176449 kJ/mol
# Density = 1.904211 g / cm^3
# Si number density = 19.085549 Si / 1000 Ang^3
#
#
#
# Elastic Constant Matrix: (Units=GPa)
#
#
# Indices 1 2 3 4 5 6 
#
# 1 106.8736 22.5401 50.0847 0.0000 -2.3028 0.0000
# 2 22.5401 31.1881 31.5811 0.0000 8.3901 0.0000
# 3 50.0847 31.5811 114.3891 0.0000 4.6169 0.0000
# 4 0.0000 0.0000 0.0000 20.9737 0.0000 3.8872
# 5 -2.3028 8.3901 4.6169 0.0000 40.1125 0.0000
# 6 0.0000 0.0000 0.0000 3.8872 0.0000 14.5029
#
#
#
# Elastic Compliance Matrix: (Units=1/GPa)
#
#
# Indices 1 2 3 4 5 6 
#
# 1 0.012464 -0.005575 -0.004013 0.000000 0.002343 0.000000
# 2 -0.005575 0.049661 -0.010888 0.000000 -0.009454 0.000000
# 3 -0.004013 -0.010888 0.013485 0.000000 0.000495 0.000000
# 4 0.000000 0.000000 0.000000 0.050171 0.000000 -0.013447
# 5 0.002343 -0.009454 0.000495 0.000000 0.026985 0.000000
# 6 0.000000 0.000000 0.000000 -0.013447 0.000000 0.072556
#
#
# Mechanical properties :
#
#
# Convention : Reuss Voigt Hill
#
# Bulk Modulus (GPa) = 28.85284 51.20695 40.02989
# Shear Modulus (GPa) = 17.99688 25.00082 21.49885
#
# Velocity S-wave (km/s) = 3.07409 3.62323 3.35990
# Velocity P-wave (km/s) = 5.26788 6.66275 6.00594
#
# Compressibility (1/GPa) = 0.03465864
#
# Stress axis : x y z
#
# Youngs Moduli (GPa) = 80.23422 20.13637 74.15614
#
# Poissons Ratio (x) = 0.11226 0.29755
# Poissons Ratio (y) = 0.44730 0.80743
# Poissons Ratio (z) = 0.32194 0.21925
#
# Static dielectric constant tensor:
#      x y z
#    x 3.642760 0.000000 -0.073590 
#    y 0.000000 3.061790 0.000000 
#    z -0.073590 0.000000 3.578010 
# 
# 
# High freq. dielectric constant tensor:
#      x y z
#    x 1.758060 0.000000 -0.003300 
#    y 0.000000 1.685920 0.000000 
#    z -0.003300 0.000000 1.750950 
# 
# From -- ./inp_files/174667.got.cif
#   From: 2010.06.25/outbox.cif.g09.slc.cpg/sg12_88_cif.got.tgz:174667.got - 2010.06.28 00:19:55.
