data_PCOD8081967
_publ_section_title
;
Structure prediction by ZEFSAII (Michael W. Deem and Ramdas Pophale) SiO2 
 PCOD8081967
Probable space group: C 2/M
;
_chemical_formula_sum "Si O2"
_cell_formula_units_Z 64
_cell_length_a 13.993168
_cell_length_b 14.105477
_cell_length_c 22.313236
_cell_angle_alpha 90.000000
_cell_angle_beta 49.910375
_cell_angle_gamma 90.000000
_cell_volume 3369.375439
_symmetry_space_group_name_H-M "C 2/M"
_symmetry_group_IT_number 12
_symmetry_cell_setting 'monoclinic'
loop_
_space_group_symop_operation_xyz
x,y,z
-x,y,-z
-x,-y,-z
x,-y,z
1/2+x,1/2+y,z
1/2-x,1/2+y,-z
1/2-x,1/2-y,-z
1/2+x,1/2-y,z
loop_
_atom_site_type_symbol
_atom_site_label
_atom_site_fract_x
_atom_site_fract_y
_atom_site_fract_z
Si Si1 0.800783 0.108620 0.594086
Si Si2 0.910577 0.108858 0.676419
Si Si3 0.535094 0.892936 0.643503
Si Si4 0.239058 0.111525 0.146576
Si Si5 0.922657 0.773093 0.088651
Si Si6 0.818828 0.388763 0.823697
Si Si7 0.639217 0.741170 0.091779
Si Si8 0.608493 0.269936 0.542848
O O1 0.820919 0.130001 0.655860
O O2 0.656848 0.127292 0.635457
O O3 0.895072 0.179778 0.520680
O O4 0.838032 0.000000 0.563365
O O5 0.837908 0.143840 0.764077
O O6 0.043980 0.160408 0.617200
O O7 0.943866 0.000000 0.669439
O O8 0.415140 0.868033 0.731401
O O9 0.536153 0.830112 0.581785
O O10 0.532026 0.000000 0.621921
O O11 0.369089 0.168479 0.095709
O O12 0.159758 0.144791 0.121179
O O13 0.267073 0.000000 0.132498
O O14 0.814695 0.849951 0.144182
O O15 0.006425 0.767569 0.113746
O O16 0.000000 0.808370 0.000000
O O17 0.811778 0.500000 0.841666
O O18 0.862015 0.334014 0.865904
O O19 0.750000 0.750000 0.000000
O O20 0.750000 0.250000 0.500000
#
# Coordination Sequence:
#
# PCOD8081967 Si02
#       8
#     8   8   8   8   8   8   8   8
#     4   9  18  32  55  86 112 140 182 235 285 338
#     4  10  20  36  56  83 116 142 183 237 285 342
#     4   9  19  36  54  80 115 146 189 237 277 332
#     4  10  23  40  61  88 118 156 192 239 302 351
#     4  11  22  41  58  87 122 152 192 248 293 346
#     4  10  22  39  61  85 115 161 203 237 289 352
#     4  11  22  41  58  86 123 150 192 250 297 340
#     4  10  18  30  53  81 109 149 184 221 283 338
#
# _framework density 18.994617999999999
#
# number of rings (size 3 to 8) (size 9 to 14) (size 15 to 20)
#    0.000    2.000    2.500    2.250    1.750    3.500 
#    0.000    0.000    0.000    1.500    0.000    0.000 
#    0.000    0.000    0.000    0.000    0.000    0.000 
#
# Total GULP energy -396673.856987 kJ/mol
# GULP energy per Si atom -12396.058031 kJ/mol
# Density = 1.895139 g / cm^3
# Si number density = 18.994618 Si / 1000 Ang^3
#
#
#
# Elastic Constant Matrix: (Units=GPa)
#
#
# Indices 1 2 3 4 5 6 
#
# 1 112.5454 37.2092 40.4492 0.0000 -2.9232 0.0000
# 2 37.2092 101.9282 61.9006 0.0000 1.8898 0.0000
# 3 40.4492 61.9006 128.1386 0.0000 -1.0875 0.0000
# 4 0.0000 0.0000 0.0000 36.0593 0.0000 1.7831
# 5 -2.9232 1.8898 -1.0875 0.0000 30.9714 0.0000
# 6 0.0000 0.0000 0.0000 1.7831 0.0000 25.2627
#
#
#
# Elastic Compliance Matrix: (Units=1/GPa)
#
#
# Indices 1 2 3 4 5 6 
#
# 1 0.010513 -0.002615 -0.002046 0.000000 0.001080 0.000000
# 2 -0.002615 0.014571 -0.006225 0.000000 -0.001355 0.000000
# 3 -0.002046 -0.006225 0.011462 0.000000 0.000589 0.000000
# 4 0.000000 0.000000 0.000000 0.027829 0.000000 -0.001964
# 5 0.001080 -0.001355 0.000589 0.000000 0.032493 0.000000
# 6 0.000000 0.000000 0.000000 -0.001964 0.000000 0.039723
#
#
# Mechanical properties :
#
#
# Convention : Reuss Voigt Hill
#
# Bulk Modulus (GPa) = 67.68752 69.08116 68.38434
# Shear Modulus (GPa) = 30.62061 31.99555 31.30808
#
# Velocity S-wave (km/s) = 4.01941 4.10866 4.06428
# Velocity P-wave (km/s) = 7.56660 7.67827 7.62264
#
# Compressibility (1/GPa) = 0.01477377
#
# Stress axis : x y z
#
# Youngs Moduli (GPa) = 95.11641 68.62959 87.24480
#
# Poissons Ratio (x) = 0.17949 0.17852
# Poissons Ratio (y) = 0.24876 0.54308
# Poissons Ratio (z) = 0.19462 0.42720
#
# Static dielectric constant tensor:
#      x y z
#    x 3.535610 0.000000 0.064330 
#    y 0.000000 3.686960 0.000000 
#    z 0.064330 0.000000 3.776430 
# 
# 
# High freq. dielectric constant tensor:
#      x y z
#    x 1.722240 0.000000 -0.007370 
#    y 0.000000 1.743590 0.000000 
#    z -0.007370 0.000000 1.753430 
# 
# From -- ./inp_files/340143.got.cif
#   From: 2010.06.25/outbox.cif.g09.slc.cpg/sg12_171_cif.got.tgz:340143.got - 2010.06.28 00:19:55.
