data_PCOD8081798
_publ_section_title
;
Structure prediction by ZEFSAII (Michael W. Deem and Ramdas Pophale) SiO2 
 PCOD8081798
Probable space group: C 2/M
;
_chemical_formula_sum "Si O2"
_cell_formula_units_Z 56
_cell_length_a 16.969073
_cell_length_b 13.008710
_cell_length_c 17.610264
_cell_angle_alpha 90.000000
_cell_angle_beta 124.657389
_cell_angle_gamma 90.000000
_cell_volume 3197.640224
_symmetry_space_group_name_H-M "C 2/M"
_symmetry_group_IT_number 12
_symmetry_cell_setting 'monoclinic'
loop_
_space_group_symop_operation_xyz
x,y,z
-x,y,-z
-x,-y,-z
x,-y,z
1/2+x,1/2+y,z
1/2-x,1/2+y,-z
1/2-x,1/2-y,-z
1/2+x,1/2-y,z
loop_
_atom_site_type_symbol
_atom_site_label
_atom_site_fract_x
_atom_site_fract_y
_atom_site_fract_z
Si Si1 0.352633 0.690620 0.198879
Si Si2 0.111756 0.194373 0.211362
Si Si3 0.764323 0.617431 0.728847
Si Si4 0.405674 0.619484 0.069202
Si Si5 0.440680 0.380521 0.660214
Si Si6 0.398675 0.620138 0.470842
Si Si7 0.731407 0.383097 0.142718
O O1 0.281942 0.624778 0.213082
O O2 0.342755 0.645629 0.108740
O O3 0.461022 0.683434 0.287957
O O4 0.323763 0.810663 0.184979
O O5 0.139768 0.314581 0.223608
O O6 0.123410 0.152274 0.303419
O O7 0.183502 0.128459 0.198844
O O8 0.003125 0.185039 0.122749
O O9 0.792882 0.500000 0.727108
O O10 0.689391 0.664791 0.626147
O O11 0.434325 0.500000 0.084656
O O12 0.346574 0.650082 0.962676
O O13 0.468957 0.500000 0.681823
O O14 0.381880 0.357934 0.550955
O O15 0.500000 0.669457 0.500000
O O16 0.402101 0.500000 0.453888
O O17 0.765472 0.500000 0.149193
#
# Coordination Sequence:
#
# PCOD8081798 Si02
#       7
#     8   8   8   8   8   8   8
#     4  10  18  30  51  75  95 121 161 203 240 278
#     4  10  20  31  49  72  97 129 160 193 237 288
#     4  10  19  32  49  73 101 125 154 198 242 282
#     4  10  19  33  52  71  94 124 164 205 235 271
#     4  10  18  31  51  74  98 123 161 203 233 272
#     4   9  16  28  50  75  96 120 155 197 239 276
#     4  10  20  33  49  71  98 127 158 198 241 284
#
# _framework density 17.512916000000001
#
# number of rings (size 3 to 8) (size 9 to 14) (size 15 to 20)
#    0.000    2.143    1.429    4.286    0.000    1.714 
#    0.000    2.857    0.000    8.571    0.000   10.000 
#    0.000    0.000    0.000    0.000    0.000    0.000 
#
# Total GULP energy -347213.579763 kJ/mol
# GULP energy per Si atom -12400.484992 kJ/mol
# Density = 1.747306 g / cm^3
# Si number density = 17.512916 Si / 1000 Ang^3
#
#
#
# Elastic Constant Matrix: (Units=GPa)
#
#
# Indices 1 2 3 4 5 6 
#
# 1 89.1373 43.8289 49.2825 0.0000 -6.2254 0.0000
# 2 43.8289 91.1858 50.5980 0.0000 10.7710 0.0000
# 3 49.2825 50.5980 81.2832 0.0000 -9.6207 0.0000
# 4 0.0000 0.0000 0.0000 17.8831 0.0000 3.7895
# 5 -6.2254 10.7710 -9.6207 0.0000 25.5781 0.0000
# 6 0.0000 0.0000 0.0000 3.7895 0.0000 21.3629
#
#
#
# Elastic Compliance Matrix: (Units=1/GPa)
#
#
# Indices 1 2 3 4 5 6 
#
# 1 0.018013 -0.005016 -0.007358 0.000000 0.003729 0.000000
# 2 -0.005016 0.022145 -0.012551 0.000000 -0.015267 0.000000
# 3 -0.007358 -0.012551 0.026155 0.000000 0.013332 0.000000
# 4 0.000000 0.000000 0.000000 0.058103 0.000000 -0.010307
# 5 0.003729 -0.015267 0.013332 0.000000 0.051447 0.000000
# 6 0.000000 0.000000 0.000000 -0.010307 0.000000 0.048638
#
#
# Mechanical properties :
#
#
# Convention : Reuss Voigt Hill
#
# Bulk Modulus (GPa) = 60.73989 61.00280 60.87134
# Shear Modulus (GPa) = 17.86735 20.82461 19.34598
#
# Velocity S-wave (km/s) = 3.19758 3.45207 3.32726
# Velocity P-wave (km/s) = 6.95636 7.12725 7.04232
#
# Compressibility (1/GPa) = 0.01646365
#
# Stress axis : x y z
#
# Youngs Moduli (GPa) = 55.51392 45.15616 38.23383
#
# Poissons Ratio (x) = 0.22650 0.28133
# Poissons Ratio (y) = 0.27845 0.47988
# Poissons Ratio (z) = 0.40847 0.56676
#
# Static dielectric constant tensor:
#      x y z
#    x 3.180540 0.000000 -0.217550 
#    y 0.000000 3.084880 0.000000 
#    z -0.217550 0.000000 3.418240 
# 
# 
# High freq. dielectric constant tensor:
#      x y z
#    x 1.667470 0.000000 -0.020880 
#    y 0.000000 1.653990 0.000000 
#    z -0.020880 0.000000 1.684450 
# 
# From -- ./inp_files/276354.got.cif
#   From: 2010.06.25/outbox.cif.g09.slc.cpg/sg12_139_cif.got.tgz:276354.got - 2010.06.28 00:19:55.
