data_PCOD8081113
_publ_section_title
;
Structure prediction by ZEFSAII (Michael W. Deem and Ramdas Pophale) SiO2 
 PCOD8081113
Probable space group: C 2/M
;
_chemical_formula_sum "Si O2"
_cell_formula_units_Z 56
_cell_length_a 20.206634
_cell_length_b 8.655601
_cell_length_c 30.552405
_cell_angle_alpha 90.000000
_cell_angle_beta 146.846296
_cell_angle_gamma 90.000000
_cell_volume 2922.362901
_symmetry_space_group_name_H-M "C 2/M"
_symmetry_group_IT_number 12
_symmetry_cell_setting 'monoclinic'
loop_
_space_group_symop_operation_xyz
x,y,z
-x,y,-z
-x,-y,-z
x,-y,z
1/2+x,1/2+y,z
1/2-x,1/2+y,-z
1/2-x,1/2-y,-z
1/2+x,1/2-y,z
loop_
_atom_site_type_symbol
_atom_site_label
_atom_site_fract_x
_atom_site_fract_y
_atom_site_fract_z
Si Si1 0.227816 0.679879 0.586448
Si Si2 0.978332 0.679843 0.836573
Si Si3 0.630617 0.318736 0.842989
Si Si4 0.793694 0.178284 0.333838
Si Si5 0.530740 0.179694 0.314945
Si Si6 0.991839 0.680158 0.597369
Si Si7 0.671198 0.682840 0.995765
O O1 0.259704 0.500000 0.599884
O O2 0.184363 0.717707 0.611285
O O3 0.345323 0.778743 0.640519
O O4 0.122009 0.728683 0.494932
O O5 0.009689 0.500000 0.849795
O O6 0.836018 0.712113 0.759706
O O7 0.032686 0.764470 0.824403
O O8 0.036498 0.748075 0.913776
O O9 0.647637 0.500000 0.855830
O O10 0.581616 0.271882 0.768209
O O11 0.762860 0.240071 0.923415
O O12 0.892370 0.221604 0.352443
O O13 0.805973 0.000000 0.354180
O O14 0.540454 0.224953 0.370980
O O15 0.505898 0.000000 0.294184
O O16 0.021873 0.500000 0.608718
O O17 0.665387 0.500000 0.991424
O O18 0.750000 0.750000 0.000000
#
# Coordination Sequence:
#
# PCOD8081113 Si02
#       7
#     8   8   8   8   8   8   8
#     4  11  22  38  60  84 110 145 189 236 283 334
#     4  10  19  33  52  79 113 145 182 228 276 328
#     4  11  20  32  53  81 111 146 183 226 277 331
#     4  11  23  37  58  84 114 150 188 232 279 331
#     4  11  22  38  58  82 113 148 187 234 283 333
#     4  10  24  41  57  80 113 150 188 233 284 336
#     4  10  18  29  49  78 111 144 179 225 275 326
#
# _framework density 19.162576000000001
#
# number of rings (size 3 to 8) (size 9 to 14) (size 15 to 20)
#    0.000    1.429    1.429    6.857    0.000    5.714 
#    0.000    0.000    0.000    0.857    0.000    6.000 
#    0.000    0.000    0.000    0.000    0.000    0.000 
#
# Total GULP energy -347291.101535 kJ/mol
# GULP energy per Si atom -12403.253626 kJ/mol
# Density = 1.911896 g / cm^3
# Si number density = 19.162576 Si / 1000 Ang^3
#
#
#
# Elastic Constant Matrix: (Units=GPa)
#
#
# Indices 1 2 3 4 5 6 
#
# 1 48.7765 12.5509 19.0587 0.0000 -1.8002 -0.0002
# 2 12.5509 101.0698 47.2979 0.0002 1.0408 -0.0007
# 3 19.0587 47.2979 142.1543 0.0000 1.1231 -0.0001
# 4 0.0000 0.0002 0.0000 35.3948 0.0000 1.0388
# 5 -1.8002 1.0408 1.1231 0.0000 7.4864 0.0000
# 6 -0.0002 -0.0007 -0.0001 1.0388 0.0000 24.6404
#
#
#
# Elastic Compliance Matrix: (Units=1/GPa)
#
#
# Indices 1 2 3 4 5 6 
#
# 1 0.022107 -0.001655 -0.002460 0.000000 0.005915 0.000000
# 2 -0.001655 0.011851 -0.003709 0.000000 -0.001489 0.000000
# 3 -0.002460 -0.003709 0.008609 0.000000 -0.001367 0.000000
# 4 0.000000 0.000000 0.000000 0.028288 0.000000 -0.001193
# 5 0.005915 -0.001489 -0.001367 0.000000 0.135411 0.000000
# 6 0.000000 0.000000 0.000000 -0.001193 0.000000 0.040634
#
#
# Mechanical properties :
#
#
# Convention : Reuss Voigt Hill
#
# Bulk Modulus (GPa) = 37.14898 49.97951 43.56424
# Shear Modulus (GPa) = 18.41475 27.71053 23.06264
#
# Velocity S-wave (km/s) = 3.10332 3.80686 3.47295
# Velocity P-wave (km/s) = 5.68059 6.74250 6.23420
#
# Compressibility (1/GPa) = 0.02691864
#
# Stress axis : x y z
#
# Youngs Moduli (GPa) = 45.23440 84.38178 116.15174
#
# Poissons Ratio (x) = 0.13965 0.28573
# Poissons Ratio (y) = 0.07486 0.43085
# Poissons Ratio (z) = 0.11128 0.31301
#
# Static dielectric constant tensor:
#      x y z
#    x 3.109950 0.000000 -0.000780 
#    y 0.000000 3.565180 0.000000 
#    z -0.000780 0.000000 4.229010 
# 
# 
# High freq. dielectric constant tensor:
#      x y z
#    x 1.699080 0.000000 0.000350 
#    y 0.000000 1.759430 0.000000 
#    z 0.000350 0.000000 1.771500 
# 
# From -- ./inp_files/363218.got.cif
#   From: 2010.06.25/outbox.cif.g09.slc.cpg/sg12_182_cif.got.tgz:363218.got - 2010.06.28 00:19:55.
