data_PCOD8081616
_publ_section_title
;
Structure prediction by ZEFSAII (Michael W. Deem and Ramdas Pophale) SiO2 
 PCOD8081616
Probable space group: C 2/M
;
_chemical_formula_sum "Si O2"
_cell_formula_units_Z 64
_cell_length_a 32.986877
_cell_length_b 8.782664
_cell_length_c 15.259467
_cell_angle_alpha 90.000000
_cell_angle_beta 47.759543
_cell_angle_gamma 90.000000
_cell_volume 3272.896286
_symmetry_space_group_name_H-M "C 2/M"
_symmetry_group_IT_number 12
_symmetry_cell_setting 'monoclinic'
loop_
_space_group_symop_operation_xyz
x,y,z
-x,y,-z
-x,-y,-z
x,-y,z
1/2+x,1/2+y,z
1/2-x,1/2+y,-z
1/2-x,1/2-y,-z
1/2+x,1/2-y,z
loop_
_atom_site_type_symbol
_atom_site_label
_atom_site_fract_x
_atom_site_fract_y
_atom_site_fract_z
Si Si1 0.855014 0.679739 0.609343
Si Si2 0.723714 0.167073 0.617277
Si Si3 0.879365 0.319384 0.038612
Si Si4 0.456955 0.674722 0.785591
Si Si5 0.570312 0.182506 0.657151
Si Si6 0.766903 0.177436 0.218740
Si Si7 0.559682 0.325866 0.388673
Si Si8 0.599843 0.835243 0.800972
O O1 0.852227 0.500000 0.612827
O O2 0.878616 0.732832 0.479631
O O3 0.793473 0.741150 0.720261
O O4 0.893670 0.731156 0.631577
O O5 0.750000 0.250000 0.500000
O O6 0.729061 0.289642 0.685273
O O7 0.661595 0.138361 0.682554
O O8 0.750133 0.000000 0.600102
O O9 0.874461 0.500000 0.056008
O O10 0.818894 0.260503 0.097889
O O11 0.901017 0.251686 0.101942
O O12 0.922199 0.274558 0.903109
O O13 0.458602 0.500000 0.814760
O O14 0.517501 0.742070 0.690398
O O15 0.429424 0.688188 0.730573
O O16 0.574018 0.248006 0.752499
O O17 0.564955 0.000000 0.666590
O O18 0.772730 0.000000 0.189660
O O19 0.500000 0.259231 0.500000
O O20 0.563154 0.500000 0.415854
O O21 0.570515 0.000000 0.854259
#
# Coordination Sequence:
#
# PCOD8081616 Si02
#       8
#     8   8   8   8   8   8   8   8
#     4  10  21  35  58  89 118 146 183 233 285 340
#     4  10  18  30  49  75 109 151 195 238 282 333
#     4  10  21  39  60  82 110 152 198 233 272 332
#     4  11  23  39  58  82 112 147 185 234 289 337
#     4  10  19  34  56  83 113 148 187 229 277 333
#     4  10  20  36  56  82 115 149 186 234 286 337
#     4  10  21  39  60  83 114 147 181 229 290 346
#     4   8  17  33  52  75 108 147 188 229 273 326
#
# _framework density 19.554546999999999
#
# number of rings (size 3 to 8) (size 9 to 14) (size 15 to 20)
#    0.000    2.125    1.250    3.000    0.000    4.750 
#    0.000    8.125    0.000    0.000    0.000    0.000 
#    0.000    0.000    0.000    0.000    0.000    0.000 
#
# Total GULP energy -396449.231183 kJ/mol
# GULP energy per Si atom -12389.038474 kJ/mol
# Density = 1.951004 g / cm^3
# Si number density = 19.554547 Si / 1000 Ang^3
#
#
#
# Elastic Constant Matrix: (Units=GPa)
#
#
# Indices 1 2 3 4 5 6 
#
# 1 89.9324 12.7139 19.6283 0.0000 -3.0381 -0.0003
# 2 12.7139 36.8024 22.3000 0.0000 -4.6230 -0.0008
# 3 19.6283 22.3000 70.1234 0.0001 5.5973 0.0000
# 4 0.0000 0.0000 0.0001 25.5398 0.0000 -1.6039
# 5 -3.0381 -4.6230 5.5973 0.0000 25.7834 -0.0001
# 6 -0.0003 -0.0008 0.0000 -1.6039 -0.0001 25.7873
#
#
#
# Elastic Compliance Matrix: (Units=1/GPa)
#
#
# Indices 1 2 3 4 5 6 
#
# 1 0.012107 -0.002288 -0.002791 0.000000 0.001622 0.000000
# 2 -0.002288 0.036029 -0.011511 0.000000 0.008689 0.000001
# 3 -0.002791 -0.011511 0.019226 0.000000 -0.006567 0.000000
# 4 0.000000 0.000000 0.000000 0.039308 0.000000 0.002445
# 5 0.001622 0.008689 -0.006567 0.000000 0.041959 0.000000
# 6 0.000000 0.000001 0.000000 0.002445 0.000000 0.038931
#
#
# Mechanical properties :
#
#
# Convention : Reuss Voigt Hill
#
# Bulk Modulus (GPa) = 29.25384 34.01584 31.63484
# Shear Modulus (GPa) = 21.53936 24.90317 23.22127
#
# Velocity S-wave (km/s) = 3.32249 3.57252 3.44977
# Velocity P-wave (km/s) = 5.45079 5.86944 5.66399
#
# Compressibility (1/GPa) = 0.03418355
#
# Stress axis : x y z
#
# Youngs Moduli (GPa) = 82.59832 27.75562 52.01163
#
# Poissons Ratio (x) = 0.06349 0.14516
# Poissons Ratio (y) = 0.18895 0.59870
# Poissons Ratio (z) = 0.23052 0.31949
#
# Static dielectric constant tensor:
#      x y z
#    x 3.640060 0.000000 -0.075550 
#    y 0.000000 3.405880 0.000000 
#    z -0.075550 0.000000 3.398280 
# 
# 
# High freq. dielectric constant tensor:
#      x y z
#    x 1.757090 0.000000 -0.002590 
#    y 0.000000 1.745360 0.000000 
#    z -0.002590 0.000000 1.760330 
# 
# From -- ./inp_files/249772.got.cif
#   From: 2010.06.25/outbox.cif.g09.slc.cpg/sg12_125_cif.got.tgz:249772.got - 2010.06.28 00:19:55.
