data_PCOD8081685
_publ_section_title
;
Structure prediction by ZEFSAII (Michael W. Deem and Ramdas Pophale) SiO2 
 PCOD8081685
Probable space group: C 2/M
;
_chemical_formula_sum "Si O2"
_cell_formula_units_Z 56
_cell_length_a 34.380754
_cell_length_b 9.041727
_cell_length_c 23.153795
_cell_angle_alpha 90.000000
_cell_angle_beta 156.220386
_cell_angle_gamma 90.000000
_cell_volume 2902.222739
_symmetry_space_group_name_H-M "C 2/M"
_symmetry_group_IT_number 12
_symmetry_cell_setting 'monoclinic'
loop_
_space_group_symop_operation_xyz
x,y,z
-x,y,-z
-x,-y,-z
x,-y,z
1/2+x,1/2+y,z
1/2-x,1/2+y,-z
1/2-x,1/2-y,-z
1/2+x,1/2-y,z
loop_
_atom_site_type_symbol
_atom_site_label
_atom_site_fract_x
_atom_site_fract_y
_atom_site_fract_z
Si Si1 0.412762 0.666919 0.446980
Si Si2 0.197973 0.329626 0.798433
Si Si3 0.575209 0.830028 0.734287
Si Si4 0.515724 0.326544 0.288516
Si Si5 0.598071 0.671146 0.975756
Si Si6 0.794279 0.834415 0.397213
Si Si7 0.591872 0.176409 0.089151
O O1 0.452839 0.500000 0.494563
O O2 0.375810 0.724550 0.335581
O O3 0.494323 0.776088 0.579986
O O4 0.323978 0.668934 0.370733
O O5 0.178781 0.500000 0.754900
O O6 0.177336 0.307414 0.839222
O O7 0.306791 0.284035 0.930837
O O8 0.567981 0.741031 0.784439
O O9 0.557192 0.000000 0.724999
O O10 0.516102 0.500000 0.303652
O O11 0.621975 0.258251 0.449235
O O12 0.491946 0.295711 0.189400
O O13 0.600943 0.500000 0.997650
O O14 0.584089 0.766955 0.013470
O O15 0.687646 0.759638 0.252351
O O16 0.782585 0.000000 0.405008
O O17 0.596771 0.000000 0.092863
O O18 0.500000 0.233224 0.000000
#
# Coordination Sequence:
#
# PCOD8081685 Si02
#       7
#     8   8   8   8   8   8   8
#     4  10  18  30  50  74 102 139 183 222 260 311
#     4  10  20  32  47  72 107 142 177 221 271 311
#     4  10  20  32  47  72 107 143 179 222 266 307
#     4   9  19  36  55  75 105 144 184 219 257 311
#     4  10  21  37  56  78 107 142 177 219 268 317
#     4   8  15  31  53  76 101 134 172 212 259 310
#     4  10  20  36  59  84 107 132 170 221 272 323
#
# _framework density 19.295555
#
# number of rings (size 3 to 8) (size 9 to 14) (size 15 to 20)
#    0.000    2.429    1.429    2.143    0.000    4.286 
#    0.000    0.714    0.000    0.000    0.000    0.000 
#    0.000    0.000    0.000    0.000    0.000    0.000 
#
# Total GULP energy -346983.543451 kJ/mol
# GULP energy per Si atom -12392.269409 kJ/mol
# Density = 1.925164 g / cm^3
# Si number density = 19.295555 Si / 1000 Ang^3
#
#
#
# Elastic Constant Matrix: (Units=GPa)
#
#
# Indices 1 2 3 4 5 6 
#
# 1 93.0934 28.9561 63.2117 0.0000 13.2111 0.0000
# 2 28.9561 42.2996 19.4290 0.0000 -0.9280 0.0000
# 3 63.2117 19.4290 77.8695 0.0000 -0.6009 0.0000
# 4 0.0000 0.0000 0.0000 19.0339 0.0000 -3.7672
# 5 13.2111 -0.9280 -0.6009 0.0000 28.8980 0.0000
# 6 0.0000 0.0000 0.0000 -3.7672 0.0000 25.9498
#
#
#
# Elastic Compliance Matrix: (Units=1/GPa)
#
#
# Indices 1 2 3 4 5 6 
#
# 1 0.032918 -0.011919 -0.023871 0.000000 -0.015928 0.000000
# 2 -0.011919 0.031032 0.001983 0.000000 0.006487 0.000000
# 3 -0.023871 0.001983 0.031815 0.000000 0.011638 0.000000
# 4 0.000000 0.000000 0.000000 0.054092 0.000000 0.007853
# 5 -0.015928 0.006487 0.011638 0.000000 0.042337 0.000000
# 6 0.000000 0.000000 0.000000 0.007853 0.000000 0.039676
#
#
# Mechanical properties :
#
#
# Convention : Reuss Voigt Hill
#
# Bulk Modulus (GPa) = 35.52357 48.49513 42.00935
# Shear Modulus (GPa) = 16.18818 21.55405 18.87111
#
# Velocity S-wave (km/s) = 2.89962 3.34585 3.13070
# Velocity P-wave (km/s) = 5.44616 6.33353 5.90653
#
# Compressibility (1/GPa) = 0.02815032
#
# Stress axis : x y z
#
# Youngs Moduli (GPa) = 30.37806 32.22522 31.43198
#
# Poissons Ratio (x) = 0.38410 0.75031
# Poissons Ratio (y) = 0.36208 -0.06233
# Poissons Ratio (z) = 0.72516 -0.06390
#
# Static dielectric constant tensor:
#      x y z
#    x 3.429530 0.000000 0.158260 
#    y 0.000000 3.334460 0.000000 
#    z 0.158260 0.000000 3.681130 
# 
# 
# High freq. dielectric constant tensor:
#      x y z
#    x 1.734000 0.000000 0.002230 
#    y 0.000000 1.729960 0.000000 
#    z 0.002230 0.000000 1.750070 
# 
# From -- ./inp_files/329687.got.cif
#   From: 2010.06.25/outbox.cif.g09.slc.cpg/sg12_165_cif.got.tgz:329687.got - 2010.06.28 00:19:55.
