data_PCOD8081462
_publ_section_title
;
Structure prediction by ZEFSAII (Michael W. Deem and Ramdas Pophale) SiO2 
 PCOD8081462
Probable space group: C 2/M
;
_chemical_formula_sum "Si O2"
_cell_formula_units_Z 56
_cell_length_a 31.877027
_cell_length_b 8.971560
_cell_length_c 11.925200
_cell_angle_alpha 90.000000
_cell_angle_beta 116.942165
_cell_angle_gamma 90.000000
_cell_volume 3040.292861
_symmetry_space_group_name_H-M "C 2/M"
_symmetry_group_IT_number 12
_symmetry_cell_setting 'monoclinic'
loop_
_space_group_symop_operation_xyz
x,y,z
-x,y,-z
-x,-y,-z
x,-y,z
1/2+x,1/2+y,z
1/2-x,1/2+y,-z
1/2-x,1/2-y,-z
1/2+x,1/2-y,z
loop_
_atom_site_type_symbol
_atom_site_label
_atom_site_fract_x
_atom_site_fract_y
_atom_site_fract_z
Si Si1 0.560976 0.177027 0.470430
Si Si2 0.542524 0.823299 0.694171
Si Si3 0.335717 0.322831 0.785924
Si Si4 0.145209 0.322360 0.417366
Si Si5 0.270766 0.176387 0.330398
Si Si6 0.376174 0.825624 0.052297
Si Si7 0.292226 0.173139 0.112732
O O1 0.511438 0.228822 0.354774
O O2 0.563224 0.238859 0.600912
O O3 0.604040 0.238927 0.448846
O O4 0.564014 0.000000 0.476349
O O5 0.573292 0.771428 0.838420
O O6 0.545223 0.000000 0.689446
O O7 0.336950 0.500000 0.781729
O O8 0.362094 0.254133 0.711198
O O9 0.282140 0.259728 0.722654
O O10 0.363616 0.270565 0.929167
O O11 0.142811 0.500000 0.401252
O O12 0.195541 0.268559 0.528347
O O13 0.294244 0.232001 0.242836
O O14 0.268415 0.000000 0.329426
O O15 0.340612 0.789935 0.110110
O O16 0.375525 0.000000 0.019073
O O17 0.280852 0.000000 0.098004
O O18 0.250000 0.250000 0.000000
#
# Coordination Sequence:
#
# PCOD8081462 Si02
#       7
#     8   8   8   8   8   8   8
#     4   8  14  27  51  80 104 122 150 202 256 294
#     4   8  14  27  50  81 106 122 150 198 254 300
#     4  11  22  35  48  66 100 139 169 203 242 285
#     4  10  19  33  53  74  95 126 168 207 244 289
#     4   9  18  32  50  71  97 129 163 201 246 290
#     4  10  19  31  51  76 101 130 164 200 240 291
#     4  10  18  30  48  72 100 128 157 194 239 287
#
# _framework density 18.419277999999998
#
# number of rings (size 3 to 8) (size 9 to 14) (size 15 to 20)
#    0.000    2.571    1.429    2.571    0.000    3.429 
#    0.000    2.143    0.000    7.714    0.000    2.000 
#    0.000    0.000    0.000    0.000    0.000    0.000 
#
# Total GULP energy -347074.766214 kJ/mol
# GULP energy per Si atom -12395.527365 kJ/mol
# Density = 1.837736 g / cm^3
# Si number density = 18.419278 Si / 1000 Ang^3
#
#
#
# Elastic Constant Matrix: (Units=GPa)
#
#
# Indices 1 2 3 4 5 6 
#
# 1 103.9119 20.8863 69.0580 0.0000 4.9576 0.0000
# 2 20.8863 25.7743 31.5416 0.0000 -0.4836 0.0000
# 3 69.0580 31.5416 130.6286 0.0000 3.9101 0.0000
# 4 0.0000 0.0000 0.0000 21.0322 0.0000 0.1810
# 5 4.9576 -0.4836 3.9101 0.0000 33.9982 0.0000
# 6 0.0000 0.0000 0.0000 0.1810 0.0000 15.5154
#
#
#
# Elastic Compliance Matrix: (Units=1/GPa)
#
#
# Indices 1 2 3 4 5 6 
#
# 1 0.015124 -0.003621 -0.007078 0.000000 -0.001443 0.000000
# 2 -0.003621 0.056121 -0.011717 0.000000 0.002674 0.000000
# 3 -0.007078 -0.011717 0.014249 0.000000 -0.000773 0.000000
# 4 0.000000 0.000000 0.000000 0.047551 0.000000 -0.000555
# 5 -0.001443 0.002674 -0.000773 0.000000 0.029751 0.000000
# 6 0.000000 0.000000 0.000000 -0.000555 0.000000 0.064459
#
#
# Mechanical properties :
#
#
# Convention : Reuss Voigt Hill
#
# Bulk Modulus (GPa) = 24.59229 55.92072 40.25650
# Shear Modulus (GPa) = 17.50446 23.36441 20.43444
#
# Velocity S-wave (km/s) = 3.08609 3.56543 3.33439
# Velocity P-wave (km/s) = 5.10676 6.88299 6.06030
#
# Compressibility (1/GPa) = 0.04066316
#
# Stress axis : x y z
#
# Youngs Moduli (GPa) = 66.11963 17.81849 70.17853
#
# Poissons Ratio (x) = 0.06453 0.49672
# Poissons Ratio (y) = 0.23944 0.82226
# Poissons Ratio (z) = 0.46799 0.20877
#
# Static dielectric constant tensor:
#      x y z
#    x 3.421880 0.000000 0.116600 
#    y 0.000000 2.984590 0.000000 
#    z 0.116600 0.000000 3.563920 
# 
# 
# High freq. dielectric constant tensor:
#      x y z
#    x 1.713780 0.000000 0.002810 
#    y 0.000000 1.662130 0.000000 
#    z 0.002810 0.000000 1.723740 
# 
# From -- ./inp_files/186813.got.cif
#   From: 2010.06.25/outbox.cif.g09.slc.cpg/sg12_94_cif.got.tgz:186813.got - 2010.06.28 00:19:55.
