data_PCOD8081760
_publ_section_title
;
Structure prediction by ZEFSAII (Michael W. Deem and Ramdas Pophale) SiO2 
 PCOD8081760
Probable space group: C 2/M
;
_chemical_formula_sum "Si O2"
_cell_formula_units_Z 40
_cell_length_a 21.614952
_cell_length_b 11.403346
_cell_length_c 19.588293
_cell_angle_alpha 90.000000
_cell_angle_beta 152.426989
_cell_angle_gamma 90.000000
_cell_volume 2234.859450
_symmetry_space_group_name_H-M "C 2/M"
_symmetry_group_IT_number 12
_symmetry_cell_setting 'monoclinic'
loop_
_space_group_symop_operation_xyz
x,y,z
-x,y,-z
-x,-y,-z
x,-y,z
1/2+x,1/2+y,z
1/2-x,1/2+y,-z
1/2-x,1/2-y,-z
1/2+x,1/2-y,z
loop_
_atom_site_type_symbol
_atom_site_label
_atom_site_fract_x
_atom_site_fract_y
_atom_site_fract_z
Si Si1 0.871987 0.225816 0.333143
Si Si2 0.414418 0.782722 0.101256
Si Si3 0.283647 0.000000 0.790188
Si Si4 0.885363 0.862319 0.938489
Si Si5 0.503035 0.000000 0.118894
Si Si6 0.880882 0.137174 0.192867
O O1 0.810419 0.111561 0.307911
O O2 0.762031 0.328107 0.231241
O O3 0.916306 0.195633 0.299622
O O4 0.000000 0.269712 0.500000
O O5 0.462229 0.711839 0.215190
O O6 0.517594 0.885198 0.180789
O O7 0.406983 0.689181 0.033942
O O8 0.274847 0.849328 0.977550
O O9 0.380520 0.000000 0.821422
O O10 0.360781 0.000000 0.938686
O O11 0.897362 0.000000 0.955202
O O12 0.000000 0.811469 0.000000
O O13 0.921690 0.000000 0.231411
#
# Coordination Sequence:
#
# PCOD8081760 Si02
#       6
#     8   8   4   8   4   8
#     4  11  21  35  55  83 108 141 180 225 272 315
#     4  10  18  30  50  80 106 138 172 225 273 310
#     4  11  19  32  56  82 108 136 178 233 265 317
#     4  10  20  35  55  79 107 142 182 218 266 323
#     4  11  18  32  56  82 109 134 182 231 268 311
#     4  10  18  31  48  75 112 138 172 219 272 322
#
# _framework density 17.898216999999999
#
# number of rings (size 3 to 8) (size 9 to 14) (size 15 to 20)
#    0.000    1.600    6.000    2.100    0.000    0.400 
#    1.800    0.000    0.000    4.800    0.000    0.000 
#    0.000    0.000    0.000    0.000    0.000    0.000 
#
# Total GULP energy -247986.925591 kJ/mol
# GULP energy per Si atom -12399.346280 kJ/mol
# Density = 1.785748 g / cm^3
# Si number density = 17.898217 Si / 1000 Ang^3
#
#
#
# Elastic Constant Matrix: (Units=GPa)
#
#
# Indices 1 2 3 4 5 6 
#
# 1 112.5058 55.8787 44.0717 0.0000 -9.7229 0.0000
# 2 55.8787 88.6075 25.6592 0.0000 -4.9191 0.0000
# 3 44.0717 25.6592 74.0836 0.0000 -6.6748 -0.0001
# 4 0.0000 0.0000 0.0000 13.0419 0.0000 -7.4798
# 5 -9.7229 -4.9191 -6.6748 0.0000 16.2035 -0.0001
# 6 0.0000 0.0000 -0.0001 -7.4798 -0.0001 37.6124
#
#
#
# Elastic Compliance Matrix: (Units=1/GPa)
#
#
# Indices 1 2 3 4 5 6 
#
# 1 0.015544 -0.007774 -0.006155 0.000000 0.004431 0.000000
# 2 -0.007774 0.016501 -0.001100 0.000000 -0.000109 0.000000
# 3 -0.006155 -0.001100 0.017840 0.000000 0.003322 0.000000
# 4 0.000000 0.000000 0.000000 0.086547 0.000000 0.017211
# 5 0.004431 -0.000109 0.003322 0.000000 0.065709 0.000000
# 6 0.000000 0.000000 0.000000 0.017211 0.000000 0.030010
#
#
# Mechanical properties :
#
#
# Convention : Reuss Voigt Hill
#
# Bulk Modulus (GPa) = 50.43816 58.49067 54.46441
# Shear Modulus (GPa) = 18.59998 23.34406 20.97202
#
# Velocity S-wave (km/s) = 3.22717 3.61538 3.42678
# Velocity P-wave (km/s) = 6.49060 7.08368 6.79362
#
# Compressibility (1/GPa) = 0.01982626
#
# Stress axis : x y z
#
# Youngs Moduli (GPa) = 64.33541 60.60328 56.05331
#
# Poissons Ratio (x) = 0.47112 0.34501
# Poissons Ratio (y) = 0.50013 0.06167
# Poissons Ratio (z) = 0.39598 0.06668
#
# Static dielectric constant tensor:
#      x y z
#    x 3.622960 0.000000 -0.057720 
#    y 0.000000 3.417690 0.000000 
#    z -0.057720 0.000000 2.903180 
# 
# 
# High freq. dielectric constant tensor:
#      x y z
#    x 1.708080 0.000000 -0.008390 
#    y 0.000000 1.703840 0.000000 
#    z -0.008390 0.000000 1.635620 
# 
# From -- ./inp_files/83675.got.cif
#   From: 2010.06.25/outbox.cif.g09.slc.cpg/sg12_42_cif.got.tgz:83675.got - 2010.06.28 00:19:55.
