data_PCOD8081107
_publ_section_title
;
Structure prediction by ZEFSAII (Michael W. Deem and Ramdas Pophale) SiO2 
 PCOD8081107
Probable space group: C 2/M
;
_chemical_formula_sum "Si O2"
_cell_formula_units_Z 64
_cell_length_a 24.966473
_cell_length_b 9.109588
_cell_length_c 31.385128
_cell_angle_alpha 90.000000
_cell_angle_beta 151.901505
_cell_angle_gamma 90.000000
_cell_volume 3361.942883
_symmetry_space_group_name_H-M "C 2/M"
_symmetry_group_IT_number 12
_symmetry_cell_setting 'monoclinic'
loop_
_space_group_symop_operation_xyz
x,y,z
-x,y,-z
-x,-y,-z
x,-y,z
1/2+x,1/2+y,z
1/2-x,1/2+y,-z
1/2-x,1/2-y,-z
1/2+x,1/2-y,z
loop_
_atom_site_type_symbol
_atom_site_label
_atom_site_fract_x
_atom_site_fract_y
_atom_site_fract_z
Si Si1 0.342537 0.330669 0.984815
Si Si2 0.248153 0.663739 0.246984
Si Si3 0.104392 0.673139 0.794828
Si Si4 0.424952 0.674849 0.813702
Si Si5 0.107282 0.330009 0.296853
Si Si6 0.440209 0.673997 0.324559
Si Si7 0.623928 0.840106 0.071899
Si Si8 0.696512 0.669957 0.502189
O O1 0.359382 0.500000 0.004678
O O2 0.210648 0.284550 0.901793
O O3 0.348018 0.293695 0.939031
O O4 0.449744 0.258014 0.085251
O O5 0.246382 0.500000 0.266429
O O6 0.175563 0.771146 0.225581
O O7 0.376493 0.717625 0.324832
O O8 0.203022 0.658182 0.167723
O O9 0.106472 0.500000 0.786794
O O10 0.113594 0.755061 0.755950
O O11 0.989690 0.720842 0.738140
O O12 0.423589 0.500000 0.814255
O O13 0.398091 0.728843 0.747973
O O14 0.090593 0.500000 0.272374
O O15 0.229516 0.301206 0.403700
O O16 0.432970 0.500000 0.313026
O O17 0.569510 0.728884 0.421359
O O18 0.631344 0.000000 0.053741
O O19 0.500000 0.806302 0.000000
O O20 0.695905 0.500000 0.489938
O O21 0.750000 0.750000 0.500000
#
# Coordination Sequence:
#
# PCOD8081107 Si02
#       8
#     8   8   8   8   8   8   8   8
#     4  10  21  34  51  79 114 146 184 232 280 325
#     4  10  20  35  55  81 114 150 186 228 277 330
#     4  10  20  35  56  83 114 147 182 226 282 336
#     4  11  24  39  55  78 110 153 197 234 274 325
#     4  10  22  40  59  80 110 149 188 225 276 341
#     4  10  20  34  57  90 119 141 177 230 281 329
#     4  10  18  29  49  77 106 140 186 228 266 320
#     4  10  20  36  61  91 116 141 178 226 282 336
#
# _framework density 19.03661
#
# number of rings (size 3 to 8) (size 9 to 14) (size 15 to 20)
#    0.000    1.875    3.750    0.375    0.000    3.250 
#    0.000    0.625    0.000    3.750    0.000    0.000 
#    0.000    0.000    0.000    0.000    0.000    0.000 
#
# Total GULP energy -396435.720117 kJ/mol
# GULP energy per Si atom -12388.616254 kJ/mol
# Density = 1.899328 g / cm^3
# Si number density = 19.036610 Si / 1000 Ang^3
#
#
#
# Elastic Constant Matrix: (Units=GPa)
#
#
# Indices 1 2 3 4 5 6 
#
# 1 79.9542 30.7089 48.3157 0.0034 9.8413 0.0007
# 2 30.7089 37.2060 35.5495 0.0067 0.0762 0.0009
# 3 48.3157 35.5495 115.2900 0.0178 19.5139 0.0012
# 4 0.0034 0.0067 0.0178 23.8147 0.0000 -1.9789
# 5 9.8413 0.0762 19.5139 0.0000 34.9474 -0.0009
# 6 0.0007 0.0009 0.0012 -1.9789 -0.0009 33.7017
#
#
#
# Elastic Compliance Matrix: (Units=1/GPa)
#
#
# Indices 1 2 3 4 5 6 
#
# 1 0.020295 -0.013021 -0.003896 0.000004 -0.003511 0.000000
# 2 -0.013021 0.048149 -0.011036 -0.000003 0.009724 0.000000
# 3 -0.003896 -0.011036 0.014931 -0.000008 -0.007216 -0.000001
# 4 0.000004 -0.000003 -0.000008 0.042197 0.000003 0.002478
# 5 -0.003511 0.009724 -0.007216 0.000003 0.033611 0.000001
# 6 0.000000 0.000000 -0.000001 0.002478 0.000001 0.029818
#
#
# Mechanical properties :
#
#
# Convention : Reuss Voigt Hill
#
# Bulk Modulus (GPa) = 36.40434 51.28873 43.84654
# Shear Modulus (GPa) = 19.68022 26.35116 23.01569
#
# Velocity S-wave (km/s) = 3.21878 3.72457 3.48087
# Velocity P-wave (km/s) = 5.74273 6.74516 6.26403
#
# Compressibility (1/GPa) = 0.02746925
#
# Stress axis : x y z
#
# Youngs Moduli (GPa) = 49.27377 20.76869 66.97686
#
# Poissons Ratio (x) = 0.27044 0.26092
# Poissons Ratio (y) = 0.64162 0.73913
# Poissons Ratio (z) = 0.19195 0.22920
#
# Static dielectric constant tensor:
#      x y z
#    x 3.488890 0.000000 0.420400 
#    y 0.000000 3.432520 -0.000010 
#    z 0.420400 -0.000010 3.875840 
# 
# 
# High freq. dielectric constant tensor:
#      x y z
#    x 1.728170 0.000000 0.026260 
#    y 0.000000 1.726690 0.000000 
#    z 0.026260 0.000000 1.751390 
# 
# From -- ./inp_files/366042.got.cif
#   From: 2010.06.25/outbox.cif.g09.slc.cpg/sg12_184_cif.got.tgz:366042.got - 2010.06.28 00:19:55.
