data_PCOD8081743
_publ_section_title
;
Structure prediction by ZEFSAII (Michael W. Deem and Ramdas Pophale) SiO2 
 PCOD8081743
Probable space group: C 2/M
;
_chemical_formula_sum "Si O2"
_cell_formula_units_Z 56
_cell_length_a 17.519296
_cell_length_b 18.672101
_cell_length_c 12.612739
_cell_angle_alpha 90.000000
_cell_angle_beta 52.988748
_cell_angle_gamma 90.000000
_cell_volume 3294.606727
_symmetry_space_group_name_H-M "C 2/M"
_symmetry_group_IT_number 12
_symmetry_cell_setting 'monoclinic'
loop_
_space_group_symop_operation_xyz
x,y,z
-x,y,-z
-x,-y,-z
x,-y,z
1/2+x,1/2+y,z
1/2-x,1/2+y,-z
1/2-x,1/2-y,-z
1/2+x,1/2-y,z
loop_
_atom_site_type_symbol
_atom_site_label
_atom_site_fract_x
_atom_site_fract_y
_atom_site_fract_z
Si Si1 0.272697 0.080595 0.303437
Si Si2 0.847209 0.584962 0.855501
Si Si3 0.399319 0.183218 0.631937
Si Si4 0.509728 0.082571 0.876002
Si Si5 0.024564 0.819571 0.355479
Si Si6 0.810780 0.918896 0.852245
Si Si7 0.676835 0.717736 0.480400
O O1 0.381096 0.091852 0.251843
O O2 0.261570 0.088615 0.186183
O O3 0.210070 0.141964 0.406948
O O4 0.238650 0.000000 0.365461
O O5 0.852556 0.500000 0.836642
O O6 0.847130 0.619231 0.737993
O O7 0.938427 0.614677 0.846778
O O8 0.749106 0.608436 0.996062
O O9 0.500000 0.155088 0.500000
O O10 0.416130 0.246464 0.702291
O O11 0.333472 0.218220 0.596171
O O12 0.480049 0.000000 0.913957
O O13 0.500000 0.120008 0.000000
O O14 0.087822 0.879533 0.246369
O O15 0.000000 0.837546 0.500000
O O16 0.924037 0.804081 0.380365
O O17 0.841915 0.000000 0.843657
O O18 0.750000 0.750000 0.500000
#
# Coordination Sequence:
#
# PCOD8081743 Si02
#       7
#     8   8   8   8   8   8   8
#     4  10  18  30  50  78 106 135 174 217 266 314
#     4  10  20  33  52  77 109 148 179 217 269 318
#     4   9  20  36  51  74 103 137 179 222 266 317
#     4   9  16  27  45  74 109 135 165 210 257 308
#     4   9  18  34  49  77 103 133 173 216 267 316
#     4  10  18  31  53  80 108 138 174 219 268 316
#     4  10  21  37  55  72 106 140 174 223 272 318
#
# _framework density 16.997475000000001
#
# number of rings (size 3 to 8) (size 9 to 14) (size 15 to 20)
#    0.000    2.714    4.286    0.000    4.000    1.714 
#    0.000    0.714    0.000    0.000    0.000    2.000 
#    0.000    0.000    0.000    0.000    0.000    0.143 
#
# Total GULP energy -346897.600646 kJ/mol
# GULP energy per Si atom -12389.200023 kJ/mol
# Density = 1.695879 g / cm^3
# Si number density = 16.997475 Si / 1000 Ang^3
#
#
#
# Elastic Constant Matrix: (Units=GPa)
#
#
# Indices 1 2 3 4 5 6 
#
# 1 108.0863 40.7425 42.7015 0.0000 -10.4507 0.0000
# 2 40.7425 66.7635 54.7205 0.0000 -3.3000 0.0000
# 3 42.7015 54.7205 84.9333 0.0000 -8.9635 0.0000
# 4 0.0000 0.0000 0.0000 27.7732 0.0000 -2.0477
# 5 -10.4507 -3.3000 -8.9635 0.0000 18.3100 0.0000
# 6 0.0000 0.0000 0.0000 -2.0477 0.0000 22.6579
#
#
#
# Elastic Compliance Matrix: (Units=1/GPa)
#
#
# Indices 1 2 3 4 5 6 
#
# 1 0.012784 -0.005777 -0.002157 0.000000 0.005200 0.000000
# 2 -0.005777 0.034707 -0.020188 0.000000 -0.006925 0.000000
# 3 -0.002157 -0.020188 0.026732 0.000000 0.008217 0.000000
# 4 0.000000 0.000000 0.000000 0.036248 0.000000 0.003276
# 5 0.005200 -0.006925 0.008217 0.000000 0.060357 0.000000
# 6 0.000000 0.000000 0.000000 0.003276 0.000000 0.044431
#
#
# Mechanical properties :
#
#
# Convention : Reuss Voigt Hill
#
# Bulk Modulus (GPa) = 55.61401 59.56801 57.59101
# Shear Modulus (GPa) = 18.01836 21.85613 19.93724
#
# Velocity S-wave (km/s) = 3.25939 3.58976 3.42856
# Velocity P-wave (km/s) = 6.85236 7.23209 7.04478
#
# Compressibility (1/GPa) = 0.01798108
#
# Stress axis : x y z
#
# Youngs Moduli (GPa) = 78.22119 28.81238 37.40855
#
# Poissons Ratio (x) = 0.16644 0.08069
# Poissons Ratio (y) = 0.45187 0.75519
# Poissons Ratio (z) = 0.16871 0.58165
#
# Static dielectric constant tensor:
#      x y z
#    x 3.114410 0.000000 -0.222780 
#    y 0.000000 3.104070 0.000000 
#    z -0.222780 0.000000 2.862930 
# 
# 
# High freq. dielectric constant tensor:
#      x y z
#    x 1.646160 0.000000 -0.018140 
#    y 0.000000 1.641480 0.000000 
#    z -0.018140 0.000000 1.634510 
# 
# From -- ./inp_files/157721.got.cif
#   From: 2010.06.25/outbox.cif.g09.slc.cpg/sg12_79_cif.got.tgz:157721.got - 2010.06.28 00:19:55.
